REMARK  12 active torsions:
REMARK  status: ('A' for Active; 'I' for Inactive)
REMARK    1  A    between atoms: C19_2  and  C21_3 
REMARK       I    between atoms: C19_2  and  N18_9 
REMARK    2  A    between atoms: N18_9  and  C17_10 
REMARK    3  A    between atoms: C17_10  and  C15_11 
REMARK    4  A    between atoms: C7_20  and  C3_21 
REMARK    5  A    between atoms: C6_25  and  N24_29 
REMARK    6  A    between atoms: C1_26  and  O22_27 
REMARK    7  A    between atoms: O22_27  and  C23_28 
REMARK    8  A    between atoms: N24_29  and  C25_30 
REMARK    9  A    between atoms: C27_34  and  C31_36 
REMARK   10  A    between atoms: C31_36  and  N32_37 
REMARK   11  A    between atoms: N32_37  and  C34_38 
REMARK   12  A    between atoms: N32_37  and  C33_39 
ROOT
ATOM      1  C15 D1Z d   1      28.666  95.458  27.849  0.00  0.00     0.081 C 
ATOM      2  C14 D1Z d   1      27.547  95.566  26.774  0.00  0.00     0.052 C 
ATOM      3  O13 D1Z d   1      27.506  96.963  26.311  0.00  0.00    -0.346 OA
ATOM      4  C12 D1Z d   1      28.629  97.838  26.302  0.00  0.00     0.103 A 
ATOM      5  C10 D1Z d   1      28.600  99.165  25.819  0.00  0.00    -0.048 A 
ATOM      6  C9  D1Z d   1      29.778  99.984  25.787  0.00  0.00    -0.079 A 
ATOM      7  C8  D1Z d   1      30.980  99.455  26.262  0.00  0.00    -0.068 A 
ATOM      8  O16 D1Z d   1      29.863  95.997  27.243  0.00  0.00    -0.338 OA
ATOM      9  C11 D1Z d   1      29.860  97.330  26.774  0.00  0.00     0.115 A 
ATOM     10  C7  D1Z d   1      31.033  98.133  26.790  0.00  0.00     0.029 A 
ATOM     11  H13 D1Z d   1      28.362  96.128  28.667  0.00  0.00     0.089 H 
ATOM     12  H14 D1Z d   1      26.577  95.288  27.213  0.00  0.00     0.079 H 
ATOM     13  H15 D1Z d   1      27.772  94.898  25.930  0.00  0.00     0.079 H 
ATOM     14  H16 D1Z d   1      27.662  99.576  25.463  0.00  0.00     0.087 H 
ATOM     15  H17 D1Z d   1      29.735 100.996  25.401  0.00  0.00     0.083 H 
ATOM     16  H18 D1Z d   1      31.881 100.056  26.229  0.00  0.00     0.085 H 
ENDROOT
BRANCH  10  17
ATOM     17  C3  D1Z d   1      32.323  97.509  27.298  0.00  0.00     0.072 A 
ATOM     18  N2  D1Z d   1      32.334  96.707  28.420  0.00  0.00    -0.222 NA
ATOM     19  C1  D1Z d   1      33.491  96.119  28.891  0.00  0.00     0.192 A 
ATOM     20  C6  D1Z d   1      34.767  96.269  28.273  0.00  0.00     0.086 A 
ATOM     21  C5  D1Z d   1      34.761  97.118  27.119  0.00  0.00    -0.051 A 
ATOM     22  C4  D1Z d   1      33.559  97.692  26.628  0.00  0.00    -0.052 A 
ATOM     23  H20 D1Z d   1      35.695  97.327  26.610  0.00  0.00     0.087 H 
ATOM     24  H19 D1Z d   1      33.587  98.284  25.720  0.00  0.00     0.087 H 
BRANCH  19  25
ATOM     25  O22 D1Z d   1      33.372  95.298  29.979  0.00  0.00    -0.338 OA
BRANCH  25  26
ATOM     26  C23 D1Z d   1      33.096  93.913  29.693  0.00  0.00     0.012 C 
ATOM     27  H21 D1Z d   1      33.022  93.352  30.636  0.00  0.00     0.067 H 
ATOM     28  H22 D1Z d   1      33.909  93.496  29.081  0.00  0.00     0.067 H 
ATOM     29  H23 D1Z d   1      32.146  93.834  29.144  0.00  0.00     0.067 H 
ENDBRANCH  25  26
ENDBRANCH  19  25
BRANCH  20  30
ATOM     30  N24 D1Z d   1      35.827  95.546  28.856  0.00  0.00    -0.353 N 
ATOM     31  H24 D1Z d   1      35.554  95.081  29.734  0.00  0.00     0.166 HD
BRANCH  30  32
ATOM     32  C25 D1Z d   1      37.154  95.316  28.519  0.00  0.00     0.033 A 
ATOM     33  C30 D1Z d   1      37.762  95.695  27.324  0.00  0.00    -0.057 A 
ATOM     34  C29 D1Z d   1      39.120  95.488  27.082  0.00  0.00    -0.080 A 
ATOM     35  H25 D1Z d   1      37.159  96.167  26.556  0.00  0.00     0.086 H 
ATOM     36  C28 D1Z d   1      39.939  94.905  28.020  0.00  0.00    -0.075 A 
ATOM     37  H26 D1Z d   1      39.540  95.794  26.131  0.00  0.00     0.083 H 
ATOM     38  C27 D1Z d   1      39.391  94.485  29.229  0.00  0.00    -0.030 A 
ATOM     39  H27 D1Z d   1      40.996  94.774  27.821  0.00  0.00     0.084 H 
ATOM     40  C26 D1Z d   1      38.010  94.696  29.472  0.00  0.00    -0.050 A 
ATOM     41  H28 D1Z d   1      37.591  94.373  30.418  0.00  0.00     0.087 H 
BRANCH  38  42
ATOM     42  C31 D1Z d   1      40.329  93.844  30.250  0.00  0.00     0.106 C 
ATOM     43  H29 D1Z d   1      39.817  93.845  31.223  0.00  0.00     0.083 H 
ATOM     44  H30 D1Z d   1      41.234  94.466  30.311  0.00  0.00     0.083 H 
BRANCH  42  45
ATOM     45  N32 D1Z d   1      40.758  92.443  29.963  0.00  0.00    -0.075 N 
ATOM     46  H31 D1Z d   1      39.942  91.856  30.044  0.00  0.00     0.279 HD
BRANCH  45  47
ATOM     47  C34 D1Z d   1      41.747  92.036  30.976  0.00  0.00     0.066 C 
ATOM     48  H32 D1Z d   1      42.072  91.004  30.777  0.00  0.00     0.068 H 
ATOM     49  H33 D1Z d   1      41.291  92.090  31.976  0.00  0.00     0.068 H 
ATOM     50  H34 D1Z d   1      42.616  92.710  30.932  0.00  0.00     0.068 H 
ENDBRANCH  45  47
BRANCH  45  51
ATOM     51  C33 D1Z d   1      41.356  92.196  28.626  0.00  0.00     0.066 C 
ATOM     52  H35 D1Z d   1      40.640  92.490  27.844  0.00  0.00     0.068 H 
ATOM     53  H36 D1Z d   1      41.593  91.127  28.522  0.00  0.00     0.068 H 
ATOM     54  H37 D1Z d   1      42.277  92.788  28.521  0.00  0.00     0.068 H 
ENDBRANCH  45  51
ENDBRANCH  42  45
ENDBRANCH  38  42
ENDBRANCH  30  32
ENDBRANCH  20  30
ENDBRANCH  10  17
BRANCH   1  55
ATOM     55  C17 D1Z d   1      28.998  94.105  28.532  0.00  0.00     0.022 C 
ATOM     56  H11 D1Z d   1      30.079  93.927  28.436  0.00  0.00     0.068 H 
ATOM     57  H12 D1Z d   1      28.733  94.183  29.597  0.00  0.00     0.068 H 
BRANCH  55  58
ATOM     58  N18 D1Z d   1      28.295  92.956  27.970  0.00  0.00    -0.358 N 
ATOM     59  C19 D1Z d   1      27.298  92.295  28.413  0.00  0.00     0.222 C 
ATOM     60  O20 D1Z d   1      26.736  92.592  29.461  0.00  0.00    -0.273 OA
ATOM     61  H10 D1Z d   1      28.654  92.634  27.094  0.00  0.00     0.162 HD
BRANCH  59  62
ATOM     62  C21 D1Z d   1      26.819  91.114  27.567  0.00  0.00     0.027 C 
ATOM     63  C39 D1Z d   1      26.996  89.761  28.282  0.00  0.00    -0.034 C 
ATOM     64  C38 D1Z d   1      26.437  88.587  27.459  0.00  0.00     0.020 C 
ATOM     65  H2  D1Z d   1      26.469  89.799  29.247  0.00  0.00     0.037 H 
ATOM     66  H3  D1Z d   1      28.069  89.591  28.457  0.00  0.00     0.037 H 
ATOM     67  O37 D1Z d   1      25.082  88.814  27.033  0.00  0.00    -0.391 OA
ATOM     68  H4  D1Z d   1      26.466  87.677  28.076  0.00  0.00     0.074 H 
ATOM     69  H5  D1Z d   1      27.068  88.447  26.569  0.00  0.00     0.074 H 
ATOM     70  C36 D1Z d   1      24.881  90.044  26.315  0.00  0.00     0.020 C 
ATOM     71  C35 D1Z d   1      25.344  91.242  27.160  0.00  0.00    -0.034 C 
ATOM     72  H6  D1Z d   1      23.812  90.157  26.082  0.00  0.00     0.074 H 
ATOM     73  H7  D1Z d   1      25.459  90.016  25.380  0.00  0.00     0.074 H 
ATOM     74  H8  D1Z d   1      25.215  92.163  26.573  0.00  0.00     0.037 H 
ATOM     75  H9  D1Z d   1      24.727  91.297  28.069  0.00  0.00     0.037 H 
ATOM     76  H1  D1Z d   1      27.428  91.100  26.651  0.00  0.00     0.054 H 
ENDBRANCH  59  62
ENDBRANCH  55  58
ENDBRANCH   1  55
TORSDOF 12
