REMARK  11 active torsions:
REMARK  status: ('A' for Active; 'I' for Inactive)
REMARK    1  A    between atoms: C1_1  and  O3_12 
REMARK    2  A    between atoms: C2_2  and  O2_7 
REMARK    3  A    between atoms: C3_3  and  O3_8 
REMARK    4  A    between atoms: C4_4  and  O4_9 
REMARK    5  A    between atoms: C5_5  and  C6_6 
REMARK    6  A    between atoms: C6_6  and  O6_11 
REMARK    7  A    between atoms: O3_12  and  C3_13 
REMARK    8  A    between atoms: C2_14  and  N2_15 
REMARK    9  A    between atoms: C4_16  and  O4_17 
REMARK   10  A    between atoms: C5_18  and  C6_19 
REMARK   11  A    between atoms: C6_19  and  O6_20 
ROOT
ATOM      1  H12 MAN d   1       3.216  22.096   4.294  0.00  0.00     0.090 H 
ATOM      2  H13 MAN d   1       5.448  22.535   5.305  0.00  0.00     0.090 H 
ATOM      3  H17 MAN d   1       2.769  25.108   4.638  0.00  0.00     0.090 H 
ATOM      4  H19 MAN d   1       2.859  23.507   2.036  0.00  0.00     0.091 H 
ATOM      5  H23 MAN d   1       4.763  25.428   3.219  0.00  0.00     0.277 HD
ATOM      6  H24 MAN d   1       4.933  24.653   1.777  0.00  0.00     0.277 HD
ATOM      7  H25 MAN d   1       5.207  22.544   2.857  0.00  0.00     0.079 H 
ATOM      8  H26 MAN d   1       6.433  23.750   3.376  0.00  0.00     0.079 H 
ATOM      9  C3  G63 d   1       3.414  23.060   4.786  0.00  0.00     0.097 C 
ATOM     10  C2  G63 d   1       4.906  23.350   4.803  0.00  0.00     0.150 C 
ATOM     11  C4  G63 d   1       2.641  24.169   4.080  0.00  0.00     0.092 C 
ATOM     12  C5  G63 d   1       3.113  24.388   2.644  0.00  0.00     0.148 C 
ATOM     13  N7  G63 d   1       4.587  24.570   2.720  0.00  0.00    -0.064 N 
ATOM     14  C1  G63 d   1       5.363  23.493   3.390  0.00  0.00     0.111 C 
ENDROOT
BRANCH   9  15
ATOM     15  O3  G63 d   1       3.007  23.027   6.172  0.00  0.00    -0.348 OA
BRANCH  15  16
ATOM     16  C1  MAN d   1       3.045  21.699   6.709  0.00  0.00     0.159 C 
ATOM     17  C2  MAN d   1       2.078  21.685   7.874  0.00  0.00     0.110 C 
ATOM     18  C3  MAN d   1       2.613  22.427   9.092  0.00  0.00     0.092 C 
ATOM     19  H2  MAN d   1       1.127  22.142   7.565  0.00  0.00     0.094 H 
ATOM     20  C4  MAN d   1       4.020  21.941   9.441  0.00  0.00     0.090 C 
ATOM     21  H3  MAN d   1       2.663  23.500   8.857  0.00  0.00     0.091 H 
ATOM     22  C5  MAN d   1       4.895  22.116   8.222  0.00  0.00     0.089 C 
ATOM     23  H4  MAN d   1       4.001  20.886   9.753  0.00  0.00     0.091 H 
ATOM     24  O5  MAN d   1       4.355  21.321   7.142  0.00  0.00    -0.348 OA
ATOM     25  H5  MAN d   1       4.940  23.179   7.942  0.00  0.00     0.090 H 
ATOM     26  H1  MAN d   1       2.712  20.986   5.941  0.00  0.00     0.133 H 
BRANCH  17  27
ATOM     27  O2  MAN d   1       1.876  20.315   8.225  0.00  0.00    -0.388 OA
ATOM     28  H8  MAN d   1       2.702  19.934   8.498  0.00  0.00     0.210 HD
ENDBRANCH  17  27
BRANCH  18  29
ATOM     29  O3  MAN d   1       1.717  22.240  10.202  0.00  0.00    -0.390 OA
ATOM     30  H9  MAN d   1       2.034  22.732  10.950  0.00  0.00     0.210 HD
ENDBRANCH  18  29
BRANCH  20  31
ATOM     31  O4  MAN d   1       4.524  22.770  10.500  0.00  0.00    -0.390 OA
ATOM     32  H10 MAN d   1       5.415  22.513  10.705  0.00  0.00     0.210 HD
ENDBRANCH  20  31
BRANCH  22  33
ATOM     33  C6  MAN d   1       6.296  21.574   8.485  0.00  0.00     0.043 C 
ATOM     34  H6  MAN d   1       6.228  20.501   8.716  0.00  0.00     0.078 H 
ATOM     35  H7  MAN d   1       6.732  22.107   9.343  0.00  0.00     0.078 H 
BRANCH  33  36
ATOM     36  O6  MAN d   1       7.142  21.753   7.347  0.00  0.00    -0.398 OA
ATOM     37  H11 MAN d   1       7.208  22.679   7.145  0.00  0.00     0.209 HD
ENDBRANCH  33  36
ENDBRANCH  22  33
ENDBRANCH  15  16
ENDBRANCH   9  15
BRANCH  10  38
ATOM     38  N2  G63 d   1       5.154  24.647   5.503  0.00  0.00    -0.071 N 
ATOM     39  H14 MAN d   1       6.144  24.839   5.514  0.00  0.00     0.274 HD
ATOM     40  H15 MAN d   1       4.812  24.589   6.450  0.00  0.00     0.274 HD
ATOM     41  H16 MAN d   1       4.673  25.388   5.018  0.00  0.00     0.274 HD
ENDBRANCH  10  38
BRANCH  11  42
ATOM     42  O4  G63 d   1       1.252  23.788   4.085  0.00  0.00    -0.391 OA
ATOM     43  H18 MAN d   1       0.739  24.460   3.651  0.00  0.00     0.210 HD
ENDBRANCH  11  42
BRANCH  12  44
ATOM     44  C6  G63 d   1       2.530  25.642   1.984  0.00  0.00     0.046 C 
ATOM     45  H20 MAN d   1       1.438  25.536   1.910  0.00  0.00     0.077 H 
ATOM     46  H21 MAN d   1       2.957  25.752   0.976  0.00  0.00     0.077 H 
BRANCH  44  47
ATOM     47  O6  G63 d   1       2.842  26.823   2.764  0.00  0.00    -0.399 OA
ATOM     48  H22 MAN d   1       3.785  26.919   2.828  0.00  0.00     0.209 HD
ENDBRANCH  44  47
ENDBRANCH  12  44
TORSDOF 11
