REMARK  4 active torsions:
REMARK  status: ('A' for Active; 'I' for Inactive)
REMARK    1  A    between atoms: N1_6  and  C4_1 
REMARK    2  A    between atoms: C7_4  and  C8_5 
REMARK       I    between atoms: C7_4  and  N1_6 
REMARK    3  A    between atoms: C8_5  and  N2_7 
REMARK    4  A    between atoms: C1_11  and  N3_9 
ROOT
ATOM      1  C4  D3H d   1      36.402  19.445  52.455  0.00  0.00     0.034 A 
ATOM      2  C5  D3H d   1      37.102  20.625  52.714  0.00  0.00    -0.055 A 
ATOM      3  C6  D3H d   1      36.469  21.688  53.356  0.00  0.00    -0.056 A 
ATOM      4  C3  D3H d   1      35.076  19.328  52.867  0.00  0.00    -0.055 A 
ATOM      5  C2  D3H d   1      34.444  20.390  53.511  0.00  0.00    -0.056 A 
ATOM      6  C1  D3H d   1      35.140  21.572  53.758  0.00  0.00     0.025 A 
ATOM      7  H1  D3H d   1      38.140  20.715  52.415  0.00  0.00     0.087 H 
ATOM      8  H2  D3H d   1      37.012  22.607  53.543  0.00  0.00     0.087 H 
ATOM      9  H9  D3H d   1      34.534  18.407  52.686  0.00  0.00     0.087 H 
ATOM     10  H12 D3H d   1      33.409  20.297  53.820  0.00  0.00     0.087 H 
ENDROOT
BRANCH   1  11
ATOM     11  N1  D3H d   1      37.000  18.409  51.854  0.00  0.00    -0.326 N 
ATOM     12  C7  D3H d   1      37.449  18.574  50.594  0.00  0.00     0.247 C 
ATOM     13  O1  D3H d   1      37.379  19.625  49.959  0.00  0.00    -0.271 OA
ATOM     14  H5  D3H d   1      37.111  17.535  52.328  0.00  0.00     0.169 HD
BRANCH  12  15
ATOM     15  C8  D3H d   1      38.109  17.331  49.982  0.00  0.00     0.152 C 
ATOM     16  H3  D3H d   1      37.523  16.440  50.250  0.00  0.00     0.090 H 
ATOM     17  H4  D3H d   1      39.130  17.231  50.378  0.00  0.00     0.090 H 
BRANCH  15  18
ATOM     18  N2  D3H d   1      38.166  17.452  48.514  0.00  0.00    -0.071 N 
ATOM     19  H6  D3H d   1      38.601  16.630  48.126  0.00  0.00     0.274 HD
ATOM     20  H7  D3H d   1      38.705  18.267  48.265  0.00  0.00     0.274 HD
ATOM     21  H8  D3H d   1      37.231  17.542  48.148  0.00  0.00     0.274 HD
ENDBRANCH  15  18
ENDBRANCH  12  15
ENDBRANCH   1  11
BRANCH   6  22
ATOM     22  N3  D3H d   1      34.538  22.586  54.375  0.00  0.00    -0.399 N 
ATOM     23  H10 D3H d   1      33.556  22.498  54.671  0.00  0.00     0.156 HD
ATOM     24  H11 D3H d   1      35.055  23.459  54.556  0.00  0.00     0.156 HD
ENDBRANCH   6  22
TORSDOF 4
