REMARK  32 active torsions:
REMARK  status: ('A' for Active; 'I' for Inactive)
REMARK    1  A    between atoms: C_1  and  CH3_3 
REMARK       I    between atoms: N_4  and  C_1 
REMARK    2  A    between atoms: CA_5  and  N_4 
REMARK    3  A    between atoms: C_6  and  CA_5 
REMARK    4  A    between atoms: CA_5  and  CB_8 
REMARK       I    between atoms: N_15  and  C_6 
REMARK    5  A    between atoms: CB_8  and  CG_9 
REMARK    6  A    between atoms: CG_9  and  CD_10 
REMARK    7  A    between atoms: CD_10  and  NE_11 
REMARK       I    between atoms: NE_11  and  CZ_12 
REMARK       I    between atoms: CZ_12  and  NH1_13 
REMARK    8  A    between atoms: CA_16  and  N_15 
REMARK    9  A    between atoms: C_17  and  CA_16 
REMARK   10  A    between atoms: CA_16  and  CB_19 
REMARK       I    between atoms: N_22  and  C_17 
REMARK   11  A    between atoms: CB_19  and  OG1_20 
REMARK   12  A    between atoms: CB_19  and  CG2_21 
REMARK   13  A    between atoms: C_24  and  CA_23 
REMARK       I    between atoms: N_29  and  C_24 
REMARK   14  A    between atoms: CA_30  and  N_29 
REMARK   15  A    between atoms: CA_30  and  CB_31 
REMARK   16  A    between atoms: C_33  and  CA_30 
REMARK   17  A    between atoms: CB_31  and  OG_32 
REMARK   18  A    between atoms: OG_32  and  P_35 
REMARK       I    between atoms: N_39  and  C_33 
REMARK   19  A    between atoms: CA_40  and  N_39 
REMARK   20  A    between atoms: C_41  and  CA_40 
REMARK   21  A    between atoms: CA_40  and  CB_43 
REMARK       I    between atoms: N_47  and  C_41 
REMARK   22  A    between atoms: CB_43  and  CG_44 
REMARK   23  A    between atoms: CG_44  and  CD1_45 
REMARK   24  A    between atoms: CG_44  and  CD2_46 
REMARK   25  A    between atoms: C_49  and  CA_48 
REMARK       I    between atoms: N_54  and  C_49 
REMARK   26  A    between atoms: CA_55  and  N_54 
REMARK   27  A    between atoms: C_56  and  CA_55 
REMARK       I    between atoms: N17_76  and  C_56 
REMARK   28  A    between atoms: C09_70  and  C10_59 
REMARK   29  A    between atoms: O02_77  and  C01_63 
REMARK   30  A    between atoms: C03_64  and  O02_77 
REMARK   31  A    between atoms: C09_70  and  C08_69 
REMARK   32  A    between atoms: C16_72  and  C09_70 
ROOT
ATOM      1  CA  LEU d   1      13.274 -11.179 -10.218  0.00  0.00     0.090 C 
ATOM      2  H36 LEU d   1      13.134 -11.979 -10.960  0.00  0.00     0.087 H 
ENDROOT
BRANCH   1   3
ATOM      3  N   LEU d   1      14.670 -10.769 -10.208  0.00  0.00    -0.346 N 
ATOM      4  C   SEP d   1      15.247 -10.259 -11.288  0.00  0.00     0.243 C 
ATOM      5  O   SEP d   1      14.638 -10.095 -12.336  0.00  0.00    -0.271 OA
ATOM      6  H35 LEU d   1      15.205 -10.874  -9.370  0.00  0.00     0.163 HD
BRANCH   4   7
ATOM      7  CA  SEP d   1      16.730  -9.882 -11.177  0.00  0.00     0.110 C 
ATOM      8  H32 SEP d   1      17.315 -10.789 -10.966  0.00  0.00     0.090 H 
BRANCH   7   9
ATOM      9  N   SEP d   1      17.181  -9.301 -12.436  0.00  0.00    -0.344 N 
ATOM     10  C   PRO d   1      17.815 -10.007 -13.363  0.00  0.00     0.241 C 
ATOM     11  O   PRO d   1      18.152 -11.182 -13.181  0.00  0.00    -0.271 OA
ATOM     12  H31 SEP d   1      17.005  -8.332 -12.607  0.00  0.00     0.163 HD
BRANCH  10  13
ATOM     13  CA  PRO d   1      18.104  -9.256 -14.679  0.00  0.00     0.091 C 
ATOM     14  N   PRO d   1      19.446  -9.456 -15.262  0.00  0.00    -0.337 N 
ATOM     15  C   THR d   1      20.524  -8.942 -14.646  0.00  0.00     0.245 C 
ATOM     16  CD  PRO d   1      19.393 -10.044 -16.612  0.00  0.00    -0.001 C 
ATOM     17  O   THR d   1      20.414  -8.312 -13.590  0.00  0.00    -0.271 OA
ATOM     18  CG  PRO d   1      17.957  -9.908 -16.998  0.00  0.00    -0.048 C 
ATOM     19  H29 PRO d   1      19.696 -11.101 -16.592  0.00  0.00     0.064 H 
ATOM     20  H30 PRO d   1      20.041  -9.490 -17.307  0.00  0.00     0.064 H 
ATOM     21  CB  PRO d   1      17.153  -9.759 -15.782  0.00  0.00    -0.036 C 
ATOM     22  H27 PRO d   1      17.828  -9.022 -17.637  0.00  0.00     0.035 H 
ATOM     23  H28 PRO d   1      17.635 -10.806 -17.546  0.00  0.00     0.035 H 
ATOM     24  H25 PRO d   1      16.346  -9.030 -15.948  0.00  0.00     0.036 H 
ATOM     25  H26 PRO d   1      16.718 -10.728 -15.495  0.00  0.00     0.036 H 
ATOM     26  H24 PRO d   1      17.948  -8.182 -14.497  0.00  0.00     0.087 H 
BRANCH  15  27
ATOM     27  CA  THR d   1      21.910  -9.220 -15.229  0.00  0.00     0.114 C 
ATOM     28  H18 THR d   1      21.816  -9.566 -16.269  0.00  0.00     0.091 H 
BRANCH  27  29
ATOM     29  N   THR d   1      22.707  -8.002 -15.193  0.00  0.00    -0.344 N 
ATOM     30  C   ARG d   1      22.273  -6.882 -15.765  0.00  0.00     0.241 C 
ATOM     31  O   ARG d   1      21.270  -6.839 -16.488  0.00  0.00    -0.271 OA
ATOM     32  H17 THR d   1      23.594  -8.007 -14.731  0.00  0.00     0.163 HD
BRANCH  30  33
ATOM     33  CA  ARG d   1      23.111  -5.622 -15.496  0.00  0.00     0.089 C 
ATOM     34  H5  ARG d   1      24.175  -5.889 -15.575  0.00  0.00     0.087 H 
BRANCH  33  35
ATOM     35  N   ARG d   1      22.833  -4.575 -16.470  0.00  0.00    -0.348 N 
ATOM     36  C   ACE d   1      23.112  -4.752 -17.761  0.00  0.00     0.214 C 
ATOM     37  O   ACE d   1      23.607  -5.804 -18.173  0.00  0.00    -0.274 OA
ATOM     38  H4  ARG d   1      22.428  -3.713 -16.166  0.00  0.00     0.163 HD
BRANCH  36  39
ATOM     39  CH3 ACE d   1      22.782  -3.605 -18.676  0.00  0.00    -0.003 C 
ATOM     40  H1  ACE d   1      22.353  -2.780 -18.089  0.00  0.00     0.040 H 
ATOM     41  H2  ACE d   1      22.053  -3.936 -19.430  0.00  0.00     0.040 H 
ATOM     42  H3  ACE d   1      23.698  -3.261 -19.178  0.00  0.00     0.040 H 
ENDBRANCH  36  39
ENDBRANCH  33  35
BRANCH  33  43
ATOM     43  CB  ARG d   1      22.837  -5.122 -14.068  0.00  0.00    -0.036 C 
ATOM     44  H6  ARG d   1      22.768  -6.003 -13.413  0.00  0.00     0.036 H 
ATOM     45  H7  ARG d   1      21.871  -4.596 -14.078  0.00  0.00     0.036 H 
BRANCH  43  46
ATOM     46  CG  ARG d   1      23.886  -4.165 -13.459  0.00  0.00    -0.048 C 
ATOM     47  H8  ARG d   1      23.695  -3.142 -13.814  0.00  0.00     0.035 H 
ATOM     48  H9  ARG d   1      24.892  -4.480 -13.772  0.00  0.00     0.035 H 
BRANCH  46  49
ATOM     49  CD  ARG d   1      23.797  -4.197 -11.923  0.00  0.00     0.009 C 
ATOM     50  H10 ARG d   1      24.192  -5.165 -11.581  0.00  0.00     0.064 H 
ATOM     51  H11 ARG d   1      22.736  -4.114 -11.644  0.00  0.00     0.064 H 
BRANCH  49  52
ATOM     52  NE  ARG d   1      24.531  -3.139 -11.223  0.00  0.00    -0.227 N 
ATOM     53  CZ  ARG d   1      25.799  -3.226 -10.825  0.00  0.00     0.665 C 
ATOM     54  NH1 ARG d   1      26.363  -2.219 -10.172  0.00  0.00    -0.235 N 
ATOM     55  NH2 ARG d   1      26.515  -4.313 -11.083  0.00  0.00    -0.235 N 
ATOM     56  H13 ARG d   1      27.344  -2.289  -9.865  0.00  0.00     0.174 HD
ATOM     57  H14 ARG d   1      25.820  -1.367  -9.971  0.00  0.00     0.174 HD
ATOM     58  H15 ARG d   1      26.089  -5.102 -11.589  0.00  0.00     0.174 HD
ATOM     59  H16 ARG d   1      27.497  -4.368 -10.777  0.00  0.00     0.174 HD
ATOM     60  H12 ARG d   1      24.028  -2.262 -11.024  0.00  0.00     0.177 HD
ENDBRANCH  49  52
ENDBRANCH  46  49
ENDBRANCH  43  46
ENDBRANCH  33  43
ENDBRANCH  30  33
ENDBRANCH  27  29
BRANCH  27  61
ATOM     61  CB  THR d   1      22.569 -10.310 -14.378  0.00  0.00     0.060 C 
ATOM     62  H19 THR d   1      22.575  -9.982 -13.328  0.00  0.00     0.086 H 
BRANCH  61  63
ATOM     63  OG1 THR d   1      23.918 -10.532 -14.804  0.00  0.00    -0.393 OA
ATOM     64  H20 THR d   1      24.414  -9.727 -14.713  0.00  0.00     0.210 HD
ENDBRANCH  61  63
BRANCH  61  65
ATOM     65  CG2 THR d   1      21.791 -11.612 -14.484  0.00  0.00    -0.050 C 
ATOM     66  H21 THR d   1      22.278 -12.382 -13.867  0.00  0.00     0.031 H 
ATOM     67  H22 THR d   1      21.770 -11.942 -15.533  0.00  0.00     0.031 H 
ATOM     68  H23 THR d   1      20.762 -11.454 -14.128  0.00  0.00     0.031 H 
ENDBRANCH  61  65
ENDBRANCH  27  61
ENDBRANCH  15  27
ENDBRANCH  10  13
ENDBRANCH   7   9
BRANCH   7  69
ATOM     69  CB  SEP d   1      16.946  -8.878 -10.048  0.00  0.00     0.059 C 
ATOM     70  H33 SEP d   1      18.016  -8.638  -9.960  0.00  0.00     0.079 H 
ATOM     71  H34 SEP d   1      16.585  -9.299  -9.098  0.00  0.00     0.079 H 
BRANCH  69  72
ATOM     72  OG  SEP d   1      16.213  -7.707 -10.366  0.00  0.00    -0.280 OA
BRANCH  72  73
ATOM     73  P   SEP d   1      16.450  -6.410  -9.456  0.00  0.00     0.422 P 
ATOM     74  O1P SEP d   1      15.461  -5.363 -10.043  0.00  0.00    -0.617 OA
ATOM     75  O2P SEP d   1      17.941  -5.996  -9.638  0.00  0.00    -0.617 OA
ATOM     76  O3P SEP d   1      16.111  -6.794  -7.983  0.00  0.00    -0.617 OA
ENDBRANCH  72  73
ENDBRANCH  69  72
ENDBRANCH   7  69
ENDBRANCH   4   7
ENDBRANCH   1   3
BRANCH   1  77
ATOM     77  C   LEU d   1      12.394  -9.985 -10.595  0.00  0.00     0.243 C 
ATOM     78  O   LEU d   1      12.515  -8.930  -9.997  0.00  0.00    -0.271 OA
ATOM     79  N   PRO d   1      11.493 -10.148 -11.558  0.00  0.00    -0.337 N 
ATOM     80  CA  PRO d   1      10.681  -9.012 -12.021  0.00  0.00     0.091 C 
ATOM     81  CD  PRO d   1      11.326 -11.319 -12.429  0.00  0.00    -0.001 C 
ATOM     82  CB  PRO d   1      10.350  -9.410 -13.460  0.00  0.00    -0.036 C 
ATOM     83  H46 PRO d   1      11.271  -8.084 -12.001  0.00  0.00     0.087 H 
ATOM     84  CG  PRO d   1      10.246 -10.893 -13.390  0.00  0.00    -0.048 C 
ATOM     85  H47 PRO d   1      11.152  -9.103 -14.148  0.00  0.00     0.036 H 
ATOM     86  H48 PRO d   1       9.398  -8.963 -13.783  0.00  0.00     0.036 H 
ATOM     87  H49 PRO d   1      10.414 -11.339 -14.382  0.00  0.00     0.035 H 
ATOM     88  H50 PRO d   1       9.256 -11.193 -13.016  0.00  0.00     0.035 H 
ATOM     89  H51 PRO d   1      11.011 -12.199 -11.849  0.00  0.00     0.064 H 
ATOM     90  H52 PRO d   1      12.260 -11.548 -12.963  0.00  0.00     0.064 H 
BRANCH  80  91
ATOM     91  C   PRO d   1       9.420  -8.806 -11.186  0.00  0.00     0.241 C 
ATOM     92  O   PRO d   1       8.336  -8.531 -11.708  0.00  0.00    -0.271 OA
ATOM     93  N   GLY d   1       9.572  -8.879  -9.876  0.00  0.00    -0.351 N 
ATOM     94  H53 GLY d   1      10.497  -8.960  -9.505  0.00  0.00     0.163 HD
BRANCH  93  95
ATOM     95  CA  GLY d   1       8.461  -8.846  -8.961  0.00  0.00     0.069 C 
ATOM     96  H54 GLY d   1       7.628  -9.445  -9.357  0.00  0.00     0.078 H 
ATOM     97  H55 GLY d   1       8.127  -7.809  -8.809  0.00  0.00     0.078 H 
BRANCH  95  98
ATOM     98  C   GLY d   1       8.944  -9.428  -7.663  0.00  0.00     0.237 C 
ATOM     99  O   GLY d   1      10.136  -9.557  -7.455  0.00  0.00    -0.272 OA
ATOM    100  N17 D3W d   1       7.928  -9.784  -6.732  0.00  0.00    -0.345 N 
ATOM    101  C16 D3W d   1       6.620  -9.578  -6.764  0.00  0.00     0.026 C 
ATOM    102  C18 D3W d   1       8.391 -10.048  -5.200  0.00  0.00    -0.002 C 
ATOM    103  C20 D3W d   1       6.284  -9.067  -5.303  0.00  0.00    -0.044 C 
ATOM    104  H69 GLY d   1       6.353  -8.827  -7.522  0.00  0.00     0.074 H 
ATOM    105  C19 D3W d   1       7.280  -9.842  -4.448  0.00  0.00    -0.048 C 
ATOM    106  H74 GLY d   1       5.248  -9.310  -5.025  0.00  0.00     0.036 H 
ATOM    107  H75 GLY d   1       6.443  -7.982  -5.214  0.00  0.00     0.036 H 
ATOM    108  H72 GLY d   1       7.537  -9.260  -3.550  0.00  0.00     0.035 H 
ATOM    109  H73 GLY d   1       6.846 -10.807  -4.148  0.00  0.00     0.035 H 
ATOM    110  H70 GLY d   1       8.752 -11.080  -5.079  0.00  0.00     0.064 H 
ATOM    111  H71 GLY d   1       9.187  -9.345  -4.912  0.00  0.00     0.064 H 
BRANCH 101 112
ATOM    112  C09 D3W d   1       5.854 -10.932  -7.050  0.00  0.00     0.019 C 
ATOM    113  H67 GLY d   1       6.106 -11.635  -6.242  0.00  0.00     0.058 H 
BRANCH 112 114
ATOM    114  C10 D3W d   1       6.358 -11.543  -8.353  0.00  0.00    -0.048 A 
ATOM    115  C11 D3W d   1       5.815 -11.154  -9.584  0.00  0.00    -0.076 A 
ATOM    116  C12 D3W d   1       6.332 -11.707 -10.769  0.00  0.00    -0.082 A 
ATOM    117  H58 GLY d   1       5.005 -10.434  -9.623  0.00  0.00     0.084 H 
ATOM    118  C13 D3W d   1       7.354 -12.636 -10.711  0.00  0.00    -0.083 A 
ATOM    119  H59 GLY d   1       5.929 -11.405 -11.729  0.00  0.00     0.083 H 
ATOM    120  C14 D3W d   1       7.892 -13.021  -9.490  0.00  0.00    -0.082 A 
ATOM    121  H57 GLY d   1       7.739 -13.068 -11.627  0.00  0.00     0.083 H 
ATOM    122  C15 D3W d   1       7.394 -12.457  -8.294  0.00  0.00    -0.076 A 
ATOM    123  H56 GLY d   1       8.692 -13.752  -9.455  0.00  0.00     0.083 H 
ATOM    124  H68 GLY d   1       7.821 -12.739  -7.338  0.00  0.00     0.084 H 
ENDBRANCH 112 114
BRANCH 112 125
ATOM    125  C08 D3W d   1       4.354 -10.735  -7.010  0.00  0.00    -0.014 A 
ATOM    126  C03 D3W d   1       3.588 -11.820  -6.646  0.00  0.00     0.075 A 
ATOM    127  C04 D3W d   1       2.183 -11.734  -6.566  0.00  0.00    -0.050 A 
ATOM    128  C05 D3W d   1       1.572 -10.527  -6.862  0.00  0.00    -0.080 A 
ATOM    129  H63 GLY d   1       1.592 -12.596  -6.278  0.00  0.00     0.087 H 
ATOM    130  C06 D3W d   1       2.331  -9.425  -7.233  0.00  0.00    -0.082 A 
ATOM    131  H64 GLY d   1       0.493 -10.442  -6.804  0.00  0.00     0.083 H 
ATOM    132  C07 D3W d   1       3.733  -9.532  -7.314  0.00  0.00    -0.073 A 
ATOM    133  H65 GLY d   1       1.845  -8.483  -7.460  0.00  0.00     0.083 H 
ATOM    134  H66 GLY d   1       4.326  -8.676  -7.614  0.00  0.00     0.084 H 
BRANCH 126 135
ATOM    135  O02 D3W d   1       4.282 -13.021  -6.349  0.00  0.00    -0.355 OA
BRANCH 135 136
ATOM    136  C01 D3W d   1       3.561 -14.019  -5.682  0.00  0.00     0.010 C 
ATOM    137  H60 GLY d   1       4.211 -14.890  -5.514  0.00  0.00     0.066 H 
ATOM    138  H61 GLY d   1       2.697 -14.318  -6.294  0.00  0.00     0.066 H 
ATOM    139  H62 GLY d   1       3.209 -13.632  -4.714  0.00  0.00     0.066 H 
ENDBRANCH 135 136
ENDBRANCH 126 135
ENDBRANCH 112 125
ENDBRANCH 101 112
ENDBRANCH  95  98
ENDBRANCH  93  95
ENDBRANCH  80  91
ENDBRANCH   1  77
BRANCH   1 140
ATOM    140  CB  LEU d   1      12.893 -11.705  -8.838  0.00  0.00    -0.035 C 
ATOM    141  H37 LEU d   1      12.812 -10.837  -8.168  0.00  0.00     0.037 H 
ATOM    142  H38 LEU d   1      13.712 -12.356  -8.498  0.00  0.00     0.037 H 
BRANCH 140 143
ATOM    143  CG  LEU d   1      11.598 -12.500  -8.709  0.00  0.00    -0.059 C 
ATOM    144  H39 LEU d   1      10.794 -11.914  -9.178  0.00  0.00     0.038 H 
BRANCH 143 145
ATOM    145  CD1 LEU d   1      11.673 -13.832  -9.416  0.00  0.00    -0.073 C 
ATOM    146  H40 LEU d   1      10.719 -14.366  -9.295  0.00  0.00     0.028 H 
ATOM    147  H41 LEU d   1      12.486 -14.432  -8.982  0.00  0.00     0.028 H 
ATOM    148  H42 LEU d   1      11.868 -13.669 -10.486  0.00  0.00     0.028 H 
ENDBRANCH 143 145
BRANCH 143 149
ATOM    149  CD2 LEU d   1      11.246 -12.699  -7.231  0.00  0.00    -0.073 C 
ATOM    150  H43 LEU d   1      11.195 -11.720  -6.731  0.00  0.00     0.028 H 
ATOM    151  H44 LEU d   1      12.019 -13.317  -6.750  0.00  0.00     0.028 H 
ATOM    152  H45 LEU d   1      10.271 -13.203  -7.151  0.00  0.00     0.028 H 
ENDBRANCH 143 149
ENDBRANCH 140 143
ENDBRANCH   1 140
TORSDOF 32
