REMARK  32 active torsions:
REMARK  status: ('A' for Active; 'I' for Inactive)
REMARK    1  A    between atoms: C_1  and  CH3_3 
REMARK       I    between atoms: N_4  and  C_1 
REMARK    2  A    between atoms: CA_5  and  N_4 
REMARK    3  A    between atoms: C_6  and  CA_5 
REMARK    4  A    between atoms: CA_5  and  CB_8 
REMARK       I    between atoms: N_15  and  C_6 
REMARK    5  A    between atoms: CB_8  and  CG_9 
REMARK    6  A    between atoms: CG_9  and  CD_10 
REMARK    7  A    between atoms: CD_10  and  NE_11 
REMARK       I    between atoms: NE_11  and  CZ_12 
REMARK       I    between atoms: CZ_12  and  NH1_13 
REMARK    8  A    between atoms: CA_16  and  N_15 
REMARK    9  A    between atoms: C_17  and  CA_16 
REMARK   10  A    between atoms: CA_16  and  CB_19 
REMARK       I    between atoms: N_22  and  C_17 
REMARK   11  A    between atoms: CB_19  and  OG1_20 
REMARK   12  A    between atoms: CB_19  and  CG2_21 
REMARK   13  A    between atoms: C_24  and  CA_23 
REMARK       I    between atoms: N_29  and  C_24 
REMARK   14  A    between atoms: CA_30  and  N_29 
REMARK   15  A    between atoms: CA_30  and  CB_31 
REMARK   16  A    between atoms: C_33  and  CA_30 
REMARK   17  A    between atoms: CB_31  and  OG_32 
REMARK   18  A    between atoms: OG_32  and  P_35 
REMARK       I    between atoms: N_39  and  C_33 
REMARK   19  A    between atoms: CA_40  and  N_39 
REMARK   20  A    between atoms: C_41  and  CA_40 
REMARK   21  A    between atoms: CA_40  and  CB_43 
REMARK       I    between atoms: N_47  and  C_41 
REMARK   22  A    between atoms: CB_43  and  CG_44 
REMARK   23  A    between atoms: CG_44  and  CD1_45 
REMARK   24  A    between atoms: CG_44  and  CD2_46 
REMARK   25  A    between atoms: C_49  and  CA_48 
REMARK       I    between atoms: N_54  and  C_49 
REMARK   26  A    between atoms: CA_55  and  N_54 
REMARK   27  A    between atoms: C_56  and  CA_55 
REMARK       I    between atoms: N16_76  and  C_56 
REMARK   28  A    between atoms: C15_61  and  C08_68 
REMARK   29  A    between atoms: O02_77  and  C01_62 
REMARK   30  A    between atoms: C03_63  and  O02_77 
REMARK   31  A    between atoms: C08_68  and  C07_67 
REMARK   32  A    between atoms: C08_68  and  C09_69 
ROOT
ATOM      1  CA  LEU d   1      13.302 -11.107 -10.282  0.00  0.00     0.090 C 
ATOM      2  H36 LEU d   1      13.159 -11.900 -11.031  0.00  0.00     0.087 H 
ENDROOT
BRANCH   1   3
ATOM      3  N   LEU d   1      14.710 -10.694 -10.266  0.00  0.00    -0.346 N 
ATOM      4  C   SEP d   1      15.286 -10.179 -11.341  0.00  0.00     0.243 C 
ATOM      5  O   SEP d   1      14.666 -10.005 -12.388  0.00  0.00    -0.271 OA
ATOM      6  H35 LEU d   1      15.244 -10.804  -9.428  0.00  0.00     0.163 HD
BRANCH   4   7
ATOM      7  CA  SEP d   1      16.770  -9.815 -11.247  0.00  0.00     0.110 C 
ATOM      8  H32 SEP d   1      17.354 -10.723 -11.036  0.00  0.00     0.090 H 
BRANCH   7   9
ATOM      9  N   SEP d   1      17.211  -9.238 -12.505  0.00  0.00    -0.344 N 
ATOM     10  C   PRO d   1      17.859  -9.942 -13.424  0.00  0.00     0.241 C 
ATOM     11  O   PRO d   1      18.188 -11.112 -13.229  0.00  0.00    -0.271 OA
ATOM     12  H31 SEP d   1      17.019  -8.273 -12.685  0.00  0.00     0.163 HD
BRANCH  10  13
ATOM     13  CA  PRO d   1      18.155  -9.206 -14.756  0.00  0.00     0.091 C 
ATOM     14  N   PRO d   1      19.484  -9.429 -15.341  0.00  0.00    -0.337 N 
ATOM     15  C   THR d   1      20.556  -8.914 -14.719  0.00  0.00     0.245 C 
ATOM     16  CD  PRO d   1      19.413 -10.031 -16.681  0.00  0.00    -0.001 C 
ATOM     17  O   THR d   1      20.431  -8.255 -13.682  0.00  0.00    -0.271 OA
ATOM     18  CG  PRO d   1      18.001  -9.772 -17.093  0.00  0.00    -0.048 C 
ATOM     19  H29 PRO d   1      19.621 -11.110 -16.641  0.00  0.00     0.064 H 
ATOM     20  H30 PRO d   1      20.121  -9.546 -17.370  0.00  0.00     0.064 H 
ATOM     21  CB  PRO d   1      17.198  -9.700 -15.863  0.00  0.00    -0.036 C 
ATOM     22  H27 PRO d   1      17.937  -8.821 -17.642  0.00  0.00     0.035 H 
ATOM     23  H28 PRO d   1      17.639 -10.590 -17.733  0.00  0.00     0.035 H 
ATOM     24  H25 PRO d   1      16.365  -8.993 -15.992  0.00  0.00     0.036 H 
ATOM     25  H26 PRO d   1      16.800 -10.693 -15.608  0.00  0.00     0.036 H 
ATOM     26  H24 PRO d   1      18.015  -8.129 -14.582  0.00  0.00     0.087 H 
BRANCH  15  27
ATOM     27  CA  THR d   1      21.945  -9.193 -15.290  0.00  0.00     0.114 C 
ATOM     28  H18 THR d   1      21.860  -9.545 -16.329  0.00  0.00     0.091 H 
BRANCH  27  29
ATOM     29  N   THR d   1      22.745  -7.980 -15.248  0.00  0.00    -0.344 N 
ATOM     30  C   ARG d   1      22.379  -6.885 -15.904  0.00  0.00     0.241 C 
ATOM     31  O   ARG d   1      21.456  -6.866 -16.721  0.00  0.00    -0.271 OA
ATOM     32  H17 THR d   1      23.590  -7.970 -14.713  0.00  0.00     0.163 HD
BRANCH  30  33
ATOM     33  CA  ARG d   1      23.205  -5.622 -15.592  0.00  0.00     0.089 C 
ATOM     34  H5  ARG d   1      24.269  -5.892 -15.655  0.00  0.00     0.087 H 
BRANCH  33  35
ATOM     35  N   ARG d   1      22.964  -4.548 -16.546  0.00  0.00    -0.348 N 
ATOM     36  C   ACE d   1      23.210  -4.735 -17.838  0.00  0.00     0.214 C 
ATOM     37  O   ACE d   1      23.633  -5.815 -18.256  0.00  0.00    -0.274 OA
ATOM     38  H4  ARG d   1      22.613  -3.668 -16.228  0.00  0.00     0.163 HD
BRANCH  36  39
ATOM     39  CH3 ACE d   1      22.936  -3.559 -18.741  0.00  0.00    -0.003 C 
ATOM     40  H1  ACE d   1      22.567  -2.714 -18.141  0.00  0.00     0.040 H 
ATOM     41  H2  ACE d   1      22.177  -3.838 -19.486  0.00  0.00     0.040 H 
ATOM     42  H3  ACE d   1      23.864  -3.267 -19.255  0.00  0.00     0.040 H 
ENDBRANCH  36  39
ENDBRANCH  33  35
BRANCH  33  43
ATOM     43  CB  ARG d   1      22.915  -5.148 -14.158  0.00  0.00    -0.036 C 
ATOM     44  H6  ARG d   1      22.910  -6.035 -13.507  0.00  0.00     0.036 H 
ATOM     45  H7  ARG d   1      21.918  -4.684 -14.154  0.00  0.00     0.036 H 
BRANCH  43  46
ATOM     46  CG  ARG d   1      23.914  -4.124 -13.553  0.00  0.00    -0.048 C 
ATOM     47  H8  ARG d   1      23.701  -3.125 -13.961  0.00  0.00     0.035 H 
ATOM     48  H9  ARG d   1      24.940  -4.418 -13.820  0.00  0.00     0.035 H 
BRANCH  46  49
ATOM     49  CD  ARG d   1      23.780  -4.084 -12.013  0.00  0.00     0.009 C 
ATOM     50  H10 ARG d   1      24.126  -5.051 -11.619  0.00  0.00     0.064 H 
ATOM     51  H11 ARG d   1      22.716  -3.949 -11.770  0.00  0.00     0.064 H 
BRANCH  49  52
ATOM     52  NE  ARG d   1      24.534  -3.026 -11.334  0.00  0.00    -0.227 N 
ATOM     53  CZ  ARG d   1      25.800  -3.125 -10.927  0.00  0.00     0.665 C 
ATOM     54  NH1 ARG d   1      26.379  -2.108 -10.298  0.00  0.00    -0.235 N 
ATOM     55  NH2 ARG d   1      26.500  -4.229 -11.152  0.00  0.00    -0.235 N 
ATOM     56  H13 ARG d   1      27.357  -2.186  -9.984  0.00  0.00     0.174 HD
ATOM     57  H14 ARG d   1      25.850  -1.242 -10.124  0.00  0.00     0.174 HD
ATOM     58  H15 ARG d   1      26.064  -5.025 -11.639  0.00  0.00     0.174 HD
ATOM     59  H16 ARG d   1      27.480  -4.290 -10.840  0.00  0.00     0.174 HD
ATOM     60  H12 ARG d   1      24.047  -2.136 -11.157  0.00  0.00     0.177 HD
ENDBRANCH  49  52
ENDBRANCH  46  49
ENDBRANCH  43  46
ENDBRANCH  33  43
ENDBRANCH  30  33
ENDBRANCH  27  29
BRANCH  27  61
ATOM     61  CB  THR d   1      22.608 -10.270 -14.424  0.00  0.00     0.060 C 
ATOM     62  H19 THR d   1      22.587  -9.940 -13.375  0.00  0.00     0.086 H 
BRANCH  61  63
ATOM     63  OG1 THR d   1      23.973 -10.476 -14.818  0.00  0.00    -0.393 OA
ATOM     64  H20 THR d   1      24.456  -9.664 -14.719  0.00  0.00     0.210 HD
ENDBRANCH  61  63
BRANCH  61  65
ATOM     65  CG2 THR d   1      21.855 -11.574 -14.543  0.00  0.00    -0.050 C 
ATOM     66  H21 THR d   1      22.341 -12.337 -13.917  0.00  0.00     0.031 H 
ATOM     67  H22 THR d   1      21.858 -11.905 -15.592  0.00  0.00     0.031 H 
ATOM     68  H23 THR d   1      20.818 -11.431 -14.206  0.00  0.00     0.031 H 
ENDBRANCH  61  65
ENDBRANCH  27  61
ENDBRANCH  15  27
ENDBRANCH  10  13
ENDBRANCH   7   9
BRANCH   7  69
ATOM     69  CB  SEP d   1      16.988  -8.803 -10.128  0.00  0.00     0.059 C 
ATOM     70  H33 SEP d   1      18.054  -8.540 -10.067  0.00  0.00     0.079 H 
ATOM     71  H34 SEP d   1      16.660  -9.232  -9.169  0.00  0.00     0.079 H 
BRANCH  69  72
ATOM     72  OG  SEP d   1      16.227  -7.648 -10.420  0.00  0.00    -0.280 OA
BRANCH  72  73
ATOM     73  P   SEP d   1      16.448  -6.332  -9.524  0.00  0.00     0.422 P 
ATOM     74  O1P SEP d   1      15.463  -5.257 -10.131  0.00  0.00    -0.617 OA
ATOM     75  O2P SEP d   1      17.941  -5.914  -9.717  0.00  0.00    -0.617 OA
ATOM     76  O3P SEP d   1      16.137  -6.702  -8.035  0.00  0.00    -0.617 OA
ENDBRANCH  72  73
ENDBRANCH  69  72
ENDBRANCH   7  69
ENDBRANCH   4   7
ENDBRANCH   1   3
BRANCH   1  77
ATOM     77  C   LEU d   1      12.420  -9.905 -10.643  0.00  0.00     0.243 C 
ATOM     78  O   LEU d   1      12.555  -8.855 -10.029  0.00  0.00    -0.271 OA
ATOM     79  N   PRO d   1      11.539 -10.049 -11.637  0.00  0.00    -0.337 N 
ATOM     80  CA  PRO d   1      10.710  -8.916 -12.082  0.00  0.00     0.091 C 
ATOM     81  CD  PRO d   1      11.380 -11.215 -12.521  0.00  0.00    -0.001 C 
ATOM     82  CB  PRO d   1      10.367  -9.282 -13.527  0.00  0.00    -0.036 C 
ATOM     83  H46 PRO d   1      11.300  -7.988 -12.050  0.00  0.00     0.087 H 
ATOM     84  CG  PRO d   1      10.297 -10.786 -13.491  0.00  0.00    -0.048 C 
ATOM     85  H47 PRO d   1      11.152  -8.940 -14.218  0.00  0.00     0.036 H 
ATOM     86  H48 PRO d   1       9.401  -8.849 -13.825  0.00  0.00     0.036 H 
ATOM     87  H49 PRO d   1      10.487 -11.204 -14.490  0.00  0.00     0.035 H 
ATOM     88  H50 PRO d   1       9.310 -11.117 -13.137  0.00  0.00     0.035 H 
ATOM     89  H51 PRO d   1      11.066 -12.101 -11.949  0.00  0.00     0.064 H 
ATOM     90  H52 PRO d   1      12.318 -11.435 -13.052  0.00  0.00     0.064 H 
BRANCH  80  91
ATOM     91  C   PRO d   1       9.447  -8.708 -11.258  0.00  0.00     0.241 C 
ATOM     92  O   PRO d   1       8.363  -8.446 -11.787  0.00  0.00    -0.271 OA
ATOM     93  N   GLY d   1       9.599  -8.772  -9.951  0.00  0.00    -0.351 N 
ATOM     94  H53 GLY d   1      10.522  -8.823  -9.570  0.00  0.00     0.163 HD
BRANCH  93  95
ATOM     95  CA  GLY d   1       8.474  -8.770  -9.059  0.00  0.00     0.069 C 
ATOM     96  H54 GLY d   1       7.676  -9.415  -9.456  0.00  0.00     0.078 H 
ATOM     97  H55 GLY d   1       8.091  -7.746  -8.937  0.00  0.00     0.078 H 
BRANCH  95  98
ATOM     98  C   GLY d   1       8.956  -9.299  -7.742  0.00  0.00     0.237 C 
ATOM     99  O   GLY d   1      10.152  -9.456  -7.530  0.00  0.00    -0.272 OA
ATOM    100  N16 D3Q d   1       8.147  -9.792  -6.683  0.00  0.00    -0.345 N 
ATOM    101  C15 D3Q d   1       6.518  -9.623  -6.770  0.00  0.00     0.026 C 
ATOM    102  C17 D3Q d   1       8.521  -9.974  -5.410  0.00  0.00    -0.002 C 
ATOM    103  C19 D3Q d   1       6.203  -9.222  -5.486  0.00  0.00    -0.044 C 
ATOM    104  H59 GLY d   1       6.206  -8.871  -7.510  0.00  0.00     0.074 H 
ATOM    105  C18 D3Q d   1       7.195  -9.910  -4.515  0.00  0.00    -0.048 C 
ATOM    106  H73 GLY d   1       5.173  -9.522  -5.243  0.00  0.00     0.036 H 
ATOM    107  H74 GLY d   1       6.296  -8.129  -5.402  0.00  0.00     0.036 H 
ATOM    108  H71 GLY d   1       7.351  -9.309  -3.607  0.00  0.00     0.035 H 
ATOM    109  H72 GLY d   1       6.850 -10.916  -4.234  0.00  0.00     0.035 H 
ATOM    110  H69 GLY d   1       9.006 -10.955  -5.296  0.00  0.00     0.064 H 
ATOM    111  H70 GLY d   1       9.220  -9.181  -5.105  0.00  0.00     0.064 H 
BRANCH 101 112
ATOM    112  C08 D3Q d   1       5.963 -10.995  -7.139  0.00  0.00     0.017 C 
ATOM    113  H66 GLY d   1       6.319 -11.713  -6.386  0.00  0.00     0.058 H 
BRANCH 112 114
ATOM    114  C07 D3Q d   1       4.400 -10.961  -7.070  0.00  0.00    -0.045 A 
ATOM    115  C06 D3Q d   1       3.658  -9.775  -7.334  0.00  0.00    -0.076 A 
ATOM    116  C05 D3Q d   1       2.278  -9.817  -7.233  0.00  0.00    -0.080 A 
ATOM    117  H65 GLY d   1       4.164  -8.857  -7.609  0.00  0.00     0.084 H 
ATOM    118  C04 D3Q d   1       1.634 -11.000  -6.898  0.00  0.00    -0.051 A 
ATOM    119  H64 GLY d   1       1.697  -8.921  -7.417  0.00  0.00     0.083 H 
ATOM    120  C03 D3Q d   1       2.387 -12.158  -6.650  0.00  0.00     0.068 A 
ATOM    121  H63 GLY d   1       0.553 -11.029  -6.828  0.00  0.00     0.087 H 
ATOM    122  C20 D3Q d   1       3.784 -12.120  -6.738  0.00  0.00    -0.044 A 
ATOM    123  H75 GLY d   1       4.368 -13.012  -6.542  0.00  0.00     0.088 H 
BRANCH 120 124
ATOM    124  O02 D3Q d   1       1.770 -13.407  -6.294  0.00  0.00    -0.356 OA
BRANCH 124 125
ATOM    125  C01 D3Q d   1       2.652 -14.347  -5.782  0.00  0.00     0.010 C 
ATOM    126  H60 GLY d   1       2.104 -15.268  -5.536  0.00  0.00     0.066 H 
ATOM    127  H61 GLY d   1       3.126 -13.948  -4.873  0.00  0.00     0.066 H 
ATOM    128  H62 GLY d   1       3.426 -14.570  -6.531  0.00  0.00     0.066 H 
ENDBRANCH 124 125
ENDBRANCH 120 124
ENDBRANCH 112 114
BRANCH 112 129
ATOM    129  C09 D3Q d   1       6.458 -11.489  -8.511  0.00  0.00    -0.048 A 
ATOM    130  C14 D3Q d   1       7.488 -12.406  -8.546  0.00  0.00    -0.076 A 
ATOM    131  C13 D3Q d   1       7.982 -12.885  -9.776  0.00  0.00    -0.082 A 
ATOM    132  H58 GLY d   1       7.922 -12.762  -7.618  0.00  0.00     0.084 H 
ATOM    133  C12 D3Q d   1       7.418 -12.423 -10.977  0.00  0.00    -0.083 A 
ATOM    134  H57 GLY d   1       8.792 -13.605  -9.795  0.00  0.00     0.083 H 
ATOM    135  C11 D3Q d   1       6.393 -11.509 -10.955  0.00  0.00    -0.082 A 
ATOM    136  H56 GLY d   1       7.794 -12.790 -11.925  0.00  0.00     0.083 H 
ATOM    137  C10 D3Q d   1       5.884 -11.046  -9.723  0.00  0.00    -0.076 A 
ATOM    138  H68 GLY d   1       5.974 -11.143 -11.885  0.00  0.00     0.083 H 
ATOM    139  H67 GLY d   1       5.053 -10.351  -9.707  0.00  0.00     0.084 H 
ENDBRANCH 112 129
ENDBRANCH 101 112
ENDBRANCH  95  98
ENDBRANCH  93  95
ENDBRANCH  80  91
ENDBRANCH   1  77
BRANCH   1 140
ATOM    140  CB  LEU d   1      12.933 -11.639  -8.904  0.00  0.00    -0.035 C 
ATOM    141  H37 LEU d   1      12.892 -10.778  -8.220  0.00  0.00     0.037 H 
ATOM    142  H38 LEU d   1      13.738 -12.319  -8.589  0.00  0.00     0.037 H 
BRANCH 140 143
ATOM    143  CG  LEU d   1      11.614 -12.397  -8.763  0.00  0.00    -0.059 C 
ATOM    144  H39 LEU d   1      10.822 -11.791  -9.227  0.00  0.00     0.038 H 
BRANCH 143 145
ATOM    145  CD1 LEU d   1      11.668 -13.734  -9.480  0.00  0.00    -0.073 C 
ATOM    146  H40 LEU d   1      10.706 -14.254  -9.360  0.00  0.00     0.028 H 
ATOM    147  H41 LEU d   1      12.473 -14.348  -9.050  0.00  0.00     0.028 H 
ATOM    148  H42 LEU d   1      11.864 -13.569 -10.550  0.00  0.00     0.028 H 
ENDBRANCH 143 145
BRANCH 143 149
ATOM    149  CD2 LEU d   1      11.257 -12.604  -7.291  0.00  0.00    -0.073 C 
ATOM    150  H43 LEU d   1      11.221 -11.630  -6.782  0.00  0.00     0.028 H 
ATOM    151  H44 LEU d   1      12.019 -13.238  -6.815  0.00  0.00     0.028 H 
ATOM    152  H45 LEU d   1      10.274 -13.093  -7.217  0.00  0.00     0.028 H 
ENDBRANCH 143 149
ENDBRANCH 140 143
ENDBRANCH   1 140
TORSDOF 32
