REMARK WARNING: 32 MAX_TORS EXCEEDED!!!
REMARK  35 active torsions:
REMARK  status: ('A' for Active; 'I' for Inactive)
REMARK    1  A    between atoms: C_1  and  CH3_3 
REMARK       I    between atoms: N_4  and  C_1 
REMARK    2  A    between atoms: CA_5  and  N_4 
REMARK    3  A    between atoms: C_6  and  CA_5 
REMARK    4  A    between atoms: CA_5  and  CB_8 
REMARK       I    between atoms: N_15  and  C_6 
REMARK    5  A    between atoms: CB_8  and  CG_9 
REMARK    6  A    between atoms: CG_9  and  CD_10 
REMARK    7  A    between atoms: CD_10  and  NE_11 
REMARK       I    between atoms: NE_11  and  CZ_12 
REMARK       I    between atoms: CZ_12  and  NH1_13 
REMARK    8  A    between atoms: CA_16  and  N_15 
REMARK    9  A    between atoms: C_17  and  CA_16 
REMARK   10  A    between atoms: CA_16  and  CB_19 
REMARK       I    between atoms: N_22  and  C_17 
REMARK   11  A    between atoms: CB_19  and  OG1_20 
REMARK   12  A    between atoms: CB_19  and  CG2_21 
REMARK   13  A    between atoms: C_24  and  CA_23 
REMARK       I    between atoms: N_29  and  C_24 
REMARK   14  A    between atoms: CA_30  and  N_29 
REMARK   15  A    between atoms: CA_30  and  CB_31 
REMARK   16  A    between atoms: C_33  and  CA_30 
REMARK   17  A    between atoms: CB_31  and  OG_32 
REMARK   18  A    between atoms: OG_32  and  P_35 
REMARK       I    between atoms: N_39  and  C_33 
REMARK   19  A    between atoms: CA_40  and  N_39 
REMARK   20  A    between atoms: C_41  and  CA_40 
REMARK   21  A    between atoms: CA_40  and  CB_43 
REMARK       I    between atoms: N_47  and  C_41 
REMARK   22  A    between atoms: CB_43  and  CG_44 
REMARK   23  A    between atoms: CG_44  and  CD1_45 
REMARK   24  A    between atoms: CG_44  and  CD2_46 
REMARK   25  A    between atoms: C_49  and  CA_48 
REMARK       I    between atoms: N_54  and  C_49 
REMARK   26  A    between atoms: CA_55  and  N_54 
REMARK   27  A    between atoms: C_56  and  CA_55 
REMARK       I    between atoms: N20_78  and  C_56 
REMARK   28  A    between atoms: C12_62  and  C13_60 
REMARK   29  A    between atoms: C12_62  and  C11_61 
REMARK   30  A    between atoms: C19_74  and  C12_62 
REMARK   31  A    between atoms: O02_79  and  C01_63 
REMARK   32  A    between atoms: C04_65  and  C03_64 
REMARK   33  A    between atoms: C03_64  and  O02_79 
REMARK   34  A    between atoms: O05_80  and  C04_65 
REMARK   35  A    between atoms: C06_66  and  O05_80 
ROOT
ATOM      1  CA  LEU d   1      13.079 -11.133 -10.168  0.00  0.00     0.090 C 
ATOM      2  H36 LEU d   1      12.920 -11.925 -10.915  0.00  0.00     0.087 H 
ENDROOT
BRANCH   1   3
ATOM      3  N   LEU d   1      14.491 -10.754 -10.144  0.00  0.00    -0.346 N 
ATOM      4  C   SEP d   1      15.068 -10.199 -11.193  0.00  0.00     0.243 C 
ATOM      5  O   SEP d   1      14.458 -10.035 -12.238  0.00  0.00    -0.271 OA
ATOM      6  H35 LEU d   1      15.029 -10.918  -9.318  0.00  0.00     0.163 HD
BRANCH   4   7
ATOM      7  CA  SEP d   1      16.562  -9.843 -11.068  0.00  0.00     0.110 C 
ATOM      8  H32 SEP d   1      17.135 -10.755 -10.845  0.00  0.00     0.090 H 
BRANCH   7   9
ATOM      9  N   SEP d   1      17.036  -9.275 -12.317  0.00  0.00    -0.344 N 
ATOM     10  C   PRO d   1      17.619  -9.993 -13.262  0.00  0.00     0.241 C 
ATOM     11  O   PRO d   1      17.903 -11.179 -13.101  0.00  0.00    -0.271 OA
ATOM     12  H31 SEP d   1      16.916  -8.294 -12.470  0.00  0.00     0.163 HD
BRANCH  10  13
ATOM     13  CA  PRO d   1      17.949  -9.185 -14.539  0.00  0.00     0.091 C 
ATOM     14  N   PRO d   1      19.239  -9.470 -15.185  0.00  0.00    -0.337 N 
ATOM     15  C   THR d   1      20.350  -8.955 -14.622  0.00  0.00     0.245 C 
ATOM     16  CD  PRO d   1      19.089 -10.002 -16.550  0.00  0.00    -0.001 C 
ATOM     17  O   THR d   1      20.282  -8.292 -13.585  0.00  0.00    -0.271 OA
ATOM     18  CG  PRO d   1      17.602 -10.155 -16.698  0.00  0.00    -0.048 C 
ATOM     19  H29 PRO d   1      19.597 -10.972 -16.653  0.00  0.00     0.064 H 
ATOM     20  H30 PRO d   1      19.489  -9.297 -17.294  0.00  0.00     0.064 H 
ATOM     21  CB  PRO d   1      16.911  -9.459 -15.645  0.00  0.00    -0.036 C 
ATOM     22  H27 PRO d   1      17.291  -9.741 -17.669  0.00  0.00     0.035 H 
ATOM     23  H28 PRO d   1      17.343 -11.223 -16.655  0.00  0.00     0.035 H 
ATOM     24  H25 PRO d   1      16.501  -8.511 -16.023  0.00  0.00     0.036 H 
ATOM     25  H26 PRO d   1      16.094 -10.082 -15.252  0.00  0.00     0.036 H 
ATOM     26  H24 PRO d   1      17.925  -8.120 -14.264  0.00  0.00     0.087 H 
BRANCH  15  27
ATOM     27  CA  THR d   1      21.711  -9.268 -15.244  0.00  0.00     0.114 C 
ATOM     28  H18 THR d   1      21.580  -9.643 -16.270  0.00  0.00     0.091 H 
BRANCH  27  29
ATOM     29  N   THR d   1      22.531  -8.060 -15.267  0.00  0.00    -0.344 N 
ATOM     30  C   ARG d   1      22.139  -6.965 -15.911  0.00  0.00     0.241 C 
ATOM     31  O   ARG d   1      21.173  -6.937 -16.686  0.00  0.00    -0.271 OA
ATOM     32  H17 THR d   1      23.408  -8.056 -14.787  0.00  0.00     0.163 HD
BRANCH  30  33
ATOM     33  CA  ARG d   1      22.997  -5.713 -15.664  0.00  0.00     0.089 C 
ATOM     34  H5  ARG d   1      24.044  -6.030 -15.550  0.00  0.00     0.087 H 
BRANCH  33  35
ATOM     35  N   ARG d   1      22.922  -4.794 -16.791  0.00  0.00    -0.348 N 
ATOM     36  C   ACE d   1      23.281  -5.159 -18.026  0.00  0.00     0.214 C 
ATOM     37  O   ACE d   1      23.690  -6.289 -18.289  0.00  0.00    -0.274 OA
ATOM     38  H4  ARG d   1      22.592  -3.863 -16.637  0.00  0.00     0.163 HD
BRANCH  36  39
ATOM     39  CH3 ACE d   1      23.155  -4.098 -19.089  0.00  0.00    -0.003 C 
ATOM     40  H1  ACE d   1      22.773  -3.170 -18.638  0.00  0.00     0.040 H 
ATOM     41  H2  ACE d   1      22.458  -4.441 -19.868  0.00  0.00     0.040 H 
ATOM     42  H3  ACE d   1      24.142  -3.909 -19.537  0.00  0.00     0.040 H 
ENDBRANCH  36  39
ENDBRANCH  33  35
BRANCH  33  43
ATOM     43  CB  ARG d   1      22.556  -5.018 -14.362  0.00  0.00    -0.036 C 
ATOM     44  H6  ARG d   1      22.257  -5.801 -13.650  0.00  0.00     0.036 H 
ATOM     45  H7  ARG d   1      21.687  -4.386 -14.598  0.00  0.00     0.036 H 
BRANCH  43  46
ATOM     46  CG  ARG d   1      23.620  -4.117 -13.656  0.00  0.00    -0.048 C 
ATOM     47  H8  ARG d   1      23.400  -3.063 -13.880  0.00  0.00     0.035 H 
ATOM     48  H9  ARG d   1      24.617  -4.373 -14.042  0.00  0.00     0.035 H 
BRANCH  46  49
ATOM     49  CD  ARG d   1      23.609  -4.319 -12.108  0.00  0.00     0.009 C 
ATOM     50  H10 ARG d   1      24.134  -5.260 -11.886  0.00  0.00     0.064 H 
ATOM     51  H11 ARG d   1      22.561  -4.399 -11.785  0.00  0.00     0.064 H 
BRANCH  49  52
ATOM     52  NE  ARG d   1      24.245  -3.248 -11.319  0.00  0.00    -0.227 N 
ATOM     53  CZ  ARG d   1      25.523  -3.233 -10.934  0.00  0.00     0.665 C 
ATOM     54  NH1 ARG d   1      25.989  -2.221 -10.206  0.00  0.00    -0.235 N 
ATOM     55  NH2 ARG d   1      26.346  -4.221 -11.270  0.00  0.00    -0.235 N 
ATOM     56  H13 ARG d   1      26.975  -2.211  -9.910  0.00  0.00     0.174 HD
ATOM     57  H14 ARG d   1      25.363  -1.448  -9.939  0.00  0.00     0.174 HD
ATOM     58  H15 ARG d   1      26.000  -5.011 -11.833  0.00  0.00     0.174 HD
ATOM     59  H16 ARG d   1      27.330  -4.197 -10.967  0.00  0.00     0.174 HD
ATOM     60  H12 ARG d   1      23.657  -2.449 -11.043  0.00  0.00     0.177 HD
ENDBRANCH  49  52
ENDBRANCH  46  49
ENDBRANCH  43  46
ENDBRANCH  33  43
ENDBRANCH  30  33
ENDBRANCH  27  29
BRANCH  27  61
ATOM     61  CB  THR d   1      22.376 -10.339 -14.378  0.00  0.00     0.060 C 
ATOM     62  H19 THR d   1      22.380  -9.996 -13.333  0.00  0.00     0.086 H 
BRANCH  61  63
ATOM     63  OG1 THR d   1      23.728 -10.549 -14.801  0.00  0.00    -0.393 OA
ATOM     64  H20 THR d   1      24.214  -9.737 -14.719  0.00  0.00     0.210 HD
ENDBRANCH  61  63
BRANCH  61  65
ATOM     65  CG2 THR d   1      21.603 -11.644 -14.463  0.00  0.00    -0.050 C 
ATOM     66  H21 THR d   1      22.094 -12.402 -13.835  0.00  0.00     0.031 H 
ATOM     67  H22 THR d   1      21.581 -11.990 -15.507  0.00  0.00     0.031 H 
ATOM     68  H23 THR d   1      20.574 -11.485 -14.108  0.00  0.00     0.031 H 
ENDBRANCH  61  65
ENDBRANCH  27  61
ENDBRANCH  15  27
ENDBRANCH  10  13
ENDBRANCH   7   9
BRANCH   7  69
ATOM     69  CB  SEP d   1      16.756  -8.833  -9.930  0.00  0.00     0.059 C 
ATOM     70  H33 SEP d   1      17.823  -8.586  -9.830  0.00  0.00     0.079 H 
ATOM     71  H34 SEP d   1      16.388  -9.261  -8.986  0.00  0.00     0.079 H 
BRANCH  69  72
ATOM     72  OG  SEP d   1      16.022  -7.666 -10.244  0.00  0.00    -0.280 OA
BRANCH  72  73
ATOM     73  P   SEP d   1      16.246  -6.344  -9.368  0.00  0.00     0.422 P 
ATOM     74  O1P SEP d   1      15.256  -5.308  -9.992  0.00  0.00    -0.617 OA
ATOM     75  O2P SEP d   1      17.712  -5.923  -9.523  0.00  0.00    -0.617 OA
ATOM     76  O3P SEP d   1      15.908  -6.737  -7.902  0.00  0.00    -0.617 OA
ENDBRANCH  72  73
ENDBRANCH  69  72
ENDBRANCH   7  69
ENDBRANCH   4   7
ENDBRANCH   1   3
BRANCH   1  77
ATOM     77  C   LEU d   1      12.230  -9.917 -10.540  0.00  0.00     0.243 C 
ATOM     78  O   LEU d   1      12.377  -8.864  -9.939  0.00  0.00    -0.271 OA
ATOM     79  N   PRO d   1      11.338 -10.049 -11.520  0.00  0.00    -0.337 N 
ATOM     80  CA  PRO d   1      10.559  -8.895 -11.995  0.00  0.00     0.091 C 
ATOM     81  CD  PRO d   1      11.178 -11.209 -12.405  0.00  0.00    -0.001 C 
ATOM     82  CB  PRO d   1      10.233  -9.262 -13.443  0.00  0.00    -0.036 C 
ATOM     83  H46 PRO d   1      11.165  -7.978 -11.952  0.00  0.00     0.087 H 
ATOM     84  CG  PRO d   1      10.122 -10.744 -13.421  0.00  0.00    -0.048 C 
ATOM     85  H47 PRO d   1      11.039  -8.940 -14.119  0.00  0.00     0.036 H 
ATOM     86  H48 PRO d   1       9.284  -8.803 -13.759  0.00  0.00     0.036 H 
ATOM     87  H49 PRO d   1      10.333 -11.162 -14.416  0.00  0.00     0.035 H 
ATOM     88  H50 PRO d   1       9.116 -11.051 -13.100  0.00  0.00     0.035 H 
ATOM     89  H51 PRO d   1      10.823 -12.086 -11.843  0.00  0.00     0.064 H 
ATOM     90  H52 PRO d   1      12.126 -11.454 -12.907  0.00  0.00     0.064 H 
BRANCH  80  91
ATOM     91  C   PRO d   1       9.287  -8.685 -11.189  0.00  0.00     0.241 C 
ATOM     92  O   PRO d   1       8.227  -8.395 -11.737  0.00  0.00    -0.271 OA
ATOM     93  N   GLY d   1       9.403  -8.789  -9.881  0.00  0.00    -0.351 N 
ATOM     94  H53 GLY d   1      10.319  -8.885  -9.492  0.00  0.00     0.163 HD
BRANCH  93  95
ATOM     95  CA  GLY d   1       8.281  -8.772  -8.984  0.00  0.00     0.069 C 
ATOM     96  H54 GLY d   1       7.459  -9.374  -9.398  0.00  0.00     0.078 H 
ATOM     97  H55 GLY d   1       7.937  -7.739  -8.830  0.00  0.00     0.078 H 
BRANCH  95  98
ATOM     98  C   GLY d   1       8.746  -9.362  -7.677  0.00  0.00     0.237 C 
ATOM     99  O   GLY d   1       9.936  -9.475  -7.464  0.00  0.00    -0.272 OA
ATOM    100  N20 D3K d   1       7.734  -9.755  -6.763  0.00  0.00    -0.345 N 
ATOM    101  C19 D3K d   1       6.398  -9.600  -6.861  0.00  0.00     0.026 C 
ATOM    102  C21 D3K d   1       8.138 -10.111  -5.242  0.00  0.00    -0.002 C 
ATOM    103  C23 D3K d   1       6.007  -9.169  -5.410  0.00  0.00    -0.044 C 
ATOM    104  H73 GLY d   1       6.129  -8.831  -7.600  0.00  0.00     0.074 H 
ATOM    105  C22 D3K d   1       6.949  -9.986  -4.554  0.00  0.00    -0.048 C 
ATOM    106  H78 GLY d   1       4.958  -9.417  -5.192  0.00  0.00     0.036 H 
ATOM    107  H79 GLY d   1       6.168  -8.091  -5.259  0.00  0.00     0.036 H 
ATOM    108  H76 GLY d   1       7.123  -9.475  -3.595  0.00  0.00     0.035 H 
ATOM    109  H77 GLY d   1       6.518 -10.981  -4.367  0.00  0.00     0.035 H 
ATOM    110  H74 GLY d   1       8.528 -11.137  -5.169  0.00  0.00     0.064 H 
ATOM    111  H75 GLY d   1       8.889  -9.405  -4.859  0.00  0.00     0.064 H 
BRANCH 101 112
ATOM    112  C12 D3K d   1       5.717 -10.977  -7.234  0.00  0.00     0.019 C 
ATOM    113  H58 GLY d   1       6.035 -11.712  -6.480  0.00  0.00     0.058 H 
BRANCH 112 114
ATOM    114  C13 D3K d   1       6.232 -11.458  -8.597  0.00  0.00    -0.048 A 
ATOM    115  C14 D3K d   1       7.302 -12.356  -8.630  0.00  0.00    -0.076 A 
ATOM    116  C15 D3K d   1       7.793 -12.826  -9.872  0.00  0.00    -0.082 A 
ATOM    117  H56 GLY d   1       7.756 -12.693  -7.705  0.00  0.00     0.084 H 
ATOM    118  C16 D3K d   1       7.236 -12.352 -11.049  0.00  0.00    -0.083 A 
ATOM    119  H69 GLY d   1       8.598 -13.551  -9.902  0.00  0.00     0.083 H 
ATOM    120  C17 D3K d   1       6.157 -11.478 -11.028  0.00  0.00    -0.082 A 
ATOM    121  H70 GLY d   1       7.649 -12.668 -12.000  0.00  0.00     0.083 H 
ATOM    122  C18 D3K d   1       5.661 -11.012  -9.777  0.00  0.00    -0.076 A 
ATOM    123  H71 GLY d   1       5.697 -11.154 -11.954  0.00  0.00     0.083 H 
ATOM    124  H72 GLY d   1       4.837 -10.309  -9.749  0.00  0.00     0.084 H 
ENDBRANCH 112 114
BRANCH 112 125
ATOM    125  C11 D3K d   1       4.220 -10.935  -7.196  0.00  0.00    -0.014 A 
ATOM    126  C10 D3K d   1       3.482  -9.807  -7.332  0.00  0.00    -0.073 A 
ATOM    127  C09 D3K d   1       2.068  -9.826  -7.228  0.00  0.00    -0.082 A 
ATOM    128  H57 GLY d   1       3.985  -8.866  -7.525  0.00  0.00     0.084 H 
ATOM    129  C08 D3K d   1       1.446 -11.082  -6.996  0.00  0.00    -0.080 A 
ATOM    130  H68 GLY d   1       1.484  -8.917  -7.322  0.00  0.00     0.083 H 
ATOM    131  C07 D3K d   1       2.189 -12.254  -6.867  0.00  0.00    -0.050 A 
ATOM    132  H67 GLY d   1       0.366 -11.130  -6.917  0.00  0.00     0.083 H 
ATOM    133  C06 D3K d   1       3.545 -12.201  -6.947  0.00  0.00     0.075 A 
ATOM    134  H66 GLY d   1       1.689 -13.202  -6.704  0.00  0.00     0.087 H 
BRANCH 133 135
ATOM    135  O05 D3K d   1       4.419 -13.309  -6.849  0.00  0.00    -0.348 OA
BRANCH 135 136
ATOM    136  C04 D3K d   1       4.252 -14.305  -5.865  0.00  0.00     0.046 C 
ATOM    137  H64 GLY d   1       4.282 -13.859  -4.860  0.00  0.00     0.078 H 
ATOM    138  H65 GLY d   1       3.293 -14.825  -6.006  0.00  0.00     0.078 H 
BRANCH 136 139
ATOM    139  C03 D3K d   1       5.431 -15.289  -6.052  0.00  0.00     0.039 C 
ATOM    140  H62 GLY d   1       5.415 -15.686  -7.078  0.00  0.00     0.077 H 
ATOM    141  H63 GLY d   1       5.330 -16.118  -5.336  0.00  0.00     0.077 H 
BRANCH 139 142
ATOM    142  O02 D3K d   1       6.700 -14.601  -5.820  0.00  0.00    -0.394 OA
BRANCH 142 143
ATOM    143  C01 D3K d   1       7.834 -15.379  -6.067  0.00  0.00     0.004 C 
ATOM    144  H59 GLY d   1       8.737 -14.784  -5.867  0.00  0.00     0.066 H 
ATOM    145  H60 GLY d   1       7.834 -15.704  -7.118  0.00  0.00     0.066 H 
ATOM    146  H61 GLY d   1       7.824 -16.261  -5.410  0.00  0.00     0.066 H 
ENDBRANCH 142 143
ENDBRANCH 139 142
ENDBRANCH 136 139
ENDBRANCH 135 136
ENDBRANCH 133 135
ENDBRANCH 112 125
ENDBRANCH 101 112
ENDBRANCH  95  98
ENDBRANCH  93  95
ENDBRANCH  80  91
ENDBRANCH   1  77
BRANCH   1 147
ATOM    147  CB  LEU d   1      12.706 -11.657  -8.788  0.00  0.00    -0.035 C 
ATOM    148  H37 LEU d   1      12.629 -10.794  -8.110  0.00  0.00     0.037 H 
ATOM    149  H38 LEU d   1      13.517 -12.319  -8.449  0.00  0.00     0.037 H 
BRANCH 147 150
ATOM    150  CG  LEU d   1      11.394 -12.441  -8.698  0.00  0.00    -0.059 C 
ATOM    151  H39 LEU d   1      10.607 -11.832  -9.165  0.00  0.00     0.038 H 
BRANCH 150 152
ATOM    152  CD1 LEU d   1      11.450 -13.777  -9.438  0.00  0.00    -0.073 C 
ATOM    153  H40 LEU d   1      10.483 -14.292  -9.338  0.00  0.00     0.028 H 
ATOM    154  H41 LEU d   1      12.245 -14.402  -9.006  0.00  0.00     0.028 H 
ATOM    155  H42 LEU d   1      11.662 -13.598 -10.502  0.00  0.00     0.028 H 
ENDBRANCH 150 152
BRANCH 150 156
ATOM    156  CD2 LEU d   1      11.015 -12.671  -7.221  0.00  0.00    -0.073 C 
ATOM    157  H43 LEU d   1      10.977 -11.704  -6.697  0.00  0.00     0.028 H 
ATOM    158  H44 LEU d   1      11.768 -13.316  -6.745  0.00  0.00     0.028 H 
ATOM    159  H45 LEU d   1      10.029 -13.156  -7.167  0.00  0.00     0.028 H 
ENDBRANCH 150 156
ENDBRANCH 147 150
ENDBRANCH   1 147
TORSDOF 35
