REMARK WARNING: 32 MAX_TORS EXCEEDED!!!
REMARK  34 active torsions:
REMARK  status: ('A' for Active; 'I' for Inactive)
REMARK    1  A    between atoms: C3_23  and  C1_1 
REMARK    2  A    between atoms: C1_1  and  O6_67 
REMARK    3  A    between atoms: C11_3  and  C22_15 
REMARK    4  A    between atoms: O4_65  and  C12_4 
REMARK    5  A    between atoms: C13_5  and  C24_17 
REMARK    6  A    between atoms: C15_7  and  C25_18 
REMARK    7  A    between atoms: C18_10  and  C19_11 
REMARK    8  A    between atoms: C19_11  and  C20_13 
REMARK    9  A    between atoms: C19_11  and  O5A_66 
REMARK   10  A    between atoms: C9_52  and  C21_14 
REMARK   11  A    between atoms: C22_15  and  C23_16 
REMARK   12  A    between atoms: O6_67  and  C26_19 
REMARK   13  A    between atoms: C27_20  and  O9_70 
REMARK   14  A    between atoms: C28_21  and  O8_69 
REMARK   15  A    between atoms: C29_22  and  O10_54 
REMARK   16  A    between atoms: C30_24  and  C31_25 
REMARK   17  A    between atoms: O9_70  and  C32_26 
REMARK   18  A    between atoms: C33_27  and  C34_28 
REMARK   19  A    between atoms: O10_54  and  C33_27 
REMARK   20  A    between atoms: C35_29  and  O13_57 
REMARK   21  A    between atoms: C37_31  and  O12_56 
REMARK   22  A    between atoms: C39_33  and  C40_35 
REMARK   23  A    between atoms: C40_35  and  C41_36 
REMARK   24  A    between atoms: C42_37  and  O4_65 
REMARK   25  A    between atoms: C43_38  and  O15_59 
REMARK   26  A    between atoms: C44_39  and  O16_60 
REMARK   27  A    between atoms: O17_61  and  C45_40 
REMARK   28  A    between atoms: C46_41  and  C47_42 
REMARK   29  A    between atoms: C46_41  and  C48_43 
REMARK   30  A    between atoms: C49_44  and  C50_46 
REMARK   31  A    between atoms: C49_44  and  O17_61 
REMARK   32  A    between atoms: C50_46  and  C51_47 
REMARK   33  A    between atoms: C50_46  and  C52_48 
REMARK   34  A    between atoms: C8_51  and  O3_64 
ROOT
ATOM      1  C10 FI8 d   1      78.240  97.193 103.668  0.00  0.00    -0.092 C 
ATOM      2  C11 FI8 d   1      79.040  98.205 104.490  0.00  0.00    -0.009 C 
ATOM      3  C12 FI8 d   1      79.823  97.506 105.594  0.00  0.00     0.070 C 
ATOM      4  C13 FI8 d   1      78.880  96.676 106.467  0.00  0.00    -0.054 C 
ATOM      5  C14 FI8 d   1      79.372  95.527 106.989  0.00  0.00    -0.073 C 
ATOM      6  C15 FI8 d   1      78.554  94.589 107.883  0.00  0.00    -0.065 C 
ATOM      7  C16 FI8 d   1      79.199  93.484 108.319  0.00  0.00    -0.095 C 
ATOM      8  C17 FI8 d   1      78.427  92.517 109.212  0.00  0.00    -0.022 C 
ATOM      9  C18 FI8 d   1      77.709  91.430 108.393  0.00  0.00     0.075 C 
ATOM     10  C2  FI8 d   1      76.282  91.379 106.496  0.00  0.00     0.291 C 
ATOM     11  C3  FI8 d   1      75.959  92.166 105.229  0.00  0.00     0.041 C 
ATOM     12  C4  FI8 d   1      76.046  93.605 105.269  0.00  0.00    -0.069 C 
ATOM     13  C5  FI8 d   1      75.702  94.284 103.951  0.00  0.00    -0.086 C 
ATOM     14  C6  FI8 d   1      75.752  95.629 103.875  0.00  0.00    -0.100 C 
ATOM     15  C7  FI8 d   1      75.415  96.339 102.568  0.00  0.00    -0.022 C 
ATOM     16  C8  FI8 d   1      76.684  96.737 101.817  0.00  0.00     0.059 C 
ATOM     17  C9  FI8 d   1      77.499  97.690 102.669  0.00  0.00    -0.058 C 
ATOM     18  O1  FI8 d   1      76.643  92.053 107.624  0.00  0.00    -0.309 OA
ATOM     19  O2  FI8 d   1      76.216  90.187 106.497  0.00  0.00    -0.260 OA
ATOM     20  H3  FI8 d   1      78.271  96.126 103.883  0.00  0.00     0.078 H 
ATOM     21  H4  FI8 d   1      78.349  98.932 104.941  0.00  0.00     0.050 H 
ATOM     22  H5  FI8 d   1      80.573  96.841 105.141  0.00  0.00     0.091 H 
ATOM     23  H6  FI8 d   1      80.402  95.256 106.762  0.00  0.00     0.084 H 
ATOM     24  H7  FI8 d   1      80.234  93.290 108.042  0.00  0.00     0.077 H 
ATOM     25  H8  FI8 d   1      77.678  93.083 109.786  0.00  0.00     0.042 H 
ATOM     26  H9  FI8 d   1      79.131  92.033 109.905  0.00  0.00     0.042 H 
ATOM     27  H10 FI8 d   1      78.425  90.947 107.712  0.00  0.00     0.088 H 
ATOM     28  H40 FI8 d   1      76.332  94.157 106.163  0.00  0.00     0.084 H 
ATOM     29  H56 FI8 d   1      75.419  93.692 103.082  0.00  0.00     0.083 H 
ATOM     30  H64 FI8 d   1      76.034  96.211 104.751  0.00  0.00     0.076 H 
ATOM     31  H65 FI8 d   1      74.830  97.244 102.791  0.00  0.00     0.043 H 
ATOM     32  H66 FI8 d   1      74.820  95.664 101.935  0.00  0.00     0.043 H 
ATOM     33  H67 FI8 d   1      76.414  97.228 100.871  0.00  0.00     0.090 H 
ENDROOT
BRANCH  11  34
ATOM     34  C1  FI8 d   1      75.544  91.434 103.957  0.00  0.00     0.052 C 
ATOM     35  H1  FI8 d   1      76.112  90.497 103.860  0.00  0.00     0.082 H 
ATOM     36  H2  FI8 d   1      75.731  92.070 103.079  0.00  0.00     0.082 H 
BRANCH  34  37
ATOM     37  O6  FI8 d   1      74.129  91.146 104.067  0.00  0.00    -0.354 OA
BRANCH  37  38
ATOM     38  C26 FI8 d   1      73.532  90.746 102.906  0.00  0.00     0.159 C 
ATOM     39  C27 FI8 d   1      72.445  89.722 103.246  0.00  0.00     0.112 C 
ATOM     40  C28 FI8 d   1      71.613  89.359 102.075  0.00  0.00     0.093 C 
ATOM     41  H30 FI8 d   1      72.930  88.811 103.627  0.00  0.00     0.095 H 
ATOM     42  C29 FI8 d   1      71.170  90.526 101.293  0.00  0.00     0.100 C 
ATOM     43  H31 FI8 d   1      72.199  88.699 101.419  0.00  0.00     0.091 H 
ATOM     44  C30 FI8 d   1      72.297  91.526 101.038  0.00  0.00     0.066 C 
ATOM     45  H32 FI8 d   1      70.358  91.032 101.836  0.00  0.00     0.092 H 
ATOM     46  O7  FI8 d   1      72.992  91.888 102.244  0.00  0.00    -0.351 OA
ATOM     47  H33 FI8 d   1      73.017  91.076 100.339  0.00  0.00     0.086 H 
ATOM     48  H29 FI8 d   1      74.279  90.273 102.251  0.00  0.00     0.133 H 
BRANCH  39  49
ATOM     49  O9  FI8 d   1      71.586  90.275 104.275  0.00  0.00    -0.383 OA
BRANCH  49  50
ATOM     50  C32 FI8 d   1      71.290  89.358 105.333  0.00  0.00     0.005 C 
ATOM     51  H37 FI8 d   1      70.637  89.848 106.071  0.00  0.00     0.066 H 
ATOM     52  H38 FI8 d   1      72.225  89.046 105.821  0.00  0.00     0.066 H 
ATOM     53  H39 FI8 d   1      70.780  88.475 104.921  0.00  0.00     0.066 H 
ENDBRANCH  49  50
ENDBRANCH  39  49
BRANCH  40  54
ATOM     54  O8  FI8 d   1      70.440  88.654 102.552  0.00  0.00    -0.390 OA
ATOM     55  H74 FI8 d   1      69.919  88.369 101.810  0.00  0.00     0.210 HD
ENDBRANCH  40  54
BRANCH  42  56
ATOM     56  O10 FI8 d   1      70.689  90.061 100.009  0.00  0.00    -0.307 OA
BRANCH  56  57
ATOM     57  C33 FI8 d   1      69.385  89.757  99.827  0.00  0.00     0.297 C 
ATOM     58  O11 FI8 d   1      68.786  89.111 100.662  0.00  0.00    -0.259 OA
BRANCH  57  59
ATOM     59  C34 FI8 d   1      68.667  90.226  98.565  0.00  0.00     0.082 A 
ATOM     60  C35 FI8 d   1      68.213  91.546  98.466  0.00  0.00     0.107 A 
ATOM     61  C36 FI8 d   1      67.556  91.974  97.309  0.00  0.00     0.103 A 
ATOM     62  C37 FI8 d   1      67.354  91.089  96.257  0.00  0.00     0.112 A 
ATOM     63 CL1  FI8 d   1      66.994  93.605  97.188  0.00  0.00    -0.078 Cl
ATOM     64  C38 FI8 d   1      67.809  89.767  96.355  0.00  0.00     0.076 A 
ATOM     65  C39 FI8 d   1      68.466  89.339  97.512  0.00  0.00    -0.015 A 
ATOM     66 CL2  FI8 d   1      67.558  88.665  95.043  0.00  0.00    -0.081 Cl
BRANCH  60  67
ATOM     67  O13 FI8 d   1      68.410  92.409  99.493  0.00  0.00    -0.358 OA
ATOM     68  H69 FI8 d   1      68.867  91.963 100.197  0.00  0.00     0.217 HD
ENDBRANCH  60  67
BRANCH  62  69
ATOM     69  O12 FI8 d   1      66.718  91.505  95.137  0.00  0.00    -0.357 OA
ATOM     70  H68 FI8 d   1      66.477  92.419  95.232  0.00  0.00     0.217 HD
ENDBRANCH  62  69
BRANCH  65  71
ATOM     71  C40 FI8 d   1      68.962  87.903  97.621  0.00  0.00    -0.042 C 
ATOM     72  H41 FI8 d   1      68.822  87.406  96.650  0.00  0.00     0.039 H 
ATOM     73  H42 FI8 d   1      68.371  87.382  98.389  0.00  0.00     0.039 H 
BRANCH  71  74
ATOM     74  C41 FI8 d   1      70.435  87.828  98.002  0.00  0.00    -0.073 C 
ATOM     75  H43 FI8 d   1      70.743  86.774  98.068  0.00  0.00     0.028 H 
ATOM     76  H44 FI8 d   1      70.587  88.316  98.976  0.00  0.00     0.028 H 
ATOM     77  H45 FI8 d   1      71.038  88.340  97.237  0.00  0.00     0.028 H 
ENDBRANCH  71  74
ENDBRANCH  65  71
ENDBRANCH  57  59
ENDBRANCH  56  57
ENDBRANCH  42  56
BRANCH  44  78
ATOM     78  C31 FI8 d   1      71.717  92.754 100.428  0.00  0.00    -0.050 C 
ATOM     79  H34 FI8 d   1      72.519  93.483 100.239  0.00  0.00     0.031 H 
ATOM     80  H35 FI8 d   1      70.978  93.191 101.116  0.00  0.00     0.031 H 
ATOM     81  H36 FI8 d   1      71.226  92.495  99.478  0.00  0.00     0.031 H 
ENDBRANCH  44  78
ENDBRANCH  37  38
ENDBRANCH  34  37
ENDBRANCH  11  34
BRANCH   9  82
ATOM     82  C19 FI8 d   1      77.107  90.382 109.329  0.00  0.00     0.058 C 
ATOM     83  H11 FI8 d   1      76.750  89.527 108.737  0.00  0.00     0.086 H 
BRANCH  82  84
ATOM     84  C20 FI8 d   1      78.167  89.901 110.326  0.00  0.00    -0.050 C 
ATOM     85  H12 FI8 d   1      77.726  89.148 110.995  0.00  0.00     0.031 H 
ATOM     86  H13 FI8 d   1      78.525  90.754 110.920  0.00  0.00     0.031 H 
ATOM     87  H14 FI8 d   1      79.010  89.456 109.778  0.00  0.00     0.031 H 
ENDBRANCH  82  84
BRANCH  82  88
ATOM     88  O5A FI8 d   1      76.020  90.954 110.035  0.00  0.00    -0.393 OA
ATOM     89  H73 FI8 d   1      75.364  91.252 109.416  0.00  0.00     0.210 HD
ENDBRANCH  82  88
ENDBRANCH   9  82
BRANCH  16  90
ATOM     90  O3  FI8 d   1      77.453  95.573 101.548  0.00  0.00    -0.391 OA
ATOM     91  H72 FI8 d   1      76.944  94.975 101.014  0.00  0.00     0.210 HD
ENDBRANCH  16  90
BRANCH   6  92
ATOM     92  C25 FI8 d   1      77.114  94.859 108.266  0.00  0.00    -0.051 C 
ATOM     93  H26 FI8 d   1      76.784  95.803 107.809  0.00  0.00     0.033 H 
ATOM     94  H27 FI8 d   1      77.034  94.934 109.361  0.00  0.00     0.033 H 
ATOM     95  H28 FI8 d   1      76.478  94.036 107.907  0.00  0.00     0.033 H 
ENDBRANCH   6  92
BRANCH  17  96
ATOM     96  C21 FI8 d   1      77.437  99.175 102.348  0.00  0.00    -0.052 C 
ATOM     97  H15 FI8 d   1      78.078  99.729 103.050  0.00  0.00     0.033 H 
ATOM     98  H16 FI8 d   1      76.399  99.528 102.442  0.00  0.00     0.033 H 
ATOM     99  H17 FI8 d   1      77.789  99.343 101.320  0.00  0.00     0.033 H 
ENDBRANCH  17  96
BRANCH   4 100
ATOM    100  C24 FI8 d   1      77.470  97.196 106.686  0.00  0.00    -0.052 C 
ATOM    101  H23 FI8 d   1      76.917  96.496 107.329  0.00  0.00     0.033 H 
ATOM    102  H24 FI8 d   1      76.958  97.286 105.717  0.00  0.00     0.033 H 
ATOM    103  H25 FI8 d   1      77.514  98.183 107.170  0.00  0.00     0.033 H 
ENDBRANCH   4 100
BRANCH   2 104
ATOM    104  C22 FI8 d   1      79.993  98.913 103.592  0.00  0.00    -0.059 C 
ATOM    105  H18 FI8 d   1      79.456  99.231 102.686  0.00  0.00     0.033 H 
ATOM    106  H19 FI8 d   1      80.800  98.219 103.315  0.00  0.00     0.033 H 
BRANCH 104 107
ATOM    107  C23 FI8 d   1      80.604 100.131 104.248  0.00  0.00    -0.076 C 
ATOM    108  H20 FI8 d   1      81.298 100.616 103.546  0.00  0.00     0.027 H 
ATOM    109  H21 FI8 d   1      81.151  99.825 105.152  0.00  0.00     0.027 H 
ATOM    110  H22 FI8 d   1      79.807 100.838 104.523  0.00  0.00     0.027 H 
ENDBRANCH 104 107
ENDBRANCH   2 104
BRANCH   3 111
ATOM    111  O4  FI8 d   1      80.475  98.474 106.381  0.00  0.00    -0.348 OA
BRANCH 111 112
ATOM    112  C42 FI8 d   1      81.243  97.950 107.437  0.00  0.00     0.160 C 
ATOM    113  C43 FI8 d   1      82.654  98.534 107.369  0.00  0.00     0.110 C 
ATOM    114  C44 FI8 d   1      83.483  98.135 108.543  0.00  0.00     0.093 C 
ATOM    115  H47 FI8 d   1      83.142  98.176 106.451  0.00  0.00     0.094 H 
ATOM    116  C45 FI8 d   1      82.799  98.386 109.812  0.00  0.00     0.104 C 
ATOM    117  H48 FI8 d   1      83.713  97.062 108.468  0.00  0.00     0.091 H 
ATOM    118  C46 FI8 d   1      81.363  97.826 109.819  0.00  0.00     0.086 C 
ATOM    119  H49 FI8 d   1      82.758  99.471 109.986  0.00  0.00     0.093 H 
ATOM    120  O14 FI8 d   1      80.597  98.263 108.676  0.00  0.00    -0.346 OA
ATOM    121  H46 FI8 d   1      81.307  96.857 107.335  0.00  0.00     0.133 H 
BRANCH 113 122
ATOM    122  O15 FI8 d   1      82.566  99.957 107.337  0.00  0.00    -0.388 OA
ATOM    123  H70 FI8 d   1      83.438 100.325 107.258  0.00  0.00     0.210 HD
ENDBRANCH 113 122
BRANCH 114 124
ATOM    124  O16 FI8 d   1      84.699  98.888 108.524  0.00  0.00    -0.390 OA
ATOM    125  H71 FI8 d   1      84.499  99.813 108.607  0.00  0.00     0.210 HD
ENDBRANCH 114 124
BRANCH 116 126
ATOM    126  O17 FI8 d   1      83.553  97.752 110.878  0.00  0.00    -0.310 OA
BRANCH 126 127
ATOM    127  C49 FI8 d   1      83.371  98.315 112.187  0.00  0.00     0.262 C 
ATOM    128  O18 FI8 d   1      82.814  99.353 112.334  0.00  0.00    -0.265 OA
BRANCH 127 129
ATOM    129  C50 FI8 d   1      83.899  97.577 113.397  0.00  0.00     0.023 C 
ATOM    130  H57 FI8 d   1      83.361  97.950 114.281  0.00  0.00     0.054 H 
BRANCH 129 131
ATOM    131  C51 FI8 d   1      85.392  97.859 113.603  0.00  0.00    -0.065 C 
ATOM    132  H58 FI8 d   1      85.750  97.311 114.487  0.00  0.00     0.028 H 
ATOM    133  H59 FI8 d   1      85.544  98.938 113.754  0.00  0.00     0.028 H 
ATOM    134  H60 FI8 d   1      85.953  97.530 112.716  0.00  0.00     0.028 H 
ENDBRANCH 129 131
BRANCH 129 135
ATOM    135  C52 FI8 d   1      83.631  96.077 113.286  0.00  0.00    -0.065 C 
ATOM    136  H61 FI8 d   1      82.554  95.907 113.139  0.00  0.00     0.028 H 
ATOM    137  H62 FI8 d   1      83.959  95.577 114.209  0.00  0.00     0.028 H 
ATOM    138  H63 FI8 d   1      84.187  95.668 112.430  0.00  0.00     0.028 H 
ENDBRANCH 129 135
ENDBRANCH 127 129
ENDBRANCH 126 127
ENDBRANCH 116 126
BRANCH 118 139
ATOM    139  C47 FI8 d   1      80.666  98.292 111.079  0.00  0.00    -0.045 C 
ATOM    140  H50 FI8 d   1      79.639  97.899 111.097  0.00  0.00     0.031 H 
ATOM    141  H51 FI8 d   1      80.638  99.391 111.097  0.00  0.00     0.031 H 
ATOM    142  H52 FI8 d   1      81.214  97.924 111.959  0.00  0.00     0.031 H 
ENDBRANCH 118 139
BRANCH 118 143
ATOM    143  C48 FI8 d   1      81.429  96.298 109.815  0.00  0.00    -0.045 C 
ATOM    144  H53 FI8 d   1      81.935  95.955 108.900  0.00  0.00     0.031 H 
ATOM    145  H54 FI8 d   1      80.409  95.887 109.846  0.00  0.00     0.031 H 
ATOM    146  H55 FI8 d   1      81.990  95.953 110.696  0.00  0.00     0.031 H 
ENDBRANCH 118 143
ENDBRANCH 111 112
ENDBRANCH   3 111
TORSDOF 34
