REMARK  31 active torsions:
REMARK  status: ('A' for Active; 'I' for Inactive)
REMARK    1  A    between atoms: CA_2  and  N_1 
REMARK    2  A    between atoms: C_3  and  CA_2 
REMARK    3  A    between atoms: CA_2  and  CB_5 
REMARK       I    between atoms: N_12  and  C_3 
REMARK    4  A    between atoms: CB_5  and  CG_6 
REMARK    5  A    between atoms: CG_6  and  CD_7 
REMARK    6  A    between atoms: CD_7  and  NE_8 
REMARK       I    between atoms: NE_8  and  CZ_9 
REMARK       I    between atoms: CZ_9  and  NH1_10 
REMARK    7  A    between atoms: CA_13  and  N_12 
REMARK    8  A    between atoms: C_14  and  CA_13 
REMARK    9  A    between atoms: CA_13  and  CB_16 
REMARK       I    between atoms: N_19  and  C_14 
REMARK   10  A    between atoms: CB_16  and  OG1_17 
REMARK   11  A    between atoms: CB_16  and  CG2_18 
REMARK   12  A    between atoms: C_21  and  CA_20 
REMARK       I    between atoms: N_26  and  C_21 
REMARK   13  A    between atoms: CA_27  and  N_26 
REMARK   14  A    between atoms: CA_27  and  CB_28 
REMARK   15  A    between atoms: C_30  and  CA_27 
REMARK   16  A    between atoms: CB_28  and  OG_29 
REMARK   17  A    between atoms: OG_29  and  P_32 
REMARK       I    between atoms: N_36  and  C_30 
REMARK   18  A    between atoms: CA_37  and  N_36 
REMARK   19  A    between atoms: C_38  and  CA_37 
REMARK   20  A    between atoms: CA_37  and  CB_40 
REMARK       I    between atoms: N_44  and  C_38 
REMARK   21  A    between atoms: CB_40  and  CG_41 
REMARK   22  A    between atoms: CG_41  and  CD1_42 
REMARK   23  A    between atoms: CG_41  and  CD2_43 
REMARK   24  A    between atoms: C_46  and  CA_45 
REMARK       I    between atoms: N_51  and  C_46 
REMARK   25  A    between atoms: CA_52  and  N_51 
REMARK   26  A    between atoms: C_53  and  CA_52 
REMARK       I    between atoms: N16_73  and  C_53 
REMARK   27  A    between atoms: O02_74  and  C01_60 
REMARK   28  A    between atoms: C03_61  and  O02_74 
REMARK   29  A    between atoms: C08_66  and  C07_65 
REMARK   30  A    between atoms: C08_66  and  C09_67 
REMARK   31  A    between atoms: C15_68  and  C08_66 
ROOT
ATOM      1  CA  LEU d   1      13.099 -11.191 -10.168  0.00  0.00     0.090 C 
ATOM      2  H35 LEU d   1      12.974 -11.985 -10.919  0.00  0.00     0.087 H 
ENDROOT
BRANCH   1   3
ATOM      3  N   LEU d   1      14.501 -10.775 -10.139  0.00  0.00    -0.346 N 
ATOM      4  C   SEP d   1      15.087 -10.296 -11.225  0.00  0.00     0.243 C 
ATOM      5  O   SEP d   1      14.479 -10.139 -12.282  0.00  0.00    -0.271 OA
ATOM      6  H34 LEU d   1      15.023 -10.853  -9.289  0.00  0.00     0.163 HD
BRANCH   4   7
ATOM      7  CA  SEP d   1      16.564  -9.916 -11.102  0.00  0.00     0.110 C 
ATOM      8  H31 SEP d   1      17.152 -10.816 -10.870  0.00  0.00     0.090 H 
BRANCH   7   9
ATOM      9  N   SEP d   1      17.037  -9.342 -12.355  0.00  0.00    -0.344 N 
ATOM     10  C   PRO d   1      17.637 -10.066 -13.292  0.00  0.00     0.241 C 
ATOM     11  O   PRO d   1      17.918 -11.260 -13.127  0.00  0.00    -0.271 OA
ATOM     12  H30 SEP d   1      16.904  -8.364 -12.515  0.00  0.00     0.163 HD
BRANCH  10  13
ATOM     13  CA  PRO d   1      17.936  -9.314 -14.612  0.00  0.00     0.091 C 
ATOM     14  N   PRO d   1      19.258  -9.549 -15.213  0.00  0.00    -0.337 N 
ATOM     15  C   THR d   1      20.315  -8.981 -14.605  0.00  0.00     0.245 C 
ATOM     16  CD  PRO d   1      19.150 -10.077 -16.585  0.00  0.00    -0.001 C 
ATOM     17  O   THR d   1      20.173  -8.304 -13.589  0.00  0.00    -0.271 OA
ATOM     18  CG  PRO d   1      17.750  -9.728 -16.976  0.00  0.00    -0.048 C 
ATOM     19  H28 PRO d   1      19.304 -11.166 -16.602  0.00  0.00     0.064 H 
ATOM     20  H29 PRO d   1      19.878  -9.593 -17.252  0.00  0.00     0.064 H 
ATOM     21  CB  PRO d   1      16.963  -9.774 -15.710  0.00  0.00    -0.036 C 
ATOM     22  H26 PRO d   1      17.713  -8.720 -17.416  0.00  0.00     0.035 H 
ATOM     23  H27 PRO d   1      17.359 -10.459 -17.699  0.00  0.00     0.035 H 
ATOM     24  H24 PRO d   1      16.099  -9.096 -15.768  0.00  0.00     0.036 H 
ATOM     25  H25 PRO d   1      16.613 -10.798 -15.511  0.00  0.00     0.036 H 
ATOM     26  H23 PRO d   1      17.815  -8.238 -14.420  0.00  0.00     0.087 H 
BRANCH  15  27
ATOM     27  CA  THR d   1      21.714  -9.218 -15.173  0.00  0.00     0.114 C 
ATOM     28  H17 THR d   1      21.644  -9.529 -16.226  0.00  0.00     0.091 H 
BRANCH  27  29
ATOM     29  N   THR d   1      22.496  -7.990 -15.078  0.00  0.00    -0.344 N 
ATOM     30  C   ARG d   1      22.135  -6.893 -15.743  0.00  0.00     0.249 C 
ATOM     31  O   ARG d   1      21.200  -6.873 -16.549  0.00  0.00    -0.271 OA
ATOM     32  H16 THR d   1      23.315  -7.971 -14.505  0.00  0.00     0.163 HD
BRANCH  30  33
ATOM     33  CA  ARG d   1      22.954  -5.625 -15.459  0.00  0.00     0.176 C 
ATOM     34  H4  ARG d   1      24.022  -5.884 -15.502  0.00  0.00     0.099 H 
BRANCH  33  35
ATOM     35  N   ARG d   1      22.696  -4.586 -16.450  0.00  0.00    -0.067 N 
ATOM     36  H1  ARG d   1      23.248  -3.771 -16.234  0.00  0.00     0.275 HD
ATOM     37  H2  ARG d   1      21.718  -4.343 -16.435  0.00  0.00     0.275 HD
ATOM     38  H3  ARG d   1      22.944  -4.926 -17.366  0.00  0.00     0.275 HD
ENDBRANCH  33  35
BRANCH  33  39
ATOM     39  CB  ARG d   1      22.630  -5.113 -14.049  0.00  0.00    -0.029 C 
ATOM     40  H5  ARG d   1      22.570  -5.984 -13.380  0.00  0.00     0.036 H 
ATOM     41  H6  ARG d   1      21.651  -4.612 -14.089  0.00  0.00     0.036 H 
BRANCH  39  42
ATOM     42  CG  ARG d   1      23.639  -4.126 -13.447  0.00  0.00    -0.047 C 
ATOM     43  H7  ARG d   1      23.463  -3.124 -13.865  0.00  0.00     0.035 H 
ATOM     44  H8  ARG d   1      24.660  -4.452 -13.694  0.00  0.00     0.035 H 
BRANCH  42  45
ATOM     45  CD  ARG d   1      23.476  -4.077 -11.922  0.00  0.00     0.009 C 
ATOM     46  H9  ARG d   1      23.778  -5.052 -11.511  0.00  0.00     0.064 H 
ATOM     47  H10 ARG d   1      22.415  -3.896 -11.694  0.00  0.00     0.064 H 
BRANCH  45  48
ATOM     48  NE  ARG d   1      24.271  -3.035 -11.265  0.00  0.00    -0.227 N 
ATOM     49  CZ  ARG d   1      25.533  -3.180 -10.861  0.00  0.00     0.665 C 
ATOM     50  NH1 ARG d   1      26.183  -4.323 -11.055  0.00  0.00    -0.235 N 
ATOM     51  NH2 ARG d   1      26.154  -2.173 -10.262  0.00  0.00    -0.235 N 
ATOM     52  H12 ARG d   1      27.158  -4.421 -10.738  0.00  0.00     0.174 HD
ATOM     53  H13 ARG d   1      25.712  -5.111 -11.523  0.00  0.00     0.174 HD
ATOM     54  H14 ARG d   1      25.660  -1.283 -10.107  0.00  0.00     0.174 HD
ATOM     55  H15 ARG d   1      27.130  -2.281  -9.952  0.00  0.00     0.174 HD
ATOM     56  H11 ARG d   1      23.821  -2.123 -11.104  0.00  0.00     0.177 HD
ENDBRANCH  45  48
ENDBRANCH  42  45
ENDBRANCH  39  42
ENDBRANCH  33  39
ENDBRANCH  30  33
ENDBRANCH  27  29
BRANCH  27  57
ATOM     57  CB  THR d   1      22.378 -10.322 -14.347  0.00  0.00     0.060 C 
ATOM     58  H18 THR d   1      22.386 -10.018 -13.290  0.00  0.00     0.086 H 
BRANCH  57  59
ATOM     59  OG1 THR d   1      23.731 -10.523 -14.782  0.00  0.00    -0.393 OA
ATOM     60  H19 THR d   1      24.221  -9.716 -14.673  0.00  0.00     0.210 HD
ENDBRANCH  57  59
BRANCH  57  61
ATOM     61  CG2 THR d   1      21.588 -11.622 -14.482  0.00  0.00    -0.050 C 
ATOM     62  H20 THR d   1      22.072 -12.409 -13.885  0.00  0.00     0.031 H 
ATOM     63  H21 THR d   1      21.561 -11.927 -15.539  0.00  0.00     0.031 H 
ATOM     64  H22 THR d   1      20.561 -11.466 -14.119  0.00  0.00     0.031 H 
ENDBRANCH  57  61
ENDBRANCH  27  57
ENDBRANCH  15  27
ENDBRANCH  10  13
ENDBRANCH   7   9
BRANCH   7  65
ATOM     65  CB  SEP d   1      16.735  -8.895  -9.976  0.00  0.00     0.059 C 
ATOM     66  H32 SEP d   1      17.801  -8.652  -9.855  0.00  0.00     0.079 H 
ATOM     67  H33 SEP d   1      16.345  -9.312  -9.036  0.00  0.00     0.079 H 
BRANCH  65  68
ATOM     68  OG  SEP d   1      16.011  -7.717 -10.313  0.00  0.00    -0.280 OA
BRANCH  68  69
ATOM     69  P   SEP d   1      16.222  -6.398  -9.422  0.00  0.00     0.422 P 
ATOM     70  O1P SEP d   1      15.217  -5.343 -10.032  0.00  0.00    -0.617 OA
ATOM     71  O2P SEP d   1      17.723  -5.953  -9.571  0.00  0.00    -0.617 OA
ATOM     72  O3P SEP d   1      15.882  -6.763  -7.927  0.00  0.00    -0.617 OA
ENDBRANCH  68  69
ENDBRANCH  65  68
ENDBRANCH   7  65
ENDBRANCH   4   7
ENDBRANCH   1   3
BRANCH   1  73
ATOM     73  C   LEU d   1      12.221  -9.998 -10.546  0.00  0.00     0.243 C 
ATOM     74  O   LEU d   1      12.351  -8.919  -9.965  0.00  0.00    -0.271 OA
ATOM     75  N   PRO d   1      11.332 -10.177 -11.519  0.00  0.00    -0.337 N 
ATOM     76  CA  PRO d   1      10.515  -9.045 -11.991  0.00  0.00     0.091 C 
ATOM     77  CD  PRO d   1      11.173 -11.355 -12.387  0.00  0.00    -0.001 C 
ATOM     78  CB  PRO d   1      10.156  -9.462 -13.419  0.00  0.00    -0.036 C 
ATOM     79  H45 PRO d   1      11.117  -8.124 -11.993  0.00  0.00     0.087 H 
ATOM     80  CG  PRO d   1      10.063 -10.944 -13.342  0.00  0.00    -0.048 C 
ATOM     81  H46 PRO d   1      10.941  -9.155 -14.126  0.00  0.00     0.036 H 
ATOM     82  H47 PRO d   1       9.194  -9.024 -13.725  0.00  0.00     0.036 H 
ATOM     83  H48 PRO d   1      10.219 -11.394 -14.334  0.00  0.00     0.035 H 
ATOM     84  H49 PRO d   1       9.082 -11.251 -12.950  0.00  0.00     0.035 H 
ATOM     85  H50 PRO d   1      10.880 -12.239 -11.801  0.00  0.00     0.064 H 
ATOM     86  H51 PRO d   1      12.103 -11.569 -12.934  0.00  0.00     0.064 H 
BRANCH  76  87
ATOM     87  C   PRO d   1       9.251  -8.793 -11.176  0.00  0.00     0.241 C 
ATOM     88  O   PRO d   1       8.231  -8.346 -11.705  0.00  0.00    -0.271 OA
ATOM     89  N   GLY d   1       9.320  -9.047  -9.883  0.00  0.00    -0.351 N 
ATOM     90  H52 GLY d   1      10.191  -9.357  -9.503  0.00  0.00     0.163 HD
BRANCH  89  91
ATOM     91  CA  GLY d   1       8.196  -8.897  -8.995  0.00  0.00     0.069 C 
ATOM     92  H53 GLY d   1       7.344  -9.483  -9.369  0.00  0.00     0.078 H 
ATOM     93  H54 GLY d   1       7.911  -7.837  -8.930  0.00  0.00     0.078 H 
BRANCH  91  94
ATOM     94  C   GLY d   1       8.604  -9.399  -7.640  0.00  0.00     0.237 C 
ATOM     95  O   GLY d   1       9.812  -9.604  -7.437  0.00  0.00    -0.272 OA
ATOM     96  N16 D4K d   1       7.650  -9.764  -6.775  0.00  0.00    -0.345 N 
ATOM     97  C15 D4K d   1       6.336  -9.503  -6.832  0.00  0.00     0.026 C 
ATOM     98  C17 D4K d   1       8.019 -10.133  -5.309  0.00  0.00    -0.002 C 
ATOM     99  C19 D4K d   1       5.952  -9.083  -5.312  0.00  0.00    -0.044 C 
ATOM    100  H67 GLY d   1       6.131  -8.691  -7.545  0.00  0.00     0.074 H 
ATOM    101  C18 D4K d   1       6.749  -9.831  -4.522  0.00  0.00    -0.048 C 
ATOM    102  H72 GLY d   1       4.893  -9.302  -5.108  0.00  0.00     0.036 H 
ATOM    103  H73 GLY d   1       6.144  -8.012  -5.148  0.00  0.00     0.036 H 
ATOM    104  H70 GLY d   1       6.998  -9.276  -3.606  0.00  0.00     0.035 H 
ATOM    105  H71 GLY d   1       6.240 -10.769  -4.255  0.00  0.00     0.035 H 
ATOM    106  H68 GLY d   1       8.285 -11.197  -5.229  0.00  0.00     0.064 H 
ATOM    107  H69 GLY d   1       8.857  -9.518  -4.950  0.00  0.00     0.064 H 
BRANCH  97 108
ATOM    108  C08 D4K d   1       5.507 -10.731  -7.186  0.00  0.00     0.017 C 
ATOM    109  H66 GLY d   1       5.770 -11.521  -6.467  0.00  0.00     0.058 H 
BRANCH 108 110
ATOM    110  C07 D4K d   1       5.863 -11.205  -8.598  0.00  0.00    -0.045 A 
ATOM    111  C06 D4K d   1       5.317 -10.610  -9.778  0.00  0.00    -0.076 A 
ATOM    112  C05 D4K d   1       5.688 -11.065 -11.016  0.00  0.00    -0.080 A 
ATOM    113  H65 GLY d   1       4.607  -9.796  -9.693  0.00  0.00     0.084 H 
ATOM    114  C04 D4K d   1       6.608 -12.151 -11.118  0.00  0.00    -0.051 A 
ATOM    115  H64 GLY d   1       5.286 -10.604 -11.911  0.00  0.00     0.083 H 
ATOM    116  C03 D4K d   1       7.119 -12.706  -9.950  0.00  0.00     0.068 A 
ATOM    117  H63 GLY d   1       6.903 -12.536 -12.088  0.00  0.00     0.087 H 
ATOM    118  C20 D4K d   1       6.750 -12.242  -8.696  0.00  0.00    -0.044 A 
ATOM    119  H74 GLY d   1       7.161 -12.697  -7.802  0.00  0.00     0.088 H 
BRANCH 116 120
ATOM    120  O02 D4K d   1       8.018 -13.778  -9.976  0.00  0.00    -0.356 OA
BRANCH 120 121
ATOM    121  C01 D4K d   1       8.662 -13.995 -11.243  0.00  0.00     0.010 C 
ATOM    122  H60 GLY d   1       9.345 -14.853 -11.165  0.00  0.00     0.066 H 
ATOM    123  H61 GLY d   1       9.232 -13.097 -11.523  0.00  0.00     0.066 H 
ATOM    124  H62 GLY d   1       7.901 -14.201 -12.011  0.00  0.00     0.066 H 
ENDBRANCH 120 121
ENDBRANCH 116 120
ENDBRANCH 108 110
BRANCH 108 125
ATOM    125  C09 D4K d   1       3.976 -10.543  -7.139  0.00  0.00    -0.048 A 
ATOM    126  C14 D4K d   1       3.379  -9.375  -7.511  0.00  0.00    -0.076 A 
ATOM    127  C13 D4K d   1       1.999  -9.259  -7.457  0.00  0.00    -0.082 A 
ATOM    128  H55 GLY d   1       3.982  -8.540  -7.848  0.00  0.00     0.084 H 
ATOM    129  C12 D4K d   1       1.204 -10.330  -7.018  0.00  0.00    -0.083 A 
ATOM    130  H57 GLY d   1       1.528  -8.330  -7.757  0.00  0.00     0.083 H 
ATOM    131  C11 D4K d   1       1.791 -11.497  -6.652  0.00  0.00    -0.082 A 
ATOM    132  H59 GLY d   1       0.126 -10.225  -6.972  0.00  0.00     0.083 H 
ATOM    133  C10 D4K d   1       3.172 -11.607  -6.710  0.00  0.00    -0.076 A 
ATOM    134  H58 GLY d   1       1.188 -12.333  -6.318  0.00  0.00     0.083 H 
ATOM    135  H56 GLY d   1       3.641 -12.539  -6.416  0.00  0.00     0.084 H 
ENDBRANCH 108 125
ENDBRANCH  97 108
ENDBRANCH  91  94
ENDBRANCH  89  91
ENDBRANCH  76  87
ENDBRANCH   1  73
BRANCH   1 136
ATOM    136  CB  LEU d   1      12.682 -11.730  -8.797  0.00  0.00    -0.035 C 
ATOM    137  H36 LEU d   1      12.569 -10.866  -8.126  0.00  0.00     0.037 H 
ATOM    138  H37 LEU d   1      13.499 -12.371  -8.435  0.00  0.00     0.037 H 
BRANCH 136 139
ATOM    139  CG  LEU d   1      11.386 -12.548  -8.710  0.00  0.00    -0.059 C 
ATOM    140  H38 LEU d   1      10.585 -11.983  -9.209  0.00  0.00     0.038 H 
BRANCH 139 141
ATOM    141  CD1 LEU d   1      11.521 -13.903  -9.409  0.00  0.00    -0.073 C 
ATOM    142  H39 LEU d   1      10.574 -14.456  -9.324  0.00  0.00     0.028 H 
ATOM    143  H40 LEU d   1      12.327 -14.482  -8.934  0.00  0.00     0.028 H 
ATOM    144  H41 LEU d   1      11.759 -13.745 -10.471  0.00  0.00     0.028 H 
ENDBRANCH 139 141
BRANCH 139 145
ATOM    145  CD2 LEU d   1      11.007 -12.742  -7.244  0.00  0.00    -0.073 C 
ATOM    146  H42 LEU d   1      10.914 -11.760  -6.756  0.00  0.00     0.028 H 
ATOM    147  H43 LEU d   1      11.787 -13.330  -6.738  0.00  0.00     0.028 H 
ATOM    148  H44 LEU d   1      10.047 -13.275  -7.181  0.00  0.00     0.028 H 
ENDBRANCH 139 145
ENDBRANCH 136 139
ENDBRANCH   1 136
TORSDOF 31
