REMARK  31 active torsions:
REMARK  status: ('A' for Active; 'I' for Inactive)
REMARK    1  A    between atoms: C_1  and  CH3_3 
REMARK       I    between atoms: N_4  and  C_1 
REMARK    2  A    between atoms: CA_5  and  N_4 
REMARK    3  A    between atoms: C_6  and  CA_5 
REMARK    4  A    between atoms: CA_5  and  CB_8 
REMARK       I    between atoms: N_15  and  C_6 
REMARK    5  A    between atoms: CB_8  and  CG_9 
REMARK    6  A    between atoms: CG_9  and  CD_10 
REMARK    7  A    between atoms: CD_10  and  NE_11 
REMARK       I    between atoms: NE_11  and  CZ_12 
REMARK       I    between atoms: CZ_12  and  NH1_13 
REMARK    8  A    between atoms: CA_16  and  N_15 
REMARK    9  A    between atoms: C_17  and  CA_16 
REMARK   10  A    between atoms: CA_16  and  CB_19 
REMARK       I    between atoms: N_22  and  C_17 
REMARK   11  A    between atoms: CB_19  and  OG1_20 
REMARK   12  A    between atoms: CB_19  and  CG2_21 
REMARK   13  A    between atoms: C_24  and  CA_23 
REMARK       I    between atoms: N_29  and  C_24 
REMARK   14  A    between atoms: CA_30  and  N_29 
REMARK   15  A    between atoms: CA_30  and  CB_31 
REMARK   16  A    between atoms: C_33  and  CA_30 
REMARK   17  A    between atoms: CB_31  and  OG_32 
REMARK   18  A    between atoms: OG_32  and  P_35 
REMARK       I    between atoms: N_39  and  C_33 
REMARK   19  A    between atoms: CA_40  and  N_39 
REMARK   20  A    between atoms: C_41  and  CA_40 
REMARK   21  A    between atoms: CA_40  and  CB_43 
REMARK       I    between atoms: N_47  and  C_41 
REMARK   22  A    between atoms: CB_43  and  CG_44 
REMARK   23  A    between atoms: CG_44  and  CD1_45 
REMARK   24  A    between atoms: CG_44  and  CD2_46 
REMARK   25  A    between atoms: C_49  and  CA_48 
REMARK       I    between atoms: N_54  and  C_49 
REMARK   26  A    between atoms: CA_55  and  N_54 
REMARK   27  A    between atoms: C_56  and  CA_55 
REMARK       I    between atoms: N13_76  and  C_56 
REMARK   28  A    between atoms: C05_66  and  C12_61 
REMARK   29  A    between atoms: C02_63  and  C01_62 
REMARK   30  A    between atoms: C05_66  and  C04_65 
REMARK   31  A    between atoms: C05_66  and  C06_67 
ROOT
ATOM      1  CA  LEU d   1      13.230 -11.122 -10.188  0.00  0.00     0.090 C 
ATOM      2  H36 LEU d   1      13.086 -11.926 -10.925  0.00  0.00     0.087 H 
ENDROOT
BRANCH   1   3
ATOM      3  N   LEU d   1      14.632 -10.720 -10.201  0.00  0.00    -0.346 N 
ATOM      4  C   SEP d   1      15.186 -10.204 -11.284  0.00  0.00     0.243 C 
ATOM      5  O   SEP d   1      14.561 -10.057 -12.329  0.00  0.00    -0.271 OA
ATOM      6  H35 LEU d   1      15.184 -10.837  -9.375  0.00  0.00     0.163 HD
BRANCH   4   7
ATOM      7  CA  SEP d   1      16.670  -9.819 -11.182  0.00  0.00     0.110 C 
ATOM      8  H32 SEP d   1      17.253 -10.725 -10.962  0.00  0.00     0.090 H 
BRANCH   7   9
ATOM      9  N   SEP d   1      17.137  -9.256 -12.435  0.00  0.00    -0.344 N 
ATOM     10  C   PRO d   1      17.768  -9.970 -13.352  0.00  0.00     0.241 C 
ATOM     11  O   PRO d   1      18.055 -11.155 -13.180  0.00  0.00    -0.271 OA
ATOM     12  H31 SEP d   1      16.975  -8.286 -12.613  0.00  0.00     0.163 HD
BRANCH  10  13
ATOM     13  CA  PRO d   1      18.069  -9.218 -14.666  0.00  0.00     0.091 C 
ATOM     14  N   PRO d   1      19.404  -9.424 -15.247  0.00  0.00    -0.337 N 
ATOM     15  C   THR d   1      20.482  -8.908 -14.638  0.00  0.00     0.245 C 
ATOM     16  CD  PRO d   1      19.341 -10.015 -16.597  0.00  0.00    -0.001 C 
ATOM     17  O   THR d   1      20.374  -8.244 -13.603  0.00  0.00    -0.271 OA
ATOM     18  CG  PRO d   1      17.944  -9.730 -17.037  0.00  0.00    -0.048 C 
ATOM     19  H29 PRO d   1      19.529 -11.098 -16.561  0.00  0.00     0.064 H 
ATOM     20  H30 PRO d   1      20.070  -9.539 -17.269  0.00  0.00     0.064 H 
ATOM     21  CB  PRO d   1      17.128  -9.723 -15.779  0.00  0.00    -0.036 C 
ATOM     22  H27 PRO d   1      17.889  -8.752 -17.537  0.00  0.00     0.035 H 
ATOM     23  H28 PRO d   1      17.588 -10.513 -17.723  0.00  0.00     0.035 H 
ATOM     24  H25 PRO d   1      16.266  -9.048 -15.886  0.00  0.00     0.036 H 
ATOM     25  H26 PRO d   1      16.773 -10.738 -15.548  0.00  0.00     0.036 H 
ATOM     26  H24 PRO d   1      17.915  -8.144 -14.485  0.00  0.00     0.087 H 
BRANCH  15  27
ATOM     27  CA  THR d   1      21.866  -9.195 -15.217  0.00  0.00     0.114 C 
ATOM     28  H18 THR d   1      21.763  -9.530 -16.260  0.00  0.00     0.091 H 
BRANCH  27  29
ATOM     29  N   THR d   1      22.681  -7.987 -15.187  0.00  0.00    -0.344 N 
ATOM     30  C   ARG d   1      22.266  -6.866 -15.769  0.00  0.00     0.241 C 
ATOM     31  O   ARG d   1      21.281  -6.820 -16.517  0.00  0.00    -0.271 OA
ATOM     32  H17 THR d   1      23.566  -8.002 -14.722  0.00  0.00     0.163 HD
BRANCH  30  33
ATOM     33  CA  ARG d   1      23.107  -5.613 -15.479  0.00  0.00     0.089 C 
ATOM     34  H5  ARG d   1      24.167  -5.907 -15.470  0.00  0.00     0.087 H 
BRANCH  33  35
ATOM     35  N   ARG d   1      22.929  -4.602 -16.504  0.00  0.00    -0.348 N 
ATOM     36  C   ACE d   1      23.267  -4.854 -17.765  0.00  0.00     0.214 C 
ATOM     37  O   ACE d   1      23.722  -5.949 -18.109  0.00  0.00    -0.274 OA
ATOM     38  H4  ARG d   1      22.549  -3.709 -16.261  0.00  0.00     0.163 HD
BRANCH  36  39
ATOM     39  CH3 ACE d   1      23.045  -3.718 -18.729  0.00  0.00    -0.003 C 
ATOM     40  H1  ACE d   1      22.634  -2.853 -18.188  0.00  0.00     0.040 H 
ATOM     41  H2  ACE d   1      22.336  -4.032 -19.509  0.00  0.00     0.040 H 
ATOM     42  H3  ACE d   1      24.002  -3.439 -19.194  0.00  0.00     0.040 H 
ENDBRANCH  36  39
ENDBRANCH  33  35
BRANCH  33  43
ATOM     43  CB  ARG d   1      22.753  -5.041 -14.098  0.00  0.00    -0.036 C 
ATOM     44  H6  ARG d   1      22.578  -5.888 -13.418  0.00  0.00     0.036 H 
ATOM     45  H7  ARG d   1      21.826  -4.458 -14.204  0.00  0.00     0.036 H 
BRANCH  43  46
ATOM     46  CG  ARG d   1      23.821  -4.120 -13.443  0.00  0.00    -0.048 C 
ATOM     47  H8  ARG d   1      23.707  -3.098 -13.835  0.00  0.00     0.035 H 
ATOM     48  H9  ARG d   1      24.824  -4.497 -13.689  0.00  0.00     0.035 H 
BRANCH  46  49
ATOM     49  CD  ARG d   1      23.649  -4.098 -11.909  0.00  0.00     0.009 C 
ATOM     50  H10 ARG d   1      23.957  -5.079 -11.518  0.00  0.00     0.064 H 
ATOM     51  H11 ARG d   1      22.584  -3.933 -11.689  0.00  0.00     0.064 H 
BRANCH  49  52
ATOM     52  NE  ARG d   1      24.422  -3.067 -11.206  0.00  0.00    -0.227 N 
ATOM     53  CZ  ARG d   1      25.697  -3.185 -10.831  0.00  0.00     0.665 C 
ATOM     54  NH1 ARG d   1      26.293  -2.194 -10.177  0.00  0.00    -0.235 N 
ATOM     55  NH2 ARG d   1      26.387  -4.285 -11.110  0.00  0.00    -0.235 N 
ATOM     56  H13 ARG d   1      27.277  -2.286  -9.888  0.00  0.00     0.174 HD
ATOM     57  H14 ARG d   1      25.771  -1.333  -9.959  0.00  0.00     0.174 HD
ATOM     58  H15 ARG d   1      25.937  -5.061 -11.617  0.00  0.00     0.174 HD
ATOM     59  H16 ARG d   1      27.372  -4.362 -10.820  0.00  0.00     0.174 HD
ATOM     60  H12 ARG d   1      23.942  -2.183 -10.985  0.00  0.00     0.177 HD
ENDBRANCH  49  52
ENDBRANCH  46  49
ENDBRANCH  43  46
ENDBRANCH  33  43
ENDBRANCH  30  33
ENDBRANCH  27  29
BRANCH  27  61
ATOM     61  CB  THR d   1      22.516 -10.308 -14.392  0.00  0.00     0.060 C 
ATOM     62  H19 THR d   1      22.550  -9.998 -13.337  0.00  0.00     0.086 H 
BRANCH  61  63
ATOM     63  OG1 THR d   1      23.853 -10.556 -14.848  0.00  0.00    -0.393 OA
ATOM     64  H20 THR d   1      24.369  -9.763 -14.759  0.00  0.00     0.210 HD
ENDBRANCH  61  63
BRANCH  61  65
ATOM     65  CG2 THR d   1      21.696 -11.577 -14.510  0.00  0.00    -0.050 C 
ATOM     66  H21 THR d   1      22.166 -12.374 -13.916  0.00  0.00     0.031 H 
ATOM     67  H22 THR d   1      21.648 -11.886 -15.565  0.00  0.00     0.031 H 
ATOM     68  H23 THR d   1      20.678 -11.392 -14.135  0.00  0.00     0.031 H 
ENDBRANCH  61  65
ENDBRANCH  27  61
ENDBRANCH  15  27
ENDBRANCH  10  13
ENDBRANCH   7   9
BRANCH   7  69
ATOM     69  CB  SEP d   1      16.885  -8.810 -10.055  0.00  0.00     0.059 C 
ATOM     70  H33 SEP d   1      17.954  -8.560  -9.979  0.00  0.00     0.079 H 
ATOM     71  H34 SEP d   1      16.540  -9.239  -9.102  0.00  0.00     0.079 H 
BRANCH  69  72
ATOM     72  OG  SEP d   1      16.147  -7.650 -10.348  0.00  0.00    -0.280 OA
BRANCH  72  73
ATOM     73  P   SEP d   1      16.380  -6.340  -9.448  0.00  0.00     0.422 P 
ATOM     74  O1P SEP d   1      15.387  -5.270 -10.063  0.00  0.00    -0.617 OA
ATOM     75  O3P SEP d   1      16.008  -6.708  -7.938  0.00  0.00    -0.617 OA
ATOM     76  O2P SEP d   1      17.891  -5.944  -9.622  0.00  0.00    -0.617 OA
ENDBRANCH  72  73
ENDBRANCH  69  72
ENDBRANCH   7  69
ENDBRANCH   4   7
ENDBRANCH   1   3
BRANCH   1  77
ATOM     77  C   LEU d   1      12.334  -9.943 -10.569  0.00  0.00     0.243 C 
ATOM     78  O   LEU d   1      12.437  -8.872  -9.968  0.00  0.00    -0.271 OA
ATOM     79  N   PRO d   1      11.445 -10.117 -11.552  0.00  0.00    -0.337 N 
ATOM     80  CA  PRO d   1      10.620  -8.979 -11.991  0.00  0.00     0.091 C 
ATOM     81  CD  PRO d   1      11.279 -11.281 -12.433  0.00  0.00    -0.001 C 
ATOM     82  CB  PRO d   1      10.289  -9.332 -13.441  0.00  0.00    -0.036 C 
ATOM     83  H46 PRO d   1      11.212  -8.053 -11.949  0.00  0.00     0.087 H 
ATOM     84  CG  PRO d   1      10.253 -10.827 -13.441  0.00  0.00    -0.048 C 
ATOM     85  H47 PRO d   1      11.067  -8.958 -14.123  0.00  0.00     0.036 H 
ATOM     86  H48 PRO d   1       9.314  -8.916 -13.733  0.00  0.00     0.036 H 
ATOM     87  H49 PRO d   1      10.505 -11.213 -14.440  0.00  0.00     0.035 H 
ATOM     88  H50 PRO d   1       9.253 -11.183 -13.152  0.00  0.00     0.035 H 
ATOM     89  H51 PRO d   1      10.914 -12.151 -11.868  0.00  0.00     0.064 H 
ATOM     90  H52 PRO d   1      12.228 -11.536 -12.928  0.00  0.00     0.064 H 
BRANCH  80  91
ATOM     91  C   PRO d   1       9.355  -8.771 -11.164  0.00  0.00     0.241 C 
ATOM     92  O   PRO d   1       8.289  -8.439 -11.690  0.00  0.00    -0.271 OA
ATOM     93  N   GLY d   1       9.478  -8.914  -9.857  0.00  0.00    -0.351 N 
ATOM     94  H53 GLY d   1      10.386  -9.082  -9.473  0.00  0.00     0.163 HD
BRANCH  93  95
ATOM     95  CA  GLY d   1       8.345  -8.836  -8.961  0.00  0.00     0.069 C 
ATOM     96  H54 GLY d   1       7.523  -9.468  -9.329  0.00  0.00     0.078 H 
ATOM     97  H55 GLY d   1       7.997  -7.796  -8.875  0.00  0.00     0.078 H 
BRANCH  95  98
ATOM     98  C   GLY d   1       8.831  -9.335  -7.631  0.00  0.00     0.237 C 
ATOM     99  O   GLY d   1      10.034  -9.507  -7.473  0.00  0.00    -0.272 OA
ATOM    100  N13 D4H d   1       7.806  -9.836  -6.778  0.00  0.00    -0.345 N 
ATOM    101  C14 D4H d   1       8.272 -10.095  -5.242  0.00  0.00    -0.002 C 
ATOM    102  C12 D4H d   1       6.516  -9.645  -6.823  0.00  0.00     0.026 C 
ATOM    103  C15 D4H d   1       7.141  -9.975  -4.475  0.00  0.00    -0.048 C 
ATOM    104  H56 GLY d   1       8.699 -11.104  -5.138  0.00  0.00     0.064 H 
ATOM    105  H57 GLY d   1       9.020  -9.347  -4.939  0.00  0.00     0.064 H 
ATOM    106  C16 D4H d   1       6.108  -9.257  -5.330  0.00  0.00    -0.044 C 
ATOM    107  H69 GLY d   1       7.357  -9.389  -3.570  0.00  0.00     0.035 H 
ATOM    108  H70 GLY d   1       6.770 -10.970  -4.188  0.00  0.00     0.035 H 
ATOM    109  H71 GLY d   1       5.093  -9.610  -5.097  0.00  0.00     0.036 H 
ATOM    110  H72 GLY d   1       6.162  -8.169  -5.179  0.00  0.00     0.036 H 
ATOM    111  H60 GLY d   1       6.249  -8.854  -7.540  0.00  0.00     0.074 H 
BRANCH 102 112
ATOM    112  C05 D4H d   1       5.804 -10.993  -7.184  0.00  0.00     0.017 C 
ATOM    113  H65 GLY d   1       6.101 -11.725  -6.419  0.00  0.00     0.058 H 
BRANCH 112 114
ATOM    114  C04 D4H d   1       6.296 -11.516  -8.535  0.00  0.00    -0.047 A 
ATOM    115  C03 D4H d   1       7.305 -12.474  -8.591  0.00  0.00    -0.070 A 
ATOM    116  C02 D4H d   1       7.727 -12.924  -9.841  0.00  0.00    -0.061 A 
ATOM    117  H64 GLY d   1       7.752 -12.861  -7.683  0.00  0.00     0.085 H 
ATOM    118  C19 D4H d   1       7.191 -12.398 -11.029  0.00  0.00    -0.077 A 
ATOM    119  C18 D4H d   1       6.210 -11.438 -10.966  0.00  0.00    -0.082 A 
ATOM    120  H75 GLY d   1       7.550 -12.748 -11.990  0.00  0.00     0.084 H 
ATOM    121  C17 D4H d   1       5.758 -10.994  -9.735  0.00  0.00    -0.076 A 
ATOM    122  H74 GLY d   1       5.791 -11.029 -11.878  0.00  0.00     0.083 H 
ATOM    123  H73 GLY d   1       4.983 -10.238  -9.690  0.00  0.00     0.084 H 
BRANCH 116 124
ATOM    124  C01 D4H d   1       8.771 -13.982  -9.989  0.00  0.00    -0.051 C 
ATOM    125  H61 GLY d   1       9.107 -14.308  -8.993  0.00  0.00     0.033 H 
ATOM    126  H62 GLY d   1       9.626 -13.577 -10.550  0.00  0.00     0.033 H 
ATOM    127  H63 GLY d   1       8.349 -14.840 -10.533  0.00  0.00     0.033 H 
ENDBRANCH 116 124
ENDBRANCH 112 114
BRANCH 112 128
ATOM    128  C06 D4H d   1       4.272 -10.917  -7.153  0.00  0.00    -0.048 A 
ATOM    129  C11 D4H d   1       3.569  -9.742  -7.409  0.00  0.00    -0.076 A 
ATOM    130  C10 D4H d   1       2.161  -9.741  -7.353  0.00  0.00    -0.082 A 
ATOM    131  H59 GLY d   1       4.104  -8.831  -7.651  0.00  0.00     0.084 H 
ATOM    132  C09 D4H d   1       1.455 -10.893  -7.046  0.00  0.00    -0.083 A 
ATOM    133  H58 GLY d   1       1.621  -8.823  -7.554  0.00  0.00     0.083 H 
ATOM    134  C08 D4H d   1       2.159 -12.069  -6.803  0.00  0.00    -0.082 A 
ATOM    135  H68 GLY d   1       0.372 -10.879  -6.996  0.00  0.00     0.083 H 
ATOM    136  C07 D4H d   1       3.555 -12.079  -6.850  0.00  0.00    -0.076 A 
ATOM    137  H67 GLY d   1       1.621 -12.982  -6.576  0.00  0.00     0.083 H 
ATOM    138  H66 GLY d   1       4.090 -13.000  -6.649  0.00  0.00     0.084 H 
ENDBRANCH 112 128
ENDBRANCH 102 112
ENDBRANCH  95  98
ENDBRANCH  93  95
ENDBRANCH  80  91
ENDBRANCH   1  77
BRANCH   1 139
ATOM    139  CB  LEU d   1      12.851 -11.648  -8.808  0.00  0.00    -0.035 C 
ATOM    140  H37 LEU d   1      12.762 -10.783  -8.134  0.00  0.00     0.037 H 
ATOM    141  H38 LEU d   1      13.668 -12.299  -8.463  0.00  0.00     0.037 H 
BRANCH 139 142
ATOM    142  CG  LEU d   1      11.553 -12.444  -8.713  0.00  0.00    -0.059 C 
ATOM    143  H39 LEU d   1      10.750 -11.885  -9.215  0.00  0.00     0.038 H 
BRANCH 142 144
ATOM    144  CD1 LEU d   1      11.736 -13.791  -9.416  0.00  0.00    -0.073 C 
ATOM    145  H40 LEU d   1      10.802 -14.369  -9.350  0.00  0.00     0.028 H 
ATOM    146  H41 LEU d   1      12.549 -14.351  -8.930  0.00  0.00     0.028 H 
ATOM    147  H42 LEU d   1      11.989 -13.622 -10.473  0.00  0.00     0.028 H 
ENDBRANCH 142 144
BRANCH 142 148
ATOM    148  CD2 LEU d   1      11.172 -12.646  -7.257  0.00  0.00    -0.073 C 
ATOM    149  H43 LEU d   1      11.046 -11.667  -6.772  0.00  0.00     0.028 H 
ATOM    150  H44 LEU d   1      11.966 -13.209  -6.745  0.00  0.00     0.028 H 
ATOM    151  H45 LEU d   1      10.228 -13.208  -7.199  0.00  0.00     0.028 H 
ENDBRANCH 142 148
ENDBRANCH 139 142
ENDBRANCH   1 139
TORSDOF 31
