REMARK  12 active torsions:
REMARK  status: ('A' for Active; 'I' for Inactive)
REMARK    1  A    between atoms: N_1  and  CA_2 
REMARK    2  A    between atoms: CA_2  and  C_3 
REMARK    3  A    between atoms: CA_2  and  CB_5 
REMARK       I    between atoms: C_3  and  N_6 
REMARK    4  A    between atoms: N_6  and  CA_7 
REMARK    5  A    between atoms: CA_7  and  C_8 
REMARK    6  A    between atoms: CA_7  and  CB_10 
REMARK       I    between atoms: C_8  and  N_13 
REMARK    7  A    between atoms: CB_10  and  OG1_11 
REMARK    8  A    between atoms: CB_10  and  CG2_12 
REMARK    9  A    between atoms: N_13  and  CA_14 
REMARK   10  A    between atoms: CA_14  and  C_15 
REMARK   11  A    between atoms: CA_14  and  CB_17 
REMARK   12  A    between atoms: CB_17  and  CG_18 
ROOT
ATOM      1  CA  THR d   1     -18.509  18.773  -1.425  0.00  0.00     0.113 C 
ATOM      2  H9  THR d   1     -17.902  18.209  -2.148  0.00  0.00     0.091 H 
ENDROOT
BRANCH   1   3
ATOM      3  N   THR d   1     -18.112  20.172  -1.464  0.00  0.00    -0.344 N 
ATOM      4  C   GLU d   1     -17.277  20.662  -2.372  0.00  0.00     0.248 C 
ATOM      5  O   GLU d   1     -16.582  19.952  -3.110  0.00  0.00    -0.271 OA
ATOM      6  H8  THR d   1     -18.485  20.793  -0.775  0.00  0.00     0.163 HD
BRANCH   4   7
ATOM      7  CA  GLU d   1     -17.194  22.209  -2.418  0.00  0.00     0.172 C 
ATOM      8  H4  GLU d   1     -18.124  22.606  -1.986  0.00  0.00     0.098 H 
BRANCH   7   9
ATOM      9  N   GLU d   1     -16.052  22.711  -1.587  0.00  0.00    -0.067 N 
ATOM     10  H1  GLU d   1     -16.020  23.717  -1.633  0.00  0.00     0.275 HD
ATOM     11  H2  GLU d   1     -15.188  22.331  -1.939  0.00  0.00     0.275 HD
ATOM     12  H3  GLU d   1     -16.181  22.423  -0.630  0.00  0.00     0.275 HD
ENDBRANCH   7   9
BRANCH   7  13
ATOM     13  CB  GLU d   1     -17.092  22.728  -3.870  0.00  0.00    -0.042 C 
ATOM     14  H5  GLU d   1     -17.940  22.346  -4.457  0.00  0.00     0.030 H 
ATOM     15  H6  GLU d   1     -16.150  22.380  -4.318  0.00  0.00     0.030 H 
ATOM     16  H7  GLU d   1     -17.113  23.828  -3.869  0.00  0.00     0.030 H 
ENDBRANCH   7  13
ENDBRANCH   4   7
ENDBRANCH   1   3
BRANCH   1  17
ATOM     17  C   THR d   1     -19.972  18.691  -1.815  0.00  0.00     0.243 C 
ATOM     18  O   THR d   1     -20.733  19.649  -1.654  0.00  0.00    -0.271 OA
ATOM     19  N   PHE d   1     -20.375  17.535  -2.333  0.00  0.00    -0.344 N 
ATOM     20  H15 PHE d   1     -19.713  16.794  -2.448  0.00  0.00     0.163 HD
BRANCH  19  21
ATOM     21  CA  PHE d   1     -21.791  17.316  -2.747  0.00  0.00     0.100 C 
ATOM     22  H16 PHE d   1     -22.427  17.873  -2.043  0.00  0.00     0.090 H 
BRANCH  21  23
ATOM     23  C   PHE d   1     -22.223  15.816  -2.662  0.00  0.00     0.197 C 
ATOM     24  O   PHE d   1     -21.339  15.034  -2.217  0.00  0.00    -0.646 OA
ATOM     25  OXT PHE d   1     -23.403  15.401  -2.968  0.00  0.00    -0.646 OA
ENDBRANCH  21  23
BRANCH  21  26
ATOM     26  CB  PHE d   1     -22.026  17.900  -4.138  0.00  0.00    -0.013 C 
ATOM     27  H17 PHE d   1     -21.889  18.990  -4.091  0.00  0.00     0.043 H 
ATOM     28  H18 PHE d   1     -23.057  17.673  -4.446  0.00  0.00     0.043 H 
BRANCH  26  29
ATOM     29  CG  PHE d   1     -21.094  17.346  -5.150  0.00  0.00    -0.056 A 
ATOM     30  CD1 PHE d   1     -19.843  17.919  -5.360  0.00  0.00    -0.077 A 
ATOM     31  CE1 PHE d   1     -18.982  17.386  -6.298  0.00  0.00    -0.082 A 
ATOM     32  H19 PHE d   1     -19.544  18.788  -4.785  0.00  0.00     0.084 H 
ATOM     33  CZ  PHE d   1     -19.349  16.248  -7.002  0.00  0.00    -0.083 A 
ATOM     34  H21 PHE d   1     -18.023  17.855  -6.484  0.00  0.00     0.083 H 
ATOM     35  CE2 PHE d   1     -20.593  15.661  -6.789  0.00  0.00    -0.082 A 
ATOM     36  H23 PHE d   1     -18.664  15.814  -7.721  0.00  0.00     0.083 H 
ATOM     37  CD2 PHE d   1     -21.447  16.202  -5.857  0.00  0.00    -0.077 A 
ATOM     38  H22 PHE d   1     -20.887  14.784  -7.354  0.00  0.00     0.083 H 
ATOM     39  H20 PHE d   1     -22.406  15.732  -5.671  0.00  0.00     0.084 H 
ENDBRANCH  26  29
ENDBRANCH  21  26
ENDBRANCH  19  21
ENDBRANCH   1  17
BRANCH   1  40
ATOM     40  CB  THR d   1     -18.323  18.148  -0.027  0.00  0.00     0.060 C 
ATOM     41  H10 THR d   1     -18.717  17.121  -0.058  0.00  0.00     0.086 H 
BRANCH  40  42
ATOM     42  OG1 THR d   1     -19.060  18.884   0.966  0.00  0.00    -0.393 OA
ATOM     43  H11 THR d   1     -18.931  18.482   1.817  0.00  0.00     0.210 HD
ENDBRANCH  40  42
BRANCH  40  44
ATOM     44  CG2 THR d   1     -16.865  18.081   0.356  0.00  0.00    -0.050 C 
ATOM     45  H12 THR d   1     -16.769  17.631   1.355  0.00  0.00     0.031 H 
ATOM     46  H13 THR d   1     -16.442  19.096   0.368  0.00  0.00     0.031 H 
ATOM     47  H14 THR d   1     -16.321  17.466  -0.376  0.00  0.00     0.031 H 
ENDBRANCH  40  44
ENDBRANCH   1  40
TORSDOF 12
