REMARK  7 active torsions:
REMARK  status: ('A' for Active; 'I' for Inactive)
REMARK    1  A    between atoms: P_1  and  O5'_5 
REMARK    2  A    between atoms: O5'_5  and  C5'_6 
REMARK    3  A    between atoms: C5'_6  and  C4'_7 
REMARK    4  A    between atoms: C3'_9  and  O3'_10 
REMARK    5  A    between atoms: C2'_11  and  O2'_12 
REMARK    6  A    between atoms: C1'_13  and  N9_14 
REMARK    7  A    between atoms: C6_18  and  N6_19 
ROOT
ATOM      1  C4' AMP d   1     -17.525   9.104   6.506  0.00  0.00     0.089 C 
ATOM      2  O4' AMP d   1     -16.545   9.150   5.448  0.00  0.00    -0.353 OA
ATOM      3  C3' AMP d   1     -17.586   7.681   6.968  0.00  0.00     0.091 C 
ATOM      4  C2' AMP d   1     -16.169   7.186   6.750  0.00  0.00     0.105 C 
ATOM      5  C1' AMP d   1     -15.692   8.001   5.543  0.00  0.00     0.139 C 
ATOM      6  H3  AMP d   1     -18.498   9.451   6.129  0.00  0.00     0.090 H 
ATOM      7  H4  AMP d   1     -17.884   7.592   8.023  0.00  0.00     0.091 H 
ATOM      8  H6  AMP d   1     -15.534   7.359   7.631  0.00  0.00     0.093 H 
ATOM      9  H8  AMP d   1     -15.822   7.380   4.644  0.00  0.00     0.122 H 
ENDROOT
BRANCH   5  10
ATOM     10  N9  AMP d   1     -14.265   8.443   5.577  0.00  0.00    -0.294 N 
ATOM     11  C8  AMP d   1     -13.822   9.700   5.792  0.00  0.00     0.071 A 
ATOM     12  N7  AMP d   1     -12.468   9.766   5.712  0.00  0.00    -0.236 NA
ATOM     13  H9  AMP d   1     -14.467  10.552   6.003  0.00  0.00     0.144 H 
ATOM     14  C5  AMP d   1     -12.050   8.510   5.417  0.00  0.00     0.149 A 
ATOM     15  C6  AMP d   1     -10.746   7.921   5.234  0.00  0.00     0.155 A 
ATOM     16  C4  AMP d   1     -13.173   7.665   5.343  0.00  0.00     0.167 A 
ATOM     17  N1  AMP d   1     -10.714   6.537   4.975  0.00  0.00    -0.222 NA
ATOM     18  C2  AMP d   1     -11.844   5.801   4.897  0.00  0.00     0.091 A 
ATOM     19  N3  AMP d   1     -13.062   6.336   5.076  0.00  0.00    -0.222 NA
ATOM     20  H12 AMP d   1     -11.764   4.741   4.682  0.00  0.00     0.146 H 
BRANCH  15  21
ATOM     21  N6  AMP d   1      -9.617   8.659   5.285  0.00  0.00    -0.382 N 
ATOM     22  H10 AMP d   1      -8.701   8.208   5.150  0.00  0.00     0.157 HD
ATOM     23  H11 AMP d   1      -9.672   9.673   5.459  0.00  0.00     0.157 HD
ENDBRANCH  15  21
ENDBRANCH   5  10
BRANCH   4  24
ATOM     24  O2' AMP d   1     -16.209   5.795   6.428  0.00  0.00    -0.388 OA
ATOM     25  H7  AMP d   1     -16.610   5.317   7.144  0.00  0.00     0.210 HD
ENDBRANCH   4  24
BRANCH   1  26
ATOM     26  C5' AMP d   1     -17.129   9.892   7.739  0.00  0.00     0.059 C 
ATOM     27  H1  AMP d   1     -18.002  10.020   8.396  0.00  0.00     0.079 H 
ATOM     28  H2  AMP d   1     -16.336   9.358   8.283  0.00  0.00     0.079 H 
BRANCH  26  29
ATOM     29  O5' AMP d   1     -16.657  11.151   7.324  0.00  0.00    -0.280 OA
BRANCH  29  30
ATOM     30  P   AMP d   1     -16.896  12.370   8.306  0.00  0.00     0.422 P 
ATOM     31  O1P AMP d   1     -15.969  13.444   7.751  0.00  0.00    -0.617 OA
ATOM     32  O2P AMP d   1     -16.543  11.954   9.714  0.00  0.00    -0.617 OA
ATOM     33  O3P AMP d   1     -18.361  12.726   8.134  0.00  0.00    -0.617 OA
ENDBRANCH  29  30
ENDBRANCH  26  29
ENDBRANCH   1  26
BRANCH   3  34
ATOM     34  O3' AMP d   1     -18.521   7.020   6.124  0.00  0.00    -0.390 OA
ATOM     35  H5  AMP d   1     -18.591   6.109   6.383  0.00  0.00     0.210 HD
ENDBRANCH   3  34
TORSDOF 7
