REMARK  10 active torsions:
REMARK  status: ('A' for Active; 'I' for Inactive)
REMARK    1  A    between atoms: C13_2  and  C10_1 
REMARK    2  A    between atoms: C15_3  and  C14_23 
REMARK    3  A    between atoms: C16_24  and  C15_3 
REMARK    4  A    between atoms: C15_3  and  O04_31 
REMARK    5  A    between atoms: O01_9  and  C01_8 
REMARK    6  A    between atoms: C02_10  and  O01_9 
REMARK    7  A    between atoms: C03_11  and  O02_12 
REMARK    8  A    between atoms: O02_12  and  C04_13 
REMARK    9  A    between atoms: C14_23  and  N02_22 
REMARK   10  A    between atoms: C16_24  and  N03_25 
ROOT
ATOM      1  C13 DD5 d   1      28.990 228.834 147.267  0.00  0.00     0.088 A 
ATOM      2  C21 DD5 d   1      27.060 227.759 147.384  0.00  0.00     0.001 A 
ATOM      3  C22 DD5 d   1      27.989 228.233 146.479  0.00  0.00    -0.036 A 
ATOM      4  N01 DD5 d   1      28.641 228.748 148.575  0.00  0.00    -0.172 NA
ATOM      5  N02 DD5 d   1      27.474 228.096 148.606  0.00  0.00    -0.278 N 
ATOM      6  H6  DD5 d   1      26.152 227.208 147.143  0.00  0.00     0.114 H 
ATOM      7  H7  DD5 d   1      27.955 228.159 145.393  0.00  0.00     0.089 H 
ENDROOT
BRANCH   1   8
ATOM      8  C10 DD5 d   1      30.212 229.543 146.883  0.00  0.00    -0.003 A 
ATOM      9  C09 DD5 d   1      30.903 230.143 147.928  0.00  0.00    -0.036 A 
ATOM     10  C03 DD5 d   1      32.062 230.873 147.717  0.00  0.00     0.103 A 
ATOM     11  H18 DD5 d   1      30.525 230.037 148.938  0.00  0.00     0.089 H 
ATOM     12  C02 DD5 d   1      32.565 231.033 146.427  0.00  0.00     0.108 A 
ATOM     13  C12 DD5 d   1      31.878 230.452 145.358  0.00  0.00    -0.047 A 
ATOM     14  C11 DD5 d   1      30.704 229.709 145.584  0.00  0.00    -0.068 A 
ATOM     15  H20 DD5 d   1      32.252 230.574 144.348  0.00  0.00     0.087 H 
ATOM     16  H19 DD5 d   1      30.178 229.263 144.747  0.00  0.00     0.085 H 
BRANCH  10  17
ATOM     17  O02 DD5 d   1      32.777 231.460 148.710  0.00  0.00    -0.343 OA
BRANCH  17  18
ATOM     18  C04 DD5 d   1      32.105 231.607 149.940  0.00  0.00     0.045 C 
ATOM     19  C05 DD5 d   1      33.012 232.486 150.768  0.00  0.00    -0.040 C 
ATOM     20  C06 DD5 d   1      34.075 231.477 151.193  0.00  0.00    -0.063 C 
ATOM     21  H10 DD5 d   1      32.485 232.909 151.636  0.00  0.00     0.036 H 
ATOM     22  H11 DD5 d   1      33.444 233.301 150.169  0.00  0.00     0.036 H 
ATOM     23  C07 DD5 d   1      33.274 230.266 151.638  0.00  0.00    -0.063 C 
ATOM     24  H12 DD5 d   1      34.680 231.872 152.022  0.00  0.00     0.033 H 
ATOM     25  H13 DD5 d   1      34.732 231.222 150.349  0.00  0.00     0.033 H 
ATOM     26  C08 DD5 d   1      32.001 230.355 150.815  0.00  0.00    -0.040 C 
ATOM     27  H14 DD5 d   1      33.050 230.317 152.714  0.00  0.00     0.033 H 
ATOM     28  H15 DD5 d   1      33.817 229.335 151.421  0.00  0.00     0.033 H 
ATOM     29  H16 DD5 d   1      31.900 229.461 150.181  0.00  0.00     0.036 H 
ATOM     30  H17 DD5 d   1      31.128 230.433 151.480  0.00  0.00     0.036 H 
ATOM     31  H9  DD5 d   1      31.110 232.047 149.775  0.00  0.00     0.084 H 
ENDBRANCH  17  18
ENDBRANCH  10  17
BRANCH  12  32
ATOM     32  O01 DD5 d   1      33.708 231.794 146.372  0.00  0.00    -0.287 OA
BRANCH  32  33
ATOM     33  C01 DD5 d   1      34.260 232.183 145.133  0.00  0.00     0.310 C 
ATOM     34  F01 DD5 d   1      34.752 231.083 144.518  0.00  0.00    -0.184 F 
ATOM     35  F02 DD5 d   1      33.348 232.770 144.328  0.00  0.00    -0.184 F 
ATOM     36  H8  DD5 d   1      35.078 232.896 145.317  0.00  0.00     0.195 H 
ENDBRANCH  32  33
ENDBRANCH  12  32
ENDBRANCH   1   8
BRANCH   5  37
ATOM     37  C14 DD5 d   1      26.791 227.793 149.855  0.00  0.00     0.042 C 
ATOM     38  H21 DD5 d   1      26.807 226.702 149.992  0.00  0.00     0.071 H 
ATOM     39  H22 DD5 d   1      27.351 228.273 150.671  0.00  0.00     0.071 H 
BRANCH  37  40
ATOM     40  C15 DD5 d   1      25.307 228.265 149.952  0.00  0.00     0.076 C 
ATOM     41  H1  DD5 d   1      24.688 227.401 149.668  0.00  0.00     0.088 H 
BRANCH  40  42
ATOM     42  C16 DD5 d   1      24.922 228.645 151.425  0.00  0.00     0.108 C 
ATOM     43  H23 DD5 d   1      24.601 227.709 151.905  0.00  0.00     0.080 H 
ATOM     44  H24 DD5 d   1      24.065 229.330 151.346  0.00  0.00     0.080 H 
BRANCH  42  45
ATOM     45  N03 DD5 d   1      25.878 229.290 152.381  0.00  0.00    -0.065 N 
ATOM     46  C17 DD5 d   1      25.794 228.564 153.673  0.00  0.00     0.103 C 
ATOM     47  C18 DD5 d   1      26.602 229.163 154.842  0.00  0.00     0.042 C 
ATOM     48  H2  DD5 d   1      26.155 227.538 153.506  0.00  0.00     0.079 H 
ATOM     49  H3  DD5 d   1      24.737 228.536 153.975  0.00  0.00     0.079 H 
ATOM     50  O03 DD5 d   1      26.603 230.594 154.976  0.00  0.00    -0.388 OA
ATOM     51  H26 DD5 d   1      27.647 228.841 154.721  0.00  0.00     0.076 H 
ATOM     52  H27 DD5 d   1      26.195 228.744 155.774  0.00  0.00     0.076 H 
ATOM     53  C19 DD5 d   1      26.272 231.371 153.814  0.00  0.00     0.042 C 
ATOM     54  C20 DD5 d   1      25.463 230.675 152.707  0.00  0.00     0.103 C 
ATOM     55  H28 DD5 d   1      25.689 232.240 154.153  0.00  0.00     0.076 H 
ATOM     56  H29 DD5 d   1      27.216 231.715 153.367  0.00  0.00     0.076 H 
ATOM     57  H4  DD5 d   1      24.410 230.646 153.025  0.00  0.00     0.079 H 
ATOM     58  H5  DD5 d   1      25.553 231.279 151.792  0.00  0.00     0.079 H 
ATOM     59  H25 DD5 d   1      26.813 229.273 152.005  0.00  0.00     0.280 HD
ENDBRANCH  42  45
ENDBRANCH  40  42
BRANCH  40  60
ATOM     60  O04 DD5 d   1      24.960 229.335 149.044  0.00  0.00    -0.392 OA
ATOM     61  H30 DD5 d   1      24.024 229.494 149.087  0.00  0.00     0.210 HD
ENDBRANCH  40  60
ENDBRANCH  37  40
ENDBRANCH   5  37
TORSDOF 10
