REMARK WARNING: 32 MAX_TORS EXCEEDED!!!
REMARK  44 active torsions:
REMARK  status: ('A' for Active; 'I' for Inactive)
REMARK    1  A    between atoms: N_1  and  CA_2 
REMARK    2  A    between atoms: CA_2  and  C_3 
REMARK    3  A    between atoms: CA_2  and  CB_5 
REMARK       I    between atoms: C_3  and  N_9 
REMARK    4  A    between atoms: CB_5  and  CG_6 
REMARK    5  A    between atoms: N_9  and  CA_10 
REMARK    6  A    between atoms: CA_10  and  C_11 
REMARK    7  A    between atoms: CA_10  and  CB_13 
REMARK       I    between atoms: C_11  and  N_16 
REMARK    8  A    between atoms: CB_13  and  OG1_14 
REMARK    9  A    between atoms: CB_13  and  CG2_15 
REMARK   10  A    between atoms: N_16  and  CA_17 
REMARK   11  A    between atoms: CA_17  and  C_18 
REMARK   12  A    between atoms: CA_17  and  CB_20 
REMARK       I    between atoms: C_18  and  N_22 
REMARK   13  A    between atoms: CB_20  and  OG_21 
REMARK   14  A    between atoms: N_22  and  CA_23 
REMARK   15  A    between atoms: CA_23  and  C_24 
REMARK   16  A    between atoms: CA_23  and  CB_26 
REMARK       I    between atoms: C_24  and  N_33 
REMARK   17  A    between atoms: CB_26  and  CG_27 
REMARK   18  A    between atoms: CG_27  and  CD_28 
REMARK   19  A    between atoms: CD_28  and  NE_29 
REMARK       I    between atoms: NE_29  and  CZ_30 
REMARK       I    between atoms: CZ_30  and  NH1_31 
REMARK   20  A    between atoms: N_33  and  CA_34 
REMARK   21  A    between atoms: CA_34  and  C_35 
REMARK   22  A    between atoms: CA_34  and  CB_37 
REMARK       I    between atoms: C_35  and  N_41 
REMARK   23  A    between atoms: CB_37  and  CG_38 
REMARK   24  A    between atoms: CG_38  and  SD_39 
REMARK   25  A    between atoms: SD_39  and  CE_40 
REMARK   26  A    between atoms: N_41  and  CA_42 
REMARK   27  A    between atoms: CA_42  and  C_43 
REMARK   28  A    between atoms: CA_42  and  CB_45 
REMARK       I    between atoms: C_43  and  N_50 
REMARK   29  A    between atoms: CB_45  and  CG_46 
REMARK   30  A    between atoms: CG_46  and  CD_47 
REMARK   31  A    between atoms: N_50  and  CA_51 
REMARK   32  A    between atoms: CA_51  and  C_52 
REMARK   33  A    between atoms: CA_51  and  CB_54 
REMARK       I    between atoms: C_52  and  N_59 
REMARK   34  A    between atoms: CB_54  and  CG_55 
REMARK   35  A    between atoms: CG_55  and  CD_56 
REMARK   36  A    between atoms: N_59  and  CA_60 
REMARK   37  A    between atoms: CA_60  and  C_61 
REMARK   38  A    between atoms: CA_60  and  CB_63 
REMARK       I    between atoms: C_61  and  N_66 
REMARK   39  A    between atoms: CB_63  and  CG1_64 
REMARK   40  A    between atoms: CB_63  and  CG2_65 
REMARK   41  A    between atoms: N_66  and  CA_67 
REMARK   42  A    between atoms: CA_67  and  C_68 
REMARK   43  A    between atoms: CA_67  and  CB_70 
REMARK   44  A    between atoms: CB_70  and  CG_71 
ROOT
ATOM      1  CA  MET d   1      31.641  32.930  26.374  0.00  0.00     0.090 C 
ATOM      2  H33 MET d   1      32.260  32.059  26.635  0.00  0.00     0.087 H 
ENDROOT
BRANCH   1   3
ATOM      3  N   MET d   1      32.060  33.400  25.049  0.00  0.00    -0.346 N 
ATOM      4  C   ARG d   1      32.111  32.621  23.969  0.00  0.00     0.241 C 
ATOM      5  O   ARG d   1      31.820  31.427  24.017  0.00  0.00    -0.271 OA
ATOM      6  H32 MET d   1      32.322  34.360  24.951  0.00  0.00     0.163 HD
BRANCH   4   7
ATOM      7  CA  ARG d   1      32.513  33.274  22.639  0.00  0.00     0.089 C 
ATOM      8  H20 ARG d   1      33.073  34.195  22.856  0.00  0.00     0.087 H 
BRANCH   7   9
ATOM      9  N   ARG d   1      33.365  32.349  21.877  0.00  0.00    -0.346 N 
ATOM     10  C   SER d   1      34.695  32.235  21.974  0.00  0.00     0.243 C 
ATOM     11  O   SER d   1      35.374  32.957  22.710  0.00  0.00    -0.271 OA
ATOM     12  H19 ARG d   1      32.907  31.747  21.223  0.00  0.00     0.163 HD
BRANCH  10  13
ATOM     13  CA  SER d   1      35.353  31.112  21.166  0.00  0.00     0.109 C 
ATOM     14  H15 SER d   1      34.622  30.770  20.419  0.00  0.00     0.090 H 
BRANCH  13  15
ATOM     15  N   SER d   1      36.558  31.530  20.441  0.00  0.00    -0.344 N 
ATOM     16  C   THR d   1      36.541  32.146  19.262  0.00  0.00     0.243 C 
ATOM     17  O   THR d   1      35.488  32.561  18.770  0.00  0.00    -0.271 OA
ATOM     18  H14 SER d   1      37.447  31.340  20.859  0.00  0.00     0.163 HD
BRANCH  16  19
ATOM     19  CA  THR d   1      37.879  32.277  18.530  0.00  0.00     0.113 C 
ATOM     20  H8  THR d   1      38.320  31.271  18.467  0.00  0.00     0.091 H 
BRANCH  19  21
ATOM     21  N   THR d   1      37.721  32.772  17.152  0.00  0.00    -0.344 N 
ATOM     22  C   ASP d   1      38.371  32.303  16.079  0.00  0.00     0.249 C 
ATOM     23  O   ASP d   1      39.119  31.321  16.147  0.00  0.00    -0.271 OA
ATOM     24  H7  THR d   1      37.075  33.521  17.005  0.00  0.00     0.163 HD
BRANCH  22  25
ATOM     25  CA  ASP d   1      38.152  33.026  14.730  0.00  0.00     0.185 C 
ATOM     26  H4  ASP d   1      38.280  34.107  14.886  0.00  0.00     0.100 H 
BRANCH  25  27
ATOM     27  N   ASP d   1      39.139  32.579  13.725  0.00  0.00    -0.066 N 
ATOM     28  H1  ASP d   1      38.976  33.063  12.856  0.00  0.00     0.275 HD
ATOM     29  H2  ASP d   1      39.044  31.586  13.579  0.00  0.00     0.275 HD
ATOM     30  H3  ASP d   1      40.070  32.783  14.054  0.00  0.00     0.275 HD
ENDBRANCH  25  27
BRANCH  25  31
ATOM     31  CB  ASP d   1      36.721  32.767  14.233  0.00  0.00     0.050 C 
ATOM     32  H5  ASP d   1      36.531  31.684  14.275  0.00  0.00     0.052 H 
ATOM     33  H6  ASP d   1      36.649  33.112  13.191  0.00  0.00     0.052 H 
BRANCH  31  34
ATOM     34  CG  ASP d   1      35.640  33.479  15.053  0.00  0.00     0.175 C 
ATOM     35  OD1 ASP d   1      35.927  34.543  15.654  0.00  0.00    -0.648 OA
ATOM     36  OD2 ASP d   1      34.491  32.975  15.080  0.00  0.00    -0.648 OA
ENDBRANCH  31  34
ENDBRANCH  25  31
ENDBRANCH  22  25
ENDBRANCH  19  21
BRANCH  19  37
ATOM     37  CB  THR d   1      38.847  33.162  19.333  0.00  0.00     0.060 C 
ATOM     38  H9  THR d   1      38.985  32.709  20.326  0.00  0.00     0.086 H 
BRANCH  37  39
ATOM     39  OG1 THR d   1      38.377  34.487  19.488  0.00  0.00    -0.393 OA
ATOM     40  H10 THR d   1      39.009  34.989  19.989  0.00  0.00     0.210 HD
ENDBRANCH  37  39
BRANCH  37  41
ATOM     41  CG2 THR d   1      40.192  33.268  18.630  0.00  0.00    -0.050 C 
ATOM     42  H11 THR d   1      40.866  33.905  19.222  0.00  0.00     0.031 H 
ATOM     43  H12 THR d   1      40.051  33.711  17.633  0.00  0.00     0.031 H 
ATOM     44  H13 THR d   1      40.632  32.265  18.527  0.00  0.00     0.031 H 
ENDBRANCH  37  41
ENDBRANCH  19  37
ENDBRANCH  16  19
ENDBRANCH  13  15
BRANCH  13  45
ATOM     45  CB  SER d   1      35.674  29.942  22.090  0.00  0.00     0.044 C 
ATOM     46  H16 SER d   1      34.755  29.631  22.608  0.00  0.00     0.077 H 
ATOM     47  H17 SER d   1      36.422  30.263  22.830  0.00  0.00     0.077 H 
BRANCH  45  48
ATOM     48  OG  SER d   1      36.188  28.843  21.361  0.00  0.00    -0.398 OA
ATOM     49  H18 SER d   1      36.984  29.105  20.914  0.00  0.00     0.209 HD
ENDBRANCH  45  48
ENDBRANCH  13  45
ENDBRANCH  10  13
ENDBRANCH   7   9
BRANCH   7  50
ATOM     50  CB  ARG d   1      31.288  33.627  21.760  0.00  0.00    -0.036 C 
ATOM     51  H21 ARG d   1      30.483  32.924  22.020  0.00  0.00     0.036 H 
ATOM     52  H22 ARG d   1      31.582  33.476  20.711  0.00  0.00     0.036 H 
BRANCH  50  53
ATOM     53  CG  ARG d   1      30.713  35.046  21.876  0.00  0.00    -0.048 C 
ATOM     54  H23 ARG d   1      29.919  35.168  21.125  0.00  0.00     0.035 H 
ATOM     55  H24 ARG d   1      31.517  35.770  21.680  0.00  0.00     0.035 H 
BRANCH  53  56
ATOM     56  CD  ARG d   1      30.127  35.326  23.259  0.00  0.00     0.009 C 
ATOM     57  H25 ARG d   1      30.927  35.221  24.006  0.00  0.00     0.064 H 
ATOM     58  H26 ARG d   1      29.338  34.587  23.461  0.00  0.00     0.064 H 
BRANCH  56  59
ATOM     59  NE  ARG d   1      29.548  36.674  23.379  0.00  0.00    -0.227 N 
ATOM     60  CZ  ARG d   1      28.357  37.072  22.976  0.00  0.00     0.665 C 
ATOM     61  NH1 ARG d   1      27.498  36.271  22.421  0.00  0.00    -0.235 N 
ATOM     62  NH2 ARG d   1      27.992  38.307  23.139  0.00  0.00    -0.235 N 
ATOM     63  H28 ARG d   1      26.579  36.628  22.122  0.00  0.00     0.174 HD
ATOM     64  H29 ARG d   1      27.736  35.279  22.280  0.00  0.00     0.174 HD
ATOM     65  H30 ARG d   1      28.637  38.981  23.574  0.00  0.00     0.174 HD
ATOM     66  H31 ARG d   1      27.057  38.612  22.833  0.00  0.00     0.174 HD
ATOM     67  H27 ARG d   1      30.140  37.387  23.828  0.00  0.00     0.177 HD
ENDBRANCH  56  59
ENDBRANCH  53  56
ENDBRANCH  50  53
ENDBRANCH   7  50
ENDBRANCH   4   7
ENDBRANCH   1   3
BRANCH   1  68
ATOM     68  C   MET d   1      30.165  32.487  26.443  0.00  0.00     0.241 C 
ATOM     69  O   MET d   1      29.895  31.364  26.871  0.00  0.00    -0.271 OA
ATOM     70  N   GLU d   1      29.217  33.369  26.103  0.00  0.00    -0.346 N 
ATOM     71  H41 GLU d   1      29.485  34.175  25.575  0.00  0.00     0.163 HD
BRANCH  70  72
ATOM     72  CA  GLU d   1      27.797  33.211  26.468  0.00  0.00     0.090 C 
ATOM     73  H42 GLU d   1      27.773  32.749  27.466  0.00  0.00     0.087 H 
BRANCH  72  74
ATOM     74  C   GLU d   1      27.032  32.263  25.523  0.00  0.00     0.241 C 
ATOM     75  O   GLU d   1      26.510  32.685  24.488  0.00  0.00    -0.271 OA
ATOM     76  N   GLU d   1      26.997  30.969  25.859  0.00  0.00    -0.346 N 
ATOM     77  H47 GLU d   1      27.413  30.711  26.731  0.00  0.00     0.163 HD
BRANCH  76  78
ATOM     78  CA  GLU d   1      26.397  29.892  25.052  0.00  0.00     0.090 C 
ATOM     79  H48 GLU d   1      25.405  30.206  24.695  0.00  0.00     0.087 H 
BRANCH  78  80
ATOM     80  C   GLU d   1      26.250  28.587  25.882  0.00  0.00     0.241 C 
ATOM     81  O   GLU d   1      26.929  28.434  26.896  0.00  0.00    -0.271 OA
ATOM     82  N   VAL d   1      25.422  27.627  25.447  0.00  0.00    -0.346 N 
ATOM     83  H53 VAL d   1      24.778  27.872  24.722  0.00  0.00     0.163 HD
BRANCH  82  84
ATOM     84  CA  VAL d   1      25.380  26.226  25.953  0.00  0.00     0.092 C 
ATOM     85  H54 VAL d   1      26.279  26.073  26.568  0.00  0.00     0.088 H 
BRANCH  84  86
ATOM     86  C   VAL d   1      25.439  25.217  24.788  0.00  0.00     0.241 C 
ATOM     87  O   VAL d   1      25.610  25.624  23.634  0.00  0.00    -0.271 OA
ATOM     88  N   ASP d   1      25.293  23.907  25.036  0.00  0.00    -0.344 N 
ATOM     89  H62 ASP d   1      25.159  23.614  25.983  0.00  0.00     0.163 HD
BRANCH  88  90
ATOM     90  CA  ASP d   1      25.321  22.873  23.975  0.00  0.00     0.105 C 
ATOM     91  H63 ASP d   1      26.188  23.108  23.341  0.00  0.00     0.090 H 
BRANCH  90  92
ATOM     92  C   ASP d   1      24.097  22.901  23.025  0.00  0.00     0.197 C 
ATOM     93  O   ASP d   1      24.254  22.514  21.844  0.00  0.00    -0.646 OA
ATOM     94  OXT ASP d   1      23.011  23.394  23.405  0.00  0.00    -0.646 OA
ENDBRANCH  90  92
BRANCH  90  95
ATOM     95  CB  ASP d   1      25.603  21.488  24.594  0.00  0.00     0.044 C 
ATOM     96  H64 ASP d   1      24.884  21.316  25.408  0.00  0.00     0.053 H 
ATOM     97  H65 ASP d   1      26.625  21.488  25.001  0.00  0.00     0.053 H 
BRANCH  95  98
ATOM     98  CG  ASP d   1      25.480  20.338  23.581  0.00  0.00     0.175 C 
ATOM     99  OD1 ASP d   1      26.395  20.155  22.738  0.00  0.00    -0.648 OA
ATOM    100  OD2 ASP d   1      24.463  19.606  23.638  0.00  0.00    -0.648 OA
ENDBRANCH  95  98
ENDBRANCH  90  95
ENDBRANCH  88  90
ENDBRANCH  84  86
BRANCH  84 101
ATOM    101  CB  VAL d   1      24.156  25.972  26.862  0.00  0.00    -0.033 C 
ATOM    102  H55 VAL d   1      24.190  24.914  27.162  0.00  0.00     0.042 H 
BRANCH 101 103
ATOM    103  CG1 VAL d   1      24.231  26.820  28.135  0.00  0.00    -0.071 C 
ATOM    104  H56 VAL d   1      23.349  26.619  28.762  0.00  0.00     0.028 H 
ATOM    105  H57 VAL d   1      24.254  27.886  27.865  0.00  0.00     0.028 H 
ATOM    106  H58 VAL d   1      25.143  26.564  28.693  0.00  0.00     0.028 H 
ENDBRANCH 101 103
BRANCH 101 107
ATOM    107  CG2 VAL d   1      22.817  26.201  26.152  0.00  0.00    -0.071 C 
ATOM    108  H59 VAL d   1      22.776  25.587  25.240  0.00  0.00     0.028 H 
ATOM    109  H60 VAL d   1      22.721  27.263  25.883  0.00  0.00     0.028 H 
ATOM    110  H61 VAL d   1      21.993  25.917  26.823  0.00  0.00     0.028 H 
ENDBRANCH 101 107
ENDBRANCH  84 101
ENDBRANCH  82  84
ENDBRANCH  78  80
BRANCH  78 111
ATOM    111  CB  GLU d   1      27.332  29.648  23.852  0.00  0.00    -0.029 C 
ATOM    112  H49 GLU d   1      28.174  29.027  24.192  0.00  0.00     0.037 H 
ATOM    113  H50 GLU d   1      27.710  30.621  23.506  0.00  0.00     0.037 H 
BRANCH 111 114
ATOM    114  CG  GLU d   1      26.665  28.944  22.668  0.00  0.00     0.018 C 
ATOM    115  H51 GLU d   1      25.968  29.639  22.177  0.00  0.00     0.049 H 
ATOM    116  H52 GLU d   1      26.111  28.066  23.032  0.00  0.00     0.049 H 
BRANCH 114 117
ATOM    117  CD  GLU d   1      27.720  28.494  21.663  0.00  0.00     0.172 C 
ATOM    118  OE1 GLU d   1      28.537  27.608  22.011  0.00  0.00    -0.648 OA
ATOM    119  OE2 GLU d   1      27.738  29.007  20.516  0.00  0.00    -0.648 OA
ENDBRANCH 114 117
ENDBRANCH 111 114
ENDBRANCH  78 111
ENDBRANCH  76  78
ENDBRANCH  72  74
BRANCH  72 120
ATOM    120  CB  GLU d   1      27.103  34.585  26.586  0.00  0.00    -0.029 C 
ATOM    121  H43 GLU d   1      26.053  34.421  26.871  0.00  0.00     0.037 H 
ATOM    122  H44 GLU d   1      27.144  35.080  25.605  0.00  0.00     0.037 H 
BRANCH 120 123
ATOM    123  CG  GLU d   1      27.748  35.515  27.626  0.00  0.00     0.018 C 
ATOM    124  H45 GLU d   1      28.646  35.972  27.185  0.00  0.00     0.049 H 
ATOM    125  H46 GLU d   1      28.034  34.920  28.506  0.00  0.00     0.049 H 
BRANCH 123 126
ATOM    126  CD  GLU d   1      26.789  36.632  28.071  0.00  0.00     0.172 C 
ATOM    127  OE1 GLU d   1      26.534  37.594  27.306  0.00  0.00    -0.648 OA
ATOM    128  OE2 GLU d   1      26.267  36.554  29.209  0.00  0.00    -0.648 OA
ENDBRANCH 123 126
ENDBRANCH 120 123
ENDBRANCH  72 120
ENDBRANCH  70  72
ENDBRANCH   1  68
BRANCH   1 129
ATOM    129  CB  MET d   1      31.916  34.048  27.389  0.00  0.00    -0.030 C 
ATOM    130  H34 MET d   1      31.316  34.928  27.114  0.00  0.00     0.037 H 
ATOM    131  H35 MET d   1      32.985  34.305  27.349  0.00  0.00     0.037 H 
BRANCH 129 132
ATOM    132  CG  MET d   1      31.562  33.641  28.828  0.00  0.00    -0.021 C 
ATOM    133  H36 MET d   1      32.464  33.227  29.301  0.00  0.00     0.049 H 
ATOM    134  H37 MET d   1      30.782  32.867  28.785  0.00  0.00     0.049 H 
BRANCH 132 135
ATOM    135  SD  MET d   1      30.960  34.992  29.850  0.00  0.00    -0.173 SA
BRANCH 135 136
ATOM    136  CE  MET d   1      30.233  34.024  31.192  0.00  0.00    -0.035 C 
ATOM    137  H38 MET d   1      29.799  34.703  31.941  0.00  0.00     0.041 H 
ATOM    138  H39 MET d   1      31.013  33.408  31.664  0.00  0.00     0.041 H 
ATOM    139  H40 MET d   1      29.445  33.372  30.788  0.00  0.00     0.041 H 
ENDBRANCH 135 136
ENDBRANCH 132 135
ENDBRANCH 129 132
ENDBRANCH   1 129
TORSDOF 44
