REMARK  4 active torsions:
REMARK  status: ('A' for Active; 'I' for Inactive)
REMARK    1  A    between atoms: C7_14  and  C1_1 
REMARK    2  A    between atoms: C10_17  and  C11_3 
REMARK    3  A    between atoms: C4_11  and  C12_4 
REMARK       I    between atoms: N9_16  and  C7_14 
REMARK    4  A    between atoms: N9_16  and  C10_17 
ROOT
ATOM      1  C7  2UQ d   1     -62.790  -7.005  15.955  0.00  0.00     0.254 C 
ATOM      2  O8  2UQ d   1     -62.769  -5.962  15.297  0.00  0.00    -0.268 OA
ATOM      3  N9  2UQ d   1     -61.784  -7.910  15.845  0.00  0.00    -0.353 N 
ATOM      4  H9  2UQ d   1     -61.832  -8.744  16.394  0.00  0.00     0.163 HD
ENDROOT
BRANCH   3   5
ATOM      5  C10 2UQ d   1     -60.635  -7.724  14.963  0.00  0.00     0.019 C 
ATOM      6  H10 2UQ d   1     -60.159  -6.765  15.214  0.00  0.00     0.071 H 
ATOM      7  H11 2UQ d   1     -59.925  -8.544  15.143  0.00  0.00     0.071 H 
BRANCH   5   8
ATOM      8  C11 2UQ d   1     -60.979  -7.711  13.499  0.00  0.00    -0.041 A 
ATOM      9  C14 2UQ d   1     -61.333  -8.910  12.853  0.00  0.00    -0.075 A 
ATOM     10  C15 2UQ d   1     -61.652  -8.885  11.483  0.00  0.00    -0.082 A 
ATOM     11  H3  2UQ d   1     -61.360  -9.843  13.405  0.00  0.00     0.084 H 
ATOM     12  C16 2UQ d   1     -61.619  -7.672  10.771  0.00  0.00    -0.083 A 
ATOM     13  H4  2UQ d   1     -61.924  -9.803  10.975  0.00  0.00     0.083 H 
ATOM     14  C17 2UQ d   1     -61.265  -6.480  11.427  0.00  0.00    -0.082 A 
ATOM     15  H5  2UQ d   1     -61.867  -7.657   9.716  0.00  0.00     0.083 H 
ATOM     16  C18 2UQ d   1     -60.940  -6.498  12.794  0.00  0.00    -0.075 A 
ATOM     17  H6  2UQ d   1     -61.243  -5.546  10.878  0.00  0.00     0.083 H 
ATOM     18  H7  2UQ d   1     -60.661  -5.581  13.301  0.00  0.00     0.084 H 
ENDBRANCH   5   8
ENDBRANCH   3   5
BRANCH   1  19
ATOM     19  C1  2UQ d   1     -63.977  -7.195  16.897  0.00  0.00     0.067 A 
ATOM     20  C2  2UQ d   1     -64.149  -8.313  17.759  0.00  0.00     0.021 A 
ATOM     21  N3  2UQ d   1     -65.223  -8.417  18.579  0.00  0.00    -0.239 NA
ATOM     22  H1  2UQ d   1     -63.404  -9.100  17.760  0.00  0.00     0.116 H 
ATOM     23  C4  2UQ d   1     -66.156  -7.441  18.584  0.00  0.00     0.165 A 
ATOM     24  N5  2UQ d   1     -66.024  -6.357  17.773  0.00  0.00    -0.239 NA
ATOM     25  C6  2UQ d   1     -64.967  -6.205  16.950  0.00  0.00     0.021 A 
ATOM     26  H8  2UQ d   1     -64.883  -5.319  16.331  0.00  0.00     0.116 H 
BRANCH  23  27
ATOM     27  C12 2UQ d   1     -67.355  -7.513  19.501  0.00  0.00     0.040 C 
ATOM     28  N13 2UQ d   1     -67.337  -8.359  20.495  0.00  0.00    -0.308 NA
ATOM     29  H12 2UQ d   1     -68.127  -8.422  21.118  0.00  0.00     0.186 HD
ATOM     30  H2  2UQ d   1     -68.219  -6.871  19.335  0.00  0.00     0.119 H 
ENDBRANCH  23  27
ENDBRANCH   1  19
TORSDOF 4
