REMARK WARNING: 32 MAX_TORS EXCEEDED!!!
REMARK  37 active torsions:
REMARK  status: ('A' for Active; 'I' for Inactive)
REMARK    1  A    between atoms: N_1  and  CA_2 
REMARK    2  A    between atoms: CA_2  and  C_3 
REMARK    3  A    between atoms: CA_2  and  CB_5 
REMARK       I    between atoms: C_3  and  N_7 
REMARK    4  A    between atoms: CB_5  and  OG_6 
REMARK    5  A    between atoms: N_7  and  CA_8 
REMARK    6  A    between atoms: CA_8  and  C_9 
REMARK       I    between atoms: C_9  and  N_11 
REMARK    7  A    between atoms: CA_12  and  C_13 
REMARK       I    between atoms: C_13  and  N_18 
REMARK    8  A    between atoms: N_18  and  CA_19 
REMARK    9  A    between atoms: CA_19  and  C_20 
REMARK   10  A    between atoms: CA_19  and  CB_22 
REMARK       I    between atoms: C_20  and  N_25 
REMARK   11  A    between atoms: CB_22  and  OG1_23 
REMARK   12  A    between atoms: CB_22  and  CG2_24 
REMARK   13  A    between atoms: N_25  and  CA_26 
REMARK   14  A    between atoms: CA_26  and  C_27 
REMARK   15  A    between atoms: CA_26  and  CB_29 
REMARK       I    between atoms: C_27  and  N_33 
REMARK   16  A    between atoms: CB_29  and  CG1_30 
REMARK   17  A    between atoms: CB_29  and  CG2_31 
REMARK   18  A    between atoms: CG1_30  and  CD1_32 
REMARK   19  A    between atoms: N_33  and  CA_34 
REMARK   20  A    between atoms: CA_34  and  C_35 
REMARK   21  A    between atoms: CA_34  and  CB_37 
REMARK       I    between atoms: C_35  and  N_42 
REMARK   22  A    between atoms: CB_37  and  CG_38 
REMARK   23  A    between atoms: CG_38  and  CD_39 
REMARK   24  A    between atoms: N_42  and  CA_43 
REMARK   25  A    between atoms: CA_43  and  C_44 
REMARK   26  A    between atoms: CA_43  and  CB_46 
REMARK       I    between atoms: C_44  and  N_51 
REMARK   27  A    between atoms: CB_46  and  CG_47 
REMARK   28  A    between atoms: CG_47  and  CD_48 
REMARK   29  A    between atoms: N_51  and  CA_52 
REMARK   30  A    between atoms: CA_52  and  C_53 
REMARK   31  A    between atoms: CA_52  and  CB_55 
REMARK       I    between atoms: C_53  and  N_58 
REMARK   32  A    between atoms: CB_55  and  CG1_56 
REMARK   33  A    between atoms: CB_55  and  CG2_57 
REMARK   34  A    between atoms: N_58  and  CA_59 
REMARK   35  A    between atoms: CA_59  and  C_60 
REMARK   36  A    between atoms: CA_59  and  CB_62 
REMARK   37  A    between atoms: CB_62  and  CG_63 
ROOT
ATOM      1  CA  ILE d   1      32.299  29.367  30.204  0.00  0.00     0.092 C 
ATOM      2  H26 ILE d   1      31.232  29.103  30.153  0.00  0.00     0.088 H 
ENDROOT
BRANCH   1   3
ATOM      3  N   ILE d   1      33.026  28.182  29.730  0.00  0.00    -0.346 N 
ATOM      4  C   THR d   1      32.521  27.351  28.810  0.00  0.00     0.243 C 
ATOM      5  O   THR d   1      31.483  27.613  28.194  0.00  0.00    -0.271 OA
ATOM      6  H25 ILE d   1      33.931  27.989  30.108  0.00  0.00     0.163 HD
BRANCH   4   7
ATOM      7  CA  THR d   1      33.323  26.073  28.563  0.00  0.00     0.113 C 
ATOM      8  H19 THR d   1      33.685  25.715  29.538  0.00  0.00     0.091 H 
BRANCH   7   9
ATOM      9  N   THR d   1      32.543  24.975  27.976  0.00  0.00    -0.344 N 
ATOM     10  C   PRO d   1      32.085  23.907  28.633  0.00  0.00     0.241 C 
ATOM     11  O   PRO d   1      32.234  23.770  29.853  0.00  0.00    -0.271 OA
ATOM     12  H18 THR d   1      32.337  25.033  26.999  0.00  0.00     0.163 HD
BRANCH  10  13
ATOM     13  CA  PRO d   1      31.353  22.849  27.789  0.00  0.00     0.091 C 
ATOM     14  N   PRO d   1      32.208  22.302  26.729  0.00  0.00    -0.337 N 
ATOM     15  C   GLY d   1      32.500  22.928  25.571  0.00  0.00     0.238 C 
ATOM     16  CD  PRO d   1      32.606  20.942  27.069  0.00  0.00    -0.001 C 
ATOM     17  O   GLY d   1      32.023  24.035  25.305  0.00  0.00    -0.272 OA
ATOM     18  CG  PRO d   1      32.081  20.680  28.479  0.00  0.00    -0.048 C 
ATOM     19  H16 PRO d   1      33.702  20.849  27.048  0.00  0.00     0.064 H 
ATOM     20  H17 PRO d   1      32.164  20.227  26.359  0.00  0.00     0.064 H 
ATOM     21  CB  PRO d   1      30.877  21.618  28.570  0.00  0.00    -0.036 C 
ATOM     22  H14 PRO d   1      31.776  19.630  28.600  0.00  0.00     0.035 H 
ATOM     23  H15 PRO d   1      32.838  20.931  29.237  0.00  0.00     0.035 H 
ATOM     24  H12 PRO d   1      29.988  21.170  28.102  0.00  0.00     0.036 H 
ATOM     25  H13 PRO d   1      30.651  21.874  29.616  0.00  0.00     0.036 H 
ATOM     26  H11 PRO d   1      30.479  23.340  27.335  0.00  0.00     0.087 H 
BRANCH  15  27
ATOM     27  CA  GLY d   1      33.472  22.241  24.587  0.00  0.00     0.069 C 
ATOM     28  H9  GLY d   1      34.404  22.017  25.127  0.00  0.00     0.078 H 
ATOM     29  H10 GLY d   1      33.009  21.302  24.250  0.00  0.00     0.078 H 
BRANCH  27  30
ATOM     30  N   GLY d   1      33.813  23.036  23.397  0.00  0.00    -0.350 N 
ATOM     31  C   SER d   1      34.507  24.179  23.416  0.00  0.00     0.250 C 
ATOM     32  O   SER d   1      34.919  24.691  24.457  0.00  0.00    -0.271 OA
ATOM     33  H8  GLY d   1      33.503  22.697  22.509  0.00  0.00     0.163 HD
BRANCH  31  34
ATOM     34  CA  SER d   1      34.703  24.882  22.082  0.00  0.00     0.195 C 
ATOM     35  H4  SER d   1      34.350  24.210  21.286  0.00  0.00     0.102 H 
BRANCH  34  36
ATOM     36  N   SER d   1      33.903  26.111  22.055  0.00  0.00    -0.064 N 
ATOM     37  H1  SER d   1      34.033  26.577  21.171  0.00  0.00     0.275 HD
ATOM     38  H2  SER d   1      34.197  26.720  22.802  0.00  0.00     0.275 HD
ATOM     39  H3  SER d   1      32.929  25.881  22.173  0.00  0.00     0.275 HD
ENDBRANCH  34  36
BRANCH  34  40
ATOM     40  CB  SER d   1      36.164  25.224  21.803  0.00  0.00     0.051 C 
ATOM     41  H5  SER d   1      36.771  24.307  21.801  0.00  0.00     0.077 H 
ATOM     42  H6  SER d   1      36.543  25.912  22.573  0.00  0.00     0.077 H 
BRANCH  40  43
ATOM     43  OG  SER d   1      36.219  25.845  20.528  0.00  0.00    -0.398 OA
ATOM     44  H7  SER d   1      37.119  26.070  20.325  0.00  0.00     0.209 HD
ENDBRANCH  40  43
ENDBRANCH  34  40
ENDBRANCH  31  34
ENDBRANCH  27  30
ENDBRANCH  15  27
ENDBRANCH  10  13
ENDBRANCH   7   9
BRANCH   7  45
ATOM     45  CB  THR d   1      34.543  26.443  27.716  0.00  0.00     0.060 C 
ATOM     46  H20 THR d   1      34.931  27.392  28.114  0.00  0.00     0.086 H 
BRANCH  45  47
ATOM     47  OG1 THR d   1      34.210  26.654  26.363  0.00  0.00    -0.393 OA
ATOM     48  H21 THR d   1      33.831  25.860  26.004  0.00  0.00     0.210 HD
ENDBRANCH  45  47
BRANCH  45  49
ATOM     49  CG2 THR d   1      35.667  25.417  27.806  0.00  0.00    -0.050 C 
ATOM     50  H22 THR d   1      36.510  25.741  27.178  0.00  0.00     0.031 H 
ATOM     51  H23 THR d   1      35.301  24.441  27.455  0.00  0.00     0.031 H 
ATOM     52  H24 THR d   1      36.001  25.329  28.851  0.00  0.00     0.031 H 
ENDBRANCH  45  49
ENDBRANCH   7  45
ENDBRANCH   4   7
ENDBRANCH   1   3
BRANCH   1  53
ATOM     53  C   ILE d   1      32.464  30.603  29.311  0.00  0.00     0.241 C 
ATOM     54  O   ILE d   1      31.553  31.422  29.257  0.00  0.00    -0.271 OA
ATOM     55  N   GLU d   1      33.585  30.765  28.601  0.00  0.00    -0.346 N 
ATOM     56  H36 GLU d   1      34.268  30.035  28.602  0.00  0.00     0.163 HD
BRANCH  55  57
ATOM     57  CA  GLU d   1      33.848  31.988  27.814  0.00  0.00     0.090 C 
ATOM     58  H37 GLU d   1      33.353  32.807  28.357  0.00  0.00     0.087 H 
BRANCH  57  59
ATOM     59  C   GLU d   1      33.218  31.988  26.409  0.00  0.00     0.241 C 
ATOM     60  O   GLU d   1      33.391  32.940  25.650  0.00  0.00    -0.271 OA
ATOM     61  N   GLU d   1      32.480  30.930  26.072  0.00  0.00    -0.346 N 
ATOM     62  H42 GLU d   1      32.531  30.130  26.669  0.00  0.00     0.163 HD
BRANCH  61  63
ATOM     63  CA  GLU d   1      31.601  30.837  24.903  0.00  0.00     0.090 C 
ATOM     64  H43 GLU d   1      31.986  31.503  24.117  0.00  0.00     0.087 H 
BRANCH  63  65
ATOM     65  C   GLU d   1      30.173  31.284  25.257  0.00  0.00     0.241 C 
ATOM     66  O   GLU d   1      29.686  30.997  26.355  0.00  0.00    -0.271 OA
ATOM     67  N   VAL d   1      29.502  31.963  24.322  0.00  0.00    -0.346 N 
ATOM     68  H48 VAL d   1      29.939  32.062  23.428  0.00  0.00     0.163 HD
BRANCH  67  69
ATOM     69  CA  VAL d   1      28.169  32.581  24.495  0.00  0.00     0.092 C 
ATOM     70  H49 VAL d   1      27.979  32.652  25.576  0.00  0.00     0.088 H 
BRANCH  69  71
ATOM     71  C   VAL d   1      27.053  31.724  23.890  0.00  0.00     0.241 C 
ATOM     72  O   VAL d   1      27.214  31.195  22.789  0.00  0.00    -0.271 OA
ATOM     73  N   ASP d   1      25.929  31.558  24.597  0.00  0.00    -0.344 N 
ATOM     74  H57 ASP d   1      25.738  32.181  25.355  0.00  0.00     0.163 HD
BRANCH  73  75
ATOM     75  CA  ASP d   1      24.957  30.480  24.293  0.00  0.00     0.105 C 
ATOM     76  H58 ASP d   1      25.579  29.612  24.027  0.00  0.00     0.090 H 
BRANCH  75  77
ATOM     77  C   ASP d   1      24.068  30.686  23.045  0.00  0.00     0.197 C 
ATOM     78  O   ASP d   1      23.601  29.652  22.508  0.00  0.00    -0.646 OA
ATOM     79  OXT ASP d   1      23.900  31.826  22.550  0.00  0.00    -0.646 OA
ENDBRANCH  75  77
BRANCH  75  80
ATOM     80  CB  ASP d   1      24.212  30.053  25.581  0.00  0.00     0.044 C 
ATOM     81  H59 ASP d   1      23.202  30.487  25.553  0.00  0.00     0.053 H 
ATOM     82  H60 ASP d   1      24.761  30.456  26.445  0.00  0.00     0.053 H 
BRANCH  80  83
ATOM     83  CG  ASP d   1      24.076  28.534  25.766  0.00  0.00     0.175 C 
ATOM     84  OD1 ASP d   1      25.109  27.832  25.919  0.00  0.00    -0.648 OA
ATOM     85  OD2 ASP d   1      22.920  28.042  25.869  0.00  0.00    -0.648 OA
ENDBRANCH  80  83
ENDBRANCH  75  80
ENDBRANCH  73  75
ENDBRANCH  69  71
BRANCH  69  86
ATOM     86  CB  VAL d   1      28.138  34.012  23.924  0.00  0.00    -0.033 C 
ATOM     87  H50 VAL d   1      27.081  34.310  23.865  0.00  0.00     0.042 H 
BRANCH  86  88
ATOM     88  CG1 VAL d   1      28.847  34.977  24.882  0.00  0.00    -0.071 C 
ATOM     89  H51 VAL d   1      28.819  35.994  24.465  0.00  0.00     0.028 H 
ATOM     90  H52 VAL d   1      29.893  34.663  25.011  0.00  0.00     0.028 H 
ATOM     91  H53 VAL d   1      28.338  34.966  25.857  0.00  0.00     0.028 H 
ENDBRANCH  86  88
BRANCH  86  92
ATOM     92  CG2 VAL d   1      28.721  34.153  22.513  0.00  0.00    -0.071 C 
ATOM     93  H54 VAL d   1      28.207  33.458  21.833  0.00  0.00     0.028 H 
ATOM     94  H55 VAL d   1      29.795  33.918  22.535  0.00  0.00     0.028 H 
ATOM     95  H56 VAL d   1      28.579  35.185  22.159  0.00  0.00     0.028 H 
ENDBRANCH  86  92
ENDBRANCH  69  86
ENDBRANCH  67  69
ENDBRANCH  63  65
BRANCH  63  96
ATOM     96  CB  GLU d   1      31.624  29.388  24.376  0.00  0.00    -0.029 C 
ATOM     97  H44 GLU d   1      30.591  29.062  24.186  0.00  0.00     0.037 H 
ATOM     98  H45 GLU d   1      32.078  28.739  25.139  0.00  0.00     0.037 H 
BRANCH  96  99
ATOM     99  CG  GLU d   1      32.429  29.263  23.077  0.00  0.00     0.018 C 
ATOM    100  H46 GLU d   1      32.714  28.209  22.939  0.00  0.00     0.049 H 
ATOM    101  H47 GLU d   1      33.336  29.879  23.164  0.00  0.00     0.049 H 
BRANCH  99 102
ATOM    102  CD  GLU d   1      31.640  29.723  21.846  0.00  0.00     0.172 C 
ATOM    103  OE1 GLU d   1      31.626  28.990  20.828  0.00  0.00    -0.648 OA
ATOM    104  OE2 GLU d   1      31.034  30.819  21.873  0.00  0.00    -0.648 OA
ENDBRANCH  99 102
ENDBRANCH  96  99
ENDBRANCH  63  96
ENDBRANCH  61  63
ENDBRANCH  57  59
BRANCH  57 105
ATOM    105  CB  GLU d   1      35.349  32.329  27.803  0.00  0.00    -0.029 C 
ATOM    106  H38 GLU d   1      35.729  32.265  28.833  0.00  0.00     0.037 H 
ATOM    107  H39 GLU d   1      35.471  33.357  27.430  0.00  0.00     0.037 H 
BRANCH 105 108
ATOM    108  CG  GLU d   1      36.178  31.389  26.919  0.00  0.00     0.018 C 
ATOM    109  H40 GLU d   1      35.837  31.482  25.877  0.00  0.00     0.049 H 
ATOM    110  H41 GLU d   1      36.034  30.354  27.261  0.00  0.00     0.049 H 
BRANCH 108 111
ATOM    111  CD  GLU d   1      37.668  31.737  26.991  0.00  0.00     0.172 C 
ATOM    112  OE1 GLU d   1      38.451  30.935  27.558  0.00  0.00    -0.648 OA
ATOM    113  OE2 GLU d   1      38.064  32.805  26.465  0.00  0.00    -0.648 OA
ENDBRANCH 108 111
ENDBRANCH 105 108
ENDBRANCH  57 105
ENDBRANCH  55  57
ENDBRANCH   1  53
BRANCH   1 114
ATOM    114  CB  ILE d   1      32.595  29.674  31.690  0.00  0.00    -0.030 C 
ATOM    115  H27 ILE d   1      31.736  30.265  32.041  0.00  0.00     0.043 H 
BRANCH 114 116
ATOM    116  CG1 ILE d   1      33.825  30.582  31.917  0.00  0.00    -0.063 C 
ATOM    117  H28 ILE d   1      33.584  31.581  31.523  0.00  0.00     0.033 H 
ATOM    118  H29 ILE d   1      34.667  30.158  31.350  0.00  0.00     0.033 H 
BRANCH 116 119
ATOM    119  CD1 ILE d   1      34.273  30.746  33.369  0.00  0.00    -0.076 C 
ATOM    120  H33 ILE d   1      35.150  31.408  33.409  0.00  0.00     0.027 H 
ATOM    121  H34 ILE d   1      34.537  29.762  33.785  0.00  0.00     0.027 H 
ATOM    122  H35 ILE d   1      33.454  31.185  33.958  0.00  0.00     0.027 H 
ENDBRANCH 116 119
ENDBRANCH 114 116
BRANCH 114 123
ATOM    123  CG2 ILE d   1      32.596  28.404  32.556  0.00  0.00    -0.071 C 
ATOM    124  H30 ILE d   1      31.695  27.812  32.340  0.00  0.00     0.028 H 
ATOM    125  H31 ILE d   1      32.603  28.685  33.619  0.00  0.00     0.028 H 
ATOM    126  H32 ILE d   1      33.491  27.806  32.329  0.00  0.00     0.028 H 
ENDBRANCH 114 123
ENDBRANCH   1 114
TORSDOF 37
