REMARK  14 active torsions:
REMARK  status: ('A' for Active; 'I' for Inactive)
REMARK    1  A    between atoms: CAX_29  and  C4_1 
REMARK    2  A    between atoms: CAH_14  and  CAI_13 
REMARK    3  A    between atoms: CAH_14  and  NAU_15 
REMARK    4  A    between atoms: CAG_18  and  CAH_14 
REMARK    5  A    between atoms: NAU_15  and  CAW_16 
REMARK    6  A    between atoms: NAU_15  and  CAV_17 
REMARK       I    between atoms: N_20  and  CAG_18 
REMARK    7  A    between atoms: CA_21  and  N_20 
REMARK    8  A    between atoms: CA_21  and  CB_22 
REMARK    9  A    between atoms: C_26  and  CA_21 
REMARK   10  A    between atoms: CB_22  and  CG2_23 
REMARK   11  A    between atoms: CB_22  and  CG1_24 
REMARK   12  A    between atoms: CG1_24  and  CD1_25 
REMARK       I    between atoms: NAF_28  and  C_26 
REMARK   13  A    between atoms: NAF_28  and  CAX_29 
REMARK   14  A    between atoms: C2_30  and  CBE_31 
ROOT
ATOM      1  CA  D5W d   1     -42.621  -3.196 159.787  0.00  0.00     0.092 C 
ATOM      2  H15 D5W d   1     -41.641  -3.568 160.120  0.00  0.00     0.088 H 
ENDROOT
BRANCH   1   3
ATOM      3  N   D5W d   1     -43.287  -2.651 160.993  0.00  0.00    -0.345 N 
ATOM      4  CAG D5W d   1     -42.662  -2.362 162.154  0.00  0.00     0.254 C 
ATOM      5  OAQ D5W d   1     -41.429  -2.374 162.215  0.00  0.00    -0.271 OA
ATOM      6  H14 D5W d   1     -44.272  -2.485 160.943  0.00  0.00     0.163 HD
BRANCH   4   7
ATOM      7  CAH D5W d   1     -43.490  -1.988 163.408  0.00  0.00     0.204 C 
ATOM      8  H6  D5W d   1     -42.770  -1.898 164.235  0.00  0.00     0.107 H 
BRANCH   7   9
ATOM      9  CAI D5W d   1     -44.550  -2.980 163.941  0.00  0.00    -0.015 A 
ATOM     10  CAJ D5W d   1     -44.906  -4.192 163.300  0.00  0.00    -0.053 A 
ATOM     11  CAK D5W d   1     -45.884  -5.051 163.858  0.00  0.00     0.036 A 
ATOM     12  H3  D5W d   1     -44.423  -4.466 162.369  0.00  0.00     0.087 H 
ATOM     13 CLA  D5W d   1     -46.422  -6.596 163.109  0.00  0.00    -0.084 Cl
ATOM     14  CAL D5W d   1     -46.516  -4.745 165.051  0.00  0.00    -0.041 A 
ATOM     15  CAM D5W d   1     -46.196  -3.586 165.719  0.00  0.00     0.036 A 
ATOM     16  H4  D5W d   1     -47.262  -5.418 165.458  0.00  0.00     0.088 H 
ATOM     17 CLB  D5W d   1     -47.083  -3.289 167.259  0.00  0.00    -0.084 Cl
ATOM     18  CAN D5W d   1     -45.223  -2.726 165.177  0.00  0.00    -0.053 A 
ATOM     19  H5  D5W d   1     -44.971  -1.825 165.724  0.00  0.00     0.087 H 
ENDBRANCH   7   9
BRANCH   7  20
ATOM     20  NAU D5W d   1     -43.995  -0.595 163.108  0.00  0.00    -0.062 N 
ATOM     21  H7  D5W d   1     -44.448  -0.639 162.209  0.00  0.00     0.280 HD
BRANCH  20  22
ATOM     22  CAW D5W d   1     -42.851   0.353 163.019  0.00  0.00     0.067 C 
ATOM     23  H8  D5W d   1     -43.228   1.363 162.801  0.00  0.00     0.068 H 
ATOM     24  H9  D5W d   1     -42.172   0.034 162.215  0.00  0.00     0.068 H 
ATOM     25  H10 D5W d   1     -42.308   0.363 163.976  0.00  0.00     0.068 H 
ENDBRANCH  20  22
BRANCH  20  26
ATOM     26  CAV D5W d   1     -44.973  -0.012 164.067  0.00  0.00     0.067 C 
ATOM     27  H11 D5W d   1     -45.838  -0.684 164.162  0.00  0.00     0.068 H 
ATOM     28  H12 D5W d   1     -45.309   0.968 163.697  0.00  0.00     0.068 H 
ATOM     29  H13 D5W d   1     -44.494   0.111 165.050  0.00  0.00     0.068 H 
ENDBRANCH  20  26
ENDBRANCH   7  20
ENDBRANCH   4   7
ENDBRANCH   1   3
BRANCH   1  30
ATOM     30  CB  D5W d   1     -43.458  -4.439 159.352  0.00  0.00    -0.030 C 
ATOM     31  H16 D5W d   1     -43.728  -4.957 160.284  0.00  0.00     0.043 H 
BRANCH  30  32
ATOM     32  CG2 D5W d   1     -44.783  -4.075 158.656  0.00  0.00    -0.071 C 
ATOM     33  H17 D5W d   1     -45.317  -4.996 158.379  0.00  0.00     0.028 H 
ATOM     34  H18 D5W d   1     -44.572  -3.487 157.751  0.00  0.00     0.028 H 
ATOM     35  H19 D5W d   1     -45.406  -3.482 159.341  0.00  0.00     0.028 H 
ENDBRANCH  30  32
BRANCH  30  36
ATOM     36  CG1 D5W d   1     -42.674  -5.462 158.498  0.00  0.00    -0.063 C 
ATOM     37  H20 D5W d   1     -42.109  -4.906 157.736  0.00  0.00     0.033 H 
ATOM     38  H21 D5W d   1     -43.403  -6.122 158.005  0.00  0.00     0.033 H 
BRANCH  36  39
ATOM     39  CD1 D5W d   1     -41.692  -6.336 159.266  0.00  0.00    -0.076 C 
ATOM     40  H22 D5W d   1     -41.191  -7.024 158.569  0.00  0.00     0.027 H 
ATOM     41  H23 D5W d   1     -42.235  -6.916 160.027  0.00  0.00     0.027 H 
ATOM     42  H24 D5W d   1     -40.941  -5.700 159.757  0.00  0.00     0.027 H 
ENDBRANCH  36  39
ENDBRANCH  30  36
ENDBRANCH   1  30
BRANCH   1  43
ATOM     43  C   D5W d   1     -42.299  -2.218 158.627  0.00  0.00     0.241 C 
ATOM     44  O   D5W d   1     -43.079  -1.346 158.222  0.00  0.00    -0.271 OA
ATOM     45  NAF D5W d   1     -41.083  -2.374 158.053  0.00  0.00    -0.354 N 
ATOM     46  H25 D5W d   1     -40.494  -3.108 158.391  0.00  0.00     0.162 HD
BRANCH  45  47
ATOM     47  CAX D5W d   1     -40.579  -1.531 156.967  0.00  0.00     0.035 C 
ATOM     48  H26 D5W d   1     -41.311  -0.732 156.778  0.00  0.00     0.073 H 
ATOM     49  H27 D5W d   1     -39.625  -1.086 157.286  0.00  0.00     0.073 H 
BRANCH  47  50
ATOM     50  C4  D5W d   1     -40.347  -2.288 155.669  0.00  0.00     0.056 A 
ATOM     51  C5  D5W d   1     -41.368  -3.008 155.023  0.00  0.00    -0.041 A 
ATOM     52  C6  D5W d   1     -41.121  -3.688 153.829  0.00  0.00     0.006 A 
ATOM     53  H1  D5W d   1     -42.360  -3.035 155.458  0.00  0.00     0.088 H 
ATOM     54  N1  D5W d   1     -39.898  -3.653 153.286  0.00  0.00    -0.240 NA
ATOM     55  H2  D5W d   1     -41.916  -4.242 153.344  0.00  0.00     0.114 H 
ATOM     56  C2  D5W d   1     -38.931  -2.942 153.933  0.00  0.00     0.166 A 
ATOM     57  N3  D5W d   1     -39.132  -2.271 155.097  0.00  0.00    -0.231 NA
BRANCH  56  58
ATOM     58  CBE D5W d   1     -37.559  -2.883 153.367  0.00  0.00     0.040 C 
ATOM     59  NBF D5W d   1     -37.338  -3.422 152.214  0.00  0.00    -0.308 NA
ATOM     60  H29 D5W d   1     -36.414  -3.393 151.813  0.00  0.00     0.186 HD
ATOM     61  H28 D5W d   1     -36.754  -2.394 153.914  0.00  0.00     0.119 H 
ENDBRANCH  56  58
ENDBRANCH  47  50
ENDBRANCH  45  47
ENDBRANCH   1  43
TORSDOF 14
