REMARK  11 active torsions:
REMARK  status: ('A' for Active; 'I' for Inactive)
REMARK    1  A    between atoms: CD_2  and  CG_4 
REMARK    2  A    between atoms: CG_4  and  CB_5 
REMARK    3  A    between atoms: CB_5  and  CA_6 
REMARK    4  A    between atoms: CA_6  and  C_7 
REMARK    5  A    between atoms: CA_6  and  N_10 
REMARK       I    between atoms: N_10  and  CAR_11 
REMARK       I    between atoms: CAR_11  and  NAN_13 
REMARK    6  A    between atoms: NAN_13  and  CAU_14 
REMARK    7  A    between atoms: CAU_14  and  CAQ_15 
REMARK    8  A    between atoms: CAU_14  and  CAL_18 
REMARK    9  A    between atoms: CAL_18  and  CAS_19 
REMARK   10  A    between atoms: CAS_19  and  CAB_20 
REMARK   11  A    between atoms: CAS_19  and  CAA_21 
ROOT
ATOM      1  N   D6E d   1      16.835  45.203  42.817  0.00  0.00    -0.329 N 
ATOM      2  CAR D6E d   1      18.099  44.864  43.162  0.00  0.00     0.317 C 
ATOM      3  OAF D6E d   1      18.593  43.810  42.730  0.00  0.00    -0.247 OA
ATOM      4  NAN D6E d   1      18.678  45.637  44.059  0.00  0.00    -0.329 N 
ATOM      5  H6  D6E d   1      16.357  45.908  43.341  0.00  0.00     0.165 HD
ATOM      6  H7  D6E d   1      18.157  46.400  44.442  0.00  0.00     0.165 HD
ENDROOT
BRANCH   4   7
ATOM      7  CAU D6E d   1      20.062  45.425  44.522  0.00  0.00     0.098 C 
ATOM      8  H8  D6E d   1      20.311  44.354  44.542  0.00  0.00     0.089 H 
BRANCH   7   9
ATOM      9  CAQ D6E d   1      20.222  46.007  45.909  0.00  0.00     0.196 C 
ATOM     10  OAI D6E d   1      19.779  47.163  46.118  0.00  0.00    -0.646 OA
ATOM     11  OAE D6E d   1      20.742  45.228  46.737  0.00  0.00    -0.646 OA
ENDBRANCH   7   9
BRANCH   7  12
ATOM     12  CAL D6E d   1      20.943  46.170  43.477  0.00  0.00    -0.034 C 
ATOM     13  H9  D6E d   1      20.532  47.180  43.330  0.00  0.00     0.037 H 
ATOM     14  H10 D6E d   1      20.903  45.616  42.528  0.00  0.00     0.037 H 
BRANCH  12  15
ATOM     15  CAS D6E d   1      22.410  46.299  43.905  0.00  0.00    -0.059 C 
ATOM     16  H11 D6E d   1      22.472  46.773  44.895  0.00  0.00     0.038 H 
BRANCH  15  17
ATOM     17  CAB D6E d   1      23.179  47.141  42.867  0.00  0.00    -0.073 C 
ATOM     18  H12 D6E d   1      24.231  47.232  43.176  0.00  0.00     0.028 H 
ATOM     19  H13 D6E d   1      22.728  48.142  42.800  0.00  0.00     0.028 H 
ATOM     20  H14 D6E d   1      23.127  46.649  41.885  0.00  0.00     0.028 H 
ENDBRANCH  15  17
BRANCH  15  21
ATOM     21  CAA D6E d   1      23.039  44.884  43.949  0.00  0.00    -0.073 C 
ATOM     22  H15 D6E d   1      22.503  44.267  44.685  0.00  0.00     0.028 H 
ATOM     23  H16 D6E d   1      24.098  44.962  44.237  0.00  0.00     0.028 H 
ATOM     24  H17 D6E d   1      22.963  44.418  42.956  0.00  0.00     0.028 H 
ENDBRANCH  15  21
ENDBRANCH  12  15
ENDBRANCH   7  12
ENDBRANCH   4   7
BRANCH   1  25
ATOM     25  CA  D6E d   1      16.153  44.559  41.692  0.00  0.00     0.098 C 
ATOM     26  H5  D6E d   1      15.965  43.501  41.926  0.00  0.00     0.089 H 
BRANCH  25  27
ATOM     27  CB  D6E d   1      14.801  45.263  41.354  0.00  0.00    -0.028 C 
ATOM     28  H3  D6E d   1      14.384  44.839  40.429  0.00  0.00     0.037 H 
ATOM     29  H4  D6E d   1      14.089  45.113  42.179  0.00  0.00     0.037 H 
BRANCH  27  30
ATOM     30  CG  D6E d   1      15.065  46.792  41.159  0.00  0.00     0.018 C 
ATOM     31  H1  D6E d   1      15.347  47.221  42.132  0.00  0.00     0.049 H 
ATOM     32  H2  D6E d   1      15.897  46.912  40.450  0.00  0.00     0.049 H 
BRANCH  30  33
ATOM     33  CD  D6E d   1      13.864  47.564  40.624  0.00  0.00     0.172 C 
ATOM     34  OE1 D6E d   1      13.103  46.994  39.814  0.00  0.00    -0.648 OA
ATOM     35  OE2 D6E d   1      13.856  48.794  40.841  0.00  0.00    -0.648 OA
ENDBRANCH  30  33
ENDBRANCH  27  30
ENDBRANCH  25  27
BRANCH  25  36
ATOM     36  C   D6E d   1      17.109  44.685  40.457  0.00  0.00     0.196 C 
ATOM     37  OXT D6E d   1      16.980  43.824  39.547  0.00  0.00    -0.646 OA
ATOM     38  O   D6E d   1      17.992  45.585  40.431  0.00  0.00    -0.646 OA
ENDBRANCH  25  36
ENDBRANCH   1  25
TORSDOF 11
