REMARK  22 active torsions:
REMARK  status: ('A' for Active; 'I' for Inactive)
REMARK    1  A    between atoms: N_1  and  CA_2 
REMARK    2  A    between atoms: CA_2  and  C_3 
REMARK    3  A    between atoms: CA_2  and  CB_5 
REMARK       I    between atoms: C_3  and  N_6 
REMARK    4  A    between atoms: N_6  and  CA_7 
REMARK    5  A    between atoms: CA_7  and  C_8 
REMARK    6  A    between atoms: CA_7  and  CB_10 
REMARK       I    between atoms: C_8  and  N_12 
REMARK    7  A    between atoms: CB_10  and  OG_11 
REMARK    8  A    between atoms: N_12  and  CA_13 
REMARK    9  A    between atoms: CA_13  and  C_14 
REMARK   10  A    between atoms: CA_13  and  CB_16 
REMARK       I    between atoms: C_14  and  N_20 
REMARK   11  A    between atoms: CB_16  and  CG_17 
REMARK   12  A    between atoms: CG_17  and  CD1_18 
REMARK   13  A    between atoms: CG_17  and  CD2_19 
REMARK   14  A    between atoms: N_20  and  CA_21 
REMARK   15  A    between atoms: CA_21  and  CB_22 
REMARK   16  A    between atoms: CA_21  and  C_24 
REMARK   17  A    between atoms: CB_22  and  OG_23 
REMARK   18  A    between atoms: OG_23  and  P_26 
REMARK       I    between atoms: C_24  and  N_30 
REMARK   19  A    between atoms: N_30  and  CA_31 
REMARK   20  A    between atoms: CA_31  and  C_32 
REMARK   21  A    between atoms: CA_31  and  CB_34 
REMARK       I    between atoms: C_32  and  N_35 
REMARK   22  A    between atoms: CA_36  and  C_37 
ROOT
ATOM      1  C   LEU d   1     -11.305 -26.639  12.894  0.00  0.00     0.241 C 
ATOM      2  O   LEU d   1     -10.798 -25.635  13.392  0.00  0.00    -0.271 OA
ATOM      3  N   SEP d   1     -12.082 -26.597  11.818  0.00  0.00    -0.344 N 
ATOM      4  H24 SEP d   1     -12.435 -27.450  11.434  0.00  0.00     0.163 HD
ENDROOT
BRANCH   1   5
ATOM      5  CA  LEU d   1     -11.057 -28.016  13.493  0.00  0.00     0.089 C 
ATOM      6  H14 LEU d   1     -11.508 -28.769  12.830  0.00  0.00     0.087 H 
BRANCH   5   7
ATOM      7  N   LEU d   1      -9.626 -28.290  13.593  0.00  0.00    -0.346 N 
ATOM      8  C   SER d   1      -8.989 -29.027  12.688  0.00  0.00     0.243 C 
ATOM      9  O   SER d   1      -9.560 -29.537  11.719  0.00  0.00    -0.271 OA
ATOM     10  H13 LEU d   1      -9.111 -27.913  14.363  0.00  0.00     0.163 HD
BRANCH   8  11
ATOM     11  CA  SER d   1      -7.492 -29.203  12.907  0.00  0.00     0.109 C 
ATOM     12  H9  SER d   1      -7.327 -29.667  13.890  0.00  0.00     0.090 H 
BRANCH  11  13
ATOM     13  N   SER d   1      -6.973 -30.092  11.876  0.00  0.00    -0.344 N 
ATOM     14  C   ARG d   1      -6.283 -31.203  12.132  0.00  0.00     0.248 C 
ATOM     15  O   ARG d   1      -5.909 -31.515  13.263  0.00  0.00    -0.271 OA
ATOM     16  H8  SER d   1      -7.145 -29.855  10.920  0.00  0.00     0.163 HD
BRANCH  14  17
ATOM     17  CA  ARG d   1      -5.955 -32.082  10.925  0.00  0.00     0.172 C 
ATOM     18  H4  ARG d   1      -5.521 -31.443  10.142  0.00  0.00     0.098 H 
BRANCH  17  19
ATOM     19  N   ARG d   1      -4.979 -33.115  11.261  0.00  0.00    -0.067 N 
ATOM     20  H1  ARG d   1      -4.787 -33.674  10.444  0.00  0.00     0.275 HD
ATOM     21  H2  ARG d   1      -5.350 -33.703  11.991  0.00  0.00     0.275 HD
ATOM     22  H3  ARG d   1      -4.127 -32.681  11.579  0.00  0.00     0.275 HD
ENDBRANCH  17  19
BRANCH  17  23
ATOM     23  CB  ARG d   1      -7.238 -32.716  10.377  0.00  0.00    -0.042 C 
ATOM     24  H5  ARG d   1      -7.961 -31.925  10.129  0.00  0.00     0.030 H 
ATOM     25  H6  ARG d   1      -7.671 -33.383  11.137  0.00  0.00     0.030 H 
ATOM     26  H7  ARG d   1      -7.003 -33.295   9.471  0.00  0.00     0.030 H 
ENDBRANCH  17  23
ENDBRANCH  14  17
ENDBRANCH  11  13
BRANCH  11  27
ATOM     27  CB  SER d   1      -6.781 -27.843  12.889  0.00  0.00     0.044 C 
ATOM     28  H10 SER d   1      -7.371 -27.123  13.476  0.00  0.00     0.077 H 
ATOM     29  H11 SER d   1      -6.705 -27.493  11.849  0.00  0.00     0.077 H 
BRANCH  27  30
ATOM     30  OG  SER d   1      -5.481 -27.929  13.441  0.00  0.00    -0.398 OA
ATOM     31  H12 SER d   1      -4.964 -28.546  12.936  0.00  0.00     0.209 HD
ENDBRANCH  27  30
ENDBRANCH  11  27
ENDBRANCH   8  11
ENDBRANCH   5   7
BRANCH   5  32
ATOM     32  CB  LEU d   1     -11.719 -28.121  14.864  0.00  0.00    -0.035 C 
ATOM     33  H15 LEU d   1     -12.810 -28.085  14.729  0.00  0.00     0.037 H 
ATOM     34  H16 LEU d   1     -11.397 -27.264  15.474  0.00  0.00     0.037 H 
BRANCH  32  35
ATOM     35  CG  LEU d   1     -11.365 -29.406  15.609  0.00  0.00    -0.059 C 
ATOM     36  H17 LEU d   1     -10.385 -29.749  15.245  0.00  0.00     0.038 H 
BRANCH  35  37
ATOM     37  CD1 LEU d   1     -11.246 -29.166  17.109  0.00  0.00    -0.073 C 
ATOM     38  H18 LEU d   1     -10.991 -30.110  17.612  0.00  0.00     0.028 H 
ATOM     39  H19 LEU d   1     -12.204 -28.791  17.497  0.00  0.00     0.028 H 
ATOM     40  H20 LEU d   1     -10.457 -28.424  17.300  0.00  0.00     0.028 H 
ENDBRANCH  35  37
BRANCH  35  41
ATOM     41  CD2 LEU d   1     -12.384 -30.493  15.306  0.00  0.00    -0.073 C 
ATOM     42  H21 LEU d   1     -12.447 -30.643  14.218  0.00  0.00     0.028 H 
ATOM     43  H22 LEU d   1     -13.368 -30.191  15.692  0.00  0.00     0.028 H 
ATOM     44  H23 LEU d   1     -12.073 -31.432  15.788  0.00  0.00     0.028 H 
ENDBRANCH  35  41
ENDBRANCH  32  35
ENDBRANCH   5  32
ENDBRANCH   1   5
BRANCH   3  45
ATOM     45  CA  SEP d   1     -12.430 -25.334  11.187  0.00  0.00     0.110 C 
ATOM     46  H25 SEP d   1     -11.816 -24.539  11.635  0.00  0.00     0.090 H 
BRANCH  45  47
ATOM     47  CB  SEP d   1     -12.144 -25.382   9.691  0.00  0.00     0.059 C 
ATOM     48  H26 SEP d   1     -11.073 -25.575   9.530  0.00  0.00     0.079 H 
ATOM     49  H27 SEP d   1     -12.415 -24.418   9.237  0.00  0.00     0.079 H 
BRANCH  47  50
ATOM     50  OG  SEP d   1     -12.900 -26.411   9.090  0.00  0.00    -0.280 OA
BRANCH  50  51
ATOM     51  P   SEP d   1     -12.599 -26.492   7.516  0.00  0.00     0.422 P 
ATOM     52  O1P SEP d   1     -13.107 -25.132   6.825  0.00  0.00    -0.617 OA
ATOM     53  O2P SEP d   1     -11.017 -26.694   7.294  0.00  0.00    -0.617 OA
ATOM     54  O3P SEP d   1     -13.402 -27.730   6.876  0.00  0.00    -0.617 OA
ENDBRANCH  50  51
ENDBRANCH  47  50
ENDBRANCH  45  47
BRANCH  45  55
ATOM     55  C   SEP d   1     -13.897 -25.011  11.431  0.00  0.00     0.243 C 
ATOM     56  O   SEP d   1     -14.594 -25.735  12.145  0.00  0.00    -0.271 OA
ATOM     57  N   ALA d   1     -14.366 -23.920  10.841  0.00  0.00    -0.346 N 
ATOM     58  H28 ALA d   1     -13.752 -23.354  10.291  0.00  0.00     0.163 HD
BRANCH  57  59
ATOM     59  CA  ALA d   1     -15.763 -23.536  10.983  0.00  0.00     0.086 C 
ATOM     60  H29 ALA d   1     -16.078 -23.745  12.016  0.00  0.00     0.086 H 
BRANCH  59  61
ATOM     61  C   ALA d   1     -16.636 -24.356  10.038  0.00  0.00     0.243 C 
ATOM     62  O   ALA d   1     -16.221 -24.677   8.918  0.00  0.00    -0.271 OA
ATOM     63  N   PRO d   1     -17.845 -24.712  10.492  0.00  0.00    -0.336 N 
ATOM     64  CA  PRO d   1     -18.813 -25.422   9.649  0.00  0.00     0.098 C 
ATOM     65  CD  PRO d   1     -18.334 -24.540  11.870  0.00  0.00    -0.001 C 
ATOM     66  CB  PRO d   1     -20.018 -25.604  10.575  0.00  0.00    -0.035 C 
ATOM     67  H33 PRO d   1     -18.410 -26.396   9.334  0.00  0.00     0.089 H 
ATOM     68  CG  PRO d   1     -19.454 -25.529  11.952  0.00  0.00    -0.048 C 
ATOM     69  H34 PRO d   1     -20.494 -26.581  10.404  0.00  0.00     0.036 H 
ATOM     70  H35 PRO d   1     -20.755 -24.803  10.414  0.00  0.00     0.036 H 
ATOM     71  H36 PRO d   1     -19.076 -26.513  12.267  0.00  0.00     0.035 H 
ATOM     72  H37 PRO d   1     -20.220 -25.185  12.663  0.00  0.00     0.035 H 
ATOM     73  H38 PRO d   1     -18.698 -23.515  12.036  0.00  0.00     0.064 H 
ATOM     74  H39 PRO d   1     -17.546 -24.773  12.602  0.00  0.00     0.064 H 
BRANCH  64  75
ATOM     75  C   PRO d   1     -19.197 -24.616   8.413  0.00  0.00     0.196 C 
ATOM     76  O   PRO d   1     -20.226 -24.913   7.810  0.00  0.00    -0.646 OA
ATOM     77  OXT PRO d   1     -18.466 -23.694   8.058  0.00  0.00    -0.646 OA
ENDBRANCH  64  75
ENDBRANCH  59  61
BRANCH  59  78
ATOM     78  CB  ALA d   1     -15.934 -22.052  10.722  0.00  0.00    -0.049 C 
ATOM     79  H30 ALA d   1     -16.994 -21.780  10.834  0.00  0.00     0.030 H 
ATOM     80  H31 ALA d   1     -15.601 -21.819   9.700  0.00  0.00     0.030 H 
ATOM     81  H32 ALA d   1     -15.331 -21.481  11.443  0.00  0.00     0.030 H 
ENDBRANCH  59  78
ENDBRANCH  57  59
ENDBRANCH  45  55
ENDBRANCH   3  45
TORSDOF 22
