REMARK  5 active torsions:
REMARK  status: ('A' for Active; 'I' for Inactive)
REMARK       I    between atoms: N12_6  and  C10_5 
REMARK    1  A    between atoms: C10_5  and  C1_13 
REMARK    2  A    between atoms: C24_11  and  C23_19 
REMARK       I    between atoms: N26_32  and  C24_11 
REMARK    3  A    between atoms: C27_20  and  C28_12 
REMARK    4  A    between atoms: C23_19  and  N20_31 
REMARK    5  A    between atoms: C27_20  and  N26_32 
ROOT
ATOM      1  C10 D6Q d   1      50.661 -23.322  50.965  0.00  0.00     0.255 C 
ATOM      2  N12 D6Q d   1      51.244 -22.928  52.186  0.00  0.00    -0.348 N 
ATOM      3  C13 D6Q d   1      50.712 -21.694  52.772  0.00  0.00    -0.001 C 
ATOM      4  C15 D6Q d   1      52.957 -20.560  52.137  0.00  0.00     0.076 C 
ATOM      5  C17 D6Q d   1      52.744 -23.040  52.352  0.00  0.00    -0.001 C 
ATOM      6  C21 D6Q d   1      53.384 -20.235  53.573  0.00  0.00     0.238 C 
ATOM      7  C14 D6Q d   1      51.397 -20.508  52.043  0.00  0.00    -0.030 C 
ATOM      8  C16 D6Q d   1      53.521 -21.878  51.676  0.00  0.00    -0.030 C 
ATOM      9  C18 D6Q d   1      53.533 -19.400  51.406  0.00  0.00     0.029 A 
ATOM     10  C19 D6Q d   1      53.896 -18.389  52.310  0.00  0.00     0.048 A 
ATOM     11  C32 D6Q d   1      54.273 -17.148  51.906  0.00  0.00    -0.053 A 
ATOM     12  C33 D6Q d   1      54.319 -16.880  50.533  0.00  0.00    -0.040 A 
ATOM     13  C34 D6Q d   1      54.013 -17.862  49.622  0.00  0.00     0.155 A 
ATOM     14  C35 D6Q d   1      53.623 -19.155  50.070  0.00  0.00     0.164 A 
ATOM     15  F36 D6Q d   1      53.403 -20.103  49.198  0.00  0.00    -0.202 F 
ATOM     16  F37 D6Q d   1      54.086 -17.596  48.307  0.00  0.00    -0.203 F 
ATOM     17  N20 D6Q d   1      53.860 -18.910  53.604  0.00  0.00    -0.308 N 
ATOM     18  O11 D6Q d   1      49.685 -22.738  50.560  0.00  0.00    -0.267 OA
ATOM     19  O22 D6Q d   1      53.373 -20.909  54.588  0.00  0.00    -0.272 OA
ATOM     20  H2  D6Q d   1      50.941 -21.658  53.847  0.00  0.00     0.064 H 
ATOM     21  H3  D6Q d   1      49.623 -21.647  52.627  0.00  0.00     0.064 H 
ATOM     22  H4  D6Q d   1      53.076 -23.989  51.906  0.00  0.00     0.064 H 
ATOM     23  H5  D6Q d   1      52.978 -23.039  53.427  0.00  0.00     0.064 H 
ATOM     24  H6  D6Q d   1      51.049 -19.568  52.496  0.00  0.00     0.037 H 
ATOM     25  H7  D6Q d   1      51.108 -20.533  50.982  0.00  0.00     0.037 H 
ATOM     26  H8  D6Q d   1      54.584 -21.939  51.952  0.00  0.00     0.037 H 
ATOM     27  H9  D6Q d   1      53.421 -21.957  50.583  0.00  0.00     0.037 H 
ATOM     28  H15 D6Q d   1      54.532 -16.384  52.630  0.00  0.00     0.087 H 
ATOM     29  H16 D6Q d   1      54.598 -15.892  50.186  0.00  0.00     0.088 H 
ENDROOT
BRANCH  17  30
ATOM     30  C23 D6Q d   1      54.317 -18.278  54.816  0.00  0.00     0.076 C 
ATOM     31  H11 D6Q d   1      54.137 -17.194  54.770  0.00  0.00     0.079 H 
ATOM     32  H12 D6Q d   1      53.791 -18.700  55.685  0.00  0.00     0.079 H 
BRANCH  30  33
ATOM     33  C24 D6Q d   1      55.815 -18.560  54.918  0.00  0.00     0.236 C 
ATOM     34  N26 D6Q d   1      56.462 -18.032  56.023  0.00  0.00    -0.351 N 
ATOM     35  H18 D6Q d   1      55.940 -17.505  56.694  0.00  0.00     0.162 HD
ATOM     36  O25 D6Q d   1      56.405 -19.210  54.054  0.00  0.00    -0.272 OA
BRANCH  34  37
ATOM     37  C27 D6Q d   1      57.871 -18.229  56.221  0.00  0.00     0.085 C 
ATOM     38  H13 D6Q d   1      58.326 -18.717  55.346  0.00  0.00     0.077 H 
ATOM     39  H14 D6Q d   1      58.378 -17.272  56.412  0.00  0.00     0.077 H 
BRANCH  37  40
ATOM     40  C28 D6Q d   1      57.938 -19.142  57.456  0.00  0.00     0.403 C 
ATOM     41  F29 D6Q d   1      57.656 -18.503  58.584  0.00  0.00    -0.169 F 
ATOM     42  F30 D6Q d   1      57.026 -20.113  57.332  0.00  0.00    -0.169 F 
ATOM     43  F31 D6Q d   1      59.119 -19.729  57.657  0.00  0.00    -0.169 F 
ENDBRANCH  37  40
ENDBRANCH  34  37
ENDBRANCH  30  33
ENDBRANCH  17  30
BRANCH   1  44
ATOM     44  C1  D6Q d   1      51.234 -24.439  50.179  0.00  0.00     0.050 A 
ATOM     45  C2  D6Q d   1      50.707 -25.740  50.434  0.00  0.00     0.020 A 
ATOM     46  N3  D6Q d   1      51.067 -26.871  49.794  0.00  0.00    -0.238 NA
ATOM     47  H10 D6Q d   1      49.953 -25.827  51.208  0.00  0.00     0.116 H 
ATOM     48  C4  D6Q d   1      52.027 -26.679  48.829  0.00  0.00     0.180 A 
ATOM     49  C8  D6Q d   1      52.636 -25.412  48.502  0.00  0.00     0.031 A 
ATOM     50  N5  D6Q d   1      52.609 -27.614  47.996  0.00  0.00    -0.154 NA
ATOM     51  C7  D6Q d   1      53.582 -25.714  47.457  0.00  0.00     0.009 A 
ATOM     52  C9  D6Q d   1      52.218 -24.254  49.206  0.00  0.00    -0.051 A 
ATOM     53  N6  D6Q d   1      53.546 -27.021  47.175  0.00  0.00    -0.286 N 
ATOM     54  H1  D6Q d   1      54.230 -24.986  46.970  0.00  0.00     0.115 H 
ATOM     55  H19 D6Q d   1      54.119 -27.502  46.467  0.00  0.00     0.188 HD
ATOM     56  H17 D6Q d   1      52.640 -23.277  49.000  0.00  0.00     0.086 H 
ENDBRANCH   1  44
TORSDOF 5
