REMARK  5 active torsions:
REMARK  status: ('A' for Active; 'I' for Inactive)
REMARK    1  A    between atoms: C18_23  and  C20_8 
REMARK       I    between atoms: N6_16  and  C18_23 
REMARK    2  A    between atoms: N7_17  and  C12_20 
REMARK    3  A    between atoms: N9_18  and  C29_29 
REMARK    4  A    between atoms: C29_29  and  C30_30 
REMARK       I    between atoms: C30_30  and  N32_32 
REMARK    5  A    between atoms: N32_32  and  C33_33 
ROOT
ATOM      1  C4  D6W d   1      -3.743  -4.653  17.061  0.00  0.00    -0.018 C 
ATOM      2  C5  D6W d   1      -4.060  -3.298  16.433  0.00  0.00     0.001 C 
ATOM      3  C8  D6W d   1      -3.644  -8.102  16.505  0.00  0.00     0.060 C 
ATOM      4  C10 D6W d   1      -3.787  -6.180  15.104  0.00  0.00     0.250 C 
ATOM      5  C1  D6W d   1      -6.169  -4.014  15.456  0.00  0.00     0.001 C 
ATOM      6  C2  D6W d   1      -5.987  -5.425  16.034  0.00  0.00    -0.018 C 
ATOM      7  C3  D6W d   1      -4.526  -5.796  16.374  0.00  0.00     0.118 C 
ATOM      8  N6  D6W d   1      -5.528  -3.112  16.424  0.00  0.00    -0.348 N 
ATOM      9  N7  D6W d   1      -4.466  -7.058  17.188  0.00  0.00    -0.346 N 
ATOM     10  N9  D6W d   1      -3.575  -7.554  15.103  0.00  0.00    -0.325 N 
ATOM     11  O11 D6W d   1      -3.424  -5.447  14.214  0.00  0.00    -0.270 OA
ATOM     12  C18 D6W d   1      -6.239  -2.164  17.192  0.00  0.00     0.253 C 
ATOM     13  O19 D6W d   1      -7.444  -2.002  17.001  0.00  0.00    -0.267 OA
ATOM     14  H1  D6W d   1      -4.014  -4.625  18.127  0.00  0.00     0.039 H 
ATOM     15  H2  D6W d   1      -2.665  -4.849  16.962  0.00  0.00     0.039 H 
ATOM     16  H3  D6W d   1      -3.677  -3.269  15.402  0.00  0.00     0.064 H 
ATOM     17  H4  D6W d   1      -3.589  -2.497  17.022  0.00  0.00     0.064 H 
ATOM     18  H5  D6W d   1      -4.139  -9.084  16.529  0.00  0.00     0.097 H 
ATOM     19  H6  D6W d   1      -2.643  -8.184  16.955  0.00  0.00     0.097 H 
ATOM     20  H13 D6W d   1      -7.238  -3.774  15.355  0.00  0.00     0.064 H 
ATOM     21  H14 D6W d   1      -5.681  -3.934  14.473  0.00  0.00     0.064 H 
ATOM     22  H15 D6W d   1      -6.362  -6.149  15.296  0.00  0.00     0.039 H 
ATOM     23  H16 D6W d   1      -6.583  -5.498  16.956  0.00  0.00     0.039 H 
ENDROOT
BRANCH   9  24
ATOM     24  C12 D6W d   1      -4.732  -7.176  18.617  0.00  0.00     0.032 A 
ATOM     25  C13 D6W d   1      -4.252  -8.266  19.317  0.00  0.00    -0.057 A 
ATOM     26  C14 D6W d   1      -4.579  -8.406  20.677  0.00  0.00    -0.081 A 
ATOM     27  H7  D6W d   1      -3.631  -9.005  18.823  0.00  0.00     0.086 H 
ATOM     28  C15 D6W d   1      -5.377  -7.475  21.329  0.00  0.00    -0.083 A 
ATOM     29  H17 D6W d   1      -4.200  -9.259  21.229  0.00  0.00     0.083 H 
ATOM     30  C16 D6W d   1      -5.854  -6.372  20.638  0.00  0.00    -0.081 A 
ATOM     31  H8  D6W d   1      -5.626  -7.610  22.375  0.00  0.00     0.083 H 
ATOM     32  C17 D6W d   1      -5.530  -6.219  19.280  0.00  0.00    -0.057 A 
ATOM     33  H18 D6W d   1      -6.471  -5.635  21.140  0.00  0.00     0.083 H 
ATOM     34  H9  D6W d   1      -5.897  -5.357  18.735  0.00  0.00     0.086 H 
ENDBRANCH   9  24
BRANCH  10  35
ATOM     35  C29 D6W d   1      -2.746  -8.206  14.108  0.00  0.00     0.073 C 
ATOM     36  H21 D6W d   1      -3.041  -7.847  13.111  0.00  0.00     0.079 H 
ATOM     37  H22 D6W d   1      -2.907  -9.292  14.169  0.00  0.00     0.079 H 
BRANCH  35  38
ATOM     38  C30 D6W d   1      -1.254  -7.915  14.317  0.00  0.00     0.235 C 
ATOM     39  O31 D6W d   1      -0.827  -7.046  15.096  0.00  0.00    -0.272 OA
ATOM     40  N32 D6W d   1      -0.384  -8.691  13.566  0.00  0.00    -0.364 N 
ATOM     41  H23 D6W d   1      -0.740  -9.384  12.940  0.00  0.00     0.161 HD
BRANCH  40  42
ATOM     42  C33 D6W d   1       1.062  -8.487  13.697  0.00  0.00    -0.018 C 
ATOM     43  H24 D6W d   1       1.592  -9.184  13.032  0.00  0.00     0.056 H 
ATOM     44  H25 D6W d   1       1.365  -8.671  14.738  0.00  0.00     0.056 H 
ATOM     45  H26 D6W d   1       1.313  -7.453  13.419  0.00  0.00     0.056 H 
ENDBRANCH  40  42
ENDBRANCH  35  38
ENDBRANCH  10  35
BRANCH  12  46
ATOM     46  C20 D6W d   1      -5.557  -1.304  18.207  0.00  0.00     0.033 A 
ATOM     47  C21 D6W d   1      -4.797  -1.853  19.222  0.00  0.00    -0.054 A 
ATOM     48  C22 D6W d   1      -4.207  -0.985  20.131  0.00  0.00     0.012 A 
ATOM     49  H10 D6W d   1      -4.666  -2.926  19.306  0.00  0.00     0.086 H 
ATOM     50  C26 D6W d   1      -3.364  -1.174  21.254  0.00  0.00     0.008 A 
ATOM     51  C23 D6W d   1      -4.414   0.417  20.015  0.00  0.00     0.088 A 
ATOM     52  N27 D6W d   1      -3.068   0.024  21.809  0.00  0.00    -0.288 N 
ATOM     53  H12 D6W d   1      -3.008  -2.138  21.616  0.00  0.00     0.115 H 
ATOM     54  N28 D6W d   1      -3.696   0.989  21.064  0.00  0.00    -0.175 NA
ATOM     55  H20 D6W d   1      -2.479   0.182  22.639  0.00  0.00     0.188 HD
ATOM     56  C24 D6W d   1      -5.200   0.973  18.990  0.00  0.00    -0.052 A 
ATOM     57  C25 D6W d   1      -5.759   0.094  18.087  0.00  0.00    -0.065 A 
ATOM     58  H11 D6W d   1      -5.359   2.043  18.913  0.00  0.00     0.087 H 
ATOM     59  H19 D6W d   1      -6.362   0.478  17.272  0.00  0.00     0.085 H 
ENDBRANCH  12  46
TORSDOF 5
