REMARK  5 active torsions:
REMARK  status: ('A' for Active; 'I' for Inactive)
REMARK    1  A    between atoms: C9_23  and  C8_4 
REMARK    2  A    between atoms: C8_4  and  N7_32 
REMARK    3  A    between atoms: C12_12  and  C13_5 
REMARK    4  A    between atoms: C25_16  and  C26_10 
REMARK    5  A    between atoms: N11_27  and  C12_12 
REMARK       I    between atoms: N22_28  and  C25_16 
REMARK       I    between atoms: C9_23  and  N11_27 
ROOT
ATOM      1  C4  D6Z d   1     -15.446  -8.941 -11.376  0.00  0.00    -0.080 A 
ATOM      2  C5  D6Z d   1     -15.050  -8.643 -12.667  0.00  0.00    -0.056 A 
ATOM      3  C6  D6Z d   1     -15.237  -7.355 -13.141  0.00  0.00     0.046 A 
ATOM      4  C17 D6Z d   1     -15.241  -5.531 -14.498  0.00  0.00     0.238 A 
ATOM      5  C20 D6Z d   1     -15.178  -3.884 -12.546  0.00  0.00    -0.030 C 
ATOM      6  C21 D6Z d   1     -15.528  -2.580 -13.239  0.00  0.00    -0.001 C 
ATOM      7  C24 D6Z d   1     -17.384  -4.775 -13.478  0.00  0.00    -0.030 C 
ATOM      8  C19 D6Z d   1     -15.895  -5.100 -13.179  0.00  0.00     0.075 A 
ATOM      9  C2  D6Z d   1     -16.164  -6.680 -11.060  0.00  0.00     0.020 A 
ATOM     10  C23 D6Z d   1     -17.567  -3.440 -14.184  0.00  0.00    -0.001 C 
ATOM     11  C25 D6Z d   1     -17.715  -1.475 -12.692  0.00  0.00     0.272 C 
ATOM     12  C3  D6Z d   1     -16.002  -7.967 -10.567  0.00  0.00    -0.065 A 
ATOM     13  C36 D6Z d   1     -15.795  -6.357 -12.350  0.00  0.00     0.004 A 
ATOM     14  N22 D6Z d   1     -16.985  -2.402 -13.336  0.00  0.00    -0.347 N 
ATOM     15  N7  D6Z d   1     -14.938  -6.855 -14.403  0.00  0.00    -0.308 N 
ATOM     16  O18 D6Z d   1     -15.044  -4.823 -15.472  0.00  0.00    -0.272 OA
ATOM     17  O35 D6Z d   1     -18.920  -1.381 -12.826  0.00  0.00    -0.266 OA
ATOM     18 BR1  D6Z d   1     -16.954  -5.399  -9.891  0.00  0.00    -0.050 Br
ATOM     19  H1  D6Z d   1     -15.319  -9.948 -10.995  0.00  0.00     0.083 H 
ATOM     20  H2  D6Z d   1     -14.602  -9.403 -13.296  0.00  0.00     0.086 H 
ATOM     21  H5  D6Z d   1     -15.472  -3.812 -11.489  0.00  0.00     0.037 H 
ATOM     22  H6  D6Z d   1     -14.091  -4.040 -12.615  0.00  0.00     0.037 H 
ATOM     23  H7  D6Z d   1     -15.099  -2.586 -14.252  0.00  0.00     0.064 H 
ATOM     24  H8  D6Z d   1     -15.102  -1.744 -12.665  0.00  0.00     0.064 H 
ATOM     25  H9  D6Z d   1     -17.935  -4.748 -12.527  0.00  0.00     0.037 H 
ATOM     26  H10 D6Z d   1     -17.795  -5.570 -14.118  0.00  0.00     0.037 H 
ATOM     27  H14 D6Z d   1     -18.638  -3.241 -14.337  0.00  0.00     0.064 H 
ATOM     28  H15 D6Z d   1     -17.055  -3.458 -15.157  0.00  0.00     0.064 H 
ATOM     29  H17 D6Z d   1     -16.309  -8.207  -9.555  0.00  0.00     0.085 H 
ENDROOT
BRANCH  15  30
ATOM     30  C8  D6Z d   1     -14.315  -7.610 -15.478  0.00  0.00     0.076 C 
ATOM     31  H3  D6Z d   1     -14.633  -8.661 -15.413  0.00  0.00     0.079 H 
ATOM     32  H4  D6Z d   1     -14.631  -7.190 -16.445  0.00  0.00     0.079 H 
BRANCH  30  33
ATOM     33  C9  D6Z d   1     -12.801  -7.540 -15.374  0.00  0.00     0.236 C 
ATOM     34  N11 D6Z d   1     -12.124  -8.370 -16.165  0.00  0.00    -0.351 N 
ATOM     35  H19 D6Z d   1     -12.626  -8.895 -16.853  0.00  0.00     0.162 HD
ATOM     36  O10 D6Z d   1     -12.256  -6.771 -14.583  0.00  0.00    -0.272 OA
BRANCH  34  37
ATOM     37  C12 D6Z d   1     -10.685  -8.543 -16.067  0.00  0.00     0.085 C 
ATOM     38  H12 D6Z d   1     -10.310  -7.900 -15.257  0.00  0.00     0.077 H 
ATOM     39  H13 D6Z d   1     -10.475  -9.596 -15.827  0.00  0.00     0.077 H 
BRANCH  37  40
ATOM     40  C13 D6Z d   1      -9.967  -8.191 -17.323  0.00  0.00     0.403 C 
ATOM     41  F14 D6Z d   1     -10.064  -6.917 -17.605  0.00  0.00    -0.169 F 
ATOM     42  F15 D6Z d   1      -8.660  -8.447 -17.243  0.00  0.00    -0.169 F 
ATOM     43  F16 D6Z d   1     -10.461  -8.839 -18.385  0.00  0.00    -0.169 F 
ENDBRANCH  37  40
ENDBRANCH  34  37
ENDBRANCH  30  33
ENDBRANCH  15  30
BRANCH  11  44
ATOM     44  C26 D6Z d   1     -17.027  -0.560 -11.716  0.00  0.00     0.125 A 
ATOM     45  C27 D6Z d   1     -17.277   0.805 -11.708  0.00  0.00    -0.047 A 
ATOM     46  C28 D6Z d   1     -16.647   1.577 -10.753  0.00  0.00    -0.051 A 
ATOM     47  H16 D6Z d   1     -17.948   1.252 -12.432  0.00  0.00     0.087 H 
ATOM     48  C29 D6Z d   1     -15.818   0.931  -9.839  0.00  0.00     0.080 A 
ATOM     49  H11 D6Z d   1     -16.793   2.651 -10.716  0.00  0.00     0.087 H 
ATOM     50  C30 D6Z d   1     -15.615  -0.452  -9.862  0.00  0.00     0.104 A 
ATOM     51  N34 D6Z d   1     -15.059   1.368  -8.793  0.00  0.00    -0.276 N 
ATOM     52  C32 D6Z d   1     -14.744  -0.759  -8.792  0.00  0.00     0.051 A 
ATOM     53  N31 D6Z d   1     -16.251  -1.172 -10.807  0.00  0.00    -0.240 NA
ATOM     54  N33 D6Z d   1     -14.403   0.356  -8.162  0.00  0.00    -0.184 NA
ATOM     55  H18 D6Z d   1     -14.405  -1.759  -8.526  0.00  0.00     0.121 H 
ATOM     56  H20 D6Z d   1     -14.990   2.356  -8.511  0.00  0.00     0.189 HD
ENDBRANCH  11  44
TORSDOF 5
