REMARK  5 active torsions:
REMARK  status: ('A' for Active; 'I' for Inactive)
REMARK    1  A    between atoms: C14_13  and  C17_2 
REMARK    2  A    between atoms: C26_6  and  C27_15 
REMARK    3  A    between atoms: C05_8  and  C01_7 
REMARK       I    between atoms: N07_10  and  C05_8 
REMARK    4  A    between atoms: C08_11  and  C41_24 
REMARK    5  A    between atoms: N13_12  and  C14_13 
ROOT
ATOM      1  C10 D7Q d   1      41.877  17.048   9.384  0.00  0.00     0.016 C 
ATOM      2  C05 D7Q d   1      40.505  15.464   6.514  0.00  0.00     0.221 C 
ATOM      3  O06 D7Q d   1      41.310  14.547   6.461  0.00  0.00    -0.273 OA
ATOM      4  N07 D7Q d   1      40.792  16.610   7.229  0.00  0.00    -0.309 N 
ATOM      5  C08 D7Q d   1      42.100  16.677   7.925  0.00  0.00     0.045 C 
ATOM      6  N13 D7Q d   1      40.704  17.876   9.690  0.00  0.00    -0.373 N 
ATOM      7  C31 D7Q d   1      39.925  18.402   8.597  0.00  0.00     0.057 A 
ATOM      8  C32 D7Q d   1      39.117  19.524   8.777  0.00  0.00    -0.055 A 
ATOM      9  C34 D7Q d   1      38.370  20.006   7.717  0.00  0.00    -0.081 A 
ATOM     10  C36 D7Q d   1      38.411  19.379   6.490  0.00  0.00    -0.081 A 
ATOM     11  C38 D7Q d   1      39.204  18.261   6.297  0.00  0.00    -0.055 A 
ATOM     12  C40 D7Q d   1      39.948  17.750   7.356  0.00  0.00     0.064 A 
ATOM     13  H1  D7Q d   1      42.768  17.595   9.727  0.00  0.00     0.067 H 
ATOM     14  H2  D7Q d   1      41.780  16.112   9.953  0.00  0.00     0.067 H 
ATOM     15  H9  D7Q d   1      42.524  15.662   7.918  0.00  0.00     0.077 H 
ATOM     16  H13 D7Q d   1      39.074  20.016   9.742  0.00  0.00     0.087 H 
ATOM     17  H14 D7Q d   1      37.748  20.883   7.852  0.00  0.00     0.083 H 
ATOM     18  H15 D7Q d   1      37.817  19.765   5.669  0.00  0.00     0.083 H 
ATOM     19  H16 D7Q d   1      39.245  17.785   5.324  0.00  0.00     0.087 H 
ENDROOT
BRANCH   6  20
ATOM     20  C14 D7Q d   1      40.895  18.695  10.888  0.00  0.00     0.020 C 
ATOM     21  H10 D7Q d   1      41.964  18.695  11.148  0.00  0.00     0.071 H 
ATOM     22  H11 D7Q d   1      40.571  19.723  10.667  0.00  0.00     0.071 H 
BRANCH  20  23
ATOM     23  C17 D7Q d   1      40.110  18.185  12.073  0.00  0.00    -0.023 A 
ATOM     24  C26 D7Q d   1      40.408  18.591  13.383  0.00  0.00     0.048 A 
ATOM     25  C24 D7Q d   1      39.659  18.090  14.449  0.00  0.00    -0.066 A 
ATOM     26  C22 D7Q d   1      38.629  17.196  14.219  0.00  0.00    -0.082 A 
ATOM     27  H5  D7Q d   1      39.886  18.403  15.462  0.00  0.00     0.085 H 
ATOM     28  C20 D7Q d   1      38.334  16.795  12.935  0.00  0.00    -0.082 A 
ATOM     29  H4  D7Q d   1      38.052  16.810  15.052  0.00  0.00     0.083 H 
ATOM     30  C18 D7Q d   1      39.067  17.285  11.870  0.00  0.00    -0.074 A 
ATOM     31  H3  D7Q d   1      37.526  16.094  12.759  0.00  0.00     0.083 H 
ATOM     32  H12 D7Q d   1      38.826  16.964  10.863  0.00  0.00     0.084 H 
BRANCH  24  33
ATOM     33  C27 D7Q d   1      41.509  19.551  13.682  0.00  0.00     0.210 C 
ATOM     34  O28 D7Q d   1      42.433  19.089  14.471  0.00  0.00    -0.644 OA
ATOM     35  O30 D7Q d   1      41.532  20.680  13.208  0.00  0.00    -0.644 OA
ENDBRANCH  24  33
ENDBRANCH  20  23
ENDBRANCH   6  20
BRANCH   5  36
ATOM     36  C41 D7Q d   1      43.102  17.561   7.192  0.00  0.00    -0.000 A 
ATOM     37  C43 D7Q d   1      43.998  16.933   6.171  0.00  0.00    -0.097 A 
ATOM     38  C46 D7Q d   1      44.558  17.355   7.482  0.00  0.00    -0.097 A 
ATOM     39  H18 D7Q d   1      44.138  16.490   5.186  0.00  0.00     0.077 H 
ATOM     40  H19 D7Q d   1      45.406  17.447   8.159  0.00  0.00     0.077 H 
ATOM     41  H17 D7Q d   1      42.690  18.569   7.038  0.00  0.00     0.055 H 
ENDBRANCH   5  36
BRANCH   2  42
ATOM     42  C01 D7Q d   1      39.183  15.361   5.816  0.00  0.00    -0.002 C 
ATOM     43  H6  D7Q d   1      38.607  16.283   5.984  0.00  0.00     0.040 H 
ATOM     44  H7  D7Q d   1      38.624  14.502   6.215  0.00  0.00     0.040 H 
ATOM     45  H8  D7Q d   1      39.348  15.223   4.737  0.00  0.00     0.040 H 
ENDBRANCH   2  42
TORSDOF 5
