REMARK  8 active torsions:
REMARK  status: ('A' for Active; 'I' for Inactive)
REMARK    1  A    between atoms: C14_13  and  C17_2 
REMARK    2  A    between atoms: C26_6  and  C27_15 
REMARK    3  A    between atoms: C05_8  and  C01_7 
REMARK       I    between atoms: N07_10  and  C05_8 
REMARK    4  A    between atoms: C08_11  and  C54_32 
REMARK    5  A    between atoms: N13_12  and  C14_13 
REMARK    6  A    between atoms: C27_15  and  O30_16 
REMARK    7  A    between atoms: C35_19  and  C41_23 
REMARK    8  A    between atoms: C45_26  and  C49_29 
REMARK       I    between atoms: C49_29  and  N50_30 
ROOT
ATOM      1  C10 D7H d   1      42.701  16.718   9.331  0.00  0.00     0.004 C 
ATOM      2  C05 D7H d   1      41.032  15.083   6.512  0.00  0.00     0.220 C 
ATOM      3  O06 D7H d   1      41.781  14.127   6.398  0.00  0.00    -0.273 OA
ATOM      4  N07 D7H d   1      41.414  16.189   7.234  0.00  0.00    -0.310 N 
ATOM      5  C08 D7H d   1      42.737  16.215   7.896  0.00  0.00     0.041 C 
ATOM      6  N13 D7H d   1      41.463  17.370   9.773  0.00  0.00    -0.275 NA
ATOM      7  C32 D7H d   1      40.690  17.952   8.697  0.00  0.00     0.039 A 
ATOM      8  C33 D7H d   1      39.959  19.107   8.944  0.00  0.00    -0.049 A 
ATOM      9  C35 D7H d   1      39.183  19.696   7.947  0.00  0.00    -0.021 A 
ATOM     10  C36 D7H d   1      39.173  19.112   6.683  0.00  0.00    -0.070 A 
ATOM     11  C38 D7H d   1      39.888  17.958   6.418  0.00  0.00    -0.054 A 
ATOM     12  C40 D7H d   1      40.630  17.358   7.431  0.00  0.00     0.059 A 
ATOM     13  H1  D7H d   1      43.520  17.443   9.450  0.00  0.00     0.059 H 
ATOM     14  H2  D7H d   1      42.876  15.855   9.991  0.00  0.00     0.059 H 
ATOM     15  H9  D7H d   1      43.132  15.188   7.901  0.00  0.00     0.076 H 
ATOM     16  H16 D7H d   1      39.993  19.558   9.929  0.00  0.00     0.087 H 
ATOM     17  H17 D7H d   1      38.593  19.571   5.891  0.00  0.00     0.084 H 
ATOM     18  H18 D7H d   1      39.870  17.523   5.425  0.00  0.00     0.087 H 
ENDROOT
BRANCH   6  19
ATOM     19  C14 D7H d   1      41.697  18.155  10.986  0.00  0.00     0.008 C 
ATOM     20  H10 D7H d   1      42.742  18.013  11.297  0.00  0.00     0.063 H 
ATOM     21  H11 D7H d   1      41.525  19.216  10.753  0.00  0.00     0.063 H 
BRANCH  19  22
ATOM     22  C17 D7H d   1      40.797  17.765  12.137  0.00  0.00    -0.036 A 
ATOM     23  C26 D7H d   1      41.080  18.153  13.457  0.00  0.00    -0.027 A 
ATOM     24  C24 D7H d   1      40.221  17.753  14.479  0.00  0.00    -0.074 A 
ATOM     25  C22 D7H d   1      39.104  16.983  14.210  0.00  0.00    -0.082 A 
ATOM     26  H5  D7H d   1      40.431  18.050  15.500  0.00  0.00     0.084 H 
ATOM     27  C20 D7H d   1      38.829  16.598  12.917  0.00  0.00    -0.082 A 
ATOM     28  H4  D7H d   1      38.445  16.683  15.017  0.00  0.00     0.083 H 
ATOM     29  C18 D7H d   1      39.668  16.986  11.888  0.00  0.00    -0.075 A 
ATOM     30  H3  D7H d   1      37.956  15.991  12.706  0.00  0.00     0.083 H 
ATOM     31  H12 D7H d   1      39.444  16.680  10.873  0.00  0.00     0.084 H 
BRANCH  23  32
ATOM     32  C27 D7H d   1      42.292  18.995  13.784  0.00  0.00     0.041 C 
ATOM     33  H13 D7H d   1      43.187  18.500  13.380  0.00  0.00     0.081 H 
ATOM     34  H14 D7H d   1      42.381  19.078  14.877  0.00  0.00     0.081 H 
BRANCH  32  35
ATOM     35  O30 D7H d   1      42.203  20.298  13.233  0.00  0.00    -0.396 OA
ATOM     36  H15 D7H d   1      42.132  20.237  12.288  0.00  0.00     0.209 HD
ENDBRANCH  32  35
ENDBRANCH  23  32
ENDBRANCH  19  22
ENDBRANCH   6  19
BRANCH   5  37
ATOM     37  C54 D7H d   1      43.684  17.108   7.112  0.00  0.00    -0.001 A 
ATOM     38  C56 D7H d   1      45.149  16.871   7.300  0.00  0.00    -0.097 A 
ATOM     39  C59 D7H d   1      44.509  16.532   6.000  0.00  0.00    -0.097 A 
ATOM     40  H24 D7H d   1      46.037  16.915   7.929  0.00  0.00     0.077 H 
ATOM     41  H25 D7H d   1      44.584  16.147   4.984  0.00  0.00     0.077 H 
ATOM     42  H23 D7H d   1      43.274  18.126   7.031  0.00  0.00     0.055 H 
ENDBRANCH   5  37
BRANCH   9  43
ATOM     43  C41 D7H d   1      38.453  20.954   8.225  0.00  0.00     0.009 A 
ATOM     44  C42 D7H d   1      37.210  21.262   7.688  0.00  0.00     0.017 A 
ATOM     45  N44 D7H d   1      36.559  22.403   7.936  0.00  0.00    -0.236 NA
ATOM     46  H19 D7H d   1      36.742  20.537   7.032  0.00  0.00     0.116 H 
ATOM     47  C45 D7H d   1      37.204  23.237   8.750  0.00  0.00     0.217 A 
ATOM     48  N46 D7H d   1      38.394  23.050   9.314  0.00  0.00    -0.236 NA
ATOM     49  C47 D7H d   1      38.984  21.939   9.043  0.00  0.00     0.017 A 
ATOM     50  H20 D7H d   1      39.959  21.762   9.483  0.00  0.00     0.116 H 
BRANCH  47  51
ATOM     51  C49 D7H d   1      36.519  24.551   9.056  0.00  0.00     0.287 C 
ATOM     52  N50 D7H d   1      37.359  25.580   9.123  0.00  0.00    -0.363 N 
ATOM     53  H21 D7H d   1      37.012  26.497   9.320  0.00  0.00     0.159 HD
ATOM     54  H22 D7H d   1      38.338  25.437   8.976  0.00  0.00     0.159 HD
ATOM     55  O53 D7H d   1      35.297  24.648   9.246  0.00  0.00    -0.264 OA
ENDBRANCH  47  51
ENDBRANCH   9  43
BRANCH   2  56
ATOM     56  C01 D7H d   1      39.679  15.090   5.870  0.00  0.00    -0.002 C 
ATOM     57  H6  D7H d   1      39.171  16.039   6.096  0.00  0.00     0.040 H 
ATOM     58  H7  D7H d   1      39.083  14.253   6.262  0.00  0.00     0.040 H 
ATOM     59  H8  D7H d   1      39.789  14.983   4.781  0.00  0.00     0.040 H 
ENDBRANCH   2  56
TORSDOF 8
