REMARK  7 active torsions:
REMARK  status: ('A' for Active; 'I' for Inactive)
REMARK    1  A    between atoms: C14_13  and  C17_2 
REMARK    2  A    between atoms: C26_6  and  C27_15 
REMARK    3  A    between atoms: C05_8  and  C01_7 
REMARK       I    between atoms: N07_10  and  C05_8 
REMARK    4  A    between atoms: C08_11  and  C55_29 
REMARK    5  A    between atoms: N13_12  and  C14_13 
REMARK    6  A    between atoms: C27_15  and  O30_16 
REMARK    7  A    between atoms: C35_19  and  C41_23 
ROOT
ATOM      1  C10 D7B d   1      42.162  16.920   9.574  0.00  0.00     0.016 C 
ATOM      2  C05 D7B d   1      40.662  15.500   6.689  0.00  0.00     0.221 C 
ATOM      3  O06 D7B d   1      41.419  14.549   6.586  0.00  0.00    -0.273 OA
ATOM      4  N07 D7B d   1      41.012  16.594   7.438  0.00  0.00    -0.309 N 
ATOM      5  C08 D7B d   1      42.342  16.593   8.099  0.00  0.00     0.045 C 
ATOM      6  N13 D7B d   1      41.260  18.043   9.790  0.00  0.00    -0.373 N 
ATOM      7  C32 D7B d   1      40.364  18.482   8.785  0.00  0.00     0.058 A 
ATOM      8  C33 D7B d   1      39.624  19.639   9.000  0.00  0.00    -0.045 A 
ATOM      9  C35 D7B d   1      38.735  20.090   8.028  0.00  0.00    -0.028 A 
ATOM     10  C36 D7B d   1      38.604  19.369   6.845  0.00  0.00    -0.070 A 
ATOM     11  C38 D7B d   1      39.339  18.218   6.626  0.00  0.00    -0.054 A 
ATOM     12  C40 D7B d   1      40.218  17.764   7.602  0.00  0.00     0.064 A 
ATOM     13  H1  D7B d   1      43.144  17.169  10.003  0.00  0.00     0.067 H 
ATOM     14  H2  D7B d   1      41.753  16.036  10.084  0.00  0.00     0.067 H 
ATOM     15  H9  D7B d   1      42.771  15.582   8.032  0.00  0.00     0.077 H 
ATOM     16  H16 D7B d   1      39.739  20.191   9.926  0.00  0.00     0.088 H 
ATOM     17  H17 D7B d   1      37.915  19.715   6.083  0.00  0.00     0.084 H 
ATOM     18  H18 D7B d   1      39.230  17.672   5.696  0.00  0.00     0.087 H 
ENDROOT
BRANCH   6  19
ATOM     19  C14 D7B d   1      41.406  18.756  11.057  0.00  0.00     0.020 C 
ATOM     20  H10 D7B d   1      42.460  18.712  11.367  0.00  0.00     0.071 H 
ATOM     21  H11 D7B d   1      41.111  19.805  10.908  0.00  0.00     0.071 H 
BRANCH  19  22
ATOM     22  C17 D7B d   1      40.554  18.164  12.152  0.00  0.00    -0.032 A 
ATOM     23  C26 D7B d   1      40.737  18.505  13.500  0.00  0.00    -0.027 A 
ATOM     24  C24 D7B d   1      39.917  17.921  14.463  0.00  0.00    -0.074 A 
ATOM     25  C22 D7B d   1      38.937  17.015  14.107  0.00  0.00    -0.082 A 
ATOM     26  H5  D7B d   1      40.050  18.181  15.507  0.00  0.00     0.084 H 
ATOM     27  C20 D7B d   1      38.759  16.679  12.784  0.00  0.00    -0.082 A 
ATOM     28  H4  D7B d   1      38.308  16.569  14.869  0.00  0.00     0.083 H 
ATOM     29  C18 D7B d   1      39.561  17.249  11.814  0.00  0.00    -0.075 A 
ATOM     30  H3  D7B d   1      37.990  15.968  12.504  0.00  0.00     0.083 H 
ATOM     31  H12 D7B d   1      39.415  16.980  10.774  0.00  0.00     0.084 H 
BRANCH  23  32
ATOM     32  C27 D7B d   1      41.801  19.493  13.913  0.00  0.00     0.041 C 
ATOM     33  H13 D7B d   1      41.558  19.878  14.914  0.00  0.00     0.081 H 
ATOM     34  H14 D7B d   1      41.812  20.324  13.193  0.00  0.00     0.081 H 
BRANCH  32  35
ATOM     35  O30 D7B d   1      43.090  18.904  13.951  0.00  0.00    -0.396 OA
ATOM     36  H15 D7B d   1      43.728  19.557  14.214  0.00  0.00     0.209 HD
ENDBRANCH  32  35
ENDBRANCH  23  32
ENDBRANCH  19  22
ENDBRANCH   6  19
BRANCH   5  37
ATOM     37  C55 D7B d   1      43.266  17.538   7.340  0.00  0.00    -0.000 A 
ATOM     38  C57 D7B d   1      44.742  17.319   7.459  0.00  0.00    -0.097 A 
ATOM     39  C60 D7B d   1      44.051  17.000   6.181  0.00  0.00    -0.097 A 
ATOM     40  H29 D7B d   1      45.656  17.362   8.050  0.00  0.00     0.077 H 
ATOM     41  H30 D7B d   1      44.088  16.639   5.154  0.00  0.00     0.077 H 
ATOM     42  H28 D7B d   1      42.843  18.553   7.312  0.00  0.00     0.055 H 
ENDBRANCH   5  37
BRANCH   9  43
ATOM     43  C41 D7B d   1      37.945  21.326   8.250  0.00  0.00    -0.048 C 
ATOM     44  C42 D7B d   1      36.706  21.496   7.754  0.00  0.00    -0.072 C 
ATOM     45  C44 D7B d   1      35.853  22.721   7.947  0.00  0.00     0.097 C 
ATOM     46  H19 D7B d   1      36.286  20.681   7.165  0.00  0.00     0.080 H 
ATOM     47  N47 D7B d   1      36.659  23.850   8.423  0.00  0.00    -0.072 N 
ATOM     48  H20 D7B d   1      35.069  22.501   8.687  0.00  0.00     0.081 H 
ATOM     49  H21 D7B d   1      35.387  22.990   6.988  0.00  0.00     0.081 H 
ATOM     50  C49 D7B d   1      37.563  23.429   9.483  0.00  0.00     0.086 C 
ATOM     51  H22 D7B d   1      36.046  24.568   8.777  0.00  0.00     0.277 HD
ATOM     52  H23 D7B d   1      37.199  24.218   7.655  0.00  0.00     0.277 HD
ATOM     53  C52 D7B d   1      38.595  22.400   9.067  0.00  0.00    -0.018 C 
ATOM     54  H24 D7B d   1      36.960  22.999  10.296  0.00  0.00     0.076 H 
ATOM     55  H25 D7B d   1      38.096  24.318   9.852  0.00  0.00     0.076 H 
ATOM     56  H26 D7B d   1      39.377  22.890   8.469  0.00  0.00     0.042 H 
ATOM     57  H27 D7B d   1      39.046  21.952   9.965  0.00  0.00     0.042 H 
ENDBRANCH   9  43
BRANCH   2  58
ATOM     58  C01 D7B d   1      39.324  15.515   6.022  0.00  0.00    -0.002 C 
ATOM     59  H6  D7B d   1      38.813  16.463   6.247  0.00  0.00     0.040 H 
ATOM     60  H7  D7B d   1      38.719  14.675   6.394  0.00  0.00     0.040 H 
ATOM     61  H8  D7B d   1      39.456  15.419   4.934  0.00  0.00     0.040 H 
ENDBRANCH   2  58
TORSDOF 7
