REMARK  3 active torsions:
REMARK  status: ('A' for Active; 'I' for Inactive)
REMARK    1  A    between atoms: N02_12  and  C01_4 
REMARK    2  A    between atoms: N08_14  and  C07_7 
REMARK       I    between atoms: C09_8  and  N08_14 
REMARK       I    between atoms: N11_15  and  C09_8 
REMARK    3  A    between atoms: C12_9  and  N11_15 
ROOT
ATOM      1  C09 D7W d   1     -23.967  16.210  43.378  0.00  0.00     0.339 C 
ATOM      2  N08 D7W d   1     -23.273  16.819  44.549  0.00  0.00    -0.141 N 
ATOM      3  N11 D7W d   1     -23.944  14.806  42.973  0.00  0.00    -0.308 N 
ATOM      4  O10 D7W d   1     -24.624  16.967  42.688  0.00  0.00    -0.246 OA
ATOM      5  H11 D7W d   1     -22.729  16.218  45.135  0.00  0.00     0.189 HD
ATOM      6  H12 D7W d   1     -23.414  14.164  43.527  0.00  0.00     0.170 HD
ENDROOT
BRANCH   2   7
ATOM      7  C07 D7W d   1     -23.338  18.247  44.898  0.00  0.00     0.687 A 
ATOM      8  N02 D7W d   1     -22.661  18.849  46.038  0.00  0.00    -0.213 N 
ATOM      9  C03 D7W d   1     -22.977  20.307  46.033  0.00  0.00     0.085 A 
ATOM     10  C04 D7W d   1     -23.881  20.515  44.816  0.00  0.00     0.254 A 
ATOM     11  H7  D7W d   1     -23.502  20.591  46.957  0.00  0.00     0.079 H 
ATOM     12  H8  D7W d   1     -22.056  20.901  45.936  0.00  0.00     0.079 H 
ATOM     13  N06 D7W d   1     -24.035  19.205  44.198  0.00  0.00    -0.158 N 
ATOM     14  O05 D7W d   1     -24.358  21.582  44.465  0.00  0.00    -0.271 OA
ATOM     15  H10 D7W d   1     -24.575  19.026  43.376  0.00  0.00     0.187 HD
BRANCH   8  16
ATOM     16  C01 D7W d   1     -21.801  18.265  47.081  0.00  0.00    -0.002 C 
ATOM     17  H4  D7W d   1     -21.479  19.055  47.775  0.00  0.00     0.057 H 
ATOM     18  H5  D7W d   1     -20.918  17.805  46.613  0.00  0.00     0.057 H 
ATOM     19  H6  D7W d   1     -22.364  17.499  47.634  0.00  0.00     0.057 H 
ENDBRANCH   8  16
ENDBRANCH   2   7
BRANCH   3  20
ATOM     20  C12 D7W d   1     -24.672  14.271  41.769  0.00  0.00     0.037 A 
ATOM     21  C13 D7W d   1     -24.730  14.989  40.542  0.00  0.00    -0.036 A 
ATOM     22  C14 D7W d   1     -25.418  14.466  39.434  0.00  0.00     0.036 A 
ATOM     23  H1  D7W d   1     -24.237  15.951  40.461  0.00  0.00     0.089 H 
ATOM     24  C15 D7W d   1     -26.068  13.231  39.465  0.00  0.00    -0.062 A 
ATOM     25 CL1  D7W d   1     -25.470  15.418  37.894  0.00  0.00    -0.084 Cl
ATOM     26  C16 D7W d   1     -26.013  12.512  40.675  0.00  0.00    -0.079 A 
ATOM     27  H2  D7W d   1     -26.591  12.843  38.598  0.00  0.00     0.086 H 
ATOM     28  C17 D7W d   1     -25.329  13.015  41.805  0.00  0.00    -0.057 A 
ATOM     29  H9  D7W d   1     -26.507  11.550  40.741  0.00  0.00     0.083 H 
ATOM     30  H3  D7W d   1     -25.306  12.429  42.717  0.00  0.00     0.086 H 
ENDBRANCH   3  20
TORSDOF 3
