REMARK  5 active torsions:
REMARK  status: ('A' for Active; 'I' for Inactive)
REMARK    1  A    between atoms: C13_5  and  O1_17 
REMARK    2  A    between atoms: O1_17  and  C15_7 
REMARK    3  A    between atoms: C7_13  and  C2_8 
REMARK    4  A    between atoms: C3_9  and  C6_12 
REMARK    5  A    between atoms: C8_14  and  C9_15 
ROOT
ATOM      1  C11 D8B d   1     -22.036  -3.866  46.040  0.00  0.00    -0.079 A 
ATOM      2  C12 D8B d   1     -22.637  -2.593  46.069  0.00  0.00    -0.051 A 
ATOM      3  C13 D8B d   1     -23.647  -2.266  45.140  0.00  0.00     0.069 A 
ATOM      4  C14 D8B d   1     -24.061  -3.206  44.178  0.00  0.00    -0.033 A 
ATOM      5  C9  D8B d   1     -23.463  -4.481  44.151  0.00  0.00     0.020 A 
ATOM      6  C10 D8B d   1     -22.450  -4.809  45.078  0.00  0.00    -0.065 A 
ATOM      7  H2  D8B d   1     -21.260  -4.119  46.753  0.00  0.00     0.083 H 
ATOM      8  H3  D8B d   1     -22.323  -1.863  46.806  0.00  0.00     0.087 H 
ATOM      9  H4  D8B d   1     -24.835  -2.951  43.463  0.00  0.00     0.090 H 
ATOM     10  H13 D8B d   1     -21.989  -5.790  45.050  0.00  0.00     0.085 H 
ENDROOT
BRANCH   5  11
ATOM     11  C8  D8B d   1     -23.888  -5.453  43.163  0.00  0.00    -0.060 C 
ATOM     12  C7  D8B d   1     -24.236  -6.268  42.327  0.00  0.00    -0.041 C 
BRANCH  12  13
ATOM     13  C2  D8B d   1     -24.639  -7.212  41.301  0.00  0.00     0.110 A 
ATOM     14  C1  D8B d   1     -24.830  -8.570  41.622  0.00  0.00    -0.047 A 
ATOM     15  C5  D8B d   1     -25.220  -9.447  40.595  0.00  0.00    -0.078 A 
ATOM     16  H1  D8B d   1     -24.680  -8.929  42.634  0.00  0.00     0.088 H 
ATOM     17  C4  D8B d   1     -25.403  -8.933  39.298  0.00  0.00    -0.059 A 
ATOM     18  H9  D8B d   1     -25.377 -10.500  40.798  0.00  0.00     0.083 H 
ATOM     19  C3  D8B d   1     -25.187  -7.560  39.078  0.00  0.00     0.032 A 
ATOM     20  H8  D8B d   1     -25.705  -9.582  38.484  0.00  0.00     0.086 H 
ATOM     21  N1  D8B d   1     -24.813  -6.720  40.057  0.00  0.00    -0.245 NA
BRANCH  19  22
ATOM     22  C6  D8B d   1     -25.367  -6.948  37.707  0.00  0.00    -0.035 C 
ATOM     23  H10 D8B d   1     -25.672  -7.729  36.994  0.00  0.00     0.035 H 
ATOM     24  H11 D8B d   1     -24.418  -6.501  37.377  0.00  0.00     0.035 H 
ATOM     25  H12 D8B d   1     -26.143  -6.169  37.752  0.00  0.00     0.035 H 
ENDBRANCH  19  22
ENDBRANCH  12  13
ENDBRANCH   5  11
BRANCH   3  26
ATOM     26  O1  D8B d   1     -24.220  -1.033  45.176  0.00  0.00    -0.356 OA
BRANCH  26  27
ATOM     27  C15 D8B d   1     -24.309  -0.502  43.780  0.00  0.00     0.010 C 
ATOM     28  H5  D8B d   1     -24.771   0.496  43.796  0.00  0.00     0.066 H 
ATOM     29  H6  D8B d   1     -24.922  -1.180  43.168  0.00  0.00     0.066 H 
ATOM     30  H7  D8B d   1     -23.299  -0.431  43.349  0.00  0.00     0.066 H 
ENDBRANCH  26  27
ENDBRANCH   3  26
TORSDOF 5
