REMARK  7 active torsions:
REMARK  status: ('A' for Active; 'I' for Inactive)
REMARK    1  A    between atoms: C2_1  and  C3_2 
REMARK    2  A    between atoms: C3_2  and  C16_7 
REMARK    3  A    between atoms: C12_3  and  C13_4 
REMARK    4  A    between atoms: C13_4  and  O41_41 
REMARK    5  A    between atoms: C26_14  and  C27_15 
REMARK       I    between atoms: N7_20  and  C26_14 
REMARK    6  A    between atoms: C6_19  and  N7_20 
REMARK    7  A    between atoms: C31_31  and  C33_33 
ROOT
ATOM      1  C2  D8K d   1     -28.115   4.694   0.157  0.00  0.00     0.093 C 
ATOM      2  C12 D8K d   1     -26.175   6.528  -2.669  0.00  0.00     0.033 C 
ATOM      3  C14 D8K d   1     -26.264   5.845  -4.072  0.00  0.00    -0.036 C 
ATOM      4  C15 D8K d   1     -25.581   4.468  -3.965  0.00  0.00     0.011 C 
ATOM      5  C23 D8K d   1     -25.695   3.562  -5.165  0.00  0.00     0.220 C 
ATOM      6  N1  D8K d   1     -27.891   3.260   0.318  0.00  0.00    -0.346 N 
ATOM      7  C4  D8K d   1     -27.840   2.332  -0.684  0.00  0.00     0.242 C 
ATOM      8  O5  D8K d   1     -28.045   2.656  -1.850  0.00  0.00    -0.271 OA
ATOM      9  C6  D8K d   1     -27.478   0.881  -0.440  0.00  0.00     0.105 C 
ATOM     10  C8  D8K d   1     -25.965   0.651  -0.836  0.00  0.00     0.022 C 
ATOM     11  C9  D8K d   1     -27.026   5.187  -0.758  0.00  0.00     0.241 C 
ATOM     12  N10 D8K d   1     -27.256   6.037  -1.791  0.00  0.00    -0.353 N 
ATOM     13  O11 D8K d   1     -25.887   4.770  -0.468  0.00  0.00    -0.271 OA
ATOM     14  N22 D8K d   1     -25.598   1.068  -2.239  0.00  0.00    -0.357 N 
ATOM     15  O24 D8K d   1     -26.469   3.857  -6.116  0.00  0.00    -0.273 OA
ATOM     16  C34 D8K d   1     -24.418   1.713  -2.595  0.00  0.00     0.240 C 
ATOM     17  O35 D8K d   1     -23.565   2.019  -1.765  0.00  0.00    -0.271 OA
ATOM     18  C36 D8K d   1     -23.967   2.158  -3.996  0.00  0.00     0.091 C 
ATOM     19  C37 D8K d   1     -23.010   1.151  -4.689  0.00  0.00    -0.036 C 
ATOM     20  C38 D8K d   1     -23.956   0.385  -5.637  0.00  0.00    -0.048 C 
ATOM     21  C39 D8K d   1     -24.901   1.476  -6.202  0.00  0.00    -0.001 C 
ATOM     22  N40 D8K d   1     -24.909   2.447  -5.118  0.00  0.00    -0.339 N 
ATOM     23  H1  D8K d   1     -29.093   4.826  -0.329  0.00  0.00     0.088 H 
ATOM     24  H4  D8K d   1     -25.222   6.230  -2.208  0.00  0.00     0.075 H 
ATOM     25  H7  D8K d   1     -25.748   6.462  -4.823  0.00  0.00     0.036 H 
ATOM     26  H8  D8K d   1     -27.318   5.719  -4.362  0.00  0.00     0.036 H 
ATOM     27  H9  D8K d   1     -26.024   3.942  -3.107  0.00  0.00     0.047 H 
ATOM     28  H10 D8K d   1     -24.511   4.640  -3.777  0.00  0.00     0.047 H 
ATOM     29  H15 D8K d   1     -27.762   2.925   1.251  0.00  0.00     0.163 HD
ATOM     30  H16 D8K d   1     -27.624   0.619   0.618  0.00  0.00     0.090 H 
ATOM     31  H18 D8K d   1     -25.745  -0.422  -0.731  0.00  0.00     0.067 H 
ATOM     32  H19 D8K d   1     -25.339   1.224  -0.136  0.00  0.00     0.067 H 
ATOM     33  H20 D8K d   1     -28.192   6.342  -1.964  0.00  0.00     0.163 HD
ATOM     34  H21 D8K d   1     -26.252   0.866  -2.968  0.00  0.00     0.162 HD
ATOM     35  H26 D8K d   1     -23.414   3.091  -3.811  0.00  0.00     0.087 H 
ATOM     36  H27 D8K d   1     -22.548   0.473  -3.956  0.00  0.00     0.036 H 
ATOM     37  H28 D8K d   1     -22.223   1.674  -5.251  0.00  0.00     0.036 H 
ATOM     38  H29 D8K d   1     -24.527  -0.377  -5.086  0.00  0.00     0.035 H 
ATOM     39  H30 D8K d   1     -23.389  -0.097  -6.447  0.00  0.00     0.035 H 
ATOM     40  H31 D8K d   1     -25.908   1.076  -6.390  0.00  0.00     0.064 H 
ATOM     41  H32 D8K d   1     -24.501   1.913  -7.129  0.00  0.00     0.064 H 
ENDROOT
BRANCH   1  42
ATOM     42  C3  D8K d   1     -28.113   5.575   1.429  0.00  0.00    -0.014 C 
ATOM     43  H2  D8K d   1     -27.913   6.614   1.126  0.00  0.00     0.043 H 
ATOM     44  H3  D8K d   1     -27.306   5.223   2.088  0.00  0.00     0.043 H 
BRANCH  42  45
ATOM     45  C16 D8K d   1     -29.419   5.553   2.222  0.00  0.00    -0.056 A 
ATOM     46  C17 D8K d   1     -29.329   5.371   3.616  0.00  0.00    -0.074 A 
ATOM     47  C18 D8K d   1     -30.490   5.326   4.395  0.00  0.00    -0.045 A 
ATOM     48  H11 D8K d   1     -28.358   5.266   4.086  0.00  0.00     0.084 H 
ATOM     49  C19 D8K d   1     -31.742   5.477   3.781  0.00  0.00     0.116 A 
ATOM     50  H12 D8K d   1     -30.422   5.175   5.466  0.00  0.00     0.088 H 
ATOM     51  C20 D8K d   1     -31.824   5.681   2.397  0.00  0.00    -0.045 A 
ATOM     52  F25 D8K d   1     -32.858   5.427   4.508  0.00  0.00    -0.206 F 
ATOM     53  C21 D8K d   1     -30.662   5.712   1.608  0.00  0.00    -0.074 A 
ATOM     54  H13 D8K d   1     -32.793   5.816   1.931  0.00  0.00     0.088 H 
ATOM     55  H14 D8K d   1     -30.730   5.858   0.536  0.00  0.00     0.084 H 
ENDBRANCH  42  45
ENDBRANCH   1  42
BRANCH   9  56
ATOM     56  N7  D8K d   1     -28.374   0.095  -1.278  0.00  0.00    -0.341 N 
ATOM     57  C26 D8K d   1     -29.400  -0.643  -0.774  0.00  0.00     0.273 C 
ATOM     58  O28 D8K d   1     -29.657  -0.752   0.422  0.00  0.00    -0.266 OA
ATOM     59  H17 D8K d   1     -28.229   0.098  -2.267  0.00  0.00     0.163 HD
BRANCH  57  60
ATOM     60  C27 D8K d   1     -30.276  -1.369  -1.721  0.00  0.00     0.154 A 
ATOM     61  N29 D8K d   1     -30.037  -1.448  -2.980  0.00  0.00    -0.123 NA
ATOM     62  O30 D8K d   1     -31.115  -2.210  -3.528  0.00  0.00    -0.218 OA
ATOM     63  C31 D8K d   1     -31.936  -2.481  -2.517  0.00  0.00     0.077 A 
ATOM     64  C32 D8K d   1     -31.541  -2.009  -1.345  0.00  0.00    -0.017 A 
ATOM     65  H22 D8K d   1     -32.022  -2.077  -0.371  0.00  0.00     0.091 H 
BRANCH  63  66
ATOM     66  C33 D8K d   1     -33.196  -3.254  -2.786  0.00  0.00    -0.029 C 
ATOM     67  H23 D8K d   1     -33.752  -3.388  -1.846  0.00  0.00     0.036 H 
ATOM     68  H24 D8K d   1     -32.940  -4.239  -3.204  0.00  0.00     0.036 H 
ATOM     69  H25 D8K d   1     -33.819  -2.702  -3.505  0.00  0.00     0.036 H 
ENDBRANCH  63  66
ENDBRANCH  57  60
ENDBRANCH   9  56
BRANCH   2  70
ATOM     70  C13 D8K d   1     -26.145   8.044  -2.823  0.00  0.00     0.035 C 
ATOM     71  H5  D8K d   1     -27.048   8.371  -3.360  0.00  0.00     0.077 H 
ATOM     72  H6  D8K d   1     -25.252   8.331  -3.398  0.00  0.00     0.077 H 
BRANCH  70  73
ATOM     73  O41 D8K d   1     -26.104   8.680  -1.541  0.00  0.00    -0.399 OA
ATOM     74  H33 D8K d   1     -26.875   8.436  -1.043  0.00  0.00     0.209 HD
ENDBRANCH  70  73
ENDBRANCH   2  70
TORSDOF 7
