REMARK  8 active torsions:
REMARK  status: ('A' for Active; 'I' for Inactive)
REMARK    1  A    between atoms: C2_1  and  C3_2 
REMARK    2  A    between atoms: C3_2  and  C21_8 
REMARK    3  A    between atoms: C13_3  and  C14_4 
REMARK    4  A    between atoms: C14_4  and  O16_27 
REMARK    5  A    between atoms: C6_20  and  N7_21 
REMARK       I    between atoms: N7_21  and  C9_23 
REMARK    6  A    between atoms: C9_23  and  C31_31 
REMARK    7  A    between atoms: N20_29  and  C38_38 
REMARK    8  A    between atoms: C35_35  and  C37_37 
ROOT
ATOM      1  C2  D8E d   1     -28.295   4.670   0.221  0.00  0.00     0.093 C 
ATOM      2  C13 D8E d   1     -26.279   6.419  -2.550  0.00  0.00     0.033 C 
ATOM      3  C15 D8E d   1     -26.304   5.756  -3.969  0.00  0.00    -0.036 C 
ATOM      4  C17 D8E d   1     -25.625   4.363  -3.954  0.00  0.00     0.011 C 
ATOM      5  C18 D8E d   1     -25.823   3.515  -5.183  0.00  0.00     0.219 C 
ATOM      6  C27 D8E d   1     -24.348   2.143  -3.859  0.00  0.00    -0.003 C 
ATOM      7  C28 D8E d   1     -24.837   1.053  -2.858  0.00  0.00    -0.050 C 
ATOM      8  C29 D8E d   1     -25.582   1.606  -1.598  0.00  0.00    -0.061 C 
ATOM      9  N1  D8E d   1     -28.024   3.235   0.415  0.00  0.00    -0.346 N 
ATOM     10  C4  D8E d   1     -28.051   2.263  -0.543  0.00  0.00     0.241 C 
ATOM     11  O5  D8E d   1     -28.356   2.564  -1.691  0.00  0.00    -0.271 OA
ATOM     12  C6  D8E d   1     -27.719   0.782  -0.353  0.00  0.00     0.089 C 
ATOM     13  C8  D8E d   1     -26.228   0.504  -0.704  0.00  0.00    -0.038 C 
ATOM     14  C10 D8E d   1     -27.176   5.158  -0.651  0.00  0.00     0.241 C 
ATOM     15  N11 D8E d   1     -27.405   5.937  -1.733  0.00  0.00    -0.353 N 
ATOM     16  O12 D8E d   1     -26.048   4.837  -0.293  0.00  0.00    -0.271 OA
ATOM     17  O19 D8E d   1     -26.521   3.917  -6.143  0.00  0.00    -0.273 OA
ATOM     18  N20 D8E d   1     -25.139   2.337  -5.095  0.00  0.00    -0.356 N 
ATOM     19  H1  D8E d   1     -29.264   4.788  -0.287  0.00  0.00     0.088 H 
ATOM     20  H4  D8E d   1     -25.346   6.108  -2.057  0.00  0.00     0.075 H 
ATOM     21  H7  D8E d   1     -25.770   6.407  -4.678  0.00  0.00     0.036 H 
ATOM     22  H8  D8E d   1     -27.349   5.641  -4.292  0.00  0.00     0.036 H 
ATOM     23  H9  D8E d   1     -26.022   3.805  -3.093  0.00  0.00     0.047 H 
ATOM     24  H10 D8E d   1     -24.544   4.518  -3.823  0.00  0.00     0.047 H 
ATOM     25  H15 D8E d   1     -23.324   1.878  -4.161  0.00  0.00     0.064 H 
ATOM     26  H16 D8E d   1     -24.335   3.103  -3.321  0.00  0.00     0.064 H 
ATOM     27  H17 D8E d   1     -23.960   0.485  -2.515  0.00  0.00     0.035 H 
ATOM     28  H18 D8E d   1     -25.523   0.380  -3.393  0.00  0.00     0.035 H 
ATOM     29  H19 D8E d   1     -26.378   2.285  -1.938  0.00  0.00     0.033 H 
ATOM     30  H20 D8E d   1     -24.858   2.166  -0.987  0.00  0.00     0.033 H 
ATOM     31  H21 D8E d   1     -27.797   2.943   1.344  0.00  0.00     0.163 HD
ATOM     32  H22 D8E d   1     -27.902   0.492   0.692  0.00  0.00     0.087 H 
ATOM     33  H24 D8E d   1     -25.657   0.437   0.234  0.00  0.00     0.036 H 
ATOM     34  H25 D8E d   1     -26.169  -0.456  -1.238  0.00  0.00     0.036 H 
ATOM     35  H26 D8E d   1     -28.342   6.186  -1.979  0.00  0.00     0.163 HD
ENDROOT
BRANCH   1  36
ATOM     36  C3  D8E d   1     -28.306   5.532   1.508  0.00  0.00    -0.014 C 
ATOM     37  H2  D8E d   1     -28.155   6.581   1.215  0.00  0.00     0.043 H 
ATOM     38  H3  D8E d   1     -27.469   5.205   2.143  0.00  0.00     0.043 H 
BRANCH  36  39
ATOM     39  C21 D8E d   1     -29.584   5.455   2.338  0.00  0.00    -0.056 A 
ATOM     40  C22 D8E d   1     -29.493   5.266   3.725  0.00  0.00    -0.074 A 
ATOM     41  C23 D8E d   1     -30.647   5.192   4.509  0.00  0.00    -0.045 A 
ATOM     42  H11 D8E d   1     -28.519   5.177   4.192  0.00  0.00     0.084 H 
ATOM     43  C24 D8E d   1     -31.900   5.315   3.906  0.00  0.00     0.116 A 
ATOM     44  H12 D8E d   1     -30.570   5.040   5.580  0.00  0.00     0.088 H 
ATOM     45  C25 D8E d   1     -31.992   5.524   2.530  0.00  0.00    -0.045 A 
ATOM     46  F30 D8E d   1     -33.008   5.247   4.640  0.00  0.00    -0.206 F 
ATOM     47  C26 D8E d   1     -30.836   5.597   1.745  0.00  0.00    -0.074 A 
ATOM     48  H13 D8E d   1     -32.966   5.631   2.066  0.00  0.00     0.088 H 
ATOM     49  H14 D8E d   1     -30.915   5.764   0.677  0.00  0.00     0.084 H 
ENDBRANCH  36  39
ENDBRANCH   1  36
BRANCH  12  50
ATOM     50  N7  D8E d   1     -28.598   0.027  -1.234  0.00  0.00    -0.342 N 
ATOM     51  C9  D8E d   1     -29.636  -0.679  -0.740  0.00  0.00     0.273 C 
ATOM     52  O32 D8E d   1     -29.919  -0.754   0.440  0.00  0.00    -0.266 OA
ATOM     53  H23 D8E d   1     -28.430   0.032  -2.220  0.00  0.00     0.163 HD
BRANCH  51  54
ATOM     54  C31 D8E d   1     -30.503  -1.398  -1.686  0.00  0.00     0.154 A 
ATOM     55  N33 D8E d   1     -30.191  -1.545  -2.909  0.00  0.00    -0.123 NA
ATOM     56  O34 D8E d   1     -31.265  -2.270  -3.491  0.00  0.00    -0.218 OA
ATOM     57  C35 D8E d   1     -32.148  -2.460  -2.517  0.00  0.00     0.077 A 
ATOM     58  C36 D8E d   1     -31.803  -1.964  -1.340  0.00  0.00    -0.017 A 
ATOM     59  H28 D8E d   1     -32.334  -1.975  -0.390  0.00  0.00     0.091 H 
BRANCH  57  60
ATOM     60  C37 D8E d   1     -33.417  -3.195  -2.837  0.00  0.00    -0.029 C 
ATOM     61  H29 D8E d   1     -34.036  -3.268  -1.931  0.00  0.00     0.036 H 
ATOM     62  H30 D8E d   1     -33.175  -4.205  -3.198  0.00  0.00     0.036 H 
ATOM     63  H31 D8E d   1     -33.970  -2.650  -3.616  0.00  0.00     0.036 H 
ENDBRANCH  57  60
ENDBRANCH  51  54
ENDBRANCH  12  50
BRANCH   2  64
ATOM     64  C14 D8E d   1     -26.277   7.925  -2.612  0.00  0.00     0.035 C 
ATOM     65  H5  D8E d   1     -27.213   8.213  -3.112  0.00  0.00     0.077 H 
ATOM     66  H6  D8E d   1     -25.422   8.205  -3.245  0.00  0.00     0.077 H 
BRANCH  64  67
ATOM     67  O16 D8E d   1     -26.193   8.680  -1.519  0.00  0.00    -0.399 OA
ATOM     68  H27 D8E d   1     -26.930   8.493  -0.949  0.00  0.00     0.209 HD
ENDBRANCH  64  67
ENDBRANCH   2  64
BRANCH  18  69
ATOM     69  C38 D8E d   1     -25.152   1.336  -6.140  0.00  0.00    -0.016 C 
ATOM     70  H32 D8E d   1     -25.797   1.675  -6.964  0.00  0.00     0.056 H 
ATOM     71  H33 D8E d   1     -25.540   0.389  -5.736  0.00  0.00     0.056 H 
ATOM     72  H34 D8E d   1     -24.129   1.183  -6.514  0.00  0.00     0.056 H 
ENDBRANCH  18  69
TORSDOF 8
