REMARK  5 active torsions:
REMARK  status: ('A' for Active; 'I' for Inactive)
REMARK    1  A    between atoms: N02_10  and  C01_1 
REMARK    2  A    between atoms: C09_7  and  C04_3 
REMARK       I    between atoms: N11_11  and  C09_7 
REMARK    3  A    between atoms: C12_8  and  C13_9 
REMARK    4  A    between atoms: C12_8  and  N11_11 
REMARK    5  A    between atoms: C13_9  and  N14_12 
ROOT
ATOM      1  C03 D8Q d   1      35.958 -39.020  29.230  0.00  0.00     0.009 A 
ATOM      2  C04 D8Q d   1      36.679 -40.266  28.722  0.00  0.00     0.039 A 
ATOM      3  C05 D8Q d   1      35.955 -41.241  27.847  0.00  0.00    -0.044 A 
ATOM      4  C06 D8Q d   1      34.518 -41.008  27.479  0.00  0.00     0.010 A 
ATOM      5  C07 D8Q d   1      33.792 -39.755  28.002  0.00  0.00     0.219 A 
ATOM      6  N02 D8Q d   1      34.529 -38.782  28.869  0.00  0.00    -0.356 N 
ATOM      7  O08 D8Q d   1      32.654 -39.557  27.715  0.00  0.00    -0.273 OA
ATOM      8  H4  D8Q d   1      36.526 -38.153  28.863  0.00  0.00     0.065 H 
ATOM      9  H5  D8Q d   1      36.006 -39.051  30.328  0.00  0.00     0.065 H 
ATOM     10  H6  D8Q d   1      36.357 -40.829  29.610  0.00  0.00     0.057 H 
ATOM     11  H7  D8Q d   1      35.997 -42.215  28.357  0.00  0.00     0.035 H 
ATOM     12  H8  D8Q d   1      36.518 -41.297  26.903  0.00  0.00     0.035 H 
ATOM     13  H9  D8Q d   1      33.951 -41.879  27.839  0.00  0.00     0.047 H 
ATOM     14  H10 D8Q d   1      34.472 -40.969  26.381  0.00  0.00     0.047 H 
ENDROOT
BRANCH   2  15
ATOM     15  C09 D8Q d   1      38.140 -40.465  29.120  0.00  0.00     0.223 C 
ATOM     16  N11 D8Q d   1      38.827 -39.348  29.749  0.00  0.00    -0.359 N 
ATOM     17  H15 D8Q d   1      38.333 -38.492  29.899  0.00  0.00     0.162 HD
ATOM     18  O10 D8Q d   1      38.686 -41.498  28.909  0.00  0.00    -0.273 OA
BRANCH  16  19
ATOM     19  C12 D8Q d   1      40.215 -39.451  30.163  0.00  0.00     0.017 C 
ATOM     20  H11 D8Q d   1      40.367 -38.854  31.074  0.00  0.00     0.066 H 
ATOM     21  H12 D8Q d   1      40.454 -40.504  30.371  0.00  0.00     0.066 H 
BRANCH  19  22
ATOM     22  C13 D8Q d   1      41.139 -38.932  29.059  0.00  0.00     0.094 C 
ATOM     23  H13 D8Q d   1      41.381 -37.876  29.249  0.00  0.00     0.077 H 
ATOM     24  H14 D8Q d   1      40.636 -39.024  28.085  0.00  0.00     0.077 H 
BRANCH  22  25
ATOM     25  N14 D8Q d   1      42.365 -39.718  29.049  0.00  0.00    -0.078 N 
ATOM     26  H16 D8Q d   1      42.976 -39.378  28.323  0.00  0.00     0.274 HD
ATOM     27  H17 D8Q d   1      42.142 -40.686  28.876  0.00  0.00     0.274 HD
ATOM     28  H18 D8Q d   1      42.825 -39.634  29.942  0.00  0.00     0.274 HD
ENDBRANCH  22  25
ENDBRANCH  19  22
ENDBRANCH  16  19
ENDBRANCH   2  15
BRANCH   6  29
ATOM     29  C01 D8Q d   1      33.863 -37.591  29.371  0.00  0.00    -0.016 C 
ATOM     30  H1  D8Q d   1      34.566 -37.008  29.984  0.00  0.00     0.056 H 
ATOM     31  H2  D8Q d   1      32.999 -37.885  29.985  0.00  0.00     0.056 H 
ATOM     32  H3  D8Q d   1      33.520 -36.978  28.524  0.00  0.00     0.056 H 
ENDBRANCH   6  29
TORSDOF 5
