REMARK  8 active torsions:
REMARK  status: ('A' for Active; 'I' for Inactive)
REMARK    1  A    between atoms: CAB_2  and  CAA_1 
REMARK    2  A    between atoms: CAF_6  and  CBA_19 
REMARK    3  A    between atoms: OAS_24  and  CAG_7 
REMARK    4  A    between atoms: CAN_13  and  CAR_14 
REMARK    5  A    between atoms: CAT_15  and  CAV_16 
REMARK    6  A    between atoms: CAT_15  and  OAS_24 
REMARK    7  A    between atoms: CAV_16  and  CAW_17 
REMARK    8  A    between atoms: CAW_17  and  CAX_18 
ROOT
ATOM      1  CAB D95 d   1     -14.592  19.127  65.845  0.00  0.00    -0.051 C 
ATOM      2  CAC D95 d   1     -15.702  18.609  66.739  0.00  0.00    -0.061 C 
ATOM      3  CAD D95 d   1     -16.922  18.347  65.877  0.00  0.00    -0.058 C 
ATOM      4  CAE D95 d   1     -16.621  17.266  64.880  0.00  0.00    -0.008 C 
ATOM      5  CAF D95 d   1     -17.835  16.955  64.019  0.00  0.00    -0.003 C 
ATOM      6  CAG D95 d   1     -18.127  18.135  63.137  0.00  0.00     0.146 C 
ATOM      7  CAI D95 d   1     -15.863  18.706  62.993  0.00  0.00     0.171 C 
ATOM      8  CAJ D95 d   1     -15.412  17.652  63.964  0.00  0.00     0.154 C 
ATOM      9  CAK D95 d   1     -14.258  18.017  64.866  0.00  0.00    -0.013 C 
ATOM     10  CAL D95 d   1     -13.128  18.520  63.998  0.00  0.00    -0.053 C 
ATOM     11  CAM D95 d   1     -12.948  17.712  62.708  0.00  0.00    -0.010 C 
ATOM     12  CAN D95 d   1     -14.089  17.855  61.692  0.00  0.00     0.196 C 
ATOM     13  OAH D95 d   1     -17.052  18.350  62.288  0.00  0.00    -0.327 OA
ATOM     14  OAO D95 d   1     -14.891  19.002  62.020  0.00  0.00    -0.320 OA
ATOM     15  OAP D95 d   1     -14.899  16.721  61.766  0.00  0.00    -0.200 OA
ATOM     16  OAQ D95 d   1     -15.236  16.422  63.189  0.00  0.00    -0.221 OA
ATOM     17  H4  D95 d   1     -14.922  20.026  65.303  0.00  0.00     0.040 H 
ATOM     18  H5  D95 d   1     -15.943  19.359  67.507  0.00  0.00     0.033 H 
ATOM     19  H6  D95 d   1     -15.383  17.676  67.226  0.00  0.00     0.033 H 
ATOM     20  H7  D95 d   1     -17.196  19.269  65.344  0.00  0.00     0.033 H 
ATOM     21  H8  D95 d   1     -17.759  18.030  66.516  0.00  0.00     0.033 H 
ATOM     22  H9  D95 d   1     -16.353  16.357  65.438  0.00  0.00     0.045 H 
ATOM     23  H10 D95 d   1     -17.602  16.082  63.392  0.00  0.00     0.047 H 
ATOM     24  H11 D95 d   1     -18.340  19.032  63.736  0.00  0.00     0.130 H 
ATOM     25  H12 D95 d   1     -16.064  19.618  63.574  0.00  0.00     0.134 H 
ATOM     26  H13 D95 d   1     -13.942  17.123  65.424  0.00  0.00     0.045 H 
ATOM     27  H14 D95 d   1     -12.194  18.467  64.576  0.00  0.00     0.034 H 
ATOM     28  H15 D95 d   1     -13.334  19.566  63.728  0.00  0.00     0.034 H 
ATOM     29  H16 D95 d   1     -12.863  16.649  62.979  0.00  0.00     0.041 H 
ATOM     30  H17 D95 d   1     -12.017  18.043  62.225  0.00  0.00     0.041 H 
ENDROOT
BRANCH   6  31
ATOM     31  OAS D95 d   1     -19.232  17.777  62.330  0.00  0.00    -0.289 OA
BRANCH  31  32
ATOM     32  CAT D95 d   1     -19.970  18.843  61.810  0.00  0.00     0.261 C 
ATOM     33  OAU D95 d   1     -19.618  20.006  61.983  0.00  0.00    -0.265 OA
BRANCH  32  34
ATOM     34  CAV D95 d   1     -21.205  18.452  61.025  0.00  0.00     0.025 C 
ATOM     35  H21 D95 d   1     -21.862  17.842  61.663  0.00  0.00     0.048 H 
ATOM     36  H22 D95 d   1     -20.904  17.867  60.144  0.00  0.00     0.048 H 
BRANCH  34  37
ATOM     37  CAW D95 d   1     -21.953  19.679  60.573  0.00  0.00     0.024 C 
ATOM     38  H23 D95 d   1     -22.148  20.331  61.437  0.00  0.00     0.049 H 
ATOM     39  H24 D95 d   1     -22.908  19.381  60.115  0.00  0.00     0.049 H 
BRANCH  37  40
ATOM     40  CAX D95 d   1     -21.113  20.420  59.557  0.00  0.00     0.172 C 
ATOM     41  OAY D95 d   1     -21.256  21.659  59.426  0.00  0.00    -0.648 OA
ATOM     42  OAZ D95 d   1     -20.291  19.793  58.838  0.00  0.00    -0.648 OA
ENDBRANCH  37  40
ENDBRANCH  34  37
ENDBRANCH  32  34
ENDBRANCH  31  32
ENDBRANCH   6  31
BRANCH   5  43
ATOM     43  CBA D95 d   1     -19.080  16.644  64.837  0.00  0.00    -0.068 C 
ATOM     44  H25 D95 d   1     -18.884  15.781  65.490  0.00  0.00     0.028 H 
ATOM     45  H26 D95 d   1     -19.915  16.409  64.160  0.00  0.00     0.028 H 
ATOM     46  H27 D95 d   1     -19.342  17.517  65.453  0.00  0.00     0.028 H 
ENDBRANCH   5  43
BRANCH  12  47
ATOM     47  CAR D95 d   1     -13.513  18.025  60.318  0.00  0.00    -0.022 C 
ATOM     48  H18 D95 d   1     -14.330  18.128  59.588  0.00  0.00     0.035 H 
ATOM     49  H19 D95 d   1     -12.903  17.145  60.065  0.00  0.00     0.035 H 
ATOM     50  H20 D95 d   1     -12.884  18.927  60.293  0.00  0.00     0.035 H 
ENDBRANCH  12  47
BRANCH   1  51
ATOM     51  CAA D95 d   1     -13.376  19.457  66.698  0.00  0.00    -0.072 C 
ATOM     52  H1  D95 d   1     -13.630  20.262  67.403  0.00  0.00     0.028 H 
ATOM     53  H2  D95 d   1     -12.551  19.785  66.049  0.00  0.00     0.028 H 
ATOM     54  H3  D95 d   1     -13.068  18.562  67.259  0.00  0.00     0.028 H 
ENDBRANCH   1  51
TORSDOF 8
