REMARK  7 active torsions:
REMARK  status: ('A' for Active; 'I' for Inactive)
REMARK    1  A    between atoms: N02_19  and  C01_1 
REMARK    2  A    between atoms: C09_7  and  C04_3 
REMARK       I    between atoms: N11_20  and  C09_7 
REMARK    3  A    between atoms: C13_9  and  C12_8 
REMARK    4  A    between atoms: C12_8  and  N11_20 
REMARK    5  A    between atoms: C14_10  and  C13_9 
REMARK    6  A    between atoms: N15_21  and  C14_10 
REMARK    7  A    between atoms: C16_11  and  C18_12 
REMARK       I    between atoms: C16_11  and  N15_21 
ROOT
ATOM      1  C12 EN2 d   1     -39.851  42.312 -20.531  0.00  0.00    -0.003 C 
ATOM      2  H11 EN2 d   1     -40.025  42.325 -19.445  0.00  0.00     0.064 H 
ATOM      3  H12 EN2 d   1     -40.099  43.297 -20.953  0.00  0.00     0.064 H 
ENDROOT
BRANCH   1   4
ATOM      4  C13 EN2 d   1     -40.754  41.254 -21.169  0.00  0.00    -0.035 C 
ATOM      5  H13 EN2 d   1     -41.615  41.086 -20.505  0.00  0.00     0.037 H 
ATOM      6  H14 EN2 d   1     -40.179  40.321 -21.268  0.00  0.00     0.037 H 
BRANCH   4   7
ATOM      7  C14 EN2 d   1     -41.278  41.645 -22.546  0.00  0.00    -0.003 C 
ATOM      8  H15 EN2 d   1     -40.981  40.887 -23.286  0.00  0.00     0.064 H 
ATOM      9  H16 EN2 d   1     -40.866  42.623 -22.837  0.00  0.00     0.064 H 
BRANCH   7  10
ATOM     10  N15 EN2 d   1     -42.728  41.723 -22.477  0.00  0.00    -0.357 N 
ATOM     11  C16 EN2 d   1     -43.559  42.825 -22.961  0.00  0.00     0.251 C 
ATOM     12  O17 EN2 d   1     -44.730  42.717 -22.810  0.00  0.00    -0.268 OA
ATOM     13  H22 EN2 d   1     -43.203  40.949 -22.058  0.00  0.00     0.162 HD
BRANCH  11  14
ATOM     14  C18 EN2 d   1     -43.044  44.106 -23.642  0.00  0.00     0.032 A 
ATOM     15  C19 EN2 d   1     -41.877  44.145 -24.391  0.00  0.00    -0.065 A 
ATOM     16  C20 EN2 d   1     -41.462  45.321 -24.989  0.00  0.00    -0.045 A 
ATOM     17  H17 EN2 d   1     -41.285  43.245 -24.509  0.00  0.00     0.085 H 
ATOM     18  C21 EN2 d   1     -42.214  46.474 -24.862  0.00  0.00     0.116 A 
ATOM     19  H18 EN2 d   1     -40.541  45.339 -25.561  0.00  0.00     0.088 H 
ATOM     20  C23 EN2 d   1     -43.388  46.449 -24.125  0.00  0.00    -0.045 A 
ATOM     21  F22 EN2 d   1     -41.787  47.624 -25.464  0.00  0.00    -0.206 F 
ATOM     22  C24 EN2 d   1     -43.799  45.267 -23.524  0.00  0.00    -0.065 A 
ATOM     23  H19 EN2 d   1     -43.983  47.349 -24.018  0.00  0.00     0.088 H 
ATOM     24  H20 EN2 d   1     -44.721  45.249 -22.955  0.00  0.00     0.085 H 
ENDBRANCH  11  14
ENDBRANCH   7  10
ENDBRANCH   4   7
ENDBRANCH   1   4
BRANCH   1  25
ATOM     25  N11 EN2 d   1     -38.449  42.027 -20.783  0.00  0.00    -0.361 N 
ATOM     26  C09 EN2 d   1     -37.842  40.775 -20.357  0.00  0.00     0.223 C 
ATOM     27  O10 EN2 d   1     -38.470  39.947 -19.794  0.00  0.00    -0.273 OA
ATOM     28  H21 EN2 d   1     -37.889  42.705 -21.259  0.00  0.00     0.162 HD
BRANCH  26  29
ATOM     29  C04 EN2 d   1     -36.371  40.501 -20.637  0.00  0.00     0.039 A 
ATOM     30  C03 EN2 d   1     -35.741  39.222 -20.103  0.00  0.00     0.009 A 
ATOM     31  N02 EN2 d   1     -34.311  38.936 -20.369  0.00  0.00    -0.356 N 
ATOM     32  H4  EN2 d   1     -36.316  38.384 -20.524  0.00  0.00     0.065 H 
ATOM     33  H5  EN2 d   1     -35.864  39.239 -19.010  0.00  0.00     0.065 H 
ATOM     34  C07 EN2 d   1     -33.491  39.890 -21.157  0.00  0.00     0.219 A 
ATOM     35  C06 EN2 d   1     -34.120  41.172 -21.697  0.00  0.00     0.010 A 
ATOM     36  O08 EN2 d   1     -32.350  39.651 -21.366  0.00  0.00    -0.273 OA
ATOM     37  C05 EN2 d   1     -35.558  41.465 -21.433  0.00  0.00    -0.044 A 
ATOM     38  H9  EN2 d   1     -33.543  42.010 -21.278  0.00  0.00     0.047 H 
ATOM     39  H10 EN2 d   1     -33.995  41.151 -22.790  0.00  0.00     0.047 H 
ATOM     40  H7  EN2 d   1     -35.596  42.429 -20.904  0.00  0.00     0.035 H 
ATOM     41  H8  EN2 d   1     -36.049  41.565 -22.412  0.00  0.00     0.035 H 
ATOM     42  H6  EN2 d   1     -36.093  41.030 -19.713  0.00  0.00     0.057 H 
BRANCH  31  43
ATOM     43  C01 EN2 d   1     -33.715  37.718 -19.854  0.00  0.00    -0.016 C 
ATOM     44  H1  EN2 d   1     -34.473  37.144 -19.301  0.00  0.00     0.056 H 
ATOM     45  H2  EN2 d   1     -32.884  37.973 -19.180  0.00  0.00     0.056 H 
ATOM     46  H3  EN2 d   1     -33.336  37.113 -20.691  0.00  0.00     0.056 H 
ENDBRANCH  31  43
ENDBRANCH  26  29
ENDBRANCH   1  25
TORSDOF 7
