REMARK  6 active torsions:
REMARK  status: ('A' for Active; 'I' for Inactive)
REMARK    1  A    between atoms: C01_1  and  C02_2 
REMARK       I    between atoms: C02_2  and  N04_4 
REMARK    2  A    between atoms: C06_6  and  N07_7 
REMARK       I    between atoms: N07_7  and  C08_8 
REMARK    3  A    between atoms: N07_7  and  C11_11 
REMARK    4  A    between atoms: C08_8  and  C09_9 
REMARK    5  A    between atoms: C12_12  and  C13_13 
REMARK    6  A    between atoms: C16_16  and  O18_18 
ROOT
ATOM      1  N07 UO1 d   1     -38.827  39.472 -20.716  0.00  0.00    -0.280 N 
ATOM      2  C08 UO1 d   1     -39.524  39.798 -19.513  0.00  0.00     0.225 C 
ATOM      3  O10 UO1 d   1     -40.690  39.476 -19.357  0.00  0.00    -0.273 OA
ENDROOT
BRANCH   1   4
ATOM      4  C06 UO1 d   1     -37.437  39.853 -20.884  0.00  0.00     0.071 A 
ATOM      5  C05 UO1 d   1     -36.362  39.022 -20.587  0.00  0.00     0.015 A 
ATOM      6  N04 UO1 d   1     -35.236  39.688 -20.876  0.00  0.00    -0.290 N 
ATOM      7  H4  UO1 d   1     -36.424  38.010 -20.190  0.00  0.00     0.116 H 
ATOM      8  C02 UO1 d   1     -33.935  39.113 -20.704  0.00  0.00     0.224 C 
ATOM      9  C20 UO1 d   1     -35.510  40.948 -21.365  0.00  0.00     0.054 A 
ATOM     10  O03 UO1 d   1     -32.934  39.737 -20.987  0.00  0.00    -0.273 OA
ATOM     11  C19 UO1 d   1     -36.894  41.106 -21.385  0.00  0.00     0.020 A 
ATOM     12  C21 UO1 d   1     -34.648  41.992 -21.795  0.00  0.00    -0.056 A 
ATOM     13  C24 UO1 d   1     -37.458  42.333 -21.843  0.00  0.00    -0.069 A 
ATOM     14  C23 UO1 d   1     -36.604  43.362 -22.262  0.00  0.00    -0.082 A 
ATOM     15  H18 UO1 d   1     -38.533  42.468 -21.867  0.00  0.00     0.085 H 
ATOM     16  C22 UO1 d   1     -35.202  43.191 -22.236  0.00  0.00    -0.081 A 
ATOM     17  H17 UO1 d   1     -37.024  44.299 -22.610  0.00  0.00     0.083 H 
ATOM     18  H16 UO1 d   1     -34.554  43.997 -22.561  0.00  0.00     0.083 H 
ATOM     19  H15 UO1 d   1     -33.572  41.857 -21.780  0.00  0.00     0.087 H 
BRANCH   8  20
ATOM     20  C01 UO1 d   1     -33.862  37.693 -20.152  0.00  0.00    -0.002 C 
ATOM     21  H1  UO1 d   1     -34.880  37.319 -19.966  0.00  0.00     0.040 H 
ATOM     22  H2  UO1 d   1     -33.294  37.694 -19.210  0.00  0.00     0.040 H 
ATOM     23  H3  UO1 d   1     -33.360  37.041 -20.882  0.00  0.00     0.040 H 
ENDBRANCH   8  20
ENDBRANCH   1   4
BRANCH   1  24
ATOM     24  C11 UO1 d   1     -39.535  38.764 -21.767  0.00  0.00     0.051 A 
ATOM     25  C12 UO1 d   1     -39.828  37.383 -21.713  0.00  0.00    -0.035 A 
ATOM     26  C14 UO1 d   1     -40.531  36.784 -22.774  0.00  0.00    -0.072 A 
ATOM     27  C15 UO1 d   1     -40.932  37.548 -23.873  0.00  0.00    -0.050 A 
ATOM     28  H11 UO1 d   1     -40.763  35.726 -22.739  0.00  0.00     0.084 H 
ATOM     29  C16 UO1 d   1     -40.639  38.911 -23.919  0.00  0.00     0.067 A 
ATOM     30  H12 UO1 d   1     -41.471  37.081 -24.690  0.00  0.00     0.087 H 
ATOM     31  C17 UO1 d   1     -39.947  39.516 -22.865  0.00  0.00    -0.024 A 
ATOM     32  H13 UO1 d   1     -39.730  40.577 -22.903  0.00  0.00     0.091 H 
BRANCH  25  33
ATOM     33  C13 UO1 d   1     -39.400  36.522 -20.541  0.00  0.00    -0.049 C 
ATOM     34  H8  UO1 d   1     -39.731  35.486 -20.707  0.00  0.00     0.033 H 
ATOM     35  H9  UO1 d   1     -39.855  36.908 -19.617  0.00  0.00     0.033 H 
ATOM     36  H10 UO1 d   1     -38.304  36.547 -20.449  0.00  0.00     0.033 H 
ENDBRANCH  25  33
BRANCH  29  37
ATOM     37  O18 UO1 d   1     -41.044  39.708 -25.013  0.00  0.00    -0.361 OA
ATOM     38  H14 UO1 d   1     -41.625  40.394 -24.706  0.00  0.00     0.217 HD
ENDBRANCH  29  37
ENDBRANCH   1  24
BRANCH   2  39
ATOM     39  C09 UO1 d   1     -38.760  40.538 -18.456  0.00  0.00    -0.002 C 
ATOM     40  H5  UO1 d   1     -39.415  40.722 -17.591  0.00  0.00     0.040 H 
ATOM     41  H6  UO1 d   1     -38.410  41.499 -18.861  0.00  0.00     0.040 H 
ATOM     42  H7  UO1 d   1     -37.895  39.936 -18.140  0.00  0.00     0.040 H 
ENDBRANCH   2  39
TORSDOF 6
