REMARK  13 active torsions:
REMARK  status: ('A' for Active; 'I' for Inactive)
REMARK    1  A    between atoms: C15_12  and  C14_11 
REMARK    2  A    between atoms: C16_13  and  C22_17 
REMARK    3  A    between atoms: S38_38  and  C19_14 
REMARK    4  A    between atoms: C20_15  and  O35_35 
REMARK    5  A    between atoms: N30_30  and  C21_16 
REMARK    6  A    between atoms: C22_17  and  O36_36 
REMARK    7  A    between atoms: C28_29  and  C24_18 
REMARK    8  A    between atoms: C27_19  and  C18_25 
REMARK    9  A    between atoms: O35_35  and  C27_19 
REMARK   10  A    between atoms: C17_24  and  C26_28 
REMARK   11  A    between atoms: C26_28  and  C23_26 
REMARK       I    between atoms: C23_26  and  N30_30 
REMARK   12  A    between atoms: O36_36  and  C25_27 
REMARK   13  A    between atoms: C28_29  and  S38_38 
ROOT
ATOM      1  C11 D9N d   1     -23.758 -18.880  -1.303  0.00  0.00    -0.039 A 
ATOM      2  C13 D9N d   1     -25.061 -19.642  -3.044  0.00  0.00    -0.032 A 
ATOM      3  C15 D9N d   1     -25.078 -19.130  -1.760  0.00  0.00    -0.012 A 
ATOM      4  C21 D9N d   1     -22.783 -19.196  -2.220  0.00  0.00     0.077 A 
ATOM      5  S37 D9N d   1     -23.470 -19.799  -3.694  0.00  0.00    -0.083 SA
ATOM      6  H8  D9N d   1     -23.537 -18.475  -0.317  0.00  0.00     0.089 H 
ATOM      7  H10 D9N d   1     -25.961 -19.919  -3.591  0.00  0.00     0.096 H 
ENDROOT
BRANCH   3   8
ATOM      8  C14 D9N d   1     -26.258 -18.947  -0.952  0.00  0.00     0.028 A 
ATOM      9  C2  D9N d   1     -26.063 -18.920   0.418  0.00  0.00    -0.067 A 
ATOM     10  C1  D9N d   1     -27.140 -18.755   1.264  0.00  0.00    -0.065 A 
ATOM     11  H2  D9N d   1     -25.065 -19.028   0.826  0.00  0.00     0.085 H 
ATOM     12  C12 D9N d   1     -28.388 -18.618   0.695  0.00  0.00     0.005 A 
ATOM     13  H1  D9N d   1     -27.009 -18.734   2.340  0.00  0.00     0.085 H 
ATOM     14  N29 D9N d   1     -28.617 -18.639  -0.625  0.00  0.00    -0.236 NA
ATOM     15  H9  D9N d   1     -29.237 -18.485   1.356  0.00  0.00     0.114 H 
ATOM     16  C20 D9N d   1     -27.554 -18.808  -1.432  0.00  0.00     0.175 A 
BRANCH  16  17
ATOM     17  O35 D9N d   1     -27.764 -18.865  -2.817  0.00  0.00    -0.329 OA
BRANCH  17  18
ATOM     18  C27 D9N d   1     -29.158 -18.817  -3.130  0.00  0.00     0.051 C 
ATOM     19  H14 D9N d   1     -29.667 -18.229  -2.352  0.00  0.00     0.082 H 
ATOM     20  H15 D9N d   1     -29.276 -18.319  -4.103  0.00  0.00     0.082 H 
BRANCH  18  21
ATOM     21  C18 D9N d   1     -29.814 -20.162  -3.207  0.00  0.00    -0.034 A 
ATOM     22  C5  D9N d   1     -29.281 -21.294  -2.610  0.00  0.00    -0.074 A 
ATOM     23  C3  D9N d   1     -29.930 -22.510  -2.688  0.00  0.00    -0.067 A 
ATOM     24  H17 D9N d   1     -28.341 -21.223  -2.074  0.00  0.00     0.084 H 
ATOM     25  C16 D9N d   1     -31.125 -22.572  -3.375  0.00  0.00     0.039 A 
ATOM     26  H3  D9N d   1     -29.511 -23.394  -2.221  0.00  0.00     0.085 H 
ATOM     27  C4  D9N d   1     -31.677 -21.460  -3.978  0.00  0.00    -0.067 A 
ATOM     28  C6  D9N d   1     -31.017 -20.250  -3.881  0.00  0.00    -0.074 A 
ATOM     29  H16 D9N d   1     -32.613 -21.535  -4.519  0.00  0.00     0.085 H 
ATOM     30  H18 D9N d   1     -31.445 -19.364  -4.336  0.00  0.00     0.084 H 
BRANCH  25  31
ATOM     31  C22 D9N d   1     -31.817 -23.857  -3.479  0.00  0.00     0.292 C 
ATOM     32  O31 D9N d   1     -31.515 -24.719  -4.295  0.00  0.00    -0.259 OA
BRANCH  31  33
ATOM     33  O36 D9N d   1     -32.811 -23.878  -2.553  0.00  0.00    -0.323 OA
BRANCH  33  34
ATOM     34  C25 D9N d   1     -32.602 -24.963  -1.649  0.00  0.00     0.013 C 
ATOM     35  H19 D9N d   1     -33.408 -24.977  -0.901  0.00  0.00     0.067 H 
ATOM     36  H20 D9N d   1     -31.634 -24.837  -1.142  0.00  0.00     0.067 H 
ATOM     37  H21 D9N d   1     -32.603 -25.911  -2.207  0.00  0.00     0.067 H 
ENDBRANCH  33  34
ENDBRANCH  31  33
ENDBRANCH  25  31
ENDBRANCH  18  21
ENDBRANCH  17  18
ENDBRANCH  16  17
ENDBRANCH   3   8
BRANCH   4  38
ATOM     38  N30 D9N d   1     -21.429 -19.035  -1.992  0.00  0.00    -0.321 N 
ATOM     39  C23 D9N d   1     -20.482 -19.626  -2.779  0.00  0.00     0.226 C 
ATOM     40  O32 D9N d   1     -20.697 -20.341  -3.745  0.00  0.00    -0.273 OA
ATOM     41  H26 D9N d   1     -21.133 -18.466  -1.225  0.00  0.00     0.169 HD
BRANCH  39  42
ATOM     42  C26 D9N d   1     -19.080 -19.381  -2.277  0.00  0.00     0.033 C 
ATOM     43  H22 D9N d   1     -18.416 -19.136  -3.119  0.00  0.00     0.054 H 
ATOM     44  H23 D9N d   1     -19.078 -18.551  -1.555  0.00  0.00     0.054 H 
BRANCH  42  45
ATOM     45  C17 D9N d   1     -18.621 -20.634  -1.614  0.00  0.00    -0.049 A 
ATOM     46  C7  D9N d   1     -19.089 -20.947  -0.353  0.00  0.00    -0.075 A 
ATOM     47  C9  D9N d   1     -18.709 -22.120   0.254  0.00  0.00    -0.062 A 
ATOM     48  H4  D9N d   1     -19.758 -20.265   0.160  0.00  0.00     0.084 H 
ATOM     49  C19 D9N d   1     -17.850 -22.975  -0.395  0.00  0.00     0.059 A 
ATOM     50  H6  D9N d   1     -19.085 -22.370   1.240  0.00  0.00     0.085 H 
ATOM     51  C10 D9N d   1     -17.367 -22.677  -1.653  0.00  0.00    -0.062 A 
ATOM     52  C8  D9N d   1     -17.769 -21.504  -2.271  0.00  0.00    -0.075 A 
ATOM     53  H7  D9N d   1     -16.681 -23.353  -2.152  0.00  0.00     0.085 H 
ATOM     54  H5  D9N d   1     -17.416 -21.268  -3.268  0.00  0.00     0.084 H 
BRANCH  49  55
ATOM     55  S38 D9N d   1     -17.347 -24.487   0.417  0.00  0.00     0.175 S 
ATOM     56  O33 D9N d   1     -17.635 -24.368   1.832  0.00  0.00    -0.223 OA
ATOM     57  O34 D9N d   1     -16.014 -24.730  -0.102  0.00  0.00    -0.223 OA
BRANCH  55  58
ATOM     58  C28 D9N d   1     -18.378 -25.808  -0.214  0.00  0.00     0.030 C 
ATOM     59  H24 D9N d   1     -17.961 -26.118  -1.183  0.00  0.00     0.056 H 
ATOM     60  H25 D9N d   1     -18.315 -26.645   0.497  0.00  0.00     0.056 H 
BRANCH  58  61
ATOM     61  C24 D9N d   1     -19.851 -25.501  -0.428  0.00  0.00    -0.064 C 
ATOM     62  H11 D9N d   1     -20.360 -26.396  -0.816  0.00  0.00     0.028 H 
ATOM     63  H12 D9N d   1     -19.953 -24.679  -1.152  0.00  0.00     0.028 H 
ATOM     64  H13 D9N d   1     -20.307 -25.206   0.529  0.00  0.00     0.028 H 
ENDBRANCH  58  61
ENDBRANCH  55  58
ENDBRANCH  49  55
ENDBRANCH  42  45
ENDBRANCH  39  42
ENDBRANCH   4  38
TORSDOF 13
