REMARK  5 active torsions:
REMARK  status: ('A' for Active; 'I' for Inactive)
REMARK    1  A    between atoms: C6_15  and  C11_3 
REMARK       I    between atoms: C11_3  and  N13_19 
REMARK    2  A    between atoms: N13_19  and  C15_4 
REMARK    3  A    between atoms: C18_6  and  C25_10 
REMARK    4  A    between atoms: C25_10  and  C38_24 
REMARK    5  A    between atoms: C27_11  and  N35_23 
ROOT
ATOM      1  C15 D9W d   1      28.840  77.473  20.621  0.00  0.00     0.035 A 
ATOM      2  C16 D9W d   1      28.731  76.084  20.437  0.00  0.00    -0.049 A 
ATOM      3  C18 D9W d   1      29.474  75.140  21.192  0.00  0.00    -0.026 A 
ATOM      4  C19 D9W d   1      30.369  75.661  22.176  0.00  0.00    -0.074 A 
ATOM      5  C21 D9W d   1      30.495  77.055  22.382  0.00  0.00    -0.080 A 
ATOM      6  C23 D9W d   1      29.737  77.963  21.610  0.00  0.00    -0.057 A 
ATOM      7  H2  D9W d   1      28.046  75.716  19.682  0.00  0.00     0.087 H 
ATOM      8  H3  D9W d   1      30.961  74.978  22.774  0.00  0.00     0.084 H 
ATOM      9  H4  D9W d   1      31.177  77.428  23.137  0.00  0.00     0.083 H 
ATOM     10  H5  D9W d   1      29.839  79.030  21.771  0.00  0.00     0.086 H 
ENDROOT
BRANCH   3  11
ATOM     11  C25 D9W d   1      29.300  73.612  20.919  0.00  0.00     0.076 C 
ATOM     12  N26 D9W d   1      28.010  73.349  20.256  0.00  0.00    -0.363 N 
ATOM     13  C27 D9W d   1      27.963  73.072  18.990  0.00  0.00     0.095 C 
ATOM     14  H11 D9W d   1      27.138  73.386  20.803  0.00  0.00     0.162 HD
ATOM     15  C28 D9W d   1      29.203  73.021  18.103  0.00  0.00     0.071 C 
ATOM     16  O31 D9W d   1      30.324  73.655  18.759  0.00  0.00    -0.381 OA
ATOM     17  H6  D9W d   1      28.994  73.544  17.159  0.00  0.00     0.086 H 
ATOM     18  H7  D9W d   1      29.454  71.971  17.892  0.00  0.00     0.086 H 
ATOM     19  C32 D9W d   1      30.539  73.152  20.086  0.00  0.00     0.047 C 
ATOM     20  H12 D9W d   1      30.607  72.054  20.074  0.00  0.00     0.078 H 
ATOM     21  H13 D9W d   1      31.463  73.572  20.510  0.00  0.00     0.078 H 
BRANCH  13  22
ATOM     22  N35 D9W d   1      26.823  72.819  18.396  0.00  0.00    -0.387 N 
ATOM     23  H14 D9W d   1      25.946  72.837  18.936  0.00  0.00     0.157 HD
ATOM     24  H15 D9W d   1      26.804  72.603  17.389  0.00  0.00     0.157 HD
ENDBRANCH  13  22
BRANCH  11  25
ATOM     25  C38 D9W d   1      29.165  72.760  22.216  0.00  0.00    -0.047 C 
ATOM     26  H16 D9W d   1      30.078  72.865  22.820  0.00  0.00     0.031 H 
ATOM     27  H17 D9W d   1      29.023  71.703  21.947  0.00  0.00     0.031 H 
ATOM     28  H18 D9W d   1      28.299  73.111  22.797  0.00  0.00     0.031 H 
ENDBRANCH  11  25
ENDBRANCH   3  11
BRANCH   1  29
ATOM     29  N13 D9W d   1      28.025  78.275  19.770  0.00  0.00    -0.322 N 
ATOM     30  C11 D9W d   1      28.118  79.601  19.495  0.00  0.00     0.274 C 
ATOM     31  O12 D9W d   1      28.934  80.371  19.988  0.00  0.00    -0.266 OA
ATOM     32  H10 D9W d   1      27.279  77.793  19.311  0.00  0.00     0.169 HD
BRANCH  30  33
ATOM     33  C6  D9W d   1      27.126  80.141  18.499  0.00  0.00     0.124 A 
ATOM     34  N5  D9W d   1      26.034  79.374  18.182  0.00  0.00    -0.254 NA
ATOM     35  C3  D9W d   1      25.078  79.775  17.297  0.00  0.00     0.020 A 
ATOM     36  C2  D9W d   1      25.201  81.033  16.668  0.00  0.00     0.028 A 
ATOM     37  H1  D9W d   1      24.232  79.134  17.078  0.00  0.00     0.116 H 
ATOM     38 BR1  D9W d   1      23.932  81.646  15.476  0.00  0.00    -0.050 Br
ATOM     39  C9  D9W d   1      26.320  81.838  16.970  0.00  0.00    -0.062 A 
ATOM     40  C7  D9W d   1      27.297  81.404  17.887  0.00  0.00    -0.048 A 
ATOM     41  H9  D9W d   1      26.429  82.804  16.490  0.00  0.00     0.085 H 
ATOM     42  H8  D9W d   1      28.157  82.022  18.117  0.00  0.00     0.087 H 
ENDBRANCH  30  33
ENDBRANCH   1  29
TORSDOF 5
