REMARK  5 active torsions:
REMARK  status: ('A' for Active; 'I' for Inactive)
REMARK    1  A    between atoms: N02_10  and  C01_1 
REMARK    2  A    between atoms: C09_7  and  C04_3 
REMARK       I    between atoms: N11_11  and  C09_7 
REMARK    3  A    between atoms: C12_8  and  C13_9 
REMARK    4  A    between atoms: C12_8  and  N11_11 
REMARK    5  A    between atoms: C13_9  and  N14_12 
ROOT
ATOM      1  C03 D8Q d   1     -26.076  -9.213   0.972  0.00  0.00     0.026 A 
ATOM      2  C04 D8Q d   1     -26.577  -7.774   0.987  0.00  0.00     0.024 A 
ATOM      3  C05 D8Q d   1     -25.622  -6.643   0.989  0.00  0.00    -0.082 A 
ATOM      4  C06 D8Q d   1     -24.162  -6.937   0.959  0.00  0.00     0.025 A 
ATOM      5  C07 D8Q d   1     -23.643  -8.372   0.938  0.00  0.00     0.223 A 
ATOM      6  N02 D8Q d   1     -24.615  -9.482   0.944  0.00  0.00    -0.352 N 
ATOM      7  O08 D8Q d   1     -22.479  -8.593   0.916  0.00  0.00    -0.273 OA
ATOM      8  H4  D8Q d   1     -26.506  -9.691   0.080  0.00  0.00     0.071 H 
ATOM      9  H5  D8Q d   1     -26.473  -9.699   1.876  0.00  0.00     0.071 H 
ATOM     10  H6  D8Q d   1     -25.980  -5.615   1.012  0.00  0.00     0.078 H 
ATOM     11  H7  D8Q d   1     -23.730  -6.463   1.853  0.00  0.00     0.053 H 
ATOM     12  H8  D8Q d   1     -23.765  -6.449   0.057  0.00  0.00     0.053 H 
ENDROOT
BRANCH   2  13
ATOM     13  C09 D8Q d   1     -28.050  -7.445   1.027  0.00  0.00     0.248 C 
ATOM     14  N11 D8Q d   1     -28.441  -6.226   1.713  0.00  0.00    -0.355 N 
ATOM     15  H13 D8Q d   1     -27.733  -5.647   2.117  0.00  0.00     0.162 HD
ATOM     16  O10 D8Q d   1     -28.832  -8.183   0.531  0.00  0.00    -0.268 OA
BRANCH  14  17
ATOM     17  C12 D8Q d   1     -29.830  -5.825   1.829  0.00  0.00     0.018 C 
ATOM     18  H9  D8Q d   1     -30.133  -5.267   0.931  0.00  0.00     0.066 H 
ATOM     19  H10 D8Q d   1     -30.467  -6.715   1.939  0.00  0.00     0.066 H 
BRANCH  17  20
ATOM     20  C13 D8Q d   1     -29.967  -4.935   3.062  0.00  0.00     0.094 C 
ATOM     21  H11 D8Q d   1     -30.067  -3.887   2.742  0.00  0.00     0.077 H 
ATOM     22  H12 D8Q d   1     -29.069  -5.043   3.688  0.00  0.00     0.077 H 
BRANCH  20  23
ATOM     23  N14 D8Q d   1     -31.133  -5.311   3.834  0.00  0.00    -0.078 N 
ATOM     24  H14 D8Q d   1     -31.207  -4.714   4.643  0.00  0.00     0.274 HD
ATOM     25  H15 D8Q d   1     -31.044  -6.270   4.131  0.00  0.00     0.274 HD
ATOM     26  H16 D8Q d   1     -31.959  -5.211   3.265  0.00  0.00     0.274 HD
ENDBRANCH  20  23
ENDBRANCH  17  20
ENDBRANCH  14  17
ENDBRANCH   2  13
BRANCH   6  27
ATOM     27  C01 D8Q d   1     -24.129 -10.848   0.924  0.00  0.00    -0.016 C 
ATOM     28  H1  D8Q d   1     -24.983 -11.541   0.932  0.00  0.00     0.056 H 
ATOM     29  H2  D8Q d   1     -23.503 -11.027   1.810  0.00  0.00     0.056 H 
ATOM     30  H3  D8Q d   1     -23.532 -11.012   0.015  0.00  0.00     0.056 H 
ENDBRANCH   6  27
TORSDOF 5
