REMARK  7 active torsions:
REMARK  status: ('A' for Active; 'I' for Inactive)
REMARK    1  A    between atoms: N02_19  and  C01_1 
REMARK    2  A    between atoms: C09_7  and  C04_3 
REMARK       I    between atoms: N11_20  and  C09_7 
REMARK    3  A    between atoms: C13_9  and  C12_8 
REMARK    4  A    between atoms: C12_8  and  N11_20 
REMARK    5  A    between atoms: C14_10  and  C13_9 
REMARK    6  A    between atoms: N15_21  and  C14_10 
REMARK    7  A    between atoms: C16_11  and  C18_12 
REMARK       I    between atoms: C16_11  and  N15_21 
ROOT
ATOM      1  C12 EN2 d   1     -30.434 -10.356  -0.642  0.00  0.00    -0.003 C 
ATOM      2  H9  EN2 d   1     -30.978  -9.479  -0.261  0.00  0.00     0.064 H 
ATOM      3  H10 EN2 d   1     -30.570 -10.428  -1.731  0.00  0.00     0.064 H 
ENDROOT
BRANCH   1   4
ATOM      4  C13 EN2 d   1     -31.007 -11.615   0.012  0.00  0.00    -0.035 C 
ATOM      5  H11 EN2 d   1     -30.734 -11.615   1.078  0.00  0.00     0.037 H 
ATOM      6  H12 EN2 d   1     -30.571 -12.498  -0.478  0.00  0.00     0.037 H 
BRANCH   4   7
ATOM      7  C14 EN2 d   1     -32.529 -11.690  -0.105  0.00  0.00    -0.003 C 
ATOM      8  H13 EN2 d   1     -32.792 -12.154  -1.067  0.00  0.00     0.064 H 
ATOM      9  H14 EN2 d   1     -32.943 -10.672  -0.064  0.00  0.00     0.064 H 
BRANCH   7  10
ATOM     10  N15 EN2 d   1     -33.104 -12.482   0.980  0.00  0.00    -0.357 N 
ATOM     11  C16 EN2 d   1     -33.411 -13.921   0.962  0.00  0.00     0.251 C 
ATOM     12  O17 EN2 d   1     -33.884 -14.380   1.946  0.00  0.00    -0.268 OA
ATOM     13  H20 EN2 d   1     -33.312 -11.993   1.827  0.00  0.00     0.162 HD
BRANCH  11  14
ATOM     14  C18 EN2 d   1     -33.219 -14.898  -0.217  0.00  0.00     0.032 A 
ATOM     15  C19 EN2 d   1     -34.002 -16.046  -0.212  0.00  0.00    -0.065 A 
ATOM     16  C20 EN2 d   1     -33.902 -16.978  -1.238  0.00  0.00    -0.045 A 
ATOM     17  H15 EN2 d   1     -34.698 -16.216   0.601  0.00  0.00     0.085 H 
ATOM     18  C21 EN2 d   1     -33.011 -16.775  -2.286  0.00  0.00     0.116 A 
ATOM     19  H16 EN2 d   1     -34.522 -17.867  -1.221  0.00  0.00     0.088 H 
ATOM     20  C23 EN2 d   1     -32.217 -15.633  -2.301  0.00  0.00    -0.045 A 
ATOM     21  F22 EN2 d   1     -32.920 -17.699  -3.293  0.00  0.00    -0.206 F 
ATOM     22  C24 EN2 d   1     -32.322 -14.704  -1.271  0.00  0.00    -0.065 A 
ATOM     23  H17 EN2 d   1     -31.518 -15.467  -3.113  0.00  0.00     0.088 H 
ATOM     24  H18 EN2 d   1     -31.699 -13.817  -1.286  0.00  0.00     0.085 H 
ENDBRANCH  11  14
ENDBRANCH   7  10
ENDBRANCH   4   7
ENDBRANCH   1   4
BRANCH   1  25
ATOM     25  N11 EN2 d   1     -29.016 -10.190  -0.356  0.00  0.00    -0.357 N 
ATOM     26  C09 EN2 d   1     -28.517  -8.866  -0.026  0.00  0.00     0.248 C 
ATOM     27  O10 EN2 d   1     -29.267  -7.951   0.016  0.00  0.00    -0.268 OA
ATOM     28  H19 EN2 d   1     -28.396 -10.974  -0.386  0.00  0.00     0.162 HD
BRANCH  26  29
ATOM     29  C04 EN2 d   1     -27.043  -8.623   0.280  0.00  0.00     0.024 A 
ATOM     30  C03 EN2 d   1     -26.053  -9.777   0.333  0.00  0.00     0.026 A 
ATOM     31  N02 EN2 d   1     -24.619  -9.503   0.629  0.00  0.00    -0.352 N 
ATOM     32  H4  EN2 d   1     -26.087 -10.273  -0.648  0.00  0.00     0.071 H 
ATOM     33  H5  EN2 d   1     -26.412 -10.471   1.107  0.00  0.00     0.071 H 
ATOM     34  C07 EN2 d   1     -24.158  -8.122   0.882  0.00  0.00     0.223 A 
ATOM     35  C06 EN2 d   1     -25.146  -6.968   0.822  0.00  0.00     0.025 A 
ATOM     36  O08 EN2 d   1     -23.017  -7.929   1.122  0.00  0.00    -0.273 OA
ATOM     37  C05 EN2 d   1     -26.581  -7.236   0.522  0.00  0.00    -0.082 A 
ATOM     38  H7  EN2 d   1     -25.113  -6.470   1.802  0.00  0.00     0.053 H 
ATOM     39  H8  EN2 d   1     -24.782  -6.277   0.047  0.00  0.00     0.053 H 
ATOM     40  H6  EN2 d   1     -27.291  -6.411   0.481  0.00  0.00     0.078 H 
BRANCH  31  41
ATOM     41  C01 EN2 d   1     -23.655 -10.591   0.683  0.00  0.00    -0.016 C 
ATOM     42  H1  EN2 d   1     -24.164 -11.543   0.472  0.00  0.00     0.056 H 
ATOM     43  H2  EN2 d   1     -23.203 -10.631   1.685  0.00  0.00     0.056 H 
ATOM     44  H3  EN2 d   1     -22.869 -10.422  -0.067  0.00  0.00     0.056 H 
ENDBRANCH  31  41
ENDBRANCH  26  29
ENDBRANCH   1  25
TORSDOF 7
