REMARK  4 active torsions:
REMARK  status: ('A' for Active; 'I' for Inactive)
REMARK    1  A    between atoms: N1_6  and  C4_1 
REMARK    2  A    between atoms: C7_4  and  C8_5 
REMARK       I    between atoms: C7_4  and  N1_6 
REMARK    3  A    between atoms: C8_5  and  N2_7 
REMARK    4  A    between atoms: C1_11  and  N3_9 
ROOT
ATOM      1  C4  D3H d   1      18.748   4.107   5.410  0.00  0.00     0.034 A 
ATOM      2  C5  D3H d   1      19.262   5.373   5.776  0.00  0.00    -0.055 A 
ATOM      3  C6  D3H d   1      19.058   6.495   4.976  0.00  0.00    -0.056 A 
ATOM      4  C3  D3H d   1      18.031   4.020   4.211  0.00  0.00    -0.055 A 
ATOM      5  C2  D3H d   1      17.836   5.139   3.403  0.00  0.00    -0.056 A 
ATOM      6  C1  D3H d   1      18.340   6.375   3.783  0.00  0.00     0.025 A 
ATOM      7  H1  D3H d   1      19.826   5.472   6.697  0.00  0.00     0.087 H 
ATOM      8  H2  D3H d   1      19.455   7.458   5.278  0.00  0.00     0.087 H 
ATOM      9  H9  D3H d   1      17.620   3.065   3.905  0.00  0.00     0.087 H 
ATOM     10  H12 D3H d   1      17.288   5.043   2.473  0.00  0.00     0.087 H 
ENDROOT
BRANCH   1  11
ATOM     11  N1  D3H d   1      18.866   2.946   6.102  0.00  0.00    -0.326 N 
ATOM     12  C7  D3H d   1      19.341   2.849   7.378  0.00  0.00     0.247 C 
ATOM     13  O1  D3H d   1      19.743   3.770   8.100  0.00  0.00    -0.271 OA
ATOM     14  H5  D3H d   1      18.585   2.102   5.645  0.00  0.00     0.169 HD
BRANCH  12  15
ATOM     15  C8  D3H d   1      19.328   1.398   7.923  0.00  0.00     0.152 C 
ATOM     16  H3  D3H d   1      20.270   0.903   7.644  0.00  0.00     0.090 H 
ATOM     17  H4  D3H d   1      18.482   0.856   7.475  0.00  0.00     0.090 H 
BRANCH  15  18
ATOM     18  N2  D3H d   1      19.190   1.370   9.394  0.00  0.00    -0.071 N 
ATOM     19  H6  D3H d   1      19.185   0.414   9.713  0.00  0.00     0.274 HD
ATOM     20  H7  D3H d   1      18.326   1.817   9.659  0.00  0.00     0.274 HD
ATOM     21  H8  D3H d   1      19.964   1.860   9.813  0.00  0.00     0.274 HD
ENDBRANCH  15  18
ENDBRANCH  12  15
ENDBRANCH   1  11
BRANCH   6  22
ATOM     22  N3  D3H d   1      18.137   7.424   2.994  0.00  0.00    -0.399 N 
ATOM     23  H10 D3H d   1      17.605   7.315   2.119  0.00  0.00     0.156 HD
ATOM     24  H11 D3H d   1      18.511   8.347   3.257  0.00  0.00     0.156 HD
ENDBRANCH   6  22
TORSDOF 4
