REMARK  21 active torsions:
REMARK  status: ('A' for Active; 'I' for Inactive)
REMARK    1  A    between atoms: CA_2  and  C_3 
REMARK       I    between atoms: C_3  and  N_8 
REMARK    2  A    between atoms: N_8  and  CA_9 
REMARK    3  A    between atoms: CA_9  and  CB_10 
REMARK    4  A    between atoms: CA_9  and  C_12 
REMARK    5  A    between atoms: CB_10  and  OG_11 
REMARK    6  A    between atoms: OG_11  and  P_14 
REMARK       I    between atoms: C_12  and  N_18 
REMARK    7  A    between atoms: N_18  and  CA_19 
REMARK    8  A    between atoms: CA_19  and  C_20 
REMARK    9  A    between atoms: CA_19  and  CB_22 
REMARK       I    between atoms: C_20  and  N_26 
REMARK   10  A    between atoms: CB_22  and  CG_23 
REMARK   11  A    between atoms: CG_23  and  CD1_24 
REMARK   12  A    between atoms: CG_23  and  CD2_25 
REMARK   13  A    between atoms: CA_27  and  C_28 
REMARK       I    between atoms: C_28  and  N_33 
REMARK   14  A    between atoms: N_33  and  CA_34 
REMARK   15  A    between atoms: CA_34  and  CB_35 
REMARK   16  A    between atoms: CA_34  and  C_38 
REMARK   17  A    between atoms: CB_35  and  CG1_36 
REMARK   18  A    between atoms: CB_35  and  CG2_37 
REMARK       I    between atoms: C_38  and  N10_40 
REMARK   19  A    between atoms: C38_41  and  C39_42 
REMARK   20  A    between atoms: C39_42  and  C46_43 
REMARK   21  A    between atoms: C39_42  and  C40_49 
ROOT
ATOM      1  N   PRO d   1      -6.223 -11.786  14.794  0.00  0.00    -0.337 N 
ATOM      2  CA  PRO d   1      -5.268 -12.025  13.709  0.00  0.00     0.091 C 
ATOM      3  CB  PRO d   1      -4.873 -10.615  13.270  0.00  0.00    -0.036 C 
ATOM      4  CG  PRO d   1      -5.014  -9.798  14.501  0.00  0.00    -0.048 C 
ATOM      5  CD  PRO d   1      -6.178 -10.389  15.261  0.00  0.00    -0.001 C 
ATOM      6  H25 PRO d   1      -5.744 -12.573  12.883  0.00  0.00     0.087 H 
ATOM      7  H26 PRO d   1      -5.545 -10.249  12.480  0.00  0.00     0.036 H 
ATOM      8  H27 PRO d   1      -3.835 -10.596  12.906  0.00  0.00     0.036 H 
ATOM      9  H28 PRO d   1      -5.220  -8.749  14.242  0.00  0.00     0.035 H 
ATOM     10  H29 PRO d   1      -4.096  -9.854  15.104  0.00  0.00     0.035 H 
ATOM     11  H30 PRO d   1      -6.003 -10.343  16.346  0.00  0.00     0.064 H 
ATOM     12  H31 PRO d   1      -7.113  -9.863  15.018  0.00  0.00     0.064 H 
ATOM     13  C   LEU d   1      -6.996 -12.818  15.174  0.00  0.00     0.243 C 
ATOM     14  O   LEU d   1      -7.002 -13.890  14.574  0.00  0.00    -0.271 OA
ENDROOT
BRANCH   2  15
ATOM     15  C   PRO d   1      -4.061 -12.806  14.201  0.00  0.00     0.241 C 
ATOM     16  O   PRO d   1      -3.190 -12.254  14.872  0.00  0.00    -0.271 OA
ATOM     17  N   DVA d   1      -4.025 -14.091  13.878  0.00  0.00    -0.346 N 
ATOM     18  H32 DVA d   1      -4.768 -14.479  13.333  0.00  0.00     0.163 HD
BRANCH  17  19
ATOM     19  CA  DVA d   1      -2.929 -14.948  14.299  0.00  0.00     0.092 C 
ATOM     20  H33 DVA d   1      -1.982 -14.436  14.074  0.00  0.00     0.088 H 
BRANCH  19  21
ATOM     21  CB  DVA d   1      -2.949 -16.280  13.533  0.00  0.00    -0.033 C 
ATOM     22  H34 DVA d   1      -3.848 -16.838  13.833  0.00  0.00     0.042 H 
BRANCH  21  23
ATOM     23  CG1 DVA d   1      -3.027 -16.035  12.022  0.00  0.00    -0.071 C 
ATOM     24  H35 DVA d   1      -3.040 -17.000  11.494  0.00  0.00     0.028 H 
ATOM     25  H36 DVA d   1      -2.151 -15.453  11.699  0.00  0.00     0.028 H 
ATOM     26  H37 DVA d   1      -3.945 -15.477  11.788  0.00  0.00     0.028 H 
ENDBRANCH  21  23
BRANCH  21  27
ATOM     27  CG2 DVA d   1      -1.739 -17.105  13.904  0.00  0.00    -0.071 C 
ATOM     28  H38 DVA d   1      -1.720 -17.258  14.993  0.00  0.00     0.028 H 
ATOM     29  H39 DVA d   1      -0.826 -16.578  13.591  0.00  0.00     0.028 H 
ATOM     30  H40 DVA d   1      -1.791 -18.080  13.398  0.00  0.00     0.028 H 
ENDBRANCH  21  27
ENDBRANCH  19  21
BRANCH  19  31
ATOM     31  C   DVA d   1      -3.003 -15.184  15.807  0.00  0.00     0.243 C 
ATOM     32  O   DVA d   1      -3.923 -15.844  16.296  0.00  0.00    -0.271 OA
ATOM     33  N10 60H d   1      -2.016 -15.333  16.830  0.00  0.00    -0.345 N 
ATOM     34  C38 60H d   1      -2.450 -15.919  18.182  0.00  0.00     0.026 C 
ATOM     35  C35 60H d   1      -0.476 -15.173  16.943  0.00  0.00    -0.002 C 
ATOM     36  C37 60H d   1      -1.210 -16.401  18.850  0.00  0.00    -0.044 C 
ATOM     37  H41 DVA d   1      -3.081 -16.796  17.978  0.00  0.00     0.074 H 
ATOM     38  C36 60H d   1      -0.106 -15.497  18.367  0.00  0.00    -0.048 C 
ATOM     39  H53 DVA d   1      -1.003 -17.444  18.567  0.00  0.00     0.036 H 
ATOM     40  H54 DVA d   1      -1.312 -16.331  19.943  0.00  0.00     0.036 H 
ATOM     41  H55 DVA d   1       0.865 -16.013  18.408  0.00  0.00     0.035 H 
ATOM     42  H56 DVA d   1      -0.060 -14.581  18.974  0.00  0.00     0.035 H 
ATOM     43  H57 DVA d   1      -0.184 -14.140  16.702  0.00  0.00     0.064 H 
ATOM     44  H58 DVA d   1       0.028 -15.867  16.254  0.00  0.00     0.064 H 
BRANCH  34  45
ATOM     45  C39 60H d   1      -3.344 -14.925  19.081  0.00  0.00     0.017 C 
ATOM     46  H42 DVA d   1      -4.273 -14.724  18.527  0.00  0.00     0.058 H 
BRANCH  45  47
ATOM     47  C46 60H d   1      -3.780 -15.633  20.485  0.00  0.00    -0.048 A 
ATOM     48  C51 60H d   1      -3.776 -17.046  20.667  0.00  0.00    -0.076 A 
ATOM     49  C50 60H d   1      -4.162 -17.648  21.896  0.00  0.00    -0.082 A 
ATOM     50  H43 DVA d   1      -3.470 -17.681  19.844  0.00  0.00     0.084 H 
ATOM     51  C49 60H d   1      -4.570 -16.839  22.973  0.00  0.00    -0.083 A 
ATOM     52  H44 DVA d   1      -4.142 -18.727  22.003  0.00  0.00     0.083 H 
ATOM     53  C48 60H d   1      -4.589 -15.448  22.819  0.00  0.00    -0.082 A 
ATOM     54  H45 DVA d   1      -4.867 -17.289  23.913  0.00  0.00     0.083 H 
ATOM     55  C47 60H d   1      -4.199 -14.863  21.590  0.00  0.00    -0.076 A 
ATOM     56  H46 DVA d   1      -4.903 -14.817  23.643  0.00  0.00     0.083 H 
ATOM     57  H47 DVA d   1      -4.223 -13.784  21.495  0.00  0.00     0.084 H 
ENDBRANCH  45  47
BRANCH  45  58
ATOM     58  C40 60H d   1      -2.607 -13.543  19.256  0.00  0.00    -0.048 A 
ATOM     59  C45 60H d   1      -2.827 -12.510  18.321  0.00  0.00    -0.076 A 
ATOM     60  C44 60H d   1      -2.180 -11.252  18.437  0.00  0.00    -0.082 A 
ATOM     61  H48 DVA d   1      -3.507 -12.681  17.494  0.00  0.00     0.084 H 
ATOM     62  C43 60H d   1      -1.286 -11.007  19.505  0.00  0.00    -0.083 A 
ATOM     63  H49 DVA d   1      -2.372 -10.476  17.704  0.00  0.00     0.083 H 
ATOM     64  C42 60H d   1      -1.048 -12.023  20.446  0.00  0.00    -0.082 A 
ATOM     65  H50 DVA d   1      -0.790 -10.047  19.597  0.00  0.00     0.083 H 
ATOM     66  C41 60H d   1      -1.703 -13.282  20.320  0.00  0.00    -0.076 A 
ATOM     67  H51 DVA d   1      -0.365 -11.849  21.269  0.00  0.00     0.083 H 
ATOM     68  H52 DVA d   1      -1.507 -14.057  21.052  0.00  0.00     0.084 H 
ENDBRANCH  45  58
ENDBRANCH  34  45
ENDBRANCH  19  31
ENDBRANCH  17  19
ENDBRANCH   2  15
BRANCH  13  69
ATOM     69  CA  LEU d   1      -7.897 -12.621  16.389  0.00  0.00     0.090 C 
ATOM     70  H15 LEU d   1      -7.813 -11.577  16.726  0.00  0.00     0.087 H 
BRANCH  69  71
ATOM     71  N   LEU d   1      -9.285 -12.896  16.050  0.00  0.00    -0.346 N 
ATOM     72  C   SEP d   1      -9.936 -12.221  15.112  0.00  0.00     0.243 C 
ATOM     73  O   SEP d   1      -9.427 -11.314  14.458  0.00  0.00    -0.271 OA
ATOM     74  H14 LEU d   1      -9.766 -13.621  16.543  0.00  0.00     0.163 HD
BRANCH  72  75
ATOM     75  CA  SEP d   1     -11.374 -12.650  14.871  0.00  0.00     0.110 C 
ATOM     76  H11 SEP d   1     -11.983 -12.348  15.736  0.00  0.00     0.090 H 
BRANCH  75  77
ATOM     77  N   SEP d   1     -11.909 -12.011  13.679  0.00  0.00    -0.344 N 
ATOM     78  C   PRO d   1     -12.480 -10.814  13.711  0.00  0.00     0.249 C 
ATOM     79  O   PRO d   1     -12.595 -10.155  14.742  0.00  0.00    -0.271 OA
ATOM     80  H10 SEP d   1     -11.844 -12.491  12.804  0.00  0.00     0.163 HD
BRANCH  78  81
ATOM     81  CA  PRO d   1     -13.002 -10.299  12.369  0.00  0.00     0.178 C 
ATOM     82  N   PRO d   1     -13.970 -11.223  11.776  0.00  0.00    -0.062 N 
ATOM     83  CD  PRO d   1     -15.336 -10.894  12.205  0.00  0.00     0.083 C 
ATOM     84  H1  PRO d   1     -13.750 -12.163  12.066  0.00  0.00     0.278 HD
ATOM     85  H2  PRO d   1     -13.915 -11.160  10.771  0.00  0.00     0.278 HD
ATOM     86  CG  PRO d   1     -15.289  -9.405  12.319  0.00  0.00    -0.040 C 
ATOM     87  H8  PRO d   1     -15.572 -11.360  13.173  0.00  0.00     0.075 H 
ATOM     88  H9  PRO d   1     -16.076 -11.212  11.456  0.00  0.00     0.075 H 
ATOM     89  CB  PRO d   1     -13.813  -9.006  12.532  0.00  0.00    -0.028 C 
ATOM     90  H6  PRO d   1     -15.674  -8.945  11.397  0.00  0.00     0.035 H 
ATOM     91  H7  PRO d   1     -15.896  -9.074  13.175  0.00  0.00     0.035 H 
ATOM     92  H4  PRO d   1     -13.505  -8.264  11.781  0.00  0.00     0.036 H 
ATOM     93  H5  PRO d   1     -13.671  -8.589  13.540  0.00  0.00     0.036 H 
ATOM     94  H3  PRO d   1     -12.150 -10.140  11.691  0.00  0.00     0.099 H 
ENDBRANCH  78  81
ENDBRANCH  75  77
BRANCH  75  95
ATOM     95  CB  SEP d   1     -11.441 -14.168  14.726  0.00  0.00     0.059 C 
ATOM     96  H12 SEP d   1     -12.487 -14.481  14.593  0.00  0.00     0.079 H 
ATOM     97  H13 SEP d   1     -11.028 -14.644  15.627  0.00  0.00     0.079 H 
BRANCH  95  98
ATOM     98  OG  SEP d   1     -10.684 -14.553  13.597  0.00  0.00    -0.280 OA
BRANCH  98  99
ATOM     99  P   SEP d   1     -10.935 -16.086  13.178  0.00  0.00     0.422 P 
ATOM    100  O1P SEP d   1     -10.023 -16.359  11.883  0.00  0.00    -0.617 OA
ATOM    101  O2P SEP d   1     -12.488 -16.316  12.831  0.00  0.00    -0.617 OA
ATOM    102  O3P SEP d   1     -10.505 -17.047  14.393  0.00  0.00    -0.617 OA
ENDBRANCH  98  99
ENDBRANCH  95  98
ENDBRANCH  75  95
ENDBRANCH  72  75
ENDBRANCH  69  71
BRANCH  69 103
ATOM    103  CB  LEU d   1      -7.457 -13.545  17.521  0.00  0.00    -0.035 C 
ATOM    104  H16 LEU d   1      -6.879 -14.353  17.049  0.00  0.00     0.037 H 
ATOM    105  H17 LEU d   1      -8.379 -13.959  17.955  0.00  0.00     0.037 H 
BRANCH 103 106
ATOM    106  CG  LEU d   1      -6.617 -13.052  18.699  0.00  0.00    -0.059 C 
ATOM    107  H18 LEU d   1      -5.556 -13.194  18.447  0.00  0.00     0.038 H 
BRANCH 106 108
ATOM    108  CD1 LEU d   1      -6.817 -11.585  19.052  0.00  0.00    -0.073 C 
ATOM    109  H19 LEU d   1      -6.175 -11.323  19.906  0.00  0.00     0.028 H 
ATOM    110  H20 LEU d   1      -7.870 -11.412  19.318  0.00  0.00     0.028 H 
ATOM    111  H21 LEU d   1      -6.550 -10.960  18.187  0.00  0.00     0.028 H 
ENDBRANCH 106 108
BRANCH 106 112
ATOM    112  CD2 LEU d   1      -6.966 -13.919  19.893  0.00  0.00    -0.073 C 
ATOM    113  H22 LEU d   1      -6.820 -14.978  19.633  0.00  0.00     0.028 H 
ATOM    114  H23 LEU d   1      -8.017 -13.752  20.173  0.00  0.00     0.028 H 
ATOM    115  H24 LEU d   1      -6.315 -13.656  20.740  0.00  0.00     0.028 H 
ENDBRANCH 106 112
ENDBRANCH 103 106
ENDBRANCH  69 103
ENDBRANCH  13  69
TORSDOF 21
