REMARK  24 active torsions:
REMARK  status: ('A' for Active; 'I' for Inactive)
REMARK    1  A    between atoms: N_1  and  CA_2 
REMARK    2  A    between atoms: CA_2  and  C_3 
REMARK    3  A    between atoms: CA_2  and  CB_5 
REMARK       I    between atoms: C_3  and  N_8 
REMARK    4  A    between atoms: CB_5  and  OG1_6 
REMARK    5  A    between atoms: CB_5  and  CG2_7 
REMARK    6  A    between atoms: CA_9  and  C_10 
REMARK       I    between atoms: C_10  and  N_15 
REMARK    7  A    between atoms: N_15  and  CA_16 
REMARK    8  A    between atoms: CA_16  and  CB_17 
REMARK    9  A    between atoms: CA_16  and  C_19 
REMARK   10  A    between atoms: CB_17  and  OG_18 
REMARK   11  A    between atoms: OG_18  and  P_21 
REMARK       I    between atoms: C_19  and  N_25 
REMARK   12  A    between atoms: N_25  and  CA_26 
REMARK   13  A    between atoms: CA_26  and  C_27 
REMARK   14  A    between atoms: CA_26  and  CB_29 
REMARK       I    between atoms: C_27  and  N_33 
REMARK   15  A    between atoms: CB_29  and  CG_30 
REMARK   16  A    between atoms: CG_30  and  CD1_31 
REMARK   17  A    between atoms: CG_30  and  CD2_32 
REMARK   18  A    between atoms: CA_34  and  C_35 
REMARK       I    between atoms: C_35  and  N_40 
REMARK   19  A    between atoms: N_40  and  CA_41 
REMARK   20  A    between atoms: CA_41  and  CB_42 
REMARK   21  A    between atoms: CA_41  and  C_43 
REMARK       I    between atoms: C_43  and  N10_45 
REMARK   22  A    between atoms: C38_46  and  C39_47 
REMARK   23  A    between atoms: C39_47  and  C46_48 
REMARK   24  A    between atoms: C39_47  and  C40_54 
ROOT
ATOM      1  N   PRO d   1     -25.198 -15.101  -5.246  0.00  0.00    -0.337 N 
ATOM      2  CA  PRO d   1     -24.586 -14.212  -4.254  0.00  0.00     0.091 C 
ATOM      3  CB  PRO d   1     -25.771 -13.399  -3.728  0.00  0.00    -0.036 C 
ATOM      4  CG  PRO d   1     -26.954 -14.270  -3.943  0.00  0.00    -0.048 C 
ATOM      5  CD  PRO d   1     -26.669 -15.081  -5.176  0.00  0.00    -0.001 C 
ATOM      6  H32 PRO d   1     -23.841 -13.555  -4.727  0.00  0.00     0.087 H 
ATOM      7  H33 PRO d   1     -25.875 -12.459  -4.289  0.00  0.00     0.036 H 
ATOM      8  H34 PRO d   1     -25.643 -13.176  -2.659  0.00  0.00     0.036 H 
ATOM      9  H35 PRO d   1     -27.855 -13.657  -4.091  0.00  0.00     0.035 H 
ATOM     10  H36 PRO d   1     -27.100 -14.933  -3.078  0.00  0.00     0.035 H 
ATOM     11  H37 PRO d   1     -27.071 -16.100  -5.077  0.00  0.00     0.064 H 
ATOM     12  H38 PRO d   1     -27.098 -14.602  -6.069  0.00  0.00     0.064 H 
ATOM     13  C   LEU d   1     -24.384 -15.854  -6.000  0.00  0.00     0.243 C 
ATOM     14  O   LEU d   1     -23.159 -15.802  -5.903  0.00  0.00    -0.271 OA
ENDROOT
BRANCH  13  15
ATOM     15  CA  LEU d   1     -25.025 -16.811  -6.998  0.00  0.00     0.090 C 
ATOM     16  H22 LEU d   1     -26.116 -16.787  -6.856  0.00  0.00     0.087 H 
BRANCH  15  17
ATOM     17  N   LEU d   1     -24.730 -16.415  -8.364  0.00  0.00    -0.346 N 
ATOM     18  C   SEP d   1     -25.264 -15.327  -8.904  0.00  0.00     0.243 C 
ATOM     19  O   SEP d   1     -25.976 -14.549  -8.270  0.00  0.00    -0.271 OA
ATOM     20  H21 LEU d   1     -24.109 -16.976  -8.911  0.00  0.00     0.163 HD
BRANCH  18  21
ATOM     21  CA  SEP d   1     -24.918 -15.060 -10.365  0.00  0.00     0.110 C 
ATOM     22  H18 SEP d   1     -25.290 -15.894 -10.978  0.00  0.00     0.090 H 
BRANCH  21  23
ATOM     23  N   SEP d   1     -25.554 -13.829 -10.809  0.00  0.00    -0.344 N 
ATOM     24  C   PRO d   1     -26.725 -13.818 -11.436  0.00  0.00     0.241 C 
ATOM     25  O   PRO d   1     -27.314 -14.840 -11.791  0.00  0.00    -0.271 OA
ATOM     26  H17 SEP d   1     -25.093 -12.959 -10.636  0.00  0.00     0.163 HD
BRANCH  24  27
ATOM     27  CA  PRO d   1     -27.329 -12.440 -11.697  0.00  0.00     0.091 C 
ATOM     28  N   PRO d   1     -27.777 -12.247 -13.080  0.00  0.00    -0.337 N 
ATOM     29  C   THR d   1     -26.867 -12.286 -14.068  0.00  0.00     0.253 C 
ATOM     30  CD  PRO d   1     -29.209 -11.905 -13.148  0.00  0.00    -0.001 C 
ATOM     31  O   THR d   1     -25.668 -12.429 -13.850  0.00  0.00    -0.271 OA
ATOM     32  CG  PRO d   1     -29.528 -11.493 -11.748  0.00  0.00    -0.048 C 
ATOM     33  H15 PRO d   1     -29.809 -12.777 -13.449  0.00  0.00     0.064 H 
ATOM     34  H16 PRO d   1     -29.384 -11.078 -13.852  0.00  0.00     0.064 H 
ATOM     35  CB  PRO d   1     -28.614 -12.264 -10.880  0.00  0.00    -0.036 C 
ATOM     36  H13 PRO d   1     -29.359 -10.414 -11.619  0.00  0.00     0.035 H 
ATOM     37  H14 PRO d   1     -30.575 -11.731 -11.508  0.00  0.00     0.035 H 
ATOM     38  H11 PRO d   1     -28.407 -11.711  -9.952  0.00  0.00     0.036 H 
ATOM     39  H12 PRO d   1     -29.051 -13.243 -10.634  0.00  0.00     0.036 H 
ATOM     40  H10 PRO d   1     -26.588 -11.672 -11.430  0.00  0.00     0.087 H 
BRANCH  29  41
ATOM     41  CA  THR d   1     -27.377 -12.158 -15.503  0.00  0.00     0.200 C 
ATOM     42  H4  THR d   1     -28.371 -11.688 -15.485  0.00  0.00     0.103 H 
BRANCH  41  43
ATOM     43  N   THR d   1     -26.487 -11.314 -16.296  0.00  0.00    -0.064 N 
ATOM     44  H1  THR d   1     -26.424 -10.402 -15.873  0.00  0.00     0.275 HD
ATOM     45  H2  THR d   1     -26.853 -11.226 -17.231  0.00  0.00     0.275 HD
ATOM     46  H3  THR d   1     -25.571 -11.732 -16.331  0.00  0.00     0.275 HD
ENDBRANCH  41  43
BRANCH  41  47
ATOM     47  CB  THR d   1     -27.511 -13.568 -16.106  0.00  0.00     0.068 C 
ATOM     48  H5  THR d   1     -26.518 -14.041 -16.132  0.00  0.00     0.086 H 
BRANCH  47  49
ATOM     49  OG1 THR d   1     -28.026 -13.480 -17.439  0.00  0.00    -0.393 OA
ATOM     50  H6  THR d   1     -27.433 -12.965 -17.973  0.00  0.00     0.210 HD
ENDBRANCH  47  49
BRANCH  47  51
ATOM     51  CG2 THR d   1     -28.449 -14.423 -15.261  0.00  0.00    -0.050 C 
ATOM     52  H7  THR d   1     -28.532 -15.425 -15.706  0.00  0.00     0.031 H 
ATOM     53  H8  THR d   1     -29.443 -13.953 -15.227  0.00  0.00     0.031 H 
ATOM     54  H9  THR d   1     -28.048 -14.508 -14.240  0.00  0.00     0.031 H 
ENDBRANCH  47  51
ENDBRANCH  41  47
ENDBRANCH  29  41
ENDBRANCH  24  27
ENDBRANCH  21  23
BRANCH  21  55
ATOM     55  CB  SEP d   1     -23.406 -14.960 -10.532  0.00  0.00     0.059 C 
ATOM     56  H19 SEP d   1     -23.158 -14.807 -11.593  0.00  0.00     0.079 H 
ATOM     57  H20 SEP d   1     -22.930 -15.885 -10.174  0.00  0.00     0.079 H 
BRANCH  55  58
ATOM     58  OG  SEP d   1     -22.948 -13.864  -9.773  0.00  0.00    -0.280 OA
BRANCH  58  59
ATOM     59  P   SEP d   1     -21.471 -13.363 -10.154  0.00  0.00     0.422 P 
ATOM     60  O1P SEP d   1     -21.366 -12.974 -11.712  0.00  0.00    -0.617 OA
ATOM     61  O2P SEP d   1     -21.166 -12.080  -9.241  0.00  0.00    -0.617 OA
ATOM     62  O3P SEP d   1     -20.448 -14.546  -9.780  0.00  0.00    -0.617 OA
ENDBRANCH  58  59
ENDBRANCH  55  58
ENDBRANCH  21  55
ENDBRANCH  18  21
ENDBRANCH  15  17
BRANCH  15  63
ATOM     63  CB  LEU d   1     -24.527 -18.231  -6.740  0.00  0.00    -0.035 C 
ATOM     64  H23 LEU d   1     -23.474 -18.279  -7.056  0.00  0.00     0.037 H 
ATOM     65  H24 LEU d   1     -25.127 -18.914  -7.359  0.00  0.00     0.037 H 
BRANCH  63  66
ATOM     66  CG  LEU d   1     -24.602 -18.727  -5.295  0.00  0.00    -0.059 C 
ATOM     67  H25 LEU d   1     -24.263 -17.922  -4.627  0.00  0.00     0.038 H 
BRANCH  66  68
ATOM     68  CD1 LEU d   1     -26.027 -19.089  -4.916  0.00  0.00    -0.073 C 
ATOM     69  H26 LEU d   1     -26.051 -19.442  -3.874  0.00  0.00     0.028 H 
ATOM     70  H27 LEU d   1     -26.392 -19.885  -5.581  0.00  0.00     0.028 H 
ATOM     71  H28 LEU d   1     -26.670 -18.202  -5.018  0.00  0.00     0.028 H 
ENDBRANCH  66  68
BRANCH  66  72
ATOM     72  CD2 LEU d   1     -23.674 -19.906  -5.141  0.00  0.00    -0.073 C 
ATOM     73  H29 LEU d   1     -22.653 -19.608  -5.423  0.00  0.00     0.028 H 
ATOM     74  H30 LEU d   1     -24.011 -20.725  -5.793  0.00  0.00     0.028 H 
ATOM     75  H31 LEU d   1     -23.681 -20.244  -4.094  0.00  0.00     0.028 H 
ENDBRANCH  66  72
ENDBRANCH  63  66
ENDBRANCH  15  63
ENDBRANCH  13  15
BRANCH   2  76
ATOM     76  C   PRO d   1     -23.918 -15.003  -3.137  0.00  0.00     0.241 C 
ATOM     77  O   PRO d   1     -24.377 -16.098  -2.815  0.00  0.00    -0.271 OA
ATOM     78  N   DAL d   1     -22.846 -14.461  -2.568  0.00  0.00    -0.346 N 
ATOM     79  H39 DAL d   1     -22.531 -13.563  -2.877  0.00  0.00     0.163 HD
BRANCH  78  80
ATOM     80  CA  DAL d   1     -22.117 -15.143  -1.504  0.00  0.00     0.086 C 
ATOM     81  H40 DAL d   1     -22.786 -15.253  -0.637  0.00  0.00     0.086 H 
BRANCH  80  82
ATOM     82  CB  DAL d   1     -20.908 -14.323  -1.082  0.00  0.00    -0.049 C 
ATOM     83  H41 DAL d   1     -20.369 -14.850  -0.280  0.00  0.00     0.030 H 
ATOM     84  H42 DAL d   1     -21.241 -13.341  -0.716  0.00  0.00     0.030 H 
ATOM     85  H43 DAL d   1     -20.239 -14.186  -1.944  0.00  0.00     0.030 H 
ENDBRANCH  80  82
BRANCH  80  86
ATOM     86  C   DAL d   1     -21.680 -16.532  -1.959  0.00  0.00     0.242 C 
ATOM     87  O   DAL d   1     -21.244 -16.714  -3.095  0.00  0.00    -0.271 OA
ATOM     88  N10 60H d   1     -21.178 -17.558  -1.099  0.00  0.00    -0.345 N 
ATOM     89  C38 60H d   1     -20.672 -18.973  -1.417  0.00  0.00     0.026 C 
ATOM     90  C35 60H d   1     -21.593 -17.608   0.396  0.00  0.00    -0.002 C 
ATOM     91  C37 60H d   1     -20.379 -19.613  -0.104  0.00  0.00    -0.044 C 
ATOM     92  H44 DAL d   1     -19.720 -18.873  -1.958  0.00  0.00     0.074 H 
ATOM     93  C36 60H d   1     -21.364 -19.017   0.877  0.00  0.00    -0.048 C 
ATOM     94  H56 DAL d   1     -19.348 -19.392   0.208  0.00  0.00     0.036 H 
ATOM     95  H57 DAL d   1     -20.517 -20.702  -0.170  0.00  0.00     0.036 H 
ATOM     96  H58 DAL d   1     -20.943 -19.015   1.893  0.00  0.00     0.035 H 
ATOM     97  H59 DAL d   1     -22.306 -19.585   0.872  0.00  0.00     0.035 H 
ATOM     98  H60 DAL d   1     -22.655 -17.342   0.501  0.00  0.00     0.064 H 
ATOM     99  H61 DAL d   1     -20.980 -16.906   0.981  0.00  0.00     0.064 H 
BRANCH  89 100
ATOM    100  C39 60H d   1     -21.647 -19.832  -2.385  0.00  0.00     0.017 C 
ATOM    101  H45 DAL d   1     -21.977 -19.162  -3.192  0.00  0.00     0.058 H 
BRANCH 100 102
ATOM    102  C46 60H d   1     -22.983 -20.321  -1.595  0.00  0.00    -0.048 A 
ATOM    103  C51 60H d   1     -23.058 -21.571  -0.910  0.00  0.00    -0.076 A 
ATOM    104  C50 60H d   1     -24.236 -21.983  -0.228  0.00  0.00    -0.082 A 
ATOM    105  H46 DAL d   1     -22.193 -22.224  -0.910  0.00  0.00     0.084 H 
ATOM    106  C49 60H d   1     -25.368 -21.143  -0.218  0.00  0.00    -0.083 A 
ATOM    107  H47 DAL d   1     -24.263 -22.939   0.282  0.00  0.00     0.083 H 
ATOM    108  C48 60H d   1     -25.321 -19.909  -0.881  0.00  0.00    -0.082 A 
ATOM    109  H48 DAL d   1     -26.270 -21.450   0.299  0.00  0.00     0.083 H 
ATOM    110  C47 60H d   1     -24.140 -19.511  -1.559  0.00  0.00    -0.076 A 
ATOM    111  H49 DAL d   1     -26.188 -19.258  -0.876  0.00  0.00     0.083 H 
ATOM    112  H50 DAL d   1     -24.125 -18.553  -2.067  0.00  0.00     0.084 H 
ENDBRANCH 100 102
BRANCH 100 113
ATOM    113  C40 60H d   1     -20.878 -21.026  -3.065  0.00  0.00    -0.048 A 
ATOM    114  C45 60H d   1     -19.469 -21.084  -3.026  0.00  0.00    -0.076 A 
ATOM    115  C44 60H d   1     -18.757 -22.149  -3.635  0.00  0.00    -0.082 A 
ATOM    116  H51 DAL d   1     -18.919 -20.299  -2.520  0.00  0.00     0.084 H 
ATOM    117  C43 60H d   1     -19.453 -23.185  -4.300  0.00  0.00    -0.083 A 
ATOM    118  H52 DAL d   1     -17.674 -22.169  -3.590  0.00  0.00     0.083 H 
ATOM    119  C42 60H d   1     -20.854 -23.148  -4.352  0.00  0.00    -0.082 A 
ATOM    120  H53 DAL d   1     -18.909 -23.999  -4.765  0.00  0.00     0.083 H 
ATOM    121  C41 60H d   1     -21.557 -22.074  -3.741  0.00  0.00    -0.076 A 
ATOM    122  H54 DAL d   1     -21.400 -23.937  -4.857  0.00  0.00     0.083 H 
ATOM    123  H55 DAL d   1     -22.640 -22.055  -3.792  0.00  0.00     0.084 H 
ENDBRANCH 100 113
ENDBRANCH  89 100
ENDBRANCH  80  86
ENDBRANCH  78  80
ENDBRANCH   2  76
TORSDOF 24
