REMARK  26 active torsions:
REMARK  status: ('A' for Active; 'I' for Inactive)
REMARK    1  A    between atoms: C5_2  and  O5_80 
REMARK    2  A    between atoms: O15_66  and  C15_8 
REMARK    3  A    between atoms: C21_11  and  O21_68 
REMARK    4  A    between atoms: C14_19  and  C56_55 
REMARK    5  A    between atoms: C16_20  and  C59_58 
REMARK    6  A    between atoms: C25_25  and  O25_70 
REMARK    7  A    between atoms: C34_33  and  C61_60 
REMARK    8  A    between atoms: C35_34  and  O35_73 
REMARK    9  A    between atoms: C37_36  and  O37_74 
REMARK   10  A    between atoms: C38_37  and  O38_75 
REMARK   11  A    between atoms: C40_39  and  C62_61 
REMARK   12  A    between atoms: C42_41  and  O42_77 
REMARK   13  A    between atoms: C43_42  and  C44_43 
REMARK   14  A    between atoms: C44_43  and  C45_44 
REMARK   15  A    between atoms: C45_44  and  C46_45 
REMARK   16  A    between atoms: C46_45  and  C47_46 
REMARK   17  A    between atoms: C47_46  and  C48_47 
REMARK   18  A    between atoms: C47_46  and  O47_79 
REMARK   19  A    between atoms: C49_48  and  C50_49 
REMARK   20  A    between atoms: C52_51  and  C53_52 
REMARK   21  A    between atoms: O5_80  and  C52_51 
REMARK   22  A    between atoms: C9_63  and  C54_53 
REMARK   23  A    between atoms: C57_56  and  C58_57 
REMARK   24  A    between atoms: C57_56  and  O15_66 
REMARK   25  A    between atoms: O21_68  and  C60_59 
REMARK   26  A    between atoms: C9_63  and  O9_84 
ROOT
ATOM      1  C4  SG9 d   1      21.342 -26.676 -46.187  0.00  0.00    -0.015 C 
ATOM      2  C5  SG9 d   1      22.432 -26.691 -47.264  0.00  0.00     0.055 C 
ATOM      3  C6  SG9 d   1      23.582 -25.737 -46.858  0.00  0.00     0.012 C 
ATOM      4  C7  SG9 d   1      24.060 -26.063 -45.424  0.00  0.00     0.170 C 
ATOM      5  C8  SG9 d   1      25.146 -25.069 -44.988  0.00  0.00     0.015 C 
ATOM      6  C10 SG9 d   1      26.190 -26.924 -43.619  0.00  0.00    -0.012 C 
ATOM      7  C13 SG9 d   1      25.999 -30.103 -43.173  0.00  0.00    -0.081 C 
ATOM      8  C15 SG9 d   1      25.399 -31.345 -41.100  0.00  0.00     0.064 C 
ATOM      9  C17 SG9 d   1      25.001 -32.691 -38.924  0.00  0.00     0.135 C 
ATOM     10  C20 SG9 d   1      23.933 -35.798 -36.815  0.00  0.00    -0.016 C 
ATOM     11  C21 SG9 d   1      24.708 -36.340 -35.610  0.00  0.00     0.045 C 
ATOM     12  C22 SG9 d   1      24.846 -35.257 -34.520  0.00  0.00     0.011 C 
ATOM     13  C24 SG9 d   1      27.030 -34.358 -35.278  0.00  0.00     0.011 C 
ATOM     14  C26 SG9 d   1      27.510 -31.875 -34.713  0.00  0.00    -0.013 C 
ATOM     15  C28 SG9 d   1      25.778 -30.608 -33.467  0.00  0.00    -0.079 C 
ATOM     16  C1  SG9 d   1      21.079 -27.116 -42.376  0.00  0.00     0.261 C 
ATOM     17  C11 SG9 d   1      25.113 -27.884 -44.133  0.00  0.00     0.048 C 
ATOM     18  C12 SG9 d   1      25.620 -29.322 -44.403  0.00  0.00    -0.020 C 
ATOM     19  C14 SG9 d   1      24.831 -30.418 -42.245  0.00  0.00    -0.010 C 
ATOM     20  C16 SG9 d   1      24.419 -31.804 -39.983  0.00  0.00     0.027 C 
ATOM     21  C18 SG9 d   1      24.296 -34.013 -38.640  0.00  0.00     0.015 C 
ATOM     22  C19 SG9 d   1      24.850 -34.735 -37.407  0.00  0.00     0.051 C 
ATOM     23  C2  SG9 d   1      20.765 -26.617 -43.766  0.00  0.00     0.040 C 
ATOM     24  C23 SG9 d   1      25.547 -34.021 -35.116  0.00  0.00     0.170 C 
ATOM     25  C25 SG9 d   1      27.866 -33.102 -35.566  0.00  0.00     0.043 C 
ATOM     26  C27 SG9 d   1      25.993 -31.664 -34.528  0.00  0.00     0.060 C 
ATOM     27  C29 SG9 d   1      25.050 -29.509 -33.686  0.00  0.00    -0.104 C 
ATOM     28  C3  SG9 d   1      21.905 -26.879 -44.771  0.00  0.00     0.053 C 
ATOM     29  C30 SG9 d   1      24.391 -29.192 -35.008  0.00  0.00    -0.050 C 
ATOM     30  C31 SG9 d   1      22.868 -29.383 -34.966  0.00  0.00    -0.060 C 
ATOM     31  C32 SG9 d   1      22.436 -30.855 -34.840  0.00  0.00    -0.040 C 
ATOM     32  C33 SG9 d   1      20.900 -30.943 -34.744  0.00  0.00     0.047 C 
ATOM     33  C34 SG9 d   1      20.449 -32.399 -34.490  0.00  0.00    -0.007 C 
ATOM     34  C35 SG9 d   1      18.918 -32.465 -34.613  0.00  0.00     0.046 C 
ATOM     35  C36 SG9 d   1      18.439 -31.917 -35.970  0.00  0.00     0.014 C 
ATOM     36  C37 SG9 d   1      18.937 -30.489 -36.222  0.00  0.00     0.193 C 
ATOM     37  C38 SG9 d   1      18.488 -30.057 -37.655  0.00  0.00     0.114 C 
ATOM     38  C39 SG9 d   1      19.483 -29.029 -38.271  0.00  0.00     0.074 C 
ATOM     39  C40 SG9 d   1      19.447 -28.842 -39.810  0.00  0.00    -0.002 C 
ATOM     40  C41 SG9 d   1      20.240 -27.534 -40.078  0.00  0.00     0.080 C 
ATOM     41  C42 SG9 d   1      19.743 -26.382 -39.176  0.00  0.00     0.086 C 
ATOM     42  C43 SG9 d   1      19.906 -26.659 -37.667  0.00  0.00     0.069 C 
ATOM     43  C55 SG9 d   1      27.274 -30.423 -42.901  0.00  0.00    -0.119 C 
ATOM     44  C9  SG9 d   1      25.665 -25.477 -43.598  0.00  0.00     0.061 C 
ATOM     45  O1  SG9 d   1      22.210 -27.470 -42.071  0.00  0.00    -0.265 OA
ATOM     46  O11 SG9 d   1      24.580 -27.399 -45.370  0.00  0.00    -0.349 OA
ATOM     47  O17 SG9 d   1      25.998 -32.317 -38.335  0.00  0.00    -0.297 OA
ATOM     48  O23 SG9 d   1      25.020 -33.695 -36.416  0.00  0.00    -0.349 OA
ATOM     49  O27 SG9 d   1      25.358 -32.918 -34.192  0.00  0.00    -0.346 OA
ATOM     50  O33 SG9 d   1      20.357 -30.417 -35.975  0.00  0.00    -0.347 OA
ATOM     51  O41 SG9 d   1      20.063 -27.166 -41.467  0.00  0.00    -0.313 OA
ATOM     52  O43 SG9 d   1      19.153 -27.849 -37.488  0.00  0.00    -0.374 OA
ATOM     53  O7  SG9 d   1      22.956 -25.943 -44.525  0.00  0.00    -0.349 OA
ATOM     54  H1  SG9 d   1      20.626 -27.483 -46.400  0.00  0.00     0.040 H 
ATOM     55  H2  SG9 d   1      20.824 -25.706 -46.224  0.00  0.00     0.040 H 
ATOM     56  H3  SG9 d   1      22.008 -26.366 -48.225  0.00  0.00     0.084 H 
ATOM     57  H4  SG9 d   1      23.223 -24.698 -46.895  0.00  0.00     0.044 H 
ATOM     58  H5  SG9 d   1      24.421 -25.860 -47.558  0.00  0.00     0.044 H 
ATOM     59  H6  SG9 d   1      24.721 -24.055 -44.941  0.00  0.00     0.045 H 
ATOM     60  H7  SG9 d   1      25.974 -25.086 -45.711  0.00  0.00     0.045 H 
ATOM     61  H8  SG9 d   1      27.068 -26.980 -44.279  0.00  0.00     0.041 H 
ATOM     62  H9  SG9 d   1      26.479 -27.218 -42.599  0.00  0.00     0.041 H 
ATOM     63  H10 SG9 d   1      26.185 -30.760 -40.601  0.00  0.00     0.086 H 
ATOM     64  H11 SG9 d   1      22.978 -35.355 -36.496  0.00  0.00     0.040 H 
ATOM     65  H12 SG9 d   1      23.741 -36.597 -37.546  0.00  0.00     0.040 H 
ATOM     66  H13 SG9 d   1      25.725 -36.592 -35.944  0.00  0.00     0.083 H 
ATOM     67  H14 SG9 d   1      25.443 -35.651 -33.684  0.00  0.00     0.044 H 
ATOM     68  H15 SG9 d   1      23.848 -34.973 -34.156  0.00  0.00     0.044 H 
ATOM     69  H16 SG9 d   1      27.147 -35.064 -36.113  0.00  0.00     0.044 H 
ATOM     70  H17 SG9 d   1      27.394 -34.824 -34.350  0.00  0.00     0.044 H 
ATOM     71  H18 SG9 d   1      27.928 -30.981 -35.200  0.00  0.00     0.041 H 
ATOM     72  H19 SG9 d   1      27.966 -31.999 -33.720  0.00  0.00     0.041 H 
ATOM     73  H20 SG9 d   1      26.233 -30.748 -32.488  0.00  0.00     0.080 H 
ATOM     74  H21 SG9 d   1      24.312 -27.930 -43.381  0.00  0.00     0.084 H 
ATOM     75  H22 SG9 d   1      24.823 -29.872 -44.925  0.00  0.00     0.043 H 
ATOM     76  H23 SG9 d   1      26.506 -29.256 -45.052  0.00  0.00     0.043 H 
ATOM     77  H24 SG9 d   1      24.537 -29.464 -41.783  0.00  0.00     0.050 H 
ATOM     78  H25 SG9 d   1      23.644 -32.402 -40.485  0.00  0.00     0.055 H 
ATOM     79  H26 SG9 d   1      24.417 -34.669 -39.514  0.00  0.00     0.048 H 
ATOM     80  H27 SG9 d   1      23.227 -33.812 -38.477  0.00  0.00     0.048 H 
ATOM     81  H28 SG9 d   1      25.815 -35.199 -37.658  0.00  0.00     0.084 H 
ATOM     82  H29 SG9 d   1      20.583 -25.533 -43.717  0.00  0.00     0.051 H 
ATOM     83  H30 SG9 d   1      19.858 -27.125 -44.124  0.00  0.00     0.051 H 
ATOM     84  H31 SG9 d   1      28.914 -33.357 -35.350  0.00  0.00     0.083 H 
ATOM     85  H32 SG9 d   1      25.563 -31.302 -35.474  0.00  0.00     0.089 H 
ATOM     86  H33 SG9 d   1      24.925 -28.803 -32.866  0.00  0.00     0.076 H 
ATOM     87  H34 SG9 d   1      22.284 -27.905 -44.659  0.00  0.00     0.084 H 
ATOM     88  H35 SG9 d   1      24.809 -29.856 -35.779  0.00  0.00     0.038 H 
ATOM     89  H36 SG9 d   1      24.608 -28.146 -35.269  0.00  0.00     0.038 H 
ATOM     90  H37 SG9 d   1      22.440 -28.973 -35.893  0.00  0.00     0.033 H 
ATOM     91  H38 SG9 d   1      22.471 -28.829 -34.102  0.00  0.00     0.033 H 
ATOM     92  H39 SG9 d   1      22.884 -31.291 -33.935  0.00  0.00     0.036 H 
ATOM     93  H40 SG9 d   1      22.779 -31.413 -35.724  0.00  0.00     0.036 H 
ATOM     94  H41 SG9 d   1      20.553 -30.322 -33.905  0.00  0.00     0.084 H 
ATOM     95  H42 SG9 d   1      20.736 -32.697 -33.471  0.00  0.00     0.047 H 
ATOM     96  H43 SG9 d   1      18.593 -33.512 -34.521  0.00  0.00     0.083 H 
ATOM     97  H44 SG9 d   1      17.339 -31.917 -35.985  0.00  0.00     0.045 H 
ATOM     98  H45 SG9 d   1      18.816 -32.571 -36.770  0.00  0.00     0.045 H 
ATOM     99  H46 SG9 d   1      18.465 -30.951 -38.296  0.00  0.00     0.095 H 
ATOM    100  H47 SG9 d   1      20.509 -29.344 -38.031  0.00  0.00     0.088 H 
ATOM    101  H48 SG9 d   1      18.411 -28.757 -40.170  0.00  0.00     0.047 H 
ATOM    102  H49 SG9 d   1      21.307 -27.711 -39.877  0.00  0.00     0.089 H 
ATOM    103  H50 SG9 d   1      18.668 -26.251 -39.370  0.00  0.00     0.090 H 
ATOM    104  H51 SG9 d   1      20.961 -26.835 -37.410  0.00  0.00     0.087 H 
ATOM    105  H67 SG9 d   1      28.062 -30.169 -43.608  0.00  0.00     0.067 H 
ATOM    106  H68 SG9 d   1      27.520 -30.937 -41.973  0.00  0.00     0.067 H 
ENDROOT
BRANCH  42 107
ATOM    107  C44 SG9 d   1      19.387 -25.448 -36.842  0.00  0.00    -0.018 C 
ATOM    108  H52 SG9 d   1      18.345 -25.257 -37.137  0.00  0.00     0.043 H 
ATOM    109  H53 SG9 d   1      20.006 -24.574 -37.094  0.00  0.00     0.043 H 
BRANCH 107 110
ATOM    110  C45 SG9 d   1      19.423 -25.630 -35.337  0.00  0.00    -0.084 C 
ATOM    111  C63 SG9 d   1      18.281 -25.745 -34.663  0.00  0.00    -0.119 C 
ATOM    112  H87 SG9 d   1      17.330 -25.704 -35.192  0.00  0.00     0.067 H 
ATOM    113  H88 SG9 d   1      18.298 -25.880 -33.583  0.00  0.00     0.067 H 
BRANCH 110 114
ATOM    114  C46 SG9 d   1      20.733 -25.690 -34.583  0.00  0.00    -0.018 C 
ATOM    115  H54 SG9 d   1      21.106 -26.724 -34.605  0.00  0.00     0.043 H 
ATOM    116  H55 SG9 d   1      20.555 -25.387 -33.541  0.00  0.00     0.043 H 
BRANCH 114 117
ATOM    117  C47 SG9 d   1      21.804 -24.764 -35.192  0.00  0.00     0.055 C 
ATOM    118  H56 SG9 d   1      21.895 -24.992 -36.264  0.00  0.00     0.089 H 
BRANCH 117 119
ATOM    119  C48 SG9 d   1      21.391 -23.312 -35.063  0.00  0.00    -0.074 C 
ATOM    120  C49 SG9 d   1      21.243 -22.483 -36.112  0.00  0.00    -0.064 C 
ATOM    121  H58 SG9 d   1      21.726 -22.757 -37.049  0.00  0.00     0.085 H 
ATOM    122  H57 SG9 d   1      21.203 -22.918 -34.065  0.00  0.00     0.080 H 
BRANCH 120 123
ATOM    123  C50 SG9 d   1      20.475 -21.235 -36.078  0.00  0.00     0.024 C 
ATOM    124  C51 SG9 d   1      20.352 -20.430 -37.154  0.00  0.00    -0.101 C 
ATOM    125  H59 SG9 d   1      19.771 -19.512 -37.083  0.00  0.00     0.069 H 
ATOM    126  H60 SG9 d   1      20.834 -20.699 -38.093  0.00  0.00     0.069 H 
ATOM    127 CL1  SG9 d   1      19.705 -20.811 -34.561  0.00  0.00    -0.085 Cl
ENDBRANCH 120 123
ENDBRANCH 117 119
BRANCH 117 128
ATOM    128  O47 SG9 d   1      23.053 -25.043 -34.574  0.00  0.00    -0.391 OA
ATOM    129  H94 SG9 d   1      23.730 -24.513 -34.978  0.00  0.00     0.210 HD
ENDBRANCH 117 128
ENDBRANCH 114 117
ENDBRANCH 110 114
ENDBRANCH 107 110
ENDBRANCH  42 107
BRANCH  41 130
ATOM    130  O42 SG9 d   1      20.414 -25.163 -39.536  0.00  0.00    -0.390 OA
ATOM    131  H93 SG9 d   1      20.305 -25.006 -40.467  0.00  0.00     0.210 HD
ENDBRANCH  41 130
BRANCH  39 132
ATOM    132  C62 SG9 d   1      20.158 -30.026 -40.512  0.00  0.00    -0.068 C 
ATOM    133  H84 SG9 d   1      19.598 -30.954 -40.324  0.00  0.00     0.028 H 
ATOM    134  H85 SG9 d   1      21.179 -30.127 -40.116  0.00  0.00     0.028 H 
ATOM    135  H86 SG9 d   1      20.202 -29.838 -41.595  0.00  0.00     0.028 H 
ENDBRANCH  39 132
BRANCH  37 136
ATOM    136  O38 SG9 d   1      17.177 -29.485 -37.617  0.00  0.00    -0.387 OA
ATOM    137  H92 SG9 d   1      17.191 -28.698 -37.085  0.00  0.00     0.210 HD
ENDBRANCH  37 136
BRANCH  36 138
ATOM    138  O37 SG9 d   1      18.268 -29.608 -35.319  0.00  0.00    -0.363 OA
ATOM    139  H91 SG9 d   1      18.454 -29.872 -34.425  0.00  0.00     0.213 HD
ENDBRANCH  36 138
BRANCH  34 140
ATOM    140  O35 SG9 d   1      18.359 -31.699 -33.542  0.00  0.00    -0.395 OA
ATOM    141  H90 SG9 d   1      18.633 -30.793 -33.625  0.00  0.00     0.210 HD
ENDBRANCH  34 140
BRANCH  33 142
ATOM    142  C61 SG9 d   1      21.150 -33.329 -35.488  0.00  0.00    -0.068 C 
ATOM    143  H81 SG9 d   1      22.240 -33.247 -35.362  0.00  0.00     0.028 H 
ATOM    144  H82 SG9 d   1      20.877 -33.039 -36.513  0.00  0.00     0.028 H 
ATOM    145  H83 SG9 d   1      20.837 -34.367 -35.304  0.00  0.00     0.028 H 
ENDBRANCH  33 142
BRANCH   2 146
ATOM    146  O5  SG9 d   1      22.939 -28.031 -47.385  0.00  0.00    -0.316 OA
BRANCH 146 147
ATOM    147  C52 SG9 d   1      22.429 -28.966 -48.222  0.00  0.00     0.255 C 
ATOM    148  O52 SG9 d   1      21.731 -28.642 -49.179  0.00  0.00    -0.266 OA
BRANCH 147 149
ATOM    149  C53 SG9 d   1      22.780 -30.394 -47.906  0.00  0.00     0.004 C 
ATOM    150  H61 SG9 d   1      22.314 -31.059 -48.648  0.00  0.00     0.041 H 
ATOM    151  H62 SG9 d   1      22.411 -30.649 -46.902  0.00  0.00     0.041 H 
ATOM    152  H63 SG9 d   1      23.872 -30.519 -47.938  0.00  0.00     0.041 H 
ENDBRANCH 147 149
ENDBRANCH 146 147
ENDBRANCH   2 146
BRANCH  44 153
ATOM    153  C54 SG9 d   1      26.845 -24.575 -43.221  0.00  0.00    -0.048 C 
ATOM    154  H64 SG9 d   1      26.512 -23.527 -43.194  0.00  0.00     0.031 H 
ATOM    155  H65 SG9 d   1      27.645 -24.686 -43.968  0.00  0.00     0.031 H 
ATOM    156  H66 SG9 d   1      27.225 -24.864 -42.230  0.00  0.00     0.031 H 
ENDBRANCH  44 153
BRANCH  44 157
ATOM    157  O9  SG9 d   1      24.624 -25.303 -42.629  0.00  0.00    -0.390 OA
ATOM    158  H95 SG9 d   1      23.899 -25.881 -42.837  0.00  0.00     0.210 HD
ENDBRANCH  44 157
BRANCH  19 159
ATOM    159  C56 SG9 d   1      23.531 -30.986 -42.873  0.00  0.00    -0.067 C 
ATOM    160  H69 SG9 d   1      23.177 -30.306 -43.662  0.00  0.00     0.028 H 
ATOM    161  H70 SG9 d   1      22.758 -31.079 -42.096  0.00  0.00     0.028 H 
ATOM    162  H71 SG9 d   1      23.735 -31.976 -43.307  0.00  0.00     0.028 H 
ENDBRANCH  19 159
BRANCH   8 163
ATOM    163  O15 SG9 d   1      26.018 -32.527 -41.668  0.00  0.00    -0.315 OA
BRANCH 163 164
ATOM    164  C57 SG9 d   1      27.105 -33.208 -41.171  0.00  0.00     0.255 C 
ATOM    165  O57 SG9 d   1      28.110 -32.627 -40.756  0.00  0.00    -0.266 OA
BRANCH 164 166
ATOM    166  C58 SG9 d   1      27.026 -34.708 -41.203  0.00  0.00     0.004 C 
ATOM    167  H72 SG9 d   1      27.949 -35.133 -40.781  0.00  0.00     0.041 H 
ATOM    168  H73 SG9 d   1      26.908 -35.047 -42.243  0.00  0.00     0.041 H 
ATOM    169  H74 SG9 d   1      26.163 -35.042 -40.608  0.00  0.00     0.041 H 
ENDBRANCH 164 166
ENDBRANCH 163 164
ENDBRANCH   8 163
BRANCH  25 170
ATOM    170  O25 SG9 d   1      27.767 -32.742 -36.961  0.00  0.00    -0.395 OA
ATOM    171  H89 SG9 d   1      26.880 -32.462 -37.153  0.00  0.00     0.210 HD
ENDBRANCH  25 170
BRANCH  20 172
ATOM    172  C59 SG9 d   1      23.714 -30.586 -39.358  0.00  0.00    -0.064 C 
ATOM    173  H75 SG9 d   1      23.025 -30.925 -38.571  0.00  0.00     0.028 H 
ATOM    174  H76 SG9 d   1      23.148 -30.051 -40.135  0.00  0.00     0.028 H 
ATOM    175  H77 SG9 d   1      24.465 -29.911 -38.922  0.00  0.00     0.028 H 
ENDBRANCH  20 172
BRANCH  11 176
ATOM    176  O21 SG9 d   1      24.093 -37.554 -35.165  0.00  0.00    -0.390 OA
BRANCH 176 177
ATOM    177  C60 SG9 d   1      24.740 -38.123 -34.041  0.00  0.00     0.004 C 
ATOM    178  H78 SG9 d   1      24.222 -39.049 -33.750  0.00  0.00     0.066 H 
ATOM    179  H79 SG9 d   1      24.715 -37.410 -33.204  0.00  0.00     0.066 H 
ATOM    180  H80 SG9 d   1      25.785 -38.352 -34.297  0.00  0.00     0.066 H 
ENDBRANCH 176 177
ENDBRANCH  11 176
TORSDOF 26
