REMARK  5 active torsions:
REMARK  status: ('A' for Active; 'I' for Inactive)
REMARK    1  A    between atoms: C18_23  and  C20_8 
REMARK       I    between atoms: N6_16  and  C18_23 
REMARK    2  A    between atoms: N7_17  and  C12_20 
REMARK    3  A    between atoms: N9_18  and  C29_29 
REMARK    4  A    between atoms: C29_29  and  C30_30 
REMARK       I    between atoms: C30_30  and  N32_32 
REMARK    5  A    between atoms: N32_32  and  C33_33 
ROOT
ATOM      1  C4  D6W d   1      22.114  -1.624  -0.768  0.00  0.00    -0.018 C 
ATOM      2  C5  D6W d   1      20.772  -2.117  -0.213  0.00  0.00     0.001 C 
ATOM      3  C8  D6W d   1      25.639  -2.318  -0.630  0.00  0.00     0.060 C 
ATOM      4  C10 D6W d   1      23.603  -3.544  -0.186  0.00  0.00     0.250 C 
ATOM      5  C1  D6W d   1      21.606  -2.437   2.058  0.00  0.00     0.001 C 
ATOM      6  C2  D6W d   1      22.991  -1.922   1.638  0.00  0.00    -0.018 C 
ATOM      7  C3  D6W d   1      23.275  -2.079   0.126  0.00  0.00     0.118 C 
ATOM      8  N6  D6W d   1      20.666  -1.707   1.212  0.00  0.00    -0.348 N 
ATOM      9  N7  D6W d   1      24.528  -1.366  -0.312  0.00  0.00    -0.346 N 
ATOM     10  N9  D6W d   1      24.956  -3.638  -0.579  0.00  0.00    -0.325 N 
ATOM     11  O11 D6W d   1      22.864  -4.505  -0.138  0.00  0.00    -0.270 OA
ATOM     12  C18 D6W d   1      19.748  -0.792   1.740  0.00  0.00     0.253 C 
ATOM     13  O19 D6W d   1      19.621  -0.673   2.963  0.00  0.00    -0.267 OA
ATOM     14  H1  D6W d   1      22.103  -0.525  -0.813  0.00  0.00     0.039 H 
ATOM     15  H2  D6W d   1      22.257  -2.031  -1.780  0.00  0.00     0.039 H 
ATOM     16  H3  D6W d   1      20.721  -3.213  -0.287  0.00  0.00     0.064 H 
ATOM     17  H4  D6W d   1      19.947  -1.671  -0.789  0.00  0.00     0.064 H 
ATOM     18  H5  D6W d   1      26.442  -2.257   0.119  0.00  0.00     0.097 H 
ATOM     19  H6  D6W d   1      26.055  -2.124  -1.630  0.00  0.00     0.097 H 
ATOM     20  H13 D6W d   1      21.418  -2.223   3.120  0.00  0.00     0.064 H 
ATOM     21  H14 D6W d   1      21.525  -3.520   1.883  0.00  0.00     0.064 H 
ATOM     22  H15 D6W d   1      23.755  -2.483   2.196  0.00  0.00     0.039 H 
ATOM     23  H16 D6W d   1      23.059  -0.855   1.896  0.00  0.00     0.039 H 
ENDROOT
BRANCH   9  24
ATOM     24  C12 D6W d   1      24.804   0.054  -0.277  0.00  0.00     0.032 A 
ATOM     25  C13 D6W d   1      25.986   0.554  -0.809  0.00  0.00    -0.057 A 
ATOM     26  C14 D6W d   1      26.231   1.926  -0.798  0.00  0.00    -0.081 A 
ATOM     27  H7  D6W d   1      26.718  -0.123  -1.233  0.00  0.00     0.086 H 
ATOM     28  C15 D6W d   1      25.308   2.811  -0.245  0.00  0.00    -0.083 A 
ATOM     29  H17 D6W d   1      27.151   2.309  -1.225  0.00  0.00     0.083 H 
ATOM     30  C16 D6W d   1      24.137   2.318   0.291  0.00  0.00    -0.081 A 
ATOM     31  H8  D6W d   1      25.508   3.876  -0.236  0.00  0.00     0.083 H 
ATOM     32  C17 D6W d   1      23.878   0.945   0.270  0.00  0.00    -0.057 A 
ATOM     33  H18 D6W d   1      23.415   2.998   0.730  0.00  0.00     0.083 H 
ATOM     34  H9  D6W d   1      22.949   0.568   0.682  0.00  0.00     0.086 H 
ENDBRANCH   9  24
BRANCH  10  35
ATOM     35  C29 D6W d   1      25.605  -4.866  -1.050  0.00  0.00     0.073 C 
ATOM     36  H21 D6W d   1      25.232  -5.723  -0.470  0.00  0.00     0.079 H 
ATOM     37  H22 D6W d   1      26.693  -4.779  -0.917  0.00  0.00     0.079 H 
BRANCH  35  38
ATOM     38  C30 D6W d   1      25.289  -5.079  -2.532  0.00  0.00     0.235 C 
ATOM     39  O31 D6W d   1      24.472  -4.410  -3.130  0.00  0.00    -0.272 OA
ATOM     40  N32 D6W d   1      25.955  -6.073  -3.174  0.00  0.00    -0.364 N 
ATOM     41  H23 D6W d   1      26.626  -6.645  -2.703  0.00  0.00     0.161 HD
BRANCH  40  42
ATOM     42  C33 D6W d   1      25.640  -6.264  -4.591  0.00  0.00    -0.018 C 
ATOM     43  H24 D6W d   1      26.242  -7.093  -4.992  0.00  0.00     0.056 H 
ATOM     44  H25 D6W d   1      25.870  -5.342  -5.145  0.00  0.00     0.056 H 
ATOM     45  H26 D6W d   1      24.571  -6.500  -4.700  0.00  0.00     0.056 H 
ENDBRANCH  40  42
ENDBRANCH  35  38
ENDBRANCH  10  35
BRANCH  12  46
ATOM     46  C20 D6W d   1      18.859  -0.005   0.874  0.00  0.00     0.033 A 
ATOM     47  C21 D6W d   1      19.363   0.744  -0.154  0.00  0.00    -0.054 A 
ATOM     48  C22 D6W d   1      18.462   1.491  -0.911  0.00  0.00     0.012 A 
ATOM     49  H10 D6W d   1      20.425   0.756  -0.372  0.00  0.00     0.086 H 
ATOM     50  C26 D6W d   1      18.609   2.335  -2.071  0.00  0.00     0.008 A 
ATOM     51  C23 D6W d   1      17.088   1.477  -0.604  0.00  0.00     0.088 A 
ATOM     52  N27 D6W d   1      17.404   2.798  -2.446  0.00  0.00    -0.288 N 
ATOM     53  H12 D6W d   1      19.551   2.562  -2.567  0.00  0.00     0.115 H 
ATOM     54  N28 D6W d   1      16.489   2.296  -1.568  0.00  0.00    -0.175 NA
ATOM     55  H20 D6W d   1      17.208   3.416  -3.246  0.00  0.00     0.188 HD
ATOM     56  C24 D6W d   1      16.557   0.719   0.468  0.00  0.00    -0.052 A 
ATOM     57  C25 D6W d   1      17.469  -0.031   1.197  0.00  0.00    -0.065 A 
ATOM     58  H11 D6W d   1      15.499   0.724   0.705  0.00  0.00     0.087 H 
ATOM     59  H19 D6W d   1      17.122  -0.644   2.021  0.00  0.00     0.085 H 
ENDBRANCH  12  46
TORSDOF 5
