REMARK  18 active torsions:
REMARK  status: ('A' for Active; 'I' for Inactive)
REMARK    1  A    between atoms: CAM_11  and  CAO_12 
REMARK    2  A    between atoms: CAO_12  and  CAP_13 
REMARK    3  A    between atoms: CAO_12  and  CAQ_14 
REMARK    4  A    between atoms: CAO_12  and  CAR_15 
REMARK    5  A    between atoms: CAP_13  and  CAS_16 
REMARK    6  A    between atoms: CAP_13  and  OAT_45 
REMARK    7  A    between atoms: CAR_15  and  OBX_52 
REMARK    8  A    between atoms: CAU_17  and  CAV_18 
REMARK    9  A    between atoms: CBK_30  and  CBM_31 
REMARK   10  A    between atoms: CBM_31  and  CBN_32 
REMARK   11  A    between atoms: CBM_31  and  CBO_33 
REMARK   12  A    between atoms: CBM_31  and  CBP_34 
REMARK   13  A    between atoms: CBN_32  and  CBR_35 
REMARK   14  A    between atoms: CBN_32  and  OBQ_49 
REMARK   15  A    between atoms: CBP_34  and  OCA_54 
REMARK   16  A    between atoms: CBS_36  and  CBT_37 
REMARK   17  A    between atoms: OBX_52  and  CBY_39 
REMARK   18  A    between atoms: OCA_54  and  CCB_40 
ROOT
ATOM      1  CAB DKN d   1      23.061 -28.255 -46.289  0.00  0.00     0.055 A 
ATOM      2  CAC DKN d   1      22.338 -28.794 -45.270  0.00  0.00     0.157 A 
ATOM      3  CAE DKN d   1      24.084 -28.005 -44.419  0.00  0.00     0.169 A 
ATOM      4  CAF DKN d   1      25.111 -27.589 -43.486  0.00  0.00    -0.032 C 
ATOM      5  CAG DKN d   1      25.969 -26.580 -43.746  0.00  0.00    -0.079 C 
ATOM      6  CAH DKN d   1      26.983 -26.165 -42.802  0.00  0.00    -0.083 C 
ATOM      7  CAI DKN d   1      27.839 -25.158 -43.079  0.00  0.00    -0.083 C 
ATOM      8  CAJ DKN d   1      28.863 -24.727 -42.137  0.00  0.00    -0.086 C 
ATOM      9  CAK DKN d   1      29.759 -23.735 -42.310  0.00  0.00    -0.101 C 
ATOM     10  CAL DKN d   1      29.940 -22.831 -43.511  0.00  0.00    -0.024 C 
ATOM     11  CAM DKN d   1      28.764 -21.928 -44.007  0.00  0.00     0.070 C 
ATOM     12  CAW DKN d   1      26.363 -22.496 -43.348  0.00  0.00     0.314 C 
ATOM     13  CAX DKN d   1      25.176 -23.126 -43.903  0.00  0.00     0.157 A 
ATOM     14  CBA DKN d   1      23.266 -24.000 -44.028  0.00  0.00     0.169 A 
ATOM     15  CBC DKN d   1      24.984 -23.472 -45.202  0.00  0.00     0.055 A 
ATOM     16  CBD DKN d   1      21.940 -24.527 -43.759  0.00  0.00    -0.032 C 
ATOM     17  CBE DKN d   1      21.309 -25.390 -44.591  0.00  0.00    -0.079 C 
ATOM     18  CBF DKN d   1      19.982 -25.921 -44.337  0.00  0.00    -0.083 C 
ATOM     19  CBG DKN d   1      19.391 -26.784 -45.192  0.00  0.00    -0.083 C 
ATOM     20  CBH DKN d   1      18.058 -27.344 -44.977  0.00  0.00    -0.086 C 
ATOM     21  CBI DKN d   1      17.416 -28.207 -45.792  0.00  0.00    -0.101 C 
ATOM     22  CBJ DKN d   1      17.922 -28.792 -47.099  0.00  0.00    -0.024 C 
ATOM     23  CBK DKN d   1      19.137 -29.778 -47.003  0.00  0.00     0.070 C 
ATOM     24  CBU DKN d   1      21.049 -29.455 -45.364  0.00  0.00     0.314 C 
ATOM     25  NAD DKN d   1      22.989 -28.624 -44.095  0.00  0.00    -0.216 NA
ATOM     26  NAZ DKN d   1      24.087 -23.466 -43.166  0.00  0.00    -0.216 NA
ATOM     27  OAA DKN d   1      24.210 -27.729 -45.770  0.00  0.00    -0.302 OA
ATOM     28  OAN DKN d   1      27.453 -22.508 -44.162  0.00  0.00    -0.309 OA
ATOM     29  OAY DKN d   1      26.405 -21.990 -42.226  0.00  0.00    -0.257 OA
ATOM     30  OBB DKN d   1      23.749 -24.038 -45.321  0.00  0.00    -0.302 OA
ATOM     31  OBL DKN d   1      20.348 -29.191 -46.496  0.00  0.00    -0.309 OA
ATOM     32  OBV DKN d   1      20.602 -30.208 -44.499  0.00  0.00    -0.257 OA
ATOM     33  H1  DKN d   1      22.773 -28.245 -47.339  0.00  0.00     0.127 H 
ATOM     34  H2  DKN d   1      25.194 -28.112 -42.535  0.00  0.00     0.090 H 
ATOM     35  H3  DKN d   1      25.895 -26.060 -44.700  0.00  0.00     0.083 H 
ATOM     36  H4  DKN d   1      27.058 -26.677 -41.844  0.00  0.00     0.083 H 
ATOM     37  H5  DKN d   1      27.761 -24.651 -44.039  0.00  0.00     0.083 H 
ATOM     38  H6  DKN d   1      28.910 -25.264 -41.191  0.00  0.00     0.083 H 
ATOM     39  H7  DKN d   1      30.441 -23.561 -41.479  0.00  0.00     0.076 H 
ATOM     40  H8  DKN d   1      30.217 -23.480 -44.355  0.00  0.00     0.042 H 
ATOM     41  H9  DKN d   1      30.777 -22.157 -43.276  0.00  0.00     0.042 H 
ATOM     42  H10 DKN d   1      28.619 -21.278 -43.131  0.00  0.00     0.086 H 
ATOM     43  H20 DKN d   1      25.696 -23.323 -46.012  0.00  0.00     0.127 H 
ATOM     44  H21 DKN d   1      21.430 -24.215 -42.849  0.00  0.00     0.090 H 
ATOM     45  H22 DKN d   1      21.824 -25.702 -45.498  0.00  0.00     0.083 H 
ATOM     46  H23 DKN d   1      19.451 -25.617 -43.437  0.00  0.00     0.083 H 
ATOM     47  H24 DKN d   1      19.936 -27.078 -46.088  0.00  0.00     0.083 H 
ATOM     48  H25 DKN d   1      17.533 -27.036 -44.074  0.00  0.00     0.083 H 
ATOM     49  H26 DKN d   1      16.422 -28.520 -45.477  0.00  0.00     0.076 H 
ATOM     50  H27 DKN d   1      18.222 -27.954 -47.745  0.00  0.00     0.042 H 
ATOM     51  H28 DKN d   1      17.088 -29.335 -47.567  0.00  0.00     0.042 H 
ATOM     52  H29 DKN d   1      18.814 -30.412 -46.164  0.00  0.00     0.086 H 
ENDROOT
BRANCH  11  53
ATOM     53  CAO DKN d   1      29.089 -20.891 -45.136  0.00  0.00     0.100 C 
BRANCH  53  54
ATOM     54  CAP DKN d   1      30.401 -20.104 -44.823  0.00  0.00     0.070 C 
ATOM     55  H11 DKN d   1      31.244 -20.801 -44.938  0.00  0.00     0.091 H 
BRANCH  54  56
ATOM     56  CAS DKN d   1      30.428 -19.573 -43.407  0.00  0.00    -0.079 C 
ATOM     57  CAU DKN d   1      31.523 -19.525 -42.648  0.00  0.00    -0.108 C 
ATOM     58  H16 DKN d   1      32.466 -19.882 -43.059  0.00  0.00     0.075 H 
ATOM     59  H15 DKN d   1      29.495 -19.207 -42.981  0.00  0.00     0.080 H 
BRANCH  57  60
ATOM     60  CAV DKN d   1      31.496 -18.994 -41.244  0.00  0.00    -0.060 C 
ATOM     61  H17 DKN d   1      32.506 -19.050 -40.811  0.00  0.00     0.032 H 
ATOM     62  H18 DKN d   1      30.804 -19.596 -40.638  0.00  0.00     0.032 H 
ATOM     63  H19 DKN d   1      31.159 -17.947 -41.254  0.00  0.00     0.032 H 
ENDBRANCH  57  60
ENDBRANCH  54  56
BRANCH  54  64
ATOM     64  OAT DKN d   1      30.582 -19.027 -45.750  0.00  0.00    -0.390 OA
ATOM     65  H45 DKN d   1      29.883 -18.394 -45.639  0.00  0.00     0.210 HD
ENDBRANCH  54  64
ENDBRANCH  53  54
BRANCH  53  66
ATOM     66  CAQ DKN d   1      29.323 -21.741 -46.414  0.00  0.00    -0.055 C 
ATOM     67  H12 DKN d   1      28.409 -22.304 -46.652  0.00  0.00     0.029 H 
ATOM     68  H13 DKN d   1      30.152 -22.443 -46.241  0.00  0.00     0.029 H 
ATOM     69  H14 DKN d   1      29.574 -21.078 -47.255  0.00  0.00     0.029 H 
ENDBRANCH  53  66
BRANCH  53  70
ATOM     70  CAR DKN d   1      27.995 -19.823 -45.238  0.00  0.00     0.272 C 
ATOM     71  OBW DKN d   1      27.086 -19.804 -44.417  0.00  0.00    -0.264 OA
BRANCH  70  72
ATOM     72  OBX DKN d   1      27.880 -18.823 -46.153  0.00  0.00    -0.326 OA
BRANCH  72  73
ATOM     73  CBY DKN d   1      27.316 -19.083 -47.433  0.00  0.00     0.013 C 
ATOM     74  H39 DKN d   1      27.309 -18.156 -48.026  0.00  0.00     0.067 H 
ATOM     75  H40 DKN d   1      26.286 -19.448 -47.312  0.00  0.00     0.067 H 
ATOM     76  H41 DKN d   1      27.917 -19.845 -47.951  0.00  0.00     0.067 H 
ENDBRANCH  72  73
ENDBRANCH  70  72
ENDBRANCH  53  70
ENDBRANCH  11  53
BRANCH  23  77
ATOM     77  CBM DKN d   1      19.414 -30.864 -48.106  0.00  0.00     0.100 C 
BRANCH  77  78
ATOM     78  CBN DKN d   1      20.437 -31.911 -47.519  0.00  0.00     0.070 C 
ATOM     79  H30 DKN d   1      20.788 -31.497 -46.562  0.00  0.00     0.091 H 
BRANCH  78  80
ATOM     80  CBR DKN d   1      21.676 -32.208 -48.344  0.00  0.00    -0.079 C 
ATOM     81  CBS DKN d   1      22.917 -32.114 -47.850  0.00  0.00    -0.108 C 
ATOM     82  H35 DKN d   1      23.044 -31.803 -46.814  0.00  0.00     0.075 H 
ATOM     83  H34 DKN d   1      21.550 -32.511 -49.383  0.00  0.00     0.080 H 
BRANCH  81  84
ATOM     84  CBT DKN d   1      24.140 -32.419 -48.665  0.00  0.00    -0.060 C 
ATOM     85  H36 DKN d   1      25.038 -32.272 -48.047  0.00  0.00     0.032 H 
ATOM     86  H37 DKN d   1      24.178 -31.746 -49.535  0.00  0.00     0.032 H 
ATOM     87  H38 DKN d   1      24.100 -33.463 -49.010  0.00  0.00     0.032 H 
ENDBRANCH  81  84
ENDBRANCH  78  80
BRANCH  78  88
ATOM     88  OBQ DKN d   1      19.766 -33.146 -47.249  0.00  0.00    -0.390 OA
ATOM     89  H46 DKN d   1      18.987 -32.976 -46.732  0.00  0.00     0.210 HD
ENDBRANCH  78  88
ENDBRANCH  77  78
BRANCH  77  90
ATOM     90  CBO DKN d   1      18.080 -31.626 -48.354  0.00  0.00    -0.055 C 
ATOM     91  H31 DKN d   1      17.332 -30.932 -48.766  0.00  0.00     0.029 H 
ATOM     92  H32 DKN d   1      17.712 -32.040 -47.404  0.00  0.00     0.029 H 
ATOM     93  H33 DKN d   1      18.253 -32.445 -49.068  0.00  0.00     0.029 H 
ENDBRANCH  77  90
BRANCH  77  94
ATOM     94  CBP DKN d   1      20.077 -30.196 -49.331  0.00  0.00     0.272 C 
ATOM     95  OBZ DKN d   1      21.186 -29.679 -49.230  0.00  0.00    -0.264 OA
BRANCH  94  96
ATOM     96  OCA DKN d   1      19.595 -30.064 -50.603  0.00  0.00    -0.326 OA
BRANCH  96  97
ATOM     97  CCB DKN d   1      18.294 -29.543 -50.878  0.00  0.00     0.013 C 
ATOM     98  H42 DKN d   1      18.126 -29.531 -51.965  0.00  0.00     0.067 H 
ATOM     99  H43 DKN d   1      18.218 -28.519 -50.484  0.00  0.00     0.067 H 
ATOM    100  H44 DKN d   1      17.535 -30.178 -50.397  0.00  0.00     0.067 H 
ENDBRANCH  96  97
ENDBRANCH  94  96
ENDBRANCH  77  94
ENDBRANCH  23  77
TORSDOF 18
