REMARK  32 active torsions:
REMARK  status: ('A' for Active; 'I' for Inactive)
REMARK    1  A    between atoms: N_1  and  CA_2 
REMARK    2  A    between atoms: CA_2  and  C_3 
REMARK    3  A    between atoms: CA_2  and  CB_5 
REMARK       I    between atoms: C_3  and  N_6 
REMARK    4  A    between atoms: N_6  and  CA_7 
REMARK    5  A    between atoms: CA_7  and  C_8 
REMARK    6  A    between atoms: CA_7  and  CB_10 
REMARK       I    between atoms: C_8  and  N_14 
REMARK    7  A    between atoms: CB_10  and  CG_11 
REMARK    8  A    between atoms: CG_11  and  CD_12 
REMARK    9  A    between atoms: CD_12  and  NE_13 
REMARK   10  A    between atoms: N_14  and  CA_15 
REMARK   11  A    between atoms: CA_15  and  C_16 
REMARK   12  A    between atoms: CA_15  and  CB_18 
REMARK       I    between atoms: C_16  and  N_21 
REMARK   13  A    between atoms: CB_18  and  OG1_19 
REMARK   14  A    between atoms: CB_18  and  CG2_20 
REMARK   15  A    between atoms: N_21  and  CA_22 
REMARK   16  A    between atoms: CA_22  and  C_23 
REMARK   17  A    between atoms: CA_22  and  CB_25 
REMARK       I    between atoms: C_23  and  N_26 
REMARK   18  A    between atoms: N_26  and  CA_27 
REMARK   19  A    between atoms: CA_27  and  C_28 
REMARK   20  A    between atoms: CA_27  and  CB_30 
REMARK       I    between atoms: C_28  and  N_31 
REMARK   21  A    between atoms: N_31  and  CA_32 
REMARK   22  A    between atoms: CA_32  and  C_33 
REMARK   23  A    between atoms: CA_32  and  CB_35 
REMARK       I    between atoms: C_33  and  N_38 
REMARK   24  A    between atoms: CB_35  and  OG1_36 
REMARK   25  A    between atoms: CB_35  and  CG2_37 
REMARK   26  A    between atoms: N_38  and  CA_39 
REMARK   27  A    between atoms: CA_39  and  C_40 
REMARK   28  A    between atoms: CA_39  and  CB_42 
REMARK       I    between atoms: C_40  and  N_43 
REMARK   29  A    between atoms: N_43  and  CA_44 
REMARK   30  A    between atoms: CA_44  and  C_45 
REMARK   31  A    between atoms: CA_44  and  CB_47 
REMARK   32  A    between atoms: CB_47  and  CG_48 
ROOT
ATOM      1  CA  ALA d   1      14.708  32.237  10.484  0.00  0.00     0.086 C 
ATOM      2  H27 ALA d   1      15.577  31.583  10.650  0.00  0.00     0.086 H 
ENDROOT
BRANCH   1   3
ATOM      3  N   ALA d   1      14.813  33.356  11.430  0.00  0.00    -0.346 N 
ATOM      4  C   THR d   1      15.919  34.085  11.544  0.00  0.00     0.243 C 
ATOM      5  O   THR d   1      16.953  33.854  10.914  0.00  0.00    -0.271 OA
ATOM      6  H26 ALA d   1      14.027  33.577  12.007  0.00  0.00     0.163 HD
BRANCH   4   7
ATOM      7  CA  THR d   1      15.844  35.257  12.510  0.00  0.00     0.113 C 
ATOM      8  H20 THR d   1      15.444  34.902  13.471  0.00  0.00     0.091 H 
BRANCH   7   9
ATOM      9  N   THR d   1      17.171  35.820  12.739  0.00  0.00    -0.344 N 
ATOM     10  C   ARG d   1      17.815  35.726  13.899  0.00  0.00     0.241 C 
ATOM     11  O   ARG d   1      17.365  35.142  14.892  0.00  0.00    -0.271 OA
ATOM     12  H19 THR d   1      17.619  36.301  11.985  0.00  0.00     0.163 HD
BRANCH  10  13
ATOM     13  CA  ARG d   1      19.183  36.400  13.930  0.00  0.00     0.089 C 
ATOM     14  H9  ARG d   1      19.070  37.418  13.528  0.00  0.00     0.087 H 
BRANCH  13  15
ATOM     15  N   ARG d   1      19.692  36.508  15.294  0.00  0.00    -0.346 N 
ATOM     16  C   ALA d   1      20.159  37.646  15.800  0.00  0.00     0.248 C 
ATOM     17  O   ALA d   1      20.214  38.704  15.167  0.00  0.00    -0.271 OA
ATOM     18  H8  ARG d   1      19.689  35.692  15.872  0.00  0.00     0.163 HD
BRANCH  16  19
ATOM     19  CA  ALA d   1      20.644  37.574  17.243  0.00  0.00     0.172 C 
ATOM     20  H4  ALA d   1      21.343  36.729  17.328  0.00  0.00     0.098 H 
BRANCH  19  21
ATOM     21  N   ALA d   1      21.371  38.819  17.638  0.00  0.00    -0.067 N 
ATOM     22  H1  ALA d   1      21.678  38.740  18.595  0.00  0.00     0.275 HD
ATOM     23  H2  ALA d   1      20.754  39.611  17.547  0.00  0.00     0.275 HD
ATOM     24  H3  ALA d   1      22.171  38.946  17.038  0.00  0.00     0.275 HD
ENDBRANCH  19  21
BRANCH  19  25
ATOM     25  CB  ALA d   1      19.471  37.322  18.180  0.00  0.00    -0.042 C 
ATOM     26  H5  ALA d   1      18.949  36.403  17.875  0.00  0.00     0.030 H 
ATOM     27  H6  ALA d   1      18.775  38.172  18.133  0.00  0.00     0.030 H 
ATOM     28  H7  ALA d   1      19.842  37.208  19.209  0.00  0.00     0.030 H 
ENDBRANCH  19  25
ENDBRANCH  16  19
ENDBRANCH  13  15
BRANCH  13  29
ATOM     29  CB  ARG d   1      20.178  35.643  13.041  0.00  0.00    -0.036 C 
ATOM     30  H10 ARG d   1      21.131  36.192  13.057  0.00  0.00     0.036 H 
ATOM     31  H11 ARG d   1      19.777  35.634  12.017  0.00  0.00     0.036 H 
BRANCH  29  32
ATOM     32  CG  ARG d   1      20.461  34.202  13.445  0.00  0.00    -0.041 C 
ATOM     33  H12 ARG d   1      19.511  33.651  13.506  0.00  0.00     0.035 H 
ATOM     34  H13 ARG d   1      20.953  34.193  14.428  0.00  0.00     0.035 H 
BRANCH  32  35
ATOM     35  CD  ARG d   1      21.366  33.525  12.428  0.00  0.00     0.080 C 
ATOM     36  H14 ARG d   1      22.364  33.985  12.480  0.00  0.00     0.075 H 
ATOM     37  H15 ARG d   1      20.945  33.675  11.423  0.00  0.00     0.075 H 
BRANCH  35  38
ATOM     38  NE  ARG d   1      21.494  32.093  12.676  0.00  0.00    -0.079 N 
ATOM     39  H16 ARG d   1      22.100  31.685  11.982  0.00  0.00     0.274 HD
ATOM     40  H17 ARG d   1      20.585  31.660  12.625  0.00  0.00     0.274 HD
ATOM     41  H18 ARG d   1      21.886  31.944  13.593  0.00  0.00     0.274 HD
ENDBRANCH  35  38
ENDBRANCH  32  35
ENDBRANCH  29  32
ENDBRANCH  13  29
ENDBRANCH  10  13
ENDBRANCH   7   9
BRANCH   7  42
ATOM     42  CB  THR d   1      14.889  36.320  11.934  0.00  0.00     0.060 C 
ATOM     43  H21 THR d   1      13.888  35.877  11.820  0.00  0.00     0.086 H 
BRANCH  42  44
ATOM     44  OG1 THR d   1      15.359  36.757  10.651  0.00  0.00    -0.393 OA
ATOM     45  H22 THR d   1      16.227  37.133  10.744  0.00  0.00     0.210 HD
ENDBRANCH  42  44
BRANCH  42  46
ATOM     46  CG2 THR d   1      14.801  37.509  12.871  0.00  0.00    -0.050 C 
ATOM     47  H23 THR d   1      14.117  38.259  12.448  0.00  0.00     0.031 H 
ATOM     48  H24 THR d   1      15.800  37.953  12.995  0.00  0.00     0.031 H 
ATOM     49  H25 THR d   1      14.422  37.178  13.849  0.00  0.00     0.031 H 
ENDBRANCH  42  46
ENDBRANCH   7  42
ENDBRANCH   4   7
ENDBRANCH   1   3
BRANCH   1  50
ATOM     50  C   ALA d   1      14.750  32.695   9.015  0.00  0.00     0.240 C 
ATOM     51  O   ALA d   1      15.131  31.917   8.140  0.00  0.00    -0.271 OA
ATOM     52  N   ALA d   1      14.356  33.945   8.756  0.00  0.00    -0.346 N 
ATOM     53  H31 ALA d   1      13.961  34.488   9.497  0.00  0.00     0.163 HD
BRANCH  52  54
ATOM     54  CA  ALA d   1      14.481  34.551   7.425  0.00  0.00     0.086 C 
ATOM     55  H32 ALA d   1      14.135  33.816   6.683  0.00  0.00     0.086 H 
BRANCH  54  56
ATOM     56  C   ALA d   1      15.934  34.907   7.101  0.00  0.00     0.240 C 
ATOM     57  O   ALA d   1      16.429  34.570   6.023  0.00  0.00    -0.271 OA
ATOM     58  N   THR d   1      16.604  35.590   8.031  0.00  0.00    -0.344 N 
ATOM     59  H36 THR d   1      16.135  35.840   8.878  0.00  0.00     0.163 HD
BRANCH  58  60
ATOM     60  CA  THR d   1      18.010  35.989   7.854  0.00  0.00     0.113 C 
ATOM     61  H37 THR d   1      18.082  36.479   6.872  0.00  0.00     0.091 H 
BRANCH  60  62
ATOM     62  C   THR d   1      18.991  34.808   7.854  0.00  0.00     0.243 C 
ATOM     63  O   THR d   1      20.082  34.921   7.295  0.00  0.00    -0.271 OA
ATOM     64  N   ALA d   1      18.609  33.692   8.481  0.00  0.00    -0.346 N 
ATOM     65  H43 ALA d   1      17.756  33.698   9.003  0.00  0.00     0.163 HD
BRANCH  64  66
ATOM     66  CA  ALA d   1      19.400  32.458   8.429  0.00  0.00     0.086 C 
ATOM     67  H44 ALA d   1      20.452  32.715   8.622  0.00  0.00     0.086 H 
BRANCH  66  68
ATOM     68  C   ALA d   1      19.310  31.811   7.044  0.00  0.00     0.240 C 
ATOM     69  O   ALA d   1      20.336  31.609   6.389  0.00  0.00    -0.271 OA
ATOM     70  N   ARG d   1      18.084  31.500   6.612  0.00  0.00    -0.345 N 
ATOM     71  H48 ARG d   1      17.306  31.688   7.212  0.00  0.00     0.163 HD
BRANCH  70  72
ATOM     72  CA  ARG d   1      17.823  30.893   5.295  0.00  0.00     0.096 C 
ATOM     73  H49 ARG d   1      18.785  30.570   4.871  0.00  0.00     0.089 H 
BRANCH  72  74
ATOM     74  C   ARG d   1      17.193  31.905   4.338  0.00  0.00     0.196 C 
ATOM     75  O   ARG d   1      17.824  32.891   3.956  0.00  0.00    -0.646 OA
ATOM     76  OXT ARG d   1      16.041  31.756   3.929  0.00  0.00    -0.646 OA
ENDBRANCH  72  74
BRANCH  72  77
ATOM     77  CB  ARG d   1      16.917  29.660   5.431  0.00  0.00    -0.040 C 
ATOM     78  H50 ARG d   1      17.300  29.046   6.259  0.00  0.00     0.036 H 
ATOM     79  H51 ARG d   1      16.976  29.089   4.493  0.00  0.00     0.036 H 
BRANCH  77  80
ATOM     80  CG  ARG d   1      15.450  29.963   5.707  0.00  0.00    -0.074 C 
ATOM     81  H52 ARG d   1      14.889  29.020   5.787  0.00  0.00     0.027 H 
ATOM     82  H53 ARG d   1      15.039  30.565   4.884  0.00  0.00     0.027 H 
ATOM     83  H54 ARG d   1      15.362  30.523   6.650  0.00  0.00     0.027 H 
ENDBRANCH  77  80
ENDBRANCH  72  77
ENDBRANCH  70  72
ENDBRANCH  66  68
BRANCH  66  84
ATOM     84  CB  ALA d   1      18.943  31.480   9.503  0.00  0.00    -0.049 C 
ATOM     85  H45 ALA d   1      19.549  30.563   9.446  0.00  0.00     0.030 H 
ATOM     86  H46 ALA d   1      17.884  31.230   9.345  0.00  0.00     0.030 H 
ATOM     87  H47 ALA d   1      19.067  31.940  10.495  0.00  0.00     0.030 H 
ENDBRANCH  66  84
ENDBRANCH  64  66
ENDBRANCH  60  62
BRANCH  60  88
ATOM     88  CB  THR d   1      18.461  37.006   8.924  0.00  0.00     0.060 C 
ATOM     89  H38 THR d   1      19.544  37.172   8.823  0.00  0.00     0.086 H 
BRANCH  88  90
ATOM     90  OG1 THR d   1      18.185  36.488  10.231  0.00  0.00    -0.393 OA
ATOM     91  H39 THR d   1      17.252  36.332  10.318  0.00  0.00     0.210 HD
ENDBRANCH  88  90
BRANCH  88  92
ATOM     92  CG2 THR d   1      17.738  38.333   8.744  0.00  0.00    -0.050 C 
ATOM     93  H40 THR d   1      18.074  39.041   9.516  0.00  0.00     0.031 H 
ATOM     94  H41 THR d   1      16.654  38.175   8.838  0.00  0.00     0.031 H 
ATOM     95  H42 THR d   1      17.964  38.742   7.748  0.00  0.00     0.031 H 
ENDBRANCH  88  92
ENDBRANCH  60  88
ENDBRANCH  58  60
ENDBRANCH  54  56
BRANCH  54  96
ATOM     96  CB  ALA d   1      13.603  35.790   7.317  0.00  0.00    -0.049 C 
ATOM     97  H33 ALA d   1      13.710  36.229   6.314  0.00  0.00     0.030 H 
ATOM     98  H34 ALA d   1      13.912  36.526   8.074  0.00  0.00     0.030 H 
ATOM     99  H35 ALA d   1      12.552  35.511   7.484  0.00  0.00     0.030 H 
ENDBRANCH  54  96
ENDBRANCH  52  54
ENDBRANCH   1  50
BRANCH   1 100
ATOM    100  CB  ALA d   1      13.451  31.419  10.757  0.00  0.00    -0.049 C 
ATOM    101  H28 ALA d   1      13.392  30.588  10.039  0.00  0.00     0.030 H 
ATOM    102  H29 ALA d   1      12.565  32.061  10.648  0.00  0.00     0.030 H 
ATOM    103  H30 ALA d   1      13.490  31.018  11.780  0.00  0.00     0.030 H 
ENDBRANCH   1 100
TORSDOF 32
