REMARK WARNING: 32 MAX_TORS EXCEEDED!!!
REMARK  86 active torsions:
REMARK  status: ('A' for Active; 'I' for Inactive)
REMARK    1  A    between atoms: N_1  and  CA_2 
REMARK    2  A    between atoms: CA_2  and  C_3 
REMARK    3  A    between atoms: CA_2  and  CB_5 
REMARK       I    between atoms: C_3  and  N_9 
REMARK    4  A    between atoms: CB_5  and  CG_6 
REMARK    5  A    between atoms: CG_6  and  SD_7 
REMARK    6  A    between atoms: SD_7  and  CE_8 
REMARK    7  A    between atoms: CA_10  and  C_11 
REMARK       I    between atoms: C_11  and  N_16 
REMARK    8  A    between atoms: N_16  and  CA_17 
REMARK    9  A    between atoms: CA_17  and  C_18 
REMARK   10  A    between atoms: CA_17  and  CB_20 
REMARK       I    between atoms: C_18  and  N_23 
REMARK   11  A    between atoms: CB_20  and  OG1_21 
REMARK   12  A    between atoms: CB_20  and  CG2_22 
REMARK   13  A    between atoms: N_23  and  CA_24 
REMARK   14  A    between atoms: CA_24  and  C_25 
REMARK   15  A    between atoms: CA_24  and  CB_27 
REMARK       I    between atoms: C_25  and  N_31 
REMARK   16  A    between atoms: CB_27  and  CG_28 
REMARK   17  A    between atoms: CG_28  and  CD1_29 
REMARK   18  A    between atoms: CG_28  and  CD2_30 
REMARK   19  A    between atoms: N_31  and  CA_32 
REMARK   20  A    between atoms: CA_32  and  C_33 
REMARK   21  A    between atoms: CA_32  and  CB_35 
REMARK       I    between atoms: C_33  and  N_39 
REMARK   22  A    between atoms: CB_35  and  CG_36 
REMARK   23  A    between atoms: N_39  and  CA_40 
REMARK   24  A    between atoms: CA_40  and  C_41 
REMARK   25  A    between atoms: CA_40  and  CB_43 
REMARK       I    between atoms: C_41  and  N_47 
REMARK   26  A    between atoms: CB_43  and  CG_44 
REMARK   27  A    between atoms: CG_44  and  SD_45 
REMARK   28  A    between atoms: SD_45  and  CE_46 
REMARK   29  A    between atoms: N_47  and  CA_48 
REMARK   30  A    between atoms: CA_48  and  C_49 
REMARK   31  A    between atoms: CA_48  and  CB_51 
REMARK       I    between atoms: C_49  and  N_52 
REMARK   32  A    between atoms: N_52  and  CA_53 
REMARK   33  A    between atoms: CA_53  and  C_54 
REMARK   34  A    between atoms: CA_53  and  CB_56 
REMARK       I    between atoms: C_54  and  N_60 
REMARK   35  A    between atoms: CB_56  and  CG_57 
REMARK   36  A    between atoms: CG_57  and  CD1_58 
REMARK   37  A    between atoms: CG_57  and  CD2_59 
REMARK   38  A    between atoms: N_60  and  CA_61 
REMARK   39  A    between atoms: CA_61  and  C_62 
REMARK   40  A    between atoms: CA_61  and  CB_64 
REMARK       I    between atoms: C_62  and  N_71 
REMARK   41  A    between atoms: CB_64  and  CG_65 
REMARK   42  A    between atoms: N_71  and  CA_72 
REMARK   43  A    between atoms: CA_72  and  C_73 
REMARK   44  A    between atoms: CA_72  and  CB_75 
REMARK       I    between atoms: C_73  and  N_79 
REMARK   45  A    between atoms: CB_75  and  CG_76 
REMARK   46  A    between atoms: N_79  and  CA_80 
REMARK   47  A    between atoms: CA_80  and  C_81 
REMARK   48  A    between atoms: CA_80  and  CB_83 
REMARK       I    between atoms: C_81  and  N_93 
REMARK   49  A    between atoms: CB_83  and  CG_84 
REMARK   50  A    between atoms: N_93  and  CA_94 
REMARK   51  A    between atoms: CA_94  and  C_95 
REMARK   52  A    between atoms: CA_94  and  CB_97 
REMARK       I    between atoms: C_95  and  N_100 
REMARK   53  A    between atoms: CB_97  and  OG1_98 
REMARK   54  A    between atoms: CB_97  and  CG2_99 
REMARK   55  A    between atoms: N_100  and  CA_101 
REMARK   56  A    between atoms: CA_101  and  C_102 
REMARK   57  A    between atoms: CA_101  and  CB_104 
REMARK       I    between atoms: C_102  and  N_108 
REMARK   58  A    between atoms: CB_104  and  CG_105 
REMARK   59  A    between atoms: N_108  and  CA_109 
REMARK   60  A    between atoms: CA_109  and  C_110 
REMARK   61  A    between atoms: CA_109  and  CB_112 
REMARK       I    between atoms: C_110  and  N_120 
REMARK   62  A    between atoms: CB_112  and  CG_113 
REMARK   63  A    between atoms: CZ_118  and  OH_119 
REMARK   64  A    between atoms: N_120  and  CA_121 
REMARK   65  A    between atoms: CA_121  and  C_122 
REMARK   66  A    between atoms: CA_121  and  CB_124 
REMARK       I    between atoms: C_122  and  N_129 
REMARK   67  A    between atoms: CB_124  and  CG_125 
REMARK   68  A    between atoms: CG_125  and  CD_126 
REMARK   69  A    between atoms: N_129  and  CA_130 
REMARK   70  A    between atoms: CA_130  and  C_131 
REMARK   71  A    between atoms: CA_130  and  CB_133 
REMARK       I    between atoms: C_131  and  N_137 
REMARK   72  A    between atoms: CB_133  and  CG_134 
REMARK   73  A    between atoms: N_137  and  CA_138 
REMARK   74  A    between atoms: CA_138  and  C_139 
REMARK   75  A    between atoms: CA_138  and  CB_141 
REMARK       I    between atoms: C_139  and  N_145 
REMARK   76  A    between atoms: CB_141  and  CG_142 
REMARK   77  A    between atoms: CG_142  and  CD1_143 
REMARK   78  A    between atoms: CG_142  and  CD2_144 
REMARK   79  A    between atoms: N_145  and  CA_146 
REMARK   80  A    between atoms: CA_146  and  C_147 
REMARK   81  A    between atoms: CA_146  and  CB_149 
REMARK       I    between atoms: C_147  and  N_154 
REMARK   82  A    between atoms: CB_149  and  CG_150 
REMARK   83  A    between atoms: CG_150  and  CD_151 
REMARK   84  A    between atoms: CD_151  and  CE_152 
REMARK   85  A    between atoms: CE_152  and  NZ_153 
REMARK   86  A    between atoms: CA_155  and  C_156 
ROOT
ATOM      1  C   ASP d   1     -78.195 -41.822 109.812  0.00  0.00     0.241 C 
ATOM      2  O   ASP d   1     -78.969 -42.370 109.027  0.00  0.00    -0.271 OA
ATOM      3  N   TRP d   1     -76.885 -41.713 109.578  0.00  0.00    -0.346 N 
ATOM      4  H79 TRP d   1     -76.305 -41.316 110.290  0.00  0.00     0.163 HD
ENDROOT
BRANCH   1   5
ATOM      5  CA  ASP d   1     -78.712 -41.212 111.138  0.00  0.00     0.098 C 
ATOM      6  H76 ASP d   1     -77.843 -40.929 111.750  0.00  0.00     0.088 H 
BRANCH   5   7
ATOM      7  N   ASP d   1     -79.502 -40.002 110.858  0.00  0.00    -0.345 N 
ATOM      8  C   PHE d   1     -78.964 -38.784 110.715  0.00  0.00     0.241 C 
ATOM      9  O   PHE d   1     -77.789 -38.512 110.970  0.00  0.00    -0.271 OA
ATOM     10  H75 ASP d   1     -80.494 -40.094 110.770  0.00  0.00     0.163 HD
BRANCH   8  11
ATOM     11  CA  PHE d   1     -79.896 -37.687 110.205  0.00  0.00     0.093 C 
ATOM     12  H67 PHE d   1     -80.937 -38.021 110.322  0.00  0.00     0.088 H 
BRANCH  11  13
ATOM     13  N   PHE d   1     -79.728 -36.441 110.962  0.00  0.00    -0.346 N 
ATOM     14  C   LEU d   1     -80.081 -36.362 112.243  0.00  0.00     0.241 C 
ATOM     15  O   LEU d   1     -80.525 -37.328 112.875  0.00  0.00    -0.271 OA
ATOM     16  H66 PHE d   1     -79.342 -35.638 110.508  0.00  0.00     0.163 HD
BRANCH  14  17
ATOM     17  CA  LEU d   1     -79.926 -35.004 112.936  0.00  0.00     0.089 C 
ATOM     18  H56 LEU d   1     -79.690 -35.208 113.991  0.00  0.00     0.087 H 
BRANCH  17  19
ATOM     19  N   LEU d   1     -78.832 -34.176 112.406  0.00  0.00    -0.346 N 
ATOM     20  C   ALA d   1     -77.547 -34.515 112.526  0.00  0.00     0.240 C 
ATOM     21  O   ALA d   1     -77.173 -35.569 113.042  0.00  0.00    -0.271 OA
ATOM     22  H55 LEU d   1     -79.061 -33.323 111.936  0.00  0.00     0.163 HD
BRANCH  20  23
ATOM     23  CA  ALA d   1     -76.513 -33.512 111.998  0.00  0.00     0.086 C 
ATOM     24  H51 ALA d   1     -75.631 -34.086 111.676  0.00  0.00     0.086 H 
BRANCH  23  25
ATOM     25  N   ALA d   1     -76.973 -32.727 110.850  0.00  0.00    -0.346 N 
ATOM     26  C   MET d   1     -77.287 -33.274 109.679  0.00  0.00     0.241 C 
ATOM     27  O   MET d   1     -77.163 -34.478 109.442  0.00  0.00    -0.271 OA
ATOM     28  H50 ALA d   1     -77.055 -31.735 110.951  0.00  0.00     0.163 HD
BRANCH  26  29
ATOM     29  CA  MET d   1     -77.831 -32.324 108.611  0.00  0.00     0.090 C 
ATOM     30  H42 MET d   1     -78.486 -32.920 107.959  0.00  0.00     0.087 H 
BRANCH  29  31
ATOM     31  N   MET d   1     -78.648 -31.216 109.140  0.00  0.00    -0.346 N 
ATOM     32  C   ASP d   1     -79.880 -31.411 109.613  0.00  0.00     0.241 C 
ATOM     33  O   ASP d   1     -80.426 -32.518 109.621  0.00  0.00    -0.271 OA
ATOM     34  H41 MET d   1     -78.267 -30.291 109.144  0.00  0.00     0.163 HD
BRANCH  32  35
ATOM     35  CA  ASP d   1     -80.623 -30.185 110.165  0.00  0.00     0.098 C 
ATOM     36  H38 ASP d   1     -79.946 -29.318 110.169  0.00  0.00     0.088 H 
BRANCH  35  37
ATOM     37  N   ASP d   1     -81.770 -29.922 109.322  0.00  0.00    -0.346 N 
ATOM     38  C   LEU d   1     -81.726 -29.229 108.192  0.00  0.00     0.241 C 
ATOM     39  O   LEU d   1     -80.710 -28.686 107.748  0.00  0.00    -0.271 OA
ATOM     40  H37 ASP d   1     -82.655 -30.287 109.611  0.00  0.00     0.163 HD
BRANCH  38  41
ATOM     41  CA  LEU d   1     -83.053 -29.180 107.440  0.00  0.00     0.089 C 
ATOM     42  H27 LEU d   1     -83.814 -29.649 108.081  0.00  0.00     0.087 H 
BRANCH  41  43
ATOM     43  N   LEU d   1     -83.521 -27.808 107.158  0.00  0.00    -0.346 N 
ATOM     44  C   THR d   1     -84.006 -27.006 108.110  0.00  0.00     0.243 C 
ATOM     45  O   THR d   1     -84.181 -27.388 109.263  0.00  0.00    -0.271 OA
ATOM     46  H26 LEU d   1     -83.473 -27.466 106.219  0.00  0.00     0.163 HD
BRANCH  44  47
ATOM     47  CA  THR d   1     -84.389 -25.559 107.704  0.00  0.00     0.113 C 
ATOM     48  H20 THR d   1     -85.068 -25.639 106.842  0.00  0.00     0.091 H 
BRANCH  47  49
ATOM     49  N   THR d   1     -85.119 -24.887 108.793  0.00  0.00    -0.344 N 
ATOM     50  C   PRO d   1     -86.386 -25.149 109.097  0.00  0.00     0.241 C 
ATOM     51  O   PRO d   1     -87.084 -25.959 108.485  0.00  0.00    -0.271 OA
ATOM     52  H19 THR d   1     -84.636 -24.197 109.332  0.00  0.00     0.163 HD
BRANCH  50  53
ATOM     53  CA  PRO d   1     -86.965 -24.351 110.261  0.00  0.00     0.091 C 
ATOM     54  N   PRO d   1     -87.947 -23.383 109.767  0.00  0.00    -0.337 N 
ATOM     55  C   MET d   1     -87.423 -22.270 109.168  0.00  0.00     0.251 C 
ATOM     56  CD  PRO d   1     -89.323 -23.915 109.903  0.00  0.00    -0.001 C 
ATOM     57  O   MET d   1     -86.205 -22.102 109.039  0.00  0.00    -0.271 OA
ATOM     58  CG  PRO d   1     -89.149 -25.242 110.593  0.00  0.00    -0.048 C 
ATOM     59  H17 PRO d   1     -89.787 -24.049 108.915  0.00  0.00     0.064 H 
ATOM     60  H18 PRO d   1     -89.943 -23.239 110.511  0.00  0.00     0.064 H 
ATOM     61  CB  PRO d   1     -87.786 -25.243 111.191  0.00  0.00    -0.036 C 
ATOM     62  H15 PRO d   1     -89.908 -25.361 111.380  0.00  0.00     0.035 H 
ATOM     63  H16 PRO d   1     -89.244 -26.062 109.866  0.00  0.00     0.035 H 
ATOM     64  H13 PRO d   1     -87.807 -24.829 112.210  0.00  0.00     0.036 H 
ATOM     65  H14 PRO d   1     -87.373 -26.262 111.218  0.00  0.00     0.036 H 
ATOM     66  H12 PRO d   1     -86.153 -23.852 110.809  0.00  0.00     0.087 H 
BRANCH  55  67
ATOM     67  CA  MET d   1     -88.372 -21.191 108.594  0.00  0.00     0.176 C 
ATOM     68  H4  MET d   1     -87.810 -20.245 108.593  0.00  0.00     0.099 H 
BRANCH  67  69
ATOM     69  N   MET d   1     -88.730 -21.493 107.171  0.00  0.00    -0.066 N 
ATOM     70  H1  MET d   1     -89.347 -20.777 106.821  0.00  0.00     0.275 HD
ATOM     71  H2  MET d   1     -89.192 -22.388 107.123  0.00  0.00     0.275 HD
ATOM     72  H3  MET d   1     -87.892 -21.517 106.612  0.00  0.00     0.275 HD
ENDBRANCH  67  69
BRANCH  67  73
ATOM     73  CB  MET d   1     -89.629 -20.955 109.450  0.00  0.00    -0.022 C 
ATOM     74  H5  MET d   1     -89.347 -21.072 110.507  0.00  0.00     0.037 H 
ATOM     75  H6  MET d   1     -90.372 -21.721 109.182  0.00  0.00     0.037 H 
BRANCH  73  76
ATOM     76  CG  MET d   1     -90.279 -19.592 109.285  0.00  0.00    -0.021 C 
ATOM     77  H7  MET d   1     -90.253 -19.308 108.223  0.00  0.00     0.049 H 
ATOM     78  H8  MET d   1     -89.719 -18.853 109.876  0.00  0.00     0.049 H 
BRANCH  76  79
ATOM     79  SD  MET d   1     -91.998 -19.618 109.847  0.00  0.00    -0.173 SA
BRANCH  79  80
ATOM     80  CE  MET d   1     -91.858 -20.180 111.544  0.00  0.00    -0.035 C 
ATOM     81  H9  MET d   1     -92.859 -20.235 111.996  0.00  0.00     0.041 H 
ATOM     82  H10 MET d   1     -91.237 -19.473 112.114  0.00  0.00     0.041 H 
ATOM     83  H11 MET d   1     -91.392 -21.176 111.563  0.00  0.00     0.041 H 
ENDBRANCH  79  80
ENDBRANCH  76  79
ENDBRANCH  73  76
ENDBRANCH  67  73
ENDBRANCH  55  67
ENDBRANCH  50  53
ENDBRANCH  47  49
BRANCH  47  84
ATOM     84  CB  THR d   1     -83.179 -24.666 107.256  0.00  0.00     0.060 C 
ATOM     85  H21 THR d   1     -83.020 -23.911 108.040  0.00  0.00     0.086 H 
BRANCH  84  86
ATOM     86  OG1 THR d   1     -83.508 -23.996 106.037  0.00  0.00    -0.393 OA
ATOM     87  H22 THR d   1     -83.694 -24.640 105.364  0.00  0.00     0.210 HD
ENDBRANCH  84  86
BRANCH  84  88
ATOM     88  CG2 THR d   1     -81.846 -25.422 107.060  0.00  0.00    -0.050 C 
ATOM     89  H23 THR d   1     -81.065 -24.713 106.748  0.00  0.00     0.031 H 
ATOM     90  H24 THR d   1     -81.972 -26.193 106.285  0.00  0.00     0.031 H 
ATOM     91  H25 THR d   1     -81.552 -25.898 108.007  0.00  0.00     0.031 H 
ENDBRANCH  84  88
ENDBRANCH  47  84
ENDBRANCH  44  47
ENDBRANCH  41  43
BRANCH  41  92
ATOM     92  CB  LEU d   1     -82.926 -30.030 106.167  0.00  0.00    -0.035 C 
ATOM     93  H28 LEU d   1     -82.190 -30.823 106.366  0.00  0.00     0.037 H 
ATOM     94  H29 LEU d   1     -82.554 -29.377 105.364  0.00  0.00     0.037 H 
BRANCH  92  95
ATOM     95  CG  LEU d   1     -84.209 -30.701 105.665  0.00  0.00    -0.059 C 
ATOM     96  H30 LEU d   1     -84.718 -31.171 106.519  0.00  0.00     0.038 H 
BRANCH  95  97
ATOM     97  CD1 LEU d   1     -85.124 -29.671 105.053  0.00  0.00    -0.073 C 
ATOM     98  H31 LEU d   1     -86.041 -30.162 104.696  0.00  0.00     0.028 H 
ATOM     99  H32 LEU d   1     -84.615 -29.185 104.207  0.00  0.00     0.028 H 
ATOM    100  H33 LEU d   1     -85.383 -28.915 105.809  0.00  0.00     0.028 H 
ENDBRANCH  95  97
BRANCH  95 101
ATOM    101  CD2 LEU d   1     -83.900 -31.764 104.635  0.00  0.00    -0.073 C 
ATOM    102  H34 LEU d   1     -83.232 -32.519 105.076  0.00  0.00     0.028 H 
ATOM    103  H35 LEU d   1     -83.408 -31.301 103.767  0.00  0.00     0.028 H 
ATOM    104  H36 LEU d   1     -84.835 -32.245 104.313  0.00  0.00     0.028 H 
ENDBRANCH  95 101
ENDBRANCH  92  95
ENDBRANCH  41  92
ENDBRANCH  38  41
ENDBRANCH  35  37
BRANCH  35 105
ATOM    105  CB  ASP d   1     -81.149 -30.441 111.592  0.00  0.00     0.043 C 
ATOM    106  H39 ASP d   1     -81.764 -31.353 111.576  0.00  0.00     0.052 H 
ATOM    107  H40 ASP d   1     -81.771 -29.584 111.891  0.00  0.00     0.052 H 
BRANCH 105 108
ATOM    108  CG  ASP d   1     -80.046 -30.623 112.636  0.00  0.00     0.175 C 
ATOM    109  OD1 ASP d   1     -78.836 -30.478 112.333  0.00  0.00    -0.648 OA
ATOM    110  OD2 ASP d   1     -80.419 -30.917 113.790  0.00  0.00    -0.648 OA
ENDBRANCH 105 108
ENDBRANCH  35 105
ENDBRANCH  32  35
ENDBRANCH  29  31
BRANCH  29 111
ATOM    111  CB  MET d   1     -76.694 -31.779 107.751  0.00  0.00    -0.030 C 
ATOM    112  H43 MET d   1     -76.090 -32.625 107.390  0.00  0.00     0.037 H 
ATOM    113  H44 MET d   1     -76.069 -31.121 108.372  0.00  0.00     0.037 H 
BRANCH 111 114
ATOM    114  CG  MET d   1     -77.190 -30.985 106.546  0.00  0.00    -0.021 C 
ATOM    115  H45 MET d   1     -76.316 -30.718 105.933  0.00  0.00     0.049 H 
ATOM    116  H46 MET d   1     -77.670 -30.068 106.919  0.00  0.00     0.049 H 
BRANCH 114 117
ATOM    117  SD  MET d   1     -78.381 -31.846 105.477  0.00  0.00    -0.173 SA
BRANCH 117 118
ATOM    118  CE  MET d   1     -77.323 -33.007 104.621  0.00  0.00    -0.035 C 
ATOM    119  H47 MET d   1     -77.926 -33.608 103.925  0.00  0.00     0.041 H 
ATOM    120  H48 MET d   1     -76.838 -33.670 105.353  0.00  0.00     0.041 H 
ATOM    121  H49 MET d   1     -76.554 -32.457 104.059  0.00  0.00     0.041 H 
ENDBRANCH 117 118
ENDBRANCH 114 117
ENDBRANCH 111 114
ENDBRANCH  29 111
ENDBRANCH  26  29
ENDBRANCH  23  25
BRANCH  23 122
ATOM    122  CB  ALA d   1     -76.093 -32.571 113.112  0.00  0.00    -0.049 C 
ATOM    123  H52 ALA d   1     -75.747 -33.157 113.976  0.00  0.00     0.030 H 
ATOM    124  H53 ALA d   1     -76.951 -31.950 113.410  0.00  0.00     0.030 H 
ATOM    125  H54 ALA d   1     -75.277 -31.924 112.757  0.00  0.00     0.030 H 
ENDBRANCH  23 122
ENDBRANCH  20  23
ENDBRANCH  17  19
BRANCH  17 126
ATOM    126  CB  LEU d   1     -81.262 -34.229 112.896  0.00  0.00    -0.035 C 
ATOM    127  H57 LEU d   1     -81.533 -34.107 111.837  0.00  0.00     0.037 H 
ATOM    128  H58 LEU d   1     -81.076 -33.241 113.344  0.00  0.00     0.037 H 
BRANCH 126 129
ATOM    129  CG  LEU d   1     -82.495 -34.830 113.615  0.00  0.00    -0.059 C 
ATOM    130  H59 LEU d   1     -82.114 -35.454 114.437  0.00  0.00     0.038 H 
BRANCH 129 131
ATOM    131  CD1 LEU d   1     -83.402 -33.760 114.236  0.00  0.00    -0.073 C 
ATOM    132  H60 LEU d   1     -84.257 -34.245 114.730  0.00  0.00     0.028 H 
ATOM    133  H61 LEU d   1     -83.769 -33.087 113.447  0.00  0.00     0.028 H 
ATOM    134  H62 LEU d   1     -82.831 -33.180 114.976  0.00  0.00     0.028 H 
ENDBRANCH 129 131
BRANCH 129 135
ATOM    135  CD2 LEU d   1     -83.313 -35.733 112.694  0.00  0.00    -0.073 C 
ATOM    136  H63 LEU d   1     -82.657 -36.497 112.252  0.00  0.00     0.028 H 
ATOM    137  H64 LEU d   1     -83.763 -35.129 111.892  0.00  0.00     0.028 H 
ATOM    138  H65 LEU d   1     -84.109 -36.224 113.274  0.00  0.00     0.028 H 
ENDBRANCH 129 135
ENDBRANCH 126 129
ENDBRANCH  17 126
ENDBRANCH  14  17
ENDBRANCH  11  13
BRANCH  11 139
ATOM    139  CB  PHE d   1     -79.605 -37.484 108.715  0.00  0.00    -0.014 C 
ATOM    140  H68 PHE d   1     -79.602 -38.471 108.229  0.00  0.00     0.043 H 
ATOM    141  H69 PHE d   1     -78.610 -37.025 108.619  0.00  0.00     0.043 H 
BRANCH 139 142
ATOM    142  CG  PHE d   1     -80.596 -36.610 107.996  0.00  0.00    -0.056 A 
ATOM    143  CD1 PHE d   1     -81.961 -36.879 108.032  0.00  0.00    -0.077 A 
ATOM    144  CE1 PHE d   1     -82.867 -36.069 107.347  0.00  0.00    -0.082 A 
ATOM    145  H70 PHE d   1     -82.325 -37.728 108.599  0.00  0.00     0.084 H 
ATOM    146  CZ  PHE d   1     -82.413 -34.992 106.608  0.00  0.00    -0.083 A 
ATOM    147  H72 PHE d   1     -83.928 -36.284 107.394  0.00  0.00     0.083 H 
ATOM    148  CE2 PHE d   1     -81.055 -34.726 106.551  0.00  0.00    -0.082 A 
ATOM    149  H74 PHE d   1     -83.115 -34.360 106.077  0.00  0.00     0.083 H 
ATOM    150  CD2 PHE d   1     -80.156 -35.535 107.233  0.00  0.00    -0.077 A 
ATOM    151  H73 PHE d   1     -80.693 -33.884 105.972  0.00  0.00     0.083 H 
ATOM    152  H71 PHE d   1     -79.094 -35.325 107.169  0.00  0.00     0.084 H 
ENDBRANCH 139 142
ENDBRANCH  11 139
ENDBRANCH   8  11
ENDBRANCH   5   7
BRANCH   5 153
ATOM    153  CB  ASP d   1     -79.555 -42.227 111.938  0.00  0.00     0.043 C 
ATOM    154  H77 ASP d   1     -80.316 -42.654 111.268  0.00  0.00     0.052 H 
ATOM    155  H78 ASP d   1     -80.050 -41.695 112.764  0.00  0.00     0.052 H 
BRANCH 153 156
ATOM    156  CG  ASP d   1     -78.721 -43.383 112.531  0.00  0.00     0.175 C 
ATOM    157  OD1 ASP d   1     -77.465 -43.337 112.541  0.00  0.00    -0.648 OA
ATOM    158  OD2 ASP d   1     -79.351 -44.357 113.002  0.00  0.00    -0.648 OA
ENDBRANCH 153 156
ENDBRANCH   5 153
ENDBRANCH   1   5
BRANCH   3 159
ATOM    159  CA  TRP d   1     -76.253 -42.149 108.322  0.00  0.00     0.093 C 
ATOM    160  H80 TRP d   1     -77.045 -42.212 107.561  0.00  0.00     0.088 H 
BRANCH 159 161
ATOM    161  C   TRP d   1     -75.549 -43.509 108.386  0.00  0.00     0.241 C 
ATOM    162  O   TRP d   1     -74.881 -43.882 107.423  0.00  0.00    -0.271 OA
ATOM    163  N   THR d   1     -75.684 -44.247 109.490  0.00  0.00    -0.344 N 
ATOM    164  H89 THR d   1     -76.284 -43.923 110.222  0.00  0.00     0.163 HD
BRANCH 163 165
ATOM    165  CA  THR d   1     -74.967 -45.535 109.660  0.00  0.00     0.113 C 
ATOM    166  H90 THR d   1     -73.891 -45.315 109.604  0.00  0.00     0.091 H 
BRANCH 165 167
ATOM    167  C   THR d   1     -75.299 -46.526 108.525  0.00  0.00     0.243 C 
ATOM    168  O   THR d   1     -74.433 -47.275 108.074  0.00  0.00    -0.271 OA
ATOM    169  N   ASP d   1     -76.559 -46.517 108.092  0.00  0.00    -0.345 N 
ATOM    170  H96 ASP d   1     -77.259 -46.109 108.678  0.00  0.00     0.163 HD
BRANCH 169 171
ATOM    171  CA  ASP d   1     -76.976 -47.077 106.794  0.00  0.00     0.098 C 
ATOM    172  H97 ASP d   1     -76.257 -47.839 106.460  0.00  0.00     0.088 H 
BRANCH 171 173
ATOM    173  C   ASP d   1     -77.013 -45.917 105.816  0.00  0.00     0.241 C 
ATOM    174  O   ASP d   1     -77.385 -44.814 106.205  0.00  0.00    -0.271 OA
ATOM    175  N   TYR d   1     -76.661 -46.163 104.558  0.00  0.00    -0.346 N 
ATOM    176 0H10 TYR d   1     -76.537 -47.113 104.270  0.00  0.00     0.163 HD
BRANCH 175 177
ATOM    177  CA  TYR d   1     -76.446 -45.085 103.567  0.00  0.00     0.093 C 
ATOM    178 1H10 TYR d   1     -76.284 -45.556 102.586  0.00  0.00     0.088 H 
BRANCH 177 179
ATOM    179  C   TYR d   1     -75.193 -44.269 103.922  0.00  0.00     0.241 C 
ATOM    180  O   TYR d   1     -75.212 -43.034 103.930  0.00  0.00    -0.271 OA
ATOM    181  N   GLU d   1     -74.104 -44.998 104.175  0.00  0.00    -0.346 N 
ATOM    182 9H10 GLU d   1     -74.156 -45.981 104.002  0.00  0.00     0.163 HD
BRANCH 181 183
ATOM    183  CA  GLU d   1     -72.821 -44.460 104.694  0.00  0.00     0.090 C 
ATOM    184 0H11 GLU d   1     -73.012 -43.995 105.673  0.00  0.00     0.087 H 
BRANCH 183 185
ATOM    185  C   GLU d   1     -72.225 -43.397 103.754  0.00  0.00     0.241 C 
ATOM    186  O   GLU d   1     -71.691 -42.372 104.200  0.00  0.00    -0.271 OA
ATOM    187  N   ASP d   1     -72.351 -43.675 102.455  0.00  0.00    -0.346 N 
ATOM    188 5H11 ASP d   1     -72.894 -44.476 102.203  0.00  0.00     0.163 HD
BRANCH 187 189
ATOM    189  CA  ASP d   1     -71.749 -42.890 101.367  0.00  0.00     0.098 C 
ATOM    190 6H11 ASP d   1     -70.726 -42.655 101.695  0.00  0.00     0.088 H 
BRANCH 189 191
ATOM    191  C   ASP d   1     -72.402 -41.530 101.005  0.00  0.00     0.241 C 
ATOM    192  O   ASP d   1     -71.713 -40.661 100.477  0.00  0.00    -0.271 OA
ATOM    193  N   LEU d   1     -73.700 -41.343 101.257  0.00  0.00    -0.346 N 
ATOM    194 9H11 LEU d   1     -74.225 -42.078 101.685  0.00  0.00     0.163 HD
BRANCH 193 195
ATOM    195  CA  LEU d   1     -74.383 -40.066 100.916  0.00  0.00     0.089 C 
ATOM    196 0H12 LEU d   1     -74.072 -39.810  99.892  0.00  0.00     0.087 H 
BRANCH 195 197
ATOM    197  C   LEU d   1     -74.032 -38.866 101.809  0.00  0.00     0.241 C 
ATOM    198  O   LEU d   1     -74.265 -37.728 101.398  0.00  0.00    -0.271 OA
ATOM    199  N   LYS d   1     -73.509 -39.118 103.017  0.00  0.00    -0.346 N 
ATOM    200 0H13 LYS d   1     -73.329 -40.070 103.265  0.00  0.00     0.163 HD
BRANCH 199 201
ATOM    201  CA  LYS d   1     -73.182 -38.063 104.007  0.00  0.00     0.089 C 
ATOM    202 1H13 LYS d   1     -74.126 -37.676 104.419  0.00  0.00     0.087 H 
BRANCH 201 203
ATOM    203  C   LYS d   1     -72.421 -36.886 103.357  0.00  0.00     0.243 C 
ATOM    204  O   LYS d   1     -71.377 -37.110 102.743  0.00  0.00    -0.271 OA
ATOM    205  N   PRO d   1     -72.939 -35.638 103.478  0.00  0.00    -0.336 N 
ATOM    206  CA  PRO d   1     -72.307 -34.514 102.771  0.00  0.00     0.098 C 
ATOM    207  CD  PRO d   1     -74.115 -35.173 104.245  0.00  0.00    -0.001 C 
ATOM    208  CB  PRO d   1     -73.373 -33.422 102.875  0.00  0.00    -0.035 C 
ATOM    209 3H14 PRO d   1     -72.120 -34.787 101.722  0.00  0.00     0.089 H 
ATOM    210  CG  PRO d   1     -73.973 -33.676 104.208  0.00  0.00    -0.048 C 
ATOM    211 4H14 PRO d   1     -74.123 -33.523 102.077  0.00  0.00     0.036 H 
ATOM    212 5H14 PRO d   1     -72.921 -32.420 102.828  0.00  0.00     0.036 H 
ATOM    213 6H14 PRO d   1     -74.953 -33.185 104.299  0.00  0.00     0.035 H 
ATOM    214 7H14 PRO d   1     -73.310 -33.323 105.012  0.00  0.00     0.035 H 
ATOM    215 8H14 PRO d   1     -74.086 -35.547 105.279  0.00  0.00     0.064 H 
ATOM    216 9H14 PRO d   1     -75.052 -35.493 103.765  0.00  0.00     0.064 H 
BRANCH 206 217
ATOM    217  C   PRO d   1     -70.990 -34.012 103.391  0.00  0.00     0.196 C 
ATOM    218  O   PRO d   1     -70.228 -34.779 103.978  0.00  0.00    -0.646 OA
ATOM    219  OXT PRO d   1     -70.661 -32.829 103.318  0.00  0.00    -0.646 OA
ENDBRANCH 206 217
ENDBRANCH 201 203
BRANCH 201 220
ATOM    220  CB  LYS d   1     -72.350 -38.653 105.162  0.00  0.00    -0.038 C 
ATOM    221 2H13 LYS d   1     -71.323 -38.805 104.799  0.00  0.00     0.036 H 
ATOM    222 3H13 LYS d   1     -72.789 -39.623 105.437  0.00  0.00     0.036 H 
BRANCH 220 223
ATOM    223  CG  LYS d   1     -72.284 -37.786 106.425  0.00  0.00    -0.061 C 
ATOM    224 4H13 LYS d   1     -73.172 -37.992 107.041  0.00  0.00     0.033 H 
ATOM    225 5H13 LYS d   1     -72.282 -36.727 106.126  0.00  0.00     0.033 H 
BRANCH 223 226
ATOM    226  CD  LYS d   1     -71.040 -38.060 107.257  0.00  0.00    -0.043 C 
ATOM    227 6H13 LYS d   1     -71.052 -37.406 108.141  0.00  0.00     0.035 H 
ATOM    228 7H13 LYS d   1     -70.150 -37.839 106.650  0.00  0.00     0.035 H 
BRANCH 226 229
ATOM    229  CE  LYS d   1     -70.975 -39.507 107.716  0.00  0.00     0.080 C 
ATOM    230 8H13 LYS d   1     -70.931 -40.160 106.832  0.00  0.00     0.075 H 
ATOM    231 9H13 LYS d   1     -71.879 -39.738 108.299  0.00  0.00     0.075 H 
BRANCH 229 232
ATOM    232  NZ  LYS d   1     -69.779 -39.758 108.561  0.00  0.00    -0.079 N 
ATOM    233 0H14 LYS d   1     -69.767 -40.724 108.847  0.00  0.00     0.274 HD
ATOM    234 1H14 LYS d   1     -69.814 -39.166 109.376  0.00  0.00     0.274 HD
ATOM    235 2H14 LYS d   1     -68.945 -39.554 108.033  0.00  0.00     0.274 HD
ENDBRANCH 229 232
ENDBRANCH 226 229
ENDBRANCH 223 226
ENDBRANCH 220 223
ENDBRANCH 201 220
ENDBRANCH 199 201
ENDBRANCH 195 197
BRANCH 195 236
ATOM    236  CB  LEU d   1     -75.911 -40.228 100.920  0.00  0.00    -0.035 C 
ATOM    237 1H12 LEU d   1     -76.335 -39.230 101.106  0.00  0.00     0.037 H 
ATOM    238 2H12 LEU d   1     -76.157 -40.893 101.761  0.00  0.00     0.037 H 
BRANCH 236 239
ATOM    239  CG  LEU d   1     -76.627 -40.788  99.694  0.00  0.00    -0.059 C 
ATOM    240 3H12 LEU d   1     -76.376 -40.161  98.826  0.00  0.00     0.038 H 
BRANCH 239 241
ATOM    241  CD1 LEU d   1     -76.164 -42.207  99.414  0.00  0.00    -0.073 C 
ATOM    242 4H12 LEU d   1     -76.689 -42.596  98.529  0.00  0.00     0.028 H 
ATOM    243 5H12 LEU d   1     -76.388 -42.844 100.282  0.00  0.00     0.028 H 
ATOM    244 6H12 LEU d   1     -75.080 -42.209  99.228  0.00  0.00     0.028 H 
ENDBRANCH 239 241
BRANCH 239 245
ATOM    245  CD2 LEU d   1     -78.137 -40.752  99.896  0.00  0.00    -0.073 C 
ATOM    246 7H12 LEU d   1     -78.455 -39.718 100.097  0.00  0.00     0.028 H 
ATOM    247 8H12 LEU d   1     -78.408 -41.392 100.749  0.00  0.00     0.028 H 
ATOM    248 9H12 LEU d   1     -78.637 -41.119  98.988  0.00  0.00     0.028 H 
ENDBRANCH 239 245
ENDBRANCH 236 239
ENDBRANCH 195 236
ENDBRANCH 193 195
ENDBRANCH 189 191
BRANCH 189 249
ATOM    249  CB  ASP d   1     -71.643 -43.762 100.100  0.00  0.00     0.043 C 
ATOM    250 7H11 ASP d   1     -70.984 -44.616 100.316  0.00  0.00     0.052 H 
ATOM    251 8H11 ASP d   1     -71.205 -43.156  99.293  0.00  0.00     0.052 H 
BRANCH 249 252
ATOM    252  CG  ASP d   1     -72.994 -44.297  99.628  0.00  0.00     0.175 C 
ATOM    253  OD1 ASP d   1     -73.943 -44.375 100.447  0.00  0.00    -0.648 OA
ATOM    254  OD2 ASP d   1     -73.100 -44.650  98.435  0.00  0.00    -0.648 OA
ENDBRANCH 249 252
ENDBRANCH 189 249
ENDBRANCH 187 189
ENDBRANCH 183 185
BRANCH 183 255
ATOM    255  CB  GLU d   1     -71.790 -45.604 104.874  0.00  0.00    -0.029 C 
ATOM    256 1H11 GLU d   1     -70.888 -45.170 105.330  0.00  0.00     0.037 H 
ATOM    257 2H11 GLU d   1     -71.546 -45.992 103.874  0.00  0.00     0.037 H 
BRANCH 255 258
ATOM    258  CG  GLU d   1     -72.224 -46.799 105.745  0.00  0.00     0.018 C 
ATOM    259 3H11 GLU d   1     -73.323 -46.828 105.769  0.00  0.00     0.049 H 
ATOM    260 4H11 GLU d   1     -71.838 -46.643 106.763  0.00  0.00     0.049 H 
BRANCH 258 261
ATOM    261  CD  GLU d   1     -71.717 -48.155 105.240  0.00  0.00     0.172 C 
ATOM    262  OE1 GLU d   1     -72.546 -48.978 104.792  0.00  0.00    -0.648 OA
ATOM    263  OE2 GLU d   1     -70.494 -48.407 105.295  0.00  0.00    -0.648 OA
ENDBRANCH 258 261
ENDBRANCH 255 258
ENDBRANCH 183 255
ENDBRANCH 181 183
ENDBRANCH 177 179
BRANCH 177 264
ATOM    264  CB  TYR d   1     -77.663 -44.162 103.452  0.00  0.00    -0.014 C 
ATOM    265 2H10 TYR d   1     -77.607 -43.637 102.487  0.00  0.00     0.043 H 
ATOM    266 3H10 TYR d   1     -77.618 -43.429 104.271  0.00  0.00     0.043 H 
BRANCH 264 267
ATOM    267  CG  TYR d   1     -78.985 -44.868 103.526  0.00  0.00    -0.056 A 
ATOM    268  CD1 TYR d   1     -79.170 -46.096 102.909  0.00  0.00    -0.074 A 
ATOM    269  CE1 TYR d   1     -80.393 -46.742 102.955  0.00  0.00    -0.051 A 
ATOM    270 4H10 TYR d   1     -78.343 -46.558 102.382  0.00  0.00     0.084 H 
ATOM    271  CZ  TYR d   1     -81.453 -46.158 103.627  0.00  0.00     0.065 A 
ATOM    272 6H10 TYR d   1     -80.520 -47.701 102.467  0.00  0.00     0.087 H 
ATOM    273  CE2 TYR d   1     -81.288 -44.936 104.256  0.00  0.00    -0.051 A 
ATOM    274  CD2 TYR d   1     -80.060 -44.301 104.199  0.00  0.00    -0.074 A 
ATOM    275 7H10 TYR d   1     -82.114 -44.480 104.789  0.00  0.00     0.087 H 
ATOM    276 5H10 TYR d   1     -79.934 -43.342 104.689  0.00  0.00     0.084 H 
BRANCH 271 277
ATOM    277  OH  TYR d   1     -82.664 -46.815 103.660  0.00  0.00    -0.361 OA
ATOM    278 8H10 TYR d   1     -82.593 -47.632 103.180  0.00  0.00     0.217 HD
ENDBRANCH 271 277
ENDBRANCH 264 267
ENDBRANCH 177 264
ENDBRANCH 175 177
ENDBRANCH 171 173
BRANCH 171 279
ATOM    279  CB  ASP d   1     -78.366 -47.693 106.894  0.00  0.00     0.043 C 
ATOM    280  H98 ASP d   1     -78.576 -48.240 105.963  0.00  0.00     0.052 H 
ATOM    281  H99 ASP d   1     -79.101 -46.884 107.019  0.00  0.00     0.052 H 
BRANCH 279 282
ATOM    282  CG  ASP d   1     -78.498 -48.653 108.061  0.00  0.00     0.175 C 
ATOM    283  OD1 ASP d   1     -77.579 -49.480 108.280  0.00  0.00    -0.648 OA
ATOM    284  OD2 ASP d   1     -79.529 -48.583 108.758  0.00  0.00    -0.648 OA
ENDBRANCH 279 282
ENDBRANCH 171 279
ENDBRANCH 169 171
ENDBRANCH 165 167
BRANCH 165 285
ATOM    285  CB  THR d   1     -75.234 -46.190 111.040  0.00  0.00     0.060 C 
ATOM    286  H91 THR d   1     -74.848 -47.220 111.022  0.00  0.00     0.086 H 
BRANCH 285 287
ATOM    287  OG1 THR d   1     -76.639 -46.220 111.296  0.00  0.00    -0.393 OA
ATOM    288  H92 THR d   1     -76.978 -45.333 111.297  0.00  0.00     0.210 HD
ENDBRANCH 285 287
BRANCH 285 289
ATOM    289  CG2 THR d   1     -74.544 -45.425 112.166  0.00  0.00    -0.050 C 
ATOM    290  H93 THR d   1     -74.755 -45.917 113.127  0.00  0.00     0.031 H 
ATOM    291  H94 THR d   1     -74.921 -44.392 112.192  0.00  0.00     0.031 H 
ATOM    292  H95 THR d   1     -73.458 -45.414 111.990  0.00  0.00     0.031 H 
ENDBRANCH 285 289
ENDBRANCH 165 285
ENDBRANCH 163 165
ENDBRANCH 159 161
BRANCH 159 293
ATOM    293  CB  TRP d   1     -75.204 -41.122 107.867  0.00  0.00    -0.012 C 
ATOM    294  H81 TRP d   1     -74.799 -41.459 106.901  0.00  0.00     0.044 H 
ATOM    295  H82 TRP d   1     -74.399 -41.108 108.617  0.00  0.00     0.044 H 
BRANCH 293 296
ATOM    296  CG  TRP d   1     -75.692 -39.721 107.694  0.00  0.00    -0.028 A 
ATOM    297  CD1 TRP d   1     -75.797 -38.767 108.661  0.00  0.00    -0.015 A 
ATOM    298  NE1 TRP d   1     -76.258 -37.592 108.126  0.00  0.00    -0.365 N 
ATOM    299  H83 TRP d   1     -75.550 -38.917 109.711  0.00  0.00     0.112 H 
ATOM    300  CE2 TRP d   1     -76.453 -37.768 106.784  0.00  0.00     0.042 A 
ATOM    301  H84 TRP d   1     -76.429 -36.721 108.648  0.00  0.00     0.165 HD
ATOM    302  CD2 TRP d   1     -76.097 -39.099 106.475  0.00  0.00    -0.002 A 
ATOM    303  CZ2 TRP d   1     -76.913 -36.872 105.817  0.00  0.00    -0.056 A 
ATOM    304  CE3 TRP d   1     -76.210 -39.540 105.151  0.00  0.00    -0.070 A 
ATOM    305  CZ3 TRP d   1     -76.669 -38.644 104.185  0.00  0.00    -0.082 A 
ATOM    306  H85 TRP d   1     -75.946 -40.556 104.882  0.00  0.00     0.084 H 
ATOM    307  CH2 TRP d   1     -77.011 -37.326 104.525  0.00  0.00    -0.081 A 
ATOM    308  H87 TRP d   1     -76.763 -38.971 103.156  0.00  0.00     0.083 H 
ATOM    309  H88 TRP d   1     -77.360 -36.652 103.751  0.00  0.00     0.083 H 
ATOM    310  H86 TRP d   1     -77.183 -35.855 106.077  0.00  0.00     0.086 H 
ENDBRANCH 293 296
ENDBRANCH 159 293
ENDBRANCH   3 159
TORSDOF 86
