REMARK WARNING: 32 MAX_TORS EXCEEDED!!!
REMARK  42 active torsions:
REMARK  status: ('A' for Active; 'I' for Inactive)
REMARK    1  A    between atoms: C_2  and  CA_3 
REMARK       I    between atoms: C_2  and  N_13 
REMARK    2  A    between atoms: CA_3  and  N_4 
REMARK       I    between atoms: N_4  and  CAE_5 
REMARK    3  A    between atoms: CAE_5  and  CAG_7 
REMARK    4  A    between atoms: N_13  and  CA_14 
REMARK    5  A    between atoms: CA_14  and  C_15 
REMARK    6  A    between atoms: CA_14  and  CB_17 
REMARK       I    between atoms: C_15  and  N_20 
REMARK    7  A    between atoms: CB_17  and  CG1_18 
REMARK    8  A    between atoms: CB_17  and  CG2_19 
REMARK    9  A    between atoms: N_20  and  CA_21 
REMARK   10  A    between atoms: CA_21  and  C_22 
REMARK   11  A    between atoms: CA_21  and  CB_24 
REMARK       I    between atoms: C_22  and  N_28 
REMARK   12  A    between atoms: CB_24  and  CG_25 
REMARK   13  A    between atoms: CG_25  and  CD1_26 
REMARK   14  A    between atoms: CG_25  and  CD2_27 
REMARK   15  A    between atoms: N_28  and  CA_29 
REMARK   16  A    between atoms: CA_29  and  C_30 
REMARK   17  A    between atoms: CA_29  and  CB_32 
REMARK       I    between atoms: C_30  and  N_37 
REMARK   18  A    between atoms: CB_32  and  CG_33 
REMARK   19  A    between atoms: CG_33  and  CD_34 
REMARK   20  A    between atoms: CD_34  and  CE_35 
REMARK   21  A    between atoms: CE_35  and  NZ_36 
REMARK   22  A    between atoms: NZ_36  and  CAJ_70 
REMARK   23  A    between atoms: N_37  and  CA_38 
REMARK   24  A    between atoms: CA_38  and  C_39 
REMARK   25  A    between atoms: CA_38  and  CB_41 
REMARK       I    between atoms: C_39  and  N_46 
REMARK   26  A    between atoms: CB_41  and  CG_42 
REMARK   27  A    between atoms: CG_42  and  CD_43 
REMARK   28  A    between atoms: N_46  and  CA_47 
REMARK   29  A    between atoms: CA_47  and  C_48 
REMARK   30  A    between atoms: CA_47  and  CB_50 
REMARK       I    between atoms: C_48  and  N_58 
REMARK   31  A    between atoms: CB_50  and  CG_51 
REMARK   32  A    between atoms: CZ_56  and  OH_57 
REMARK   33  A    between atoms: N_58  and  CA_59 
REMARK   34  A    between atoms: CA_59  and  C_60 
REMARK       I    between atoms: C_60  and  N_62 
REMARK   35  A    between atoms: N_62  and  CA_63 
REMARK   36  A    between atoms: CA_63  and  C_64 
REMARK   37  A    between atoms: CA_63  and  CB_66 
REMARK   38  A    between atoms: CB_66  and  CG1_67 
REMARK   39  A    between atoms: CB_66  and  CG2_68 
REMARK   40  A    between atoms: CAM_73  and  CAN_74 
REMARK   41  A    between atoms: SAQ_77  and  CAR_78 
REMARK   42  A    between atoms: CAR_78  and  CAW_79 
ROOT
ATOM      1  CA  LYS d   1      32.313  22.411   2.155  0.00  0.00     0.089 C 
ATOM      2  H30 LYS d   1      31.251  22.228   2.374  0.00  0.00     0.087 H 
ENDROOT
BRANCH   1   3
ATOM      3  N   LYS d   1      33.000  22.755   3.395  0.00  0.00    -0.346 N 
ATOM      4  C   LEU d   1      32.832  22.072   4.521  0.00  0.00     0.241 C 
ATOM      5  O   LEU d   1      32.124  21.073   4.599  0.00  0.00    -0.271 OA
ATOM      6  H29 LYS d   1      33.623  23.537   3.397  0.00  0.00     0.163 HD
BRANCH   4   7
ATOM      7  CA  LEU d   1      33.581  22.593   5.737  0.00  0.00     0.089 C 
ATOM      8  H19 LEU d   1      33.863  23.644   5.578  0.00  0.00     0.087 H 
BRANCH   7   9
ATOM      9  N   LEU d   1      32.729  22.483   6.901  0.00  0.00    -0.346 N 
ATOM     10  C   VAL d   1      31.608  23.173   7.032  0.00  0.00     0.241 C 
ATOM     11  O   VAL d   1      31.240  24.017   6.228  0.00  0.00    -0.271 OA
ATOM     12  H18 LEU d   1      32.998  21.860   7.636  0.00  0.00     0.163 HD
BRANCH  10  13
ATOM     13  CA  VAL d   1      30.798  22.856   8.278  0.00  0.00     0.092 C 
ATOM     14  H10 VAL d   1      31.308  22.048   8.823  0.00  0.00     0.088 H 
BRANCH  13  15
ATOM     15  N   VAL d   1      30.728  24.003   9.149  0.00  0.00    -0.346 N 
ATOM     16  C   GZB d   1      31.769  24.351   9.894  0.00  0.00     0.236 C 
ATOM     17  O   GZB d   1      32.866  23.782   9.828  0.00  0.00    -0.272 OA
ATOM     18  H9  VAL d   1      29.886  24.541   9.192  0.00  0.00     0.163 HD
BRANCH  16  19
ATOM     19  CA  GZB d   1      31.516  25.485  10.860  0.00  0.00     0.069 C 
ATOM     20  H1  GZB d   1      30.496  25.428  11.268  0.00  0.00     0.078 H 
ATOM     21  H2  GZB d   1      31.659  26.457  10.365  0.00  0.00     0.078 H 
BRANCH  19  22
ATOM     22  N   GZB d   1      32.525  25.289  11.937  0.00  0.00    -0.348 N 
ATOM     23  CAE GZB d   1      32.671  26.140  12.964  0.00  0.00     0.252 C 
ATOM     24  OAF GZB d   1      32.029  27.174  13.118  0.00  0.00    -0.268 OA
ATOM     25  H3  GZB d   1      33.121  24.487  11.893  0.00  0.00     0.163 HD
BRANCH  23  26
ATOM     26  CAG GZB d   1      33.637  25.763  13.874  0.00  0.00     0.032 A 
ATOM     27  CAH GZB d   1      34.695  24.978  13.442  0.00  0.00    -0.068 A 
ATOM     28  CAI GZB d   1      35.674  24.579  14.329  0.00  0.00    -0.082 A 
ATOM     29  H4  GZB d   1      34.754  24.676  12.402  0.00  0.00     0.085 H 
ATOM     30  CAJ GZB d   1      35.571  24.979  15.654  0.00  0.00    -0.083 A 
ATOM     31  H5  GZB d   1      36.505  23.967  13.998  0.00  0.00     0.083 H 
ATOM     32  CAK GZB d   1      34.511  25.764  16.092  0.00  0.00    -0.082 A 
ATOM     33  H6  GZB d   1      36.333  24.673  16.362  0.00  0.00     0.083 H 
ATOM     34  CAL GZB d   1      33.534  26.158  15.195  0.00  0.00    -0.068 A 
ATOM     35  H7  GZB d   1      34.450  26.066  17.131  0.00  0.00     0.083 H 
ATOM     36  H8  GZB d   1      32.700  26.768  15.523  0.00  0.00     0.085 H 
ENDBRANCH  23  26
ENDBRANCH  19  22
ENDBRANCH  16  19
ENDBRANCH  13  15
BRANCH  13  37
ATOM     37  CB  VAL d   1      29.401  22.355   7.885  0.00  0.00    -0.033 C 
ATOM     38  H11 VAL d   1      28.902  23.132   7.287  0.00  0.00     0.042 H 
BRANCH  37  39
ATOM     39  CG1 VAL d   1      29.517  21.092   7.043  0.00  0.00    -0.071 C 
ATOM     40  H12 VAL d   1      28.511  20.742   6.767  0.00  0.00     0.028 H 
ATOM     41  H13 VAL d   1      30.031  20.311   7.622  0.00  0.00     0.028 H 
ATOM     42  H14 VAL d   1      30.092  21.311   6.131  0.00  0.00     0.028 H 
ENDBRANCH  37  39
BRANCH  37  43
ATOM     43  CG2 VAL d   1      28.571  22.091   9.130  0.00  0.00    -0.071 C 
ATOM     44  H15 VAL d   1      28.498  23.014   9.725  0.00  0.00     0.028 H 
ATOM     45  H16 VAL d   1      29.051  21.304   9.731  0.00  0.00     0.028 H 
ATOM     46  H17 VAL d   1      27.563  21.764   8.836  0.00  0.00     0.028 H 
ENDBRANCH  37  43
ENDBRANCH  13  37
ENDBRANCH  10  13
ENDBRANCH   7   9
BRANCH   7  47
ATOM     47  CB  LEU d   1      34.831  21.752   5.961  0.00  0.00    -0.035 C 
ATOM     48  H20 LEU d   1      34.734  20.843   5.348  0.00  0.00     0.037 H 
ATOM     49  H21 LEU d   1      34.859  21.475   7.025  0.00  0.00     0.037 H 
BRANCH  47  50
ATOM     50  CG  LEU d   1      36.167  22.396   5.619  0.00  0.00    -0.059 C 
ATOM     51  H22 LEU d   1      36.101  22.838   4.614  0.00  0.00     0.038 H 
BRANCH  50  52
ATOM     52  CD1 LEU d   1      36.505  23.495   6.611  0.00  0.00    -0.073 C 
ATOM     53  H23 LEU d   1      37.473  23.945   6.344  0.00  0.00     0.028 H 
ATOM     54  H24 LEU d   1      36.565  23.069   7.623  0.00  0.00     0.028 H 
ATOM     55  H25 LEU d   1      35.722  24.267   6.584  0.00  0.00     0.028 H 
ENDBRANCH  50  52
BRANCH  50  56
ATOM     56  CD2 LEU d   1      37.250  21.333   5.619  0.00  0.00    -0.073 C 
ATOM     57  H26 LEU d   1      36.991  20.545   4.896  0.00  0.00     0.028 H 
ATOM     58  H27 LEU d   1      37.334  20.895   6.625  0.00  0.00     0.028 H 
ATOM     59  H28 LEU d   1      38.211  21.788   5.336  0.00  0.00     0.028 H 
ENDBRANCH  50  56
ENDBRANCH  47  50
ENDBRANCH   7  47
ENDBRANCH   4   7
ENDBRANCH   1   3
BRANCH   1  60
ATOM     60  C   LYS d   1      32.907  21.139   1.508  0.00  0.00     0.241 C 
ATOM     61  O   LYS d   1      34.077  21.103   1.118  0.00  0.00    -0.271 OA
ATOM     62  N   GLU d   1      32.066  20.110   1.427  0.00  0.00    -0.346 N 
ATOM     63  H39 GLU d   1      31.133  20.247   1.760  0.00  0.00     0.163 HD
BRANCH  62  64
ATOM     64  CA  GLU d   1      32.407  18.792   0.886  0.00  0.00     0.090 C 
ATOM     65  H40 GLU d   1      31.475  18.300   0.572  0.00  0.00     0.087 H 
BRANCH  64  66
ATOM     66  C   GLU d   1      33.043  17.944   1.983  0.00  0.00     0.241 C 
ATOM     67  O   GLU d   1      33.592  16.873   1.724  0.00  0.00    -0.271 OA
ATOM     68  N   TYR d   1      32.928  18.432   3.218  0.00  0.00    -0.346 N 
ATOM     69  H45 TYR d   1      32.380  19.256   3.359  0.00  0.00     0.163 HD
BRANCH  68  70
ATOM     70  CA  TYR d   1      33.567  17.814   4.368  0.00  0.00     0.093 C 
ATOM     71  H46 TYR d   1      33.243  18.338   5.279  0.00  0.00     0.088 H 
BRANCH  70  72
ATOM     72  C   TYR d   1      35.086  17.939   4.238  0.00  0.00     0.241 C 
ATOM     73  O   TYR d   1      35.833  17.190   4.862  0.00  0.00    -0.271 OA
ATOM     74  N   GLY d   1      35.533  18.896   3.426  0.00  0.00    -0.351 N 
ATOM     75  H54 GLY d   1      34.871  19.502   2.984  0.00  0.00     0.163 HD
BRANCH  74  76
ATOM     76  CA  GLY d   1      36.956  19.092   3.158  0.00  0.00     0.069 C 
ATOM     77  H55 GLY d   1      37.512  18.953   4.097  0.00  0.00     0.078 H 
ATOM     78  H56 GLY d   1      37.106  20.118   2.792  0.00  0.00     0.078 H 
BRANCH  76  79
ATOM     79  C   GLY d   1      37.503  18.122   2.121  0.00  0.00     0.236 C 
ATOM     80  O   GLY d   1      38.715  17.907   2.044  0.00  0.00    -0.272 OA
ATOM     81  N   VAL d   1      36.611  17.549   1.314  0.00  0.00    -0.345 N 
ATOM     82  H57 VAL d   1      35.661  17.861   1.347  0.00  0.00     0.163 HD
BRANCH  81  83
ATOM     83  CA  VAL d   1      36.970  16.477   0.378  0.00  0.00     0.099 C 
ATOM     84  H58 VAL d   1      36.136  15.760   0.356  0.00  0.00     0.090 H 
BRANCH  83  85
ATOM     85  C   VAL d   1      38.224  15.745   0.833  0.00  0.00     0.197 C 
ATOM     86  O   VAL d   1      38.257  14.516   0.855  0.00  0.00    -0.646 OA
ATOM     87  OXT VAL d   1      39.221  16.373   1.185  0.00  0.00    -0.646 OA
ENDBRANCH  83  85
BRANCH  83  88
ATOM     88  CB  VAL d   1      37.198  16.995  -1.058  0.00  0.00    -0.032 C 
ATOM     89  H59 VAL d   1      37.819  17.902  -1.007  0.00  0.00     0.042 H 
BRANCH  88  90
ATOM     90  CG1 VAL d   1      37.933  15.948  -1.885  0.00  0.00    -0.071 C 
ATOM     91  H60 VAL d   1      38.089  16.329  -2.905  0.00  0.00     0.028 H 
ATOM     92  H61 VAL d   1      37.334  15.026  -1.926  0.00  0.00     0.028 H 
ATOM     93  H62 VAL d   1      38.907  15.732  -1.421  0.00  0.00     0.028 H 
ENDBRANCH  88  90
BRANCH  88  94
ATOM     94  CG2 VAL d   1      35.874  17.352  -1.722  0.00  0.00    -0.071 C 
ATOM     95  H63 VAL d   1      35.352  18.108  -1.117  0.00  0.00     0.028 H 
ATOM     96  H64 VAL d   1      35.249  16.451  -1.801  0.00  0.00     0.028 H 
ATOM     97  H65 VAL d   1      36.065  17.755  -2.727  0.00  0.00     0.028 H 
ENDBRANCH  88  94
ENDBRANCH  83  88
ENDBRANCH  81  83
ENDBRANCH  76  79
ENDBRANCH  74  76
ENDBRANCH  70  72
BRANCH  70  98
ATOM     98  CB  TYR d   1      33.164  16.347   4.478  0.00  0.00    -0.014 C 
ATOM     99  H47 TYR d   1      33.654  15.924   5.368  0.00  0.00     0.043 H 
ATOM    100  H48 TYR d   1      33.524  15.826   3.579  0.00  0.00     0.043 H 
BRANCH  98 101
ATOM    101  CG  TYR d   1      31.671  16.099   4.600  0.00  0.00    -0.056 A 
ATOM    102  CD1 TYR d   1      30.906  16.774   5.541  0.00  0.00    -0.074 A 
ATOM    103  CE1 TYR d   1      29.546  16.539   5.664  0.00  0.00    -0.051 A 
ATOM    104  H49 TYR d   1      31.381  17.499   6.192  0.00  0.00     0.084 H 
ATOM    105  CZ  TYR d   1      28.940  15.611   4.846  0.00  0.00     0.065 A 
ATOM    106  H51 TYR d   1      28.963  17.082   6.399  0.00  0.00     0.087 H 
ATOM    107  CE2 TYR d   1      29.678  14.924   3.908  0.00  0.00    -0.051 A 
ATOM    108  CD2 TYR d   1      31.033  15.167   3.792  0.00  0.00    -0.074 A 
ATOM    109  H52 TYR d   1      29.198  14.196   3.264  0.00  0.00     0.087 H 
ATOM    110  H50 TYR d   1      31.610  14.619   3.055  0.00  0.00     0.084 H 
BRANCH 105 111
ATOM    111  OH  TYR d   1      27.592  15.370   4.974  0.00  0.00    -0.361 OA
ATOM    112  H53 TYR d   1      27.236  15.922   5.660  0.00  0.00     0.217 HD
ENDBRANCH 105 111
ENDBRANCH  98 101
ENDBRANCH  70  98
ENDBRANCH  68  70
ENDBRANCH  64  66
BRANCH  64 113
ATOM    113  CB  GLU d   1      33.308  18.901  -0.342  0.00  0.00    -0.029 C 
ATOM    114  H41 GLU d   1      33.733  17.908  -0.549  0.00  0.00     0.037 H 
ATOM    115  H42 GLU d   1      34.120  19.607  -0.115  0.00  0.00     0.037 H 
BRANCH 113 116
ATOM    116  CG  GLU d   1      32.585  19.386  -1.595  0.00  0.00     0.018 C 
ATOM    117  H43 GLU d   1      33.339  19.737  -2.315  0.00  0.00     0.049 H 
ATOM    118  H44 GLU d   1      31.929  20.223  -1.314  0.00  0.00     0.049 H 
BRANCH 116 119
ATOM    119  CD  GLU d   1      31.736  18.319  -2.273  0.00  0.00     0.172 C 
ATOM    120  OE1 GLU d   1      30.905  18.688  -3.132  0.00  0.00    -0.648 OA
ATOM    121  OE2 GLU d   1      31.894  17.119  -1.959  0.00  0.00    -0.648 OA
ENDBRANCH 116 119
ENDBRANCH 113 116
ENDBRANCH  64 113
ENDBRANCH  62  64
ENDBRANCH   1  60
BRANCH   1 122
ATOM    122  CB  LYS d   1      32.432  23.591   1.206  0.00  0.00    -0.038 C 
ATOM    123  H31 LYS d   1      33.465  23.968   1.224  0.00  0.00     0.036 H 
ATOM    124  H32 LYS d   1      31.745  24.387   1.529  0.00  0.00     0.036 H 
BRANCH 122 125
ATOM    125  CG  LYS d   1      32.079  23.169  -0.208  0.00  0.00    -0.061 C 
ATOM    126  H33 LYS d   1      31.286  22.407  -0.183  0.00  0.00     0.033 H 
ATOM    127  H34 LYS d   1      32.968  22.756  -0.707  0.00  0.00     0.033 H 
BRANCH 125 128
ATOM    128  CD  LYS d   1      31.589  24.400  -0.960  0.00  0.00    -0.048 C 
ATOM    129  H35 LYS d   1      32.449  25.005  -1.284  0.00  0.00     0.035 H 
ATOM    130  H36 LYS d   1      30.942  25.003  -0.306  0.00  0.00     0.035 H 
BRANCH 128 131
ATOM    131  CE  LYS d   1      30.804  23.934  -2.171  0.00  0.00     0.017 C 
ATOM    132  H37 LYS d   1      29.864  24.502  -2.232  0.00  0.00     0.067 H 
ATOM    133  H38 LYS d   1      30.579  22.863  -2.065  0.00  0.00     0.067 H 
BRANCH 131 134
ATOM    134  NZ  LYS d   1      31.575  24.145  -3.400  0.00  0.00    -0.270 NA
BRANCH 134 135
ATOM    135  CAJ E9N d   1      30.953  24.592  -4.495  0.00  0.00     0.149 A 
ATOM    136  OAL E9N d   1      29.746  24.845  -4.528  0.00  0.00    -0.275 OA
ATOM    137  SAQ E9N d   1      29.284  25.588  -6.252  0.00  0.00    -0.061 SA
ATOM    138  CAM E9N d   1      30.971  25.396  -6.827  0.00  0.00     0.097 A 
ATOM    139  CAK E9N d   1      31.834  24.772  -5.729  0.00  0.00     0.019 A 
ATOM    140  H68 LYS d   1      30.989  24.756  -7.722  0.00  0.00     0.076 H 
ATOM    141  H66 LYS d   1      32.217  23.796  -6.062  0.00  0.00     0.048 H 
ATOM    142  H67 LYS d   1      32.679  25.436  -5.493  0.00  0.00     0.048 H 
BRANCH 137 143
ATOM    143  CAR E9N d   1      28.534  23.909  -6.441  0.00  0.00     0.016 C 
ATOM    144  H69 LYS d   1      27.927  23.706  -5.546  0.00  0.00     0.058 H 
ATOM    145  H70 LYS d   1      29.353  23.177  -6.503  0.00  0.00     0.058 H 
BRANCH 143 146
ATOM    146  CAW E9N d   1      27.711  23.737  -7.572  0.00  0.00    -0.048 A 
ATOM    147  CAV E9N d   1      26.780  24.704  -7.959  0.00  0.00    -0.076 A 
ATOM    148  CAU E9N d   1      25.968  24.529  -9.083  0.00  0.00    -0.082 A 
ATOM    149  H71 LYS d   1      26.685  25.611  -7.374  0.00  0.00     0.084 H 
ATOM    150  CAT E9N d   1      26.081  23.371  -9.826  0.00  0.00    -0.083 A 
ATOM    151  H72 LYS d   1      25.256  25.295  -9.369  0.00  0.00     0.083 H 
ATOM    152  CAS E9N d   1      27.008  22.401  -9.443  0.00  0.00    -0.082 A 
ATOM    153  H73 LYS d   1      25.456  23.217 -10.698  0.00  0.00     0.083 H 
ATOM    154  CAX E9N d   1      27.819  22.575  -8.324  0.00  0.00    -0.076 A 
ATOM    155  H74 LYS d   1      27.099  21.493 -10.028  0.00  0.00     0.083 H 
ATOM    156  H75 LYS d   1      28.530  21.807  -8.042  0.00  0.00     0.084 H 
ENDBRANCH 143 146
ENDBRANCH 137 143
BRANCH 138 157
ATOM    157  CAN E9N d   1      31.523  26.777  -7.160  0.00  0.00     0.189 C 
ATOM    158  OAP E9N d   1      31.264  27.229  -8.286  0.00  0.00    -0.647 OA
ATOM    159  OAO E9N d   1      32.170  27.360  -6.266  0.00  0.00    -0.647 OA
ENDBRANCH 138 157
ENDBRANCH 134 135
ENDBRANCH 131 134
ENDBRANCH 128 131
ENDBRANCH 125 128
ENDBRANCH 122 125
ENDBRANCH   1 122
TORSDOF 42
