REMARK WARNING: 32 MAX_TORS EXCEEDED!!!
REMARK  43 active torsions:
REMARK  status: ('A' for Active; 'I' for Inactive)
REMARK    1  A    between atoms: C_2  and  CA_3 
REMARK       I    between atoms: N_13  and  C_2 
REMARK    2  A    between atoms: CA_3  and  N_4 
REMARK       I    between atoms: N_4  and  CAE_5 
REMARK    3  A    between atoms: CAE_5  and  CAG_7 
REMARK    4  A    between atoms: CA_14  and  N_13 
REMARK    5  A    between atoms: C_15  and  CA_14 
REMARK    6  A    between atoms: CA_14  and  CB_17 
REMARK       I    between atoms: N_20  and  C_15 
REMARK    7  A    between atoms: CB_17  and  CG1_18 
REMARK    8  A    between atoms: CB_17  and  CG2_19 
REMARK    9  A    between atoms: CA_21  and  N_20 
REMARK   10  A    between atoms: C_22  and  CA_21 
REMARK   11  A    between atoms: CA_21  and  CB_24 
REMARK       I    between atoms: N_30  and  C_22 
REMARK   12  A    between atoms: CB_24  and  CG_25 
REMARK   13  A    between atoms: CG_25  and  CD1_26 
REMARK   14  A    between atoms: CG_25  and  CD2_27 
REMARK   15  A    between atoms: CA_28  and  C_29 
REMARK   16  A    between atoms: CA_28  and  N_30 
REMARK   17  A    between atoms: CA_28  and  CB_32 
REMARK       I    between atoms: C_29  and  N_51 
REMARK   18  A    between atoms: CB_32  and  CAD_33 
REMARK   19  A    between atoms: CAD_33  and  CAE_34 
REMARK   20  A    between atoms: CAE_34  and  CAF_35 
REMARK   21  A    between atoms: CAF_35  and  NAG_36 
REMARK       I    between atoms: NAG_36  and  CAJ_37 
REMARK   22  A    between atoms: CAJ_37  and  CAK_39 
REMARK   23  A    between atoms: CAK_39  and  CAL_40 
REMARK   24  A    between atoms: CAL_40  and  CAM_41 
REMARK   25  A    between atoms: CAL_40  and  SAQ_44 
REMARK   26  A    between atoms: SAQ_44  and  CAR_45 
REMARK   27  A    between atoms: N_51  and  CA_52 
REMARK   28  A    between atoms: CA_52  and  C_53 
REMARK   29  A    between atoms: CA_52  and  CB_55 
REMARK       I    between atoms: C_53  and  N_60 
REMARK   30  A    between atoms: CB_55  and  CG_56 
REMARK   31  A    between atoms: CG_56  and  CD_57 
REMARK   32  A    between atoms: N_60  and  CA_61 
REMARK   33  A    between atoms: CA_61  and  C_62 
REMARK   34  A    between atoms: CA_61  and  CB_64 
REMARK       I    between atoms: C_62  and  N_72 
REMARK   35  A    between atoms: CB_64  and  CG_65 
REMARK   36  A    between atoms: CZ_70  and  OH_71 
REMARK   37  A    between atoms: N_72  and  CA_73 
REMARK   38  A    between atoms: CA_73  and  C_74 
REMARK       I    between atoms: C_74  and  N_76 
REMARK   39  A    between atoms: N_76  and  CA_77 
REMARK   40  A    between atoms: CA_77  and  C_78 
REMARK   41  A    between atoms: CA_77  and  CB_80 
REMARK   42  A    between atoms: CB_80  and  CG1_81 
REMARK   43  A    between atoms: CB_80  and  CG2_82 
ROOT
ATOM      1  CA  DQK d   1      31.254  22.192   2.089  0.00  0.00     0.089 C 
ATOM      2  H29 DQK d   1      30.178  22.085   2.288  0.00  0.00     0.087 H 
ENDROOT
BRANCH   1   3
ATOM      3  C   DQK d   1      31.815  20.843   1.616  0.00  0.00     0.241 C 
ATOM      4  O   DQK d   1      32.983  20.736   1.235  0.00  0.00    -0.271 OA
ATOM      5  N   GLU d   1      30.969  19.821   1.663  0.00  0.00    -0.346 N 
ATOM      6  H48 GLU d   1      30.036  19.986   1.982  0.00  0.00     0.163 HD
BRANCH   5   7
ATOM      7  CA  GLU d   1      31.343  18.469   1.269  0.00  0.00     0.090 C 
ATOM      8  H49 GLU d   1      30.430  17.883   1.088  0.00  0.00     0.087 H 
BRANCH   7   9
ATOM      9  C   GLU d   1      32.104  17.850   2.437  0.00  0.00     0.241 C 
ATOM     10  O   GLU d   1      32.861  16.893   2.274  0.00  0.00    -0.271 OA
ATOM     11  N   TYR d   1      31.881  18.418   3.621  0.00  0.00    -0.346 N 
ATOM     12  H54 TYR d   1      31.279  19.215   3.666  0.00  0.00     0.163 HD
BRANCH  11  13
ATOM     13  CA  TYR d   1      32.481  17.923   4.853  0.00  0.00     0.093 C 
ATOM     14  H55 TYR d   1      32.099  18.524   5.691  0.00  0.00     0.088 H 
BRANCH  13  15
ATOM     15  C   TYR d   1      33.995  18.040   4.818  0.00  0.00     0.241 C 
ATOM     16  O   TYR d   1      34.695  17.311   5.520  0.00  0.00    -0.271 OA
ATOM     17  N   GLY d   1      34.505  18.947   3.995  0.00  0.00    -0.351 N 
ATOM     18  H63 GLY d   1      33.894  19.504   3.433  0.00  0.00     0.163 HD
BRANCH  17  19
ATOM     19  CA  GLY d   1      35.945  19.141   3.901  0.00  0.00     0.069 C 
ATOM     20  H64 GLY d   1      36.427  18.578   4.714  0.00  0.00     0.078 H 
ATOM     21  H65 GLY d   1      36.161  20.213   4.019  0.00  0.00     0.078 H 
BRANCH  19  22
ATOM     22  C   GLY d   1      36.530  18.675   2.580  0.00  0.00     0.236 C 
ATOM     23  O   GLY d   1      37.610  19.115   2.190  0.00  0.00    -0.272 OA
ATOM     24  N   VAL d   1      35.825  17.783   1.889  0.00  0.00    -0.345 N 
ATOM     25  H66 VAL d   1      34.974  17.426   2.273  0.00  0.00     0.163 HD
BRANCH  24  26
ATOM     26  CA  VAL d   1      36.273  17.315   0.577  0.00  0.00     0.099 C 
ATOM     27  H67 VAL d   1      37.298  17.680   0.415  0.00  0.00     0.090 H 
BRANCH  26  28
ATOM     28  C   VAL d   1      35.376  17.870  -0.526  0.00  0.00     0.197 C 
ATOM     29  O   VAL d   1      35.438  17.428  -1.674  0.00  0.00    -0.646 OA
ATOM     30  OXT VAL d   1      34.571  18.772  -0.292  0.00  0.00    -0.646 OA
ENDBRANCH  26  28
BRANCH  26  31
ATOM     31  CB  VAL d   1      36.283  15.776   0.489  0.00  0.00    -0.032 C 
ATOM     32  H68 VAL d   1      35.260  15.433   0.276  0.00  0.00     0.042 H 
BRANCH  31  33
ATOM     33  CG1 VAL d   1      37.192  15.314  -0.644  0.00  0.00    -0.071 C 
ATOM     34  H69 VAL d   1      37.188  14.215  -0.693  0.00  0.00     0.028 H 
ATOM     35  H70 VAL d   1      38.217  15.669  -0.460  0.00  0.00     0.028 H 
ATOM     36  H71 VAL d   1      36.828  15.725  -1.597  0.00  0.00     0.028 H 
ENDBRANCH  31  33
BRANCH  31  37
ATOM     37  CG2 VAL d   1      36.726  15.172   1.814  0.00  0.00    -0.071 C 
ATOM     38  H72 VAL d   1      36.058  15.518   2.616  0.00  0.00     0.028 H 
ATOM     39  H73 VAL d   1      37.757  15.487   2.034  0.00  0.00     0.028 H 
ATOM     40  H74 VAL d   1      36.684  14.075   1.749  0.00  0.00     0.028 H 
ENDBRANCH  31  37
ENDBRANCH  26  31
ENDBRANCH  24  26
ENDBRANCH  19  22
ENDBRANCH  17  19
ENDBRANCH  13  15
BRANCH  13  41
ATOM     41  CB  TYR d   1      32.110  16.460   5.083  0.00  0.00    -0.014 C 
ATOM     42  H56 TYR d   1      32.502  16.158   6.065  0.00  0.00     0.043 H 
ATOM     43  H57 TYR d   1      32.589  15.858   4.296  0.00  0.00     0.043 H 
BRANCH  41  44
ATOM     44  CG  TYR d   1      30.630  16.170   5.060  0.00  0.00    -0.056 A 
ATOM     45  CD1 TYR d   1      29.772  16.758   5.973  0.00  0.00    -0.074 A 
ATOM     46  CE1 TYR d   1      28.419  16.482   5.960  0.00  0.00    -0.051 A 
ATOM     47  H58 TYR d   1      30.169  17.447   6.710  0.00  0.00     0.084 H 
ATOM     48  CZ  TYR d   1      27.913  15.604   5.032  0.00  0.00     0.065 A 
ATOM     49  H60 TYR d   1      27.759  16.956   6.678  0.00  0.00     0.087 H 
ATOM     50  CE2 TYR d   1      28.747  15.002   4.122  0.00  0.00    -0.051 A 
ATOM     51  CD2 TYR d   1      30.096  15.285   4.139  0.00  0.00    -0.074 A 
ATOM     52  H61 TYR d   1      28.346  14.307   3.393  0.00  0.00     0.087 H 
ATOM     53  H59 TYR d   1      30.750  14.806   3.419  0.00  0.00     0.084 H 
BRANCH  48  54
ATOM     54  OH  TYR d   1      26.567  15.319   5.008  0.00  0.00    -0.361 OA
ATOM     55  H62 TYR d   1      26.128  15.809   5.693  0.00  0.00     0.217 HD
ENDBRANCH  48  54
ENDBRANCH  41  44
ENDBRANCH  13  41
ENDBRANCH  11  13
ENDBRANCH   7   9
BRANCH   7  56
ATOM     56  CB  GLU d   1      32.175  18.467  -0.023  0.00  0.00    -0.029 C 
ATOM     57  H50 GLU d   1      32.583  17.455  -0.165  0.00  0.00     0.037 H 
ATOM     58  H51 GLU d   1      33.002  19.181   0.102  0.00  0.00     0.037 H 
BRANCH  56  59
ATOM     59  CG  GLU d   1      31.401  18.851  -1.289  0.00  0.00     0.018 C 
ATOM     60  H52 GLU d   1      32.121  19.208  -2.040  0.00  0.00     0.049 H 
ATOM     61  H53 GLU d   1      30.703  19.662  -1.036  0.00  0.00     0.049 H 
BRANCH  59  62
ATOM     62  CD  GLU d   1      30.602  17.702  -1.897  0.00  0.00     0.172 C 
ATOM     63  OE1 GLU d   1      29.698  17.969  -2.718  0.00  0.00    -0.648 OA
ATOM     64  OE2 GLU d   1      30.872  16.529  -1.563  0.00  0.00    -0.648 OA
ENDBRANCH  59  62
ENDBRANCH  56  59
ENDBRANCH   7  56
ENDBRANCH   5   7
ENDBRANCH   1   3
BRANCH   1  65
ATOM     65  N   DQK d   1      31.935  22.580   3.315  0.00  0.00    -0.346 N 
ATOM     66  C   LEU d   1      31.629  22.047   4.492  0.00  0.00     0.241 C 
ATOM     67  O   LEU d   1      30.736  21.209   4.645  0.00  0.00    -0.271 OA
ATOM     68  H30 DQK d   1      32.657  23.270   3.270  0.00  0.00     0.163 HD
BRANCH  66  69
ATOM     69  CA  LEU d   1      32.456  22.541   5.671  0.00  0.00     0.089 C 
ATOM     70  H19 LEU d   1      32.639  23.618   5.541  0.00  0.00     0.087 H 
BRANCH  69  71
ATOM     71  N   LEU d   1      31.739  22.348   6.919  0.00  0.00    -0.346 N 
ATOM     72  C   VAL d   1      30.635  23.037   7.160  0.00  0.00     0.241 C 
ATOM     73  O   VAL d   1      30.193  23.870   6.379  0.00  0.00    -0.271 OA
ATOM     74  H18 LEU d   1      32.079  21.695   7.596  0.00  0.00     0.163 HD
BRANCH  72  75
ATOM     75  CA  VAL d   1      29.907  22.736   8.447  0.00  0.00     0.092 C 
ATOM     76  H10 VAL d   1      30.418  21.922   8.982  0.00  0.00     0.088 H 
BRANCH  75  77
ATOM     77  N   VAL d   1      29.841  23.900   9.302  0.00  0.00    -0.346 N 
ATOM     78  C   GZB d   1      30.841  24.280  10.083  0.00  0.00     0.236 C 
ATOM     79  O   GZB d   1      31.926  23.701  10.128  0.00  0.00    -0.272 OA
ATOM     80  H9  VAL d   1      29.002  24.443   9.304  0.00  0.00     0.163 HD
BRANCH  78  81
ATOM     81  CA  GZB d   1      30.529  25.472  10.943  0.00  0.00     0.069 C 
ATOM     82  H1  GZB d   1      29.465  25.461  11.222  0.00  0.00     0.078 H 
ATOM     83  H2  GZB d   1      30.754  26.397  10.392  0.00  0.00     0.078 H 
BRANCH  81  84
ATOM     84  N   GZB d   1      31.370  25.398  12.166  0.00  0.00    -0.348 N 
ATOM     85  CAE GZB d   1      32.173  26.395  12.565  0.00  0.00     0.252 C 
ATOM     86  OAF GZB d   1      32.360  27.445  11.951  0.00  0.00    -0.268 OA
ATOM     87  H3  GZB d   1      31.335  24.565  12.718  0.00  0.00     0.163 HD
BRANCH  85  88
ATOM     88  CAG GZB d   1      32.795  26.142  13.777  0.00  0.00     0.032 A 
ATOM     89  CAH GZB d   1      33.842  25.239  13.850  0.00  0.00    -0.068 A 
ATOM     90  CAI GZB d   1      34.445  24.978  15.067  0.00  0.00    -0.082 A 
ATOM     91  H4  GZB d   1      34.189  24.737  12.954  0.00  0.00     0.085 H 
ATOM     92  CAJ GZB d   1      33.988  25.624  16.206  0.00  0.00    -0.083 A 
ATOM     93  H5  GZB d   1      35.267  24.275  15.130  0.00  0.00     0.083 H 
ATOM     94  CAK GZB d   1      32.935  26.524  16.139  0.00  0.00    -0.082 A 
ATOM     95  H6  GZB d   1      34.460  25.423  17.161  0.00  0.00     0.083 H 
ATOM     96  CAL GZB d   1      32.332  26.781  14.919  0.00  0.00    -0.068 A 
ATOM     97  H7  GZB d   1      32.586  27.023  17.036  0.00  0.00     0.083 H 
ATOM     98  H8  GZB d   1      31.503  27.477  14.856  0.00  0.00     0.085 H 
ENDBRANCH  85  88
ENDBRANCH  81  84
ENDBRANCH  78  81
ENDBRANCH  75  77
BRANCH  75  99
ATOM     99  CB  VAL d   1      28.491  22.305   8.060  0.00  0.00    -0.033 C 
ATOM    100  H11 VAL d   1      28.506  21.929   7.026  0.00  0.00     0.042 H 
BRANCH  99 101
ATOM    101  CG1 VAL d   1      28.006  21.199   8.966  0.00  0.00    -0.071 C 
ATOM    102  H12 VAL d   1      26.988  20.904   8.672  0.00  0.00     0.028 H 
ATOM    103  H13 VAL d   1      27.998  21.555  10.007  0.00  0.00     0.028 H 
ATOM    104  H14 VAL d   1      28.678  20.333   8.879  0.00  0.00     0.028 H 
ENDBRANCH  99 101
BRANCH  99 105
ATOM    105  CG2 VAL d   1      27.558  23.501   8.130  0.00  0.00    -0.071 C 
ATOM    106  H15 VAL d   1      27.928  24.294   7.464  0.00  0.00     0.028 H 
ATOM    107  H16 VAL d   1      27.521  23.877   9.163  0.00  0.00     0.028 H 
ATOM    108  H17 VAL d   1      26.549  23.198   7.814  0.00  0.00     0.028 H 
ENDBRANCH  99 105
ENDBRANCH  75  99
ENDBRANCH  72  75
ENDBRANCH  69  71
BRANCH  69 109
ATOM    109  CB  LEU d   1      33.802  21.824   5.704  0.00  0.00    -0.035 C 
ATOM    110  H20 LEU d   1      34.204  21.790   4.681  0.00  0.00     0.037 H 
ATOM    111  H21 LEU d   1      33.642  20.799   6.069  0.00  0.00     0.037 H 
BRANCH 109 112
ATOM    112  CG  LEU d   1      34.829  22.503   6.605  0.00  0.00    -0.059 C 
ATOM    113  H22 LEU d   1      34.501  22.393   7.649  0.00  0.00     0.038 H 
BRANCH 112 114
ATOM    114  CD1 LEU d   1      36.194  21.847   6.466  0.00  0.00    -0.073 C 
ATOM    115  H23 LEU d   1      36.914  22.355   7.125  0.00  0.00     0.028 H 
ATOM    116  H24 LEU d   1      36.534  21.925   5.423  0.00  0.00     0.028 H 
ATOM    117  H25 LEU d   1      36.122  20.787   6.750  0.00  0.00     0.028 H 
ENDBRANCH 112 114
BRANCH 112 118
ATOM    118  CD2 LEU d   1      34.903  23.987   6.279  0.00  0.00    -0.073 C 
ATOM    119  H26 LEU d   1      33.905  24.436   6.387  0.00  0.00     0.028 H 
ATOM    120  H27 LEU d   1      35.254  24.118   5.245  0.00  0.00     0.028 H 
ATOM    121  H28 LEU d   1      35.603  24.480   6.969  0.00  0.00     0.028 H 
ENDBRANCH 112 118
ENDBRANCH 109 112
ENDBRANCH  69 109
ENDBRANCH  66  69
ENDBRANCH   1  65
BRANCH   1 122
ATOM    122  CB  DQK d   1      31.457  23.272   1.019  0.00  0.00    -0.038 C 
ATOM    123  H31 DQK d   1      32.455  23.718   1.141  0.00  0.00     0.036 H 
ATOM    124  H32 DQK d   1      30.690  24.051   1.142  0.00  0.00     0.036 H 
BRANCH 122 125
ATOM    125  CAD DQK d   1      31.343  22.672  -0.389  0.00  0.00    -0.061 C 
ATOM    126  H33 DQK d   1      30.501  21.964  -0.418  0.00  0.00     0.033 H 
ATOM    127  H34 DQK d   1      32.275  22.143  -0.637  0.00  0.00     0.033 H 
BRANCH 125 128
ATOM    128  CAE DQK d   1      31.104  23.788  -1.409  0.00  0.00    -0.050 C 
ATOM    129  H35 DQK d   1      31.692  23.591  -2.318  0.00  0.00     0.035 H 
ATOM    130  H36 DQK d   1      31.407  24.754  -0.979  0.00  0.00     0.035 H 
BRANCH 128 131
ATOM    131  CAF DQK d   1      29.617  23.825  -1.757  0.00  0.00    -0.005 C 
ATOM    132  H37 DQK d   1      29.032  24.031  -0.848  0.00  0.00     0.064 H 
ATOM    133  H38 DQK d   1      29.314  22.854  -2.176  0.00  0.00     0.064 H 
BRANCH 131 134
ATOM    134  NAG DQK d   1      29.374  24.882  -2.745  0.00  0.00    -0.361 N 
ATOM    135  CAJ DQK d   1      28.587  24.696  -3.811  0.00  0.00     0.219 C 
ATOM    136  OAN DQK d   1      28.020  23.635  -4.066  0.00  0.00    -0.274 OA
ATOM    137  H39 DQK d   1      29.812  25.772  -2.617  0.00  0.00     0.162 HD
BRANCH 135 138
ATOM    138  CAK DQK d   1      28.465  25.908  -4.745  0.00  0.00     0.030 C 
ATOM    139  H40 DQK d   1      28.751  26.825  -4.209  0.00  0.00     0.049 H 
ATOM    140  H41 DQK d   1      27.430  26.002  -5.105  0.00  0.00     0.049 H 
BRANCH 138 141
ATOM    141  CAL DQK d   1      29.409  25.677  -5.925  0.00  0.00     0.087 C 
ATOM    142  H42 DQK d   1      28.875  25.126  -6.713  0.00  0.00     0.074 H 
BRANCH 141 143
ATOM    143  CAM DQK d   1      29.944  26.990  -6.513  0.00  0.00     0.188 C 
ATOM    144  OAP DQK d   1      29.517  27.324  -7.639  0.00  0.00    -0.647 OA
ATOM    145  OAO DQK d   1      30.807  27.603  -5.848  0.00  0.00    -0.647 OA
ENDBRANCH 141 143
BRANCH 141 146
ATOM    146  SAQ DQK d   1      30.777  24.709  -5.332  0.00  0.00    -0.114 SA
BRANCH 146 147
ATOM    147  CAR DQK d   1      30.984  23.694  -6.708  0.00  0.00     0.001 A 
ATOM    148  CAS DQK d   1      31.118  22.320  -6.554  0.00  0.00    -0.067 A 
ATOM    149  CAT DQK d   1      31.287  21.514  -7.667  0.00  0.00    -0.082 A 
ATOM    150  H43 DQK d   1      31.090  21.880  -5.564  0.00  0.00     0.085 H 
ATOM    151  CAU DQK d   1      31.307  22.097  -8.926  0.00  0.00    -0.083 A 
ATOM    152  H44 DQK d   1      31.402  20.442  -7.556  0.00  0.00     0.083 H 
ATOM    153  CAV DQK d   1      31.158  23.467  -9.081  0.00  0.00    -0.082 A 
ATOM    154  H45 DQK d   1      31.441  21.472  -9.802  0.00  0.00     0.083 H 
ATOM    155  CAW DQK d   1      31.003  24.272  -7.968  0.00  0.00    -0.067 A 
ATOM    156  H46 DQK d   1      31.163  23.905 -10.072  0.00  0.00     0.083 H 
ATOM    157  H47 DQK d   1      30.897  25.345  -8.079  0.00  0.00     0.085 H 
ENDBRANCH 146 147
ENDBRANCH 141 146
ENDBRANCH 138 141
ENDBRANCH 135 138
ENDBRANCH 131 134
ENDBRANCH 128 131
ENDBRANCH 125 128
ENDBRANCH 122 125
ENDBRANCH   1 122
TORSDOF 43
