REMARK WARNING: 32 MAX_TORS EXCEEDED!!!
REMARK  43 active torsions:
REMARK  status: ('A' for Active; 'I' for Inactive)
REMARK    1  A    between atoms: C_2  and  CA_3 
REMARK       I    between atoms: N_13  and  C_2 
REMARK    2  A    between atoms: CA_3  and  N_4 
REMARK       I    between atoms: N_4  and  CAE_5 
REMARK    3  A    between atoms: CAE_5  and  CAG_7 
REMARK    4  A    between atoms: CA_14  and  N_13 
REMARK    5  A    between atoms: C_15  and  CA_14 
REMARK    6  A    between atoms: CA_14  and  CB_17 
REMARK       I    between atoms: N_20  and  C_15 
REMARK    7  A    between atoms: CB_17  and  CG1_18 
REMARK    8  A    between atoms: CB_17  and  CG2_19 
REMARK    9  A    between atoms: CA_21  and  N_20 
REMARK   10  A    between atoms: C_22  and  CA_21 
REMARK   11  A    between atoms: CA_21  and  CB_24 
REMARK       I    between atoms: N_30  and  C_22 
REMARK   12  A    between atoms: CB_24  and  CG_25 
REMARK   13  A    between atoms: CG_25  and  CD1_26 
REMARK   14  A    between atoms: CG_25  and  CD2_27 
REMARK   15  A    between atoms: CA_28  and  C_29 
REMARK   16  A    between atoms: CA_28  and  N_30 
REMARK   17  A    between atoms: CA_28  and  CB_32 
REMARK       I    between atoms: C_29  and  N_55 
REMARK   18  A    between atoms: CB_32  and  CAD_33 
REMARK   19  A    between atoms: CAD_33  and  CAE_34 
REMARK   20  A    between atoms: CAE_34  and  CAF_35 
REMARK   21  A    between atoms: CAF_35  and  NAG_36 
REMARK       I    between atoms: NAG_36  and  CAJ_37 
REMARK   22  A    between atoms: CAJ_37  and  CAK_39 
REMARK   23  A    between atoms: CAK_39  and  CAL_40 
REMARK   24  A    between atoms: CAL_40  and  CAM_41 
REMARK   25  A    between atoms: CAL_40  and  SAQ_44 
REMARK   26  A    between atoms: SAQ_44  and  CAR_45 
REMARK   27  A    between atoms: N_55  and  CA_56 
REMARK   28  A    between atoms: CA_56  and  C_57 
REMARK   29  A    between atoms: CA_56  and  CB_59 
REMARK       I    between atoms: C_57  and  N_64 
REMARK   30  A    between atoms: CB_59  and  CG_60 
REMARK   31  A    between atoms: CG_60  and  CD_61 
REMARK   32  A    between atoms: N_64  and  CA_65 
REMARK   33  A    between atoms: CA_65  and  C_66 
REMARK   34  A    between atoms: CA_65  and  CB_68 
REMARK       I    between atoms: C_66  and  N_76 
REMARK   35  A    between atoms: CB_68  and  CG_69 
REMARK   36  A    between atoms: CZ_74  and  OH_75 
REMARK   37  A    between atoms: N_76  and  CA_77 
REMARK   38  A    between atoms: CA_77  and  C_78 
REMARK       I    between atoms: C_78  and  N_80 
REMARK   39  A    between atoms: N_80  and  CA_81 
REMARK   40  A    between atoms: CA_81  and  C_82 
REMARK   41  A    between atoms: CA_81  and  CB_84 
REMARK   42  A    between atoms: CB_84  and  CG1_85 
REMARK   43  A    between atoms: CB_84  and  CG2_86 
ROOT
ATOM      1  CA  DQK d   1      31.292  22.144   1.801  0.00  0.00     0.089 C 
ATOM      2  H29 DQK d   1      30.331  21.763   2.177  0.00  0.00     0.087 H 
ENDROOT
BRANCH   1   3
ATOM      3  C   DQK d   1      32.065  20.973   1.218  0.00  0.00     0.241 C 
ATOM      4  O   DQK d   1      33.283  20.950   1.271  0.00  0.00    -0.271 OA
ATOM      5  N   GLU d   1      31.330  20.000   0.690  0.00  0.00    -0.346 N 
ATOM      6  H50 GLU d   1      30.372  20.198   0.485  0.00  0.00     0.163 HD
BRANCH   5   7
ATOM      7  CA  GLU d   1      31.832  18.648   0.386  0.00  0.00     0.090 C 
ATOM      8  H51 GLU d   1      30.947  18.020   0.204  0.00  0.00     0.087 H 
BRANCH   7   9
ATOM      9  C   GLU d   1      32.598  17.984   1.576  0.00  0.00     0.241 C 
ATOM     10  O   GLU d   1      33.373  17.042   1.374  0.00  0.00    -0.271 OA
ATOM     11  N   TYR d   1      32.331  18.454   2.805  0.00  0.00    -0.346 N 
ATOM     12  H56 TYR d   1      31.588  19.116   2.901  0.00  0.00     0.163 HD
BRANCH  11  13
ATOM     13  CA  TYR d   1      33.062  18.057   4.022  0.00  0.00     0.093 C 
ATOM     14  H57 TYR d   1      32.728  18.735   4.822  0.00  0.00     0.088 H 
BRANCH  13  15
ATOM     15  C   TYR d   1      34.604  18.167   3.962  0.00  0.00     0.241 C 
ATOM     16  O   TYR d   1      35.287  17.458   4.694  0.00  0.00    -0.271 OA
ATOM     17  N   GLY d   1      35.151  19.050   3.122  0.00  0.00    -0.351 N 
ATOM     18  H65 GLY d   1      34.549  19.660   2.606  0.00  0.00     0.163 HD
BRANCH  17  19
ATOM     19  CA  GLY d   1      36.610  19.160   2.927  0.00  0.00     0.069 C 
ATOM     20  H66 GLY d   1      37.116  18.614   3.737  0.00  0.00     0.078 H 
ATOM     21  H67 GLY d   1      36.892  20.222   2.969  0.00  0.00     0.078 H 
BRANCH  19  22
ATOM     22  C   GLY d   1      37.067  18.588   1.596  0.00  0.00     0.236 C 
ATOM     23  O   GLY d   1      37.646  19.307   0.783  0.00  0.00    -0.272 OA
ATOM     24  N   VAL d   1      36.829  17.292   1.388  0.00  0.00    -0.345 N 
ATOM     25  H68 VAL d   1      36.511  16.738   2.158  0.00  0.00     0.163 HD
BRANCH  24  26
ATOM     26  CA  VAL d   1      37.012  16.632   0.075  0.00  0.00     0.099 C 
ATOM     27  H69 VAL d   1      36.833  17.385  -0.706  0.00  0.00     0.090 H 
BRANCH  26  28
ATOM     28  C   VAL d   1      35.995  15.499  -0.089  0.00  0.00     0.197 C 
ATOM     29  O   VAL d   1      35.084  15.578  -0.917  0.00  0.00    -0.646 OA
ATOM     30  OXT VAL d   1      36.062  14.480   0.603  0.00  0.00    -0.646 OA
ENDBRANCH  26  28
BRANCH  26  31
ATOM     31  CB  VAL d   1      38.442  16.044  -0.139  0.00  0.00    -0.032 C 
ATOM     32  H70 VAL d   1      38.358  15.242  -0.887  0.00  0.00     0.042 H 
BRANCH  31  33
ATOM     33  CG1 VAL d   1      39.404  17.089  -0.697  0.00  0.00    -0.071 C 
ATOM     34  H71 VAL d   1      40.398  16.637  -0.833  0.00  0.00     0.028 H 
ATOM     35  H72 VAL d   1      39.478  17.932   0.006  0.00  0.00     0.028 H 
ATOM     36  H73 VAL d   1      39.030  17.451  -1.666  0.00  0.00     0.028 H 
ENDBRANCH  31  33
BRANCH  31  37
ATOM     37  CG2 VAL d   1      38.989  15.419   1.143  0.00  0.00    -0.071 C 
ATOM     38  H74 VAL d   1      38.275  14.672   1.520  0.00  0.00     0.028 H 
ATOM     39  H75 VAL d   1      39.133  16.203   1.901  0.00  0.00     0.028 H 
ATOM     40  H76 VAL d   1      39.952  14.932   0.931  0.00  0.00     0.028 H 
ENDBRANCH  31  37
ENDBRANCH  26  31
ENDBRANCH  24  26
ENDBRANCH  19  22
ENDBRANCH  17  19
ENDBRANCH  13  15
BRANCH  13  41
ATOM     41  CB  TYR d   1      32.678  16.626   4.424  0.00  0.00    -0.014 C 
ATOM     42  H58 TYR d   1      33.147  16.410   5.395  0.00  0.00     0.043 H 
ATOM     43  H59 TYR d   1      33.080  15.941   3.662  0.00  0.00     0.043 H 
BRANCH  41  44
ATOM     44  CG  TYR d   1      31.191  16.357   4.555  0.00  0.00    -0.056 A 
ATOM     45  CD1 TYR d   1      30.415  17.057   5.483  0.00  0.00    -0.074 A 
ATOM     46  CE1 TYR d   1      29.054  16.803   5.620  0.00  0.00    -0.051 A 
ATOM     47  H60 TYR d   1      30.882  17.811   6.107  0.00  0.00     0.084 H 
ATOM     48  CZ  TYR d   1      28.453  15.832   4.831  0.00  0.00     0.065 A 
ATOM     49  H62 TYR d   1      28.466  17.361   6.340  0.00  0.00     0.087 H 
ATOM     50  CE2 TYR d   1      29.208  15.112   3.913  0.00  0.00    -0.051 A 
ATOM     51  CD2 TYR d   1      30.564  15.373   3.782  0.00  0.00    -0.074 A 
ATOM     52  H63 TYR d   1      28.739  14.349   3.302  0.00  0.00     0.087 H 
ATOM     53  H61 TYR d   1      31.149  14.805   3.068  0.00  0.00     0.084 H 
BRANCH  48  54
ATOM     54  OH  TYR d   1      27.099  15.574   4.975  0.00  0.00    -0.361 OA
ATOM     55  H64 TYR d   1      26.737  16.149   5.638  0.00  0.00     0.217 HD
ENDBRANCH  48  54
ENDBRANCH  41  44
ENDBRANCH  13  41
ENDBRANCH  11  13
ENDBRANCH   7   9
BRANCH   7  56
ATOM     56  CB  GLU d   1      32.655  18.646  -0.929  0.00  0.00    -0.029 C 
ATOM     57  H52 GLU d   1      33.026  17.623  -1.093  0.00  0.00     0.037 H 
ATOM     58  H53 GLU d   1      33.508  19.328  -0.794  0.00  0.00     0.037 H 
BRANCH  56  59
ATOM     59  CG  GLU d   1      31.900  19.082  -2.198  0.00  0.00     0.018 C 
ATOM     60  H54 GLU d   1      32.645  19.278  -2.983  0.00  0.00     0.049 H 
ATOM     61  H55 GLU d   1      31.358  20.011  -1.966  0.00  0.00     0.049 H 
BRANCH  59  62
ATOM     62  CD  GLU d   1      30.884  18.068  -2.753  0.00  0.00     0.172 C 
ATOM     63  OE1 GLU d   1      29.974  18.508  -3.492  0.00  0.00    -0.648 OA
ATOM     64  OE2 GLU d   1      30.977  16.844  -2.488  0.00  0.00    -0.648 OA
ENDBRANCH  59  62
ENDBRANCH  56  59
ENDBRANCH   7  56
ENDBRANCH   5   7
ENDBRANCH   1   3
BRANCH   1  65
ATOM     65  N   DQK d   1      32.053  22.633   2.949  0.00  0.00    -0.346 N 
ATOM     66  C   LEU d   1      32.139  21.926   4.079  0.00  0.00     0.241 C 
ATOM     67  O   LEU d   1      31.568  20.843   4.245  0.00  0.00    -0.271 OA
ATOM     68  H30 DQK d   1      32.519  23.515   2.887  0.00  0.00     0.163 HD
BRANCH  66  69
ATOM     69  CA  LEU d   1      33.003  22.522   5.194  0.00  0.00     0.089 C 
ATOM     70  H19 LEU d   1      33.196  23.581   4.967  0.00  0.00     0.087 H 
BRANCH  69  71
ATOM     71  N   LEU d   1      32.303  22.442   6.482  0.00  0.00    -0.346 N 
ATOM     72  C   VAL d   1      31.226  23.177   6.740  0.00  0.00     0.241 C 
ATOM     73  O   VAL d   1      30.840  24.076   6.003  0.00  0.00    -0.271 OA
ATOM     74  H18 LEU d   1      32.646  21.818   7.184  0.00  0.00     0.163 HD
BRANCH  72  75
ATOM     75  CA  VAL d   1      30.457  22.842   8.020  0.00  0.00     0.092 C 
ATOM     76  H10 VAL d   1      31.009  22.065   8.570  0.00  0.00     0.088 H 
BRANCH  75  77
ATOM     77  N   VAL d   1      30.327  24.010   8.888  0.00  0.00    -0.346 N 
ATOM     78  C   GZB d   1      31.289  24.403   9.717  0.00  0.00     0.236 C 
ATOM     79  O   GZB d   1      32.454  23.998   9.659  0.00  0.00    -0.272 OA
ATOM     80  H9  VAL d   1      29.477  24.537   8.857  0.00  0.00     0.163 HD
BRANCH  78  81
ATOM     81  CA  GZB d   1      30.840  25.405  10.755  0.00  0.00     0.069 C 
ATOM     82  H1  GZB d   1      29.811  25.178  11.069  0.00  0.00     0.078 H 
ATOM     83  H2  GZB d   1      30.879  26.420  10.332  0.00  0.00     0.078 H 
BRANCH  81  84
ATOM     84  N   GZB d   1      31.759  25.313  11.933  0.00  0.00    -0.348 N 
ATOM     85  CAE GZB d   1      32.795  26.166  12.243  0.00  0.00     0.252 C 
ATOM     86  OAF GZB d   1      33.152  27.144  11.565  0.00  0.00    -0.268 OA
ATOM     87  H3  GZB d   1      31.604  24.551  12.562  0.00  0.00     0.163 HD
BRANCH  85  88
ATOM     88  CAG GZB d   1      33.468  25.880  13.448  0.00  0.00     0.032 A 
ATOM     89  CAH GZB d   1      34.438  24.875  13.529  0.00  0.00    -0.068 A 
ATOM     90  CAI GZB d   1      35.080  24.613  14.733  0.00  0.00    -0.082 A 
ATOM     91  H4  GZB d   1      34.690  24.297  12.647  0.00  0.00     0.085 H 
ATOM     92  CAJ GZB d   1      34.750  25.360  15.864  0.00  0.00    -0.083 A 
ATOM     93  H5  GZB d   1      35.831  23.834  14.793  0.00  0.00     0.083 H 
ATOM     94  CAK GZB d   1      33.784  26.360  15.786  0.00  0.00    -0.082 A 
ATOM     95  H6  GZB d   1      35.247  25.161  16.807  0.00  0.00     0.083 H 
ATOM     96  CAL GZB d   1      33.145  26.621  14.581  0.00  0.00    -0.068 A 
ATOM     97  H7  GZB d   1      33.530  26.936  16.668  0.00  0.00     0.083 H 
ATOM     98  H8  GZB d   1      32.395  27.401  14.523  0.00  0.00     0.085 H 
ENDBRANCH  85  88
ENDBRANCH  81  84
ENDBRANCH  78  81
ENDBRANCH  75  77
BRANCH  75  99
ATOM     99  CB  VAL d   1      29.069  22.282   7.624  0.00  0.00    -0.033 C 
ATOM    100  H11 VAL d   1      28.568  23.029   6.990  0.00  0.00     0.042 H 
BRANCH  99 101
ATOM    101  CG1 VAL d   1      29.217  20.994   6.808  0.00  0.00    -0.071 C 
ATOM    102  H12 VAL d   1      28.221  20.614   6.538  0.00  0.00     0.028 H 
ATOM    103  H13 VAL d   1      29.747  20.239   7.407  0.00  0.00     0.028 H 
ATOM    104  H14 VAL d   1      29.790  21.204   5.893  0.00  0.00     0.028 H 
ENDBRANCH  99 101
BRANCH  99 105
ATOM    105  CG2 VAL d   1      28.204  22.061   8.864  0.00  0.00    -0.071 C 
ATOM    106  H15 VAL d   1      28.119  23.004   9.425  0.00  0.00     0.028 H 
ATOM    107  H16 VAL d   1      28.668  21.295   9.503  0.00  0.00     0.028 H 
ATOM    108  H17 VAL d   1      27.202  21.726   8.557  0.00  0.00     0.028 H 
ENDBRANCH  99 105
ENDBRANCH  75  99
ENDBRANCH  72  75
ENDBRANCH  69  71
BRANCH  69 109
ATOM    109  CB  LEU d   1      34.346  21.775   5.247  0.00  0.00    -0.035 C 
ATOM    110  H20 LEU d   1      34.466  21.269   4.277  0.00  0.00     0.037 H 
ATOM    111  H21 LEU d   1      34.259  21.023   6.045  0.00  0.00     0.037 H 
BRANCH 109 112
ATOM    112  CG  LEU d   1      35.646  22.547   5.507  0.00  0.00    -0.059 C 
ATOM    113  H22 LEU d   1      36.026  22.889   4.533  0.00  0.00     0.038 H 
BRANCH 112 114
ATOM    114  CD1 LEU d   1      35.472  23.782   6.376  0.00  0.00    -0.073 C 
ATOM    115  H23 LEU d   1      36.446  24.274   6.513  0.00  0.00     0.028 H 
ATOM    116  H24 LEU d   1      35.070  23.487   7.356  0.00  0.00     0.028 H 
ATOM    117  H25 LEU d   1      34.774  24.479   5.888  0.00  0.00     0.028 H 
ENDBRANCH 112 114
BRANCH 112 118
ATOM    118  CD2 LEU d   1      36.675  21.601   6.110  0.00  0.00    -0.073 C 
ATOM    119  H26 LEU d   1      36.783  20.717   5.464  0.00  0.00     0.028 H 
ATOM    120  H27 LEU d   1      36.342  21.286   7.110  0.00  0.00     0.028 H 
ATOM    121  H28 LEU d   1      37.644  22.116   6.191  0.00  0.00     0.028 H 
ENDBRANCH 112 118
ENDBRANCH 109 112
ENDBRANCH  69 109
ENDBRANCH  66  69
ENDBRANCH   1  65
BRANCH   1 122
ATOM    122  CB  DQK d   1      30.957  23.217   0.753  0.00  0.00    -0.038 C 
ATOM    123  H31 DQK d   1      30.461  24.057   1.262  0.00  0.00     0.036 H 
ATOM    124  H32 DQK d   1      30.270  22.779   0.015  0.00  0.00     0.036 H 
BRANCH 122 125
ATOM    125  CAD DQK d   1      32.186  23.759   0.009  0.00  0.00    -0.061 C 
ATOM    126  H33 DQK d   1      33.099  23.397   0.504  0.00  0.00     0.033 H 
ATOM    127  H34 DQK d   1      32.168  24.859   0.030  0.00  0.00     0.033 H 
BRANCH 125 128
ATOM    128  CAE DQK d   1      32.174  23.279  -1.449  0.00  0.00    -0.050 C 
ATOM    129  H35 DQK d   1      32.044  22.187  -1.464  0.00  0.00     0.035 H 
ATOM    130  H36 DQK d   1      33.133  23.541  -1.919  0.00  0.00     0.035 H 
BRANCH 128 131
ATOM    131  CAF DQK d   1      31.031  23.930  -2.249  0.00  0.00    -0.005 C 
ATOM    132  H37 DQK d   1      30.647  24.800  -1.696  0.00  0.00     0.064 H 
ATOM    133  H38 DQK d   1      30.221  23.199  -2.392  0.00  0.00     0.064 H 
BRANCH 131 134
ATOM    134  NAG DQK d   1      31.535  24.368  -3.566  0.00  0.00    -0.361 N 
ATOM    135  CAJ DQK d   1      31.515  23.591  -4.677  0.00  0.00     0.219 C 
ATOM    136  OAN DQK d   1      31.082  22.439  -4.731  0.00  0.00    -0.274 OA
ATOM    137  H39 DQK d   1      31.913  25.291  -3.643  0.00  0.00     0.162 HD
BRANCH 135 138
ATOM    138  CAK DQK d   1      32.087  24.232  -5.939  0.00  0.00     0.030 C 
ATOM    139  H40 DQK d   1      31.828  23.601  -6.802  0.00  0.00     0.049 H 
ATOM    140  H41 DQK d   1      33.181  24.288  -5.840  0.00  0.00     0.049 H 
BRANCH 138 141
ATOM    141  CAL DQK d   1      31.541  25.652  -6.185  0.00  0.00     0.087 C 
ATOM    142  H42 DQK d   1      32.216  26.350  -5.669  0.00  0.00     0.074 H 
BRANCH 141 143
ATOM    143  CAM DQK d   1      31.636  25.958  -7.683  0.00  0.00     0.188 C 
ATOM    144  OAP DQK d   1      31.099  25.160  -8.476  0.00  0.00    -0.647 OA
ATOM    145  OAO DQK d   1      32.290  26.970  -7.998  0.00  0.00    -0.647 OA
ENDBRANCH 141 143
BRANCH 141 146
ATOM    146  SAQ DQK d   1      29.893  25.941  -5.488  0.00  0.00    -0.114 SA
BRANCH 146 147
ATOM    147  CAR DQK d   1      28.607  24.939  -6.395  0.00  0.00     0.002 A 
ATOM    148  CAS DQK d   1      27.991  25.463  -7.546  0.00  0.00    -0.056 A 
ATOM    149  CAT DQK d   1      27.000  24.751  -8.249  0.00  0.00    -0.025 A 
ATOM    150  H43 DQK d   1      28.288  26.443  -7.902  0.00  0.00     0.086 H 
ATOM    151  CAX DQK d   1      26.400  25.276  -9.411  0.00  0.00    -0.072 A 
ATOM    152  CAU DQK d   1      26.610  23.492  -7.781  0.00  0.00    -0.026 A 
ATOM    153  CAY DQK d   1      25.419  24.567 -10.105  0.00  0.00    -0.082 A 
ATOM    154  H44 DQK d   1      26.707  26.251  -9.773  0.00  0.00     0.084 H 
ATOM    155  CAZ DQK d   1      25.037  23.314  -9.635  0.00  0.00    -0.082 A 
ATOM    156  H45 DQK d   1      24.962  24.985 -10.995  0.00  0.00     0.083 H 
ATOM    157  CBA DQK d   1      25.628  22.781  -8.481  0.00  0.00    -0.072 A 
ATOM    158  H46 DQK d   1      24.279  22.748 -10.164  0.00  0.00     0.083 H 
ATOM    159  H47 DQK d   1      25.320  21.804  -8.126  0.00  0.00     0.084 H 
ATOM    160  CAV DQK d   1      27.209  22.966  -6.625  0.00  0.00    -0.071 A 
ATOM    161  CAW DQK d   1      28.192  23.683  -5.929  0.00  0.00    -0.066 A 
ATOM    162  H48 DQK d   1      26.906  21.989  -6.265  0.00  0.00     0.084 H 
ATOM    163  H49 DQK d   1      28.632  23.266  -5.030  0.00  0.00     0.085 H 
ENDBRANCH 146 147
ENDBRANCH 141 146
ENDBRANCH 138 141
ENDBRANCH 135 138
ENDBRANCH 131 134
ENDBRANCH 128 131
ENDBRANCH 125 128
ENDBRANCH 122 125
ENDBRANCH   1 122
TORSDOF 43
