REMARK  10 active torsions:
REMARK  status: ('A' for Active; 'I' for Inactive)
REMARK    1  A    between atoms: CAA_1  and  CAT_2 
REMARK       I    between atoms: CAT_2  and  N_4 
REMARK    2  A    between atoms: N_4  and  CA_5 
REMARK    3  A    between atoms: CA_5  and  CB_6 
REMARK    4  A    between atoms: CA_5  and  C_7 
REMARK       I    between atoms: C_7  and  NBD_9 
REMARK    5  A    between atoms: CBA_11  and  OAF_12 
REMARK    6  A    between atoms: CBC_14  and  CAV_15 
REMARK    7  A    between atoms: NAQ_17  and  CAM_18 
REMARK    8  A    between atoms: CAM_18  and  CAX_19 
REMARK    9  A    between atoms: CAY_24  and  CAZ_25 
REMARK   10  A    between atoms: CAW_29  and  CAB_30 
ROOT
ATOM      1  C   DV2 d   1       3.245  53.076 401.890  0.00  0.00     0.243 C 
ATOM      2  O   DV2 d   1       2.582  52.056 401.706  0.00  0.00    -0.271 OA
ATOM      3  NBD DV2 d   1       3.637  53.886 400.875  0.00  0.00    -0.337 N 
ATOM      4  CAO DV2 d   1       4.448  55.152 400.935  0.00  0.00     0.022 C 
ATOM      5  CBA DV2 d   1       4.122  55.914 399.673  0.00  0.00     0.053 C 
ATOM      6  CAN DV2 d   1       3.812  54.860 398.652  0.00  0.00    -0.015 C 
ATOM      7  CBC DV2 d   1       3.260  53.652 399.425  0.00  0.00     0.067 C 
ATOM      8  H9  DV2 d   1       5.522  54.917 400.973  0.00  0.00     0.068 H 
ATOM      9  H10 DV2 d   1       4.170  55.742 401.821  0.00  0.00     0.068 H 
ATOM     10  H11 DV2 d   1       4.973  56.535 399.357  0.00  0.00     0.085 H 
ATOM     11  H13 DV2 d   1       4.725  54.578 398.108  0.00  0.00     0.040 H 
ATOM     12  H14 DV2 d   1       3.061  55.231 397.939  0.00  0.00     0.040 H 
ATOM     13  H15 DV2 d   1       2.164  53.600 399.342  0.00  0.00     0.084 H 
ENDROOT
BRANCH   7  14
ATOM     14  CAV DV2 d   1       3.817  52.503 398.833  0.00  0.00     0.097 C 
ATOM     15  SAG DV2 d   1       5.211  51.817 399.528  0.00  0.00    -0.063 SA
ATOM     16  NAQ DV2 d   1       3.262  52.068 397.676  0.00  0.00    -0.378 N 
ATOM     17  H16 DV2 d   1       2.456  52.545 397.326  0.00  0.00     0.160 HD
BRANCH  16  18
ATOM     18  CAM DV2 d   1       3.784  50.935 396.914  0.00  0.00     0.017 C 
ATOM     19  H17 DV2 d   1       2.948  50.309 396.567  0.00  0.00     0.071 H 
ATOM     20  H18 DV2 d   1       4.449  50.337 397.554  0.00  0.00     0.071 H 
BRANCH  18  21
ATOM     21  CAX DV2 d   1       4.513  51.417 395.792  0.00  0.00    -0.041 A 
ATOM     22  CAI DV2 d   1       5.490  50.581 395.235  0.00  0.00    -0.074 A 
ATOM     23  CAK DV2 d   1       6.254  50.984 394.137  0.00  0.00    -0.071 A 
ATOM     24  H19 DV2 d   1       5.657  49.600 395.666  0.00  0.00     0.084 H 
ATOM     25  CAY DV2 d   1       6.062  52.235 393.546  0.00  0.00    -0.017 A 
ATOM     26  H20 DV2 d   1       7.008  50.315 393.737  0.00  0.00     0.084 H 
ATOM     27  CAJ DV2 d   1       5.093  53.078 394.099  0.00  0.00    -0.071 A 
ATOM     28  CAH DV2 d   1       4.325  52.682 395.199  0.00  0.00    -0.074 A 
ATOM     29  H22 DV2 d   1       4.934  54.059 393.666  0.00  0.00     0.084 H 
ATOM     30  H21 DV2 d   1       3.576  53.356 395.600  0.00  0.00     0.084 H 
BRANCH  25  31
ATOM     31  CAZ DV2 d   1       6.792  52.636 392.490  0.00  0.00     0.040 A 
ATOM     32  SAS DV2 d   1       7.569  54.103 392.377  0.00  0.00    -0.080 SA
ATOM     33  CAL DV2 d   1       8.204  53.860 390.878  0.00  0.00     0.041 A 
ATOM     34  NAP DV2 d   1       7.814  52.646 390.472  0.00  0.00    -0.258 NA
ATOM     35  H23 DV2 d   1       8.826  54.558 390.320  0.00  0.00     0.126 H 
ATOM     36  CAW DV2 d   1       7.040  51.975 391.346  0.00  0.00     0.049 A 
BRANCH  36  37
ATOM     37  CAB DV2 d   1       6.527  50.572 390.996  0.00  0.00    -0.034 C 
ATOM     38  H24 DV2 d   1       6.888  50.288 389.996  0.00  0.00     0.035 H 
ATOM     39  H25 DV2 d   1       5.427  50.572 391.002  0.00  0.00     0.035 H 
ATOM     40  H26 DV2 d   1       6.898  49.850 391.738  0.00  0.00     0.035 H 
ENDBRANCH  36  37
ENDBRANCH  25  31
ENDBRANCH  18  21
ENDBRANCH  16  18
ENDBRANCH   7  14
BRANCH   1  41
ATOM     41  CA  DV2 d   1       3.723  53.428 403.319  0.00  0.00     0.086 C 
ATOM     42  H5  DV2 d   1       3.747  54.521 403.440  0.00  0.00     0.086 H 
BRANCH  41  43
ATOM     43  N   DV2 d   1       2.810  52.845 404.321  0.00  0.00    -0.348 N 
ATOM     44  CAT DV2 d   1       1.670  53.461 404.698  0.00  0.00     0.214 C 
ATOM     45  OAD DV2 d   1       1.276  54.546 404.268  0.00  0.00    -0.274 OA
ATOM     46  H4  DV2 d   1       3.044  51.965 404.734  0.00  0.00     0.163 HD
BRANCH  44  47
ATOM     47  CAA DV2 d   1       0.847  52.706 405.745  0.00  0.00    -0.003 C 
ATOM     48  H1  DV2 d   1       1.356  51.766 406.003  0.00  0.00     0.040 H 
ATOM     49  H2  DV2 d   1      -0.150  52.483 405.337  0.00  0.00     0.040 H 
ATOM     50  H3  DV2 d   1       0.743  53.327 406.647  0.00  0.00     0.040 H 
ENDBRANCH  44  47
ENDBRANCH  41  43
BRANCH  41  51
ATOM     51  CB  DV2 d   1       5.128  52.856 403.520  0.00  0.00    -0.049 C 
ATOM     52  H6  DV2 d   1       5.810  53.289 402.774  0.00  0.00     0.030 H 
ATOM     53  H7  DV2 d   1       5.100  51.763 403.400  0.00  0.00     0.030 H 
ATOM     54  H8  DV2 d   1       5.484  53.105 404.531  0.00  0.00     0.030 H 
ENDBRANCH  41  51
ENDBRANCH   1  41
BRANCH   5  55
ATOM     55  OAF DV2 d   1       2.956  56.736 399.873  0.00  0.00    -0.394 OA
ATOM     56  H12 DV2 d   1       3.122  57.354 400.575  0.00  0.00     0.210 HD
ENDBRANCH   5  55
TORSDOF 10
