REMARK  11 active torsions:
REMARK  status: ('A' for Active; 'I' for Inactive)
REMARK    1  A    between atoms: CAA_1  and  CAT_2 
REMARK       I    between atoms: CAT_2  and  NAR_4 
REMARK    2  A    between atoms: NAR_4  and  CBB_5 
REMARK    3  A    between atoms: CBB_5  and  CAC_6 
REMARK    4  A    between atoms: CBB_5  and  CAV_7 
REMARK    5  A    between atoms: CAV_7  and  NBD_9 
REMARK    6  A    between atoms: CBA_11  and  OAE_12 
REMARK    7  A    between atoms: CBC_14  and  CAU_15 
REMARK    8  A    between atoms: NAQ_17  and  CAM_18 
REMARK    9  A    between atoms: CAM_18  and  CAX_19 
REMARK   10  A    between atoms: CAY_24  and  CAZ_25 
REMARK   11  A    between atoms: CAW_29  and  CAB_30 
ROOT
ATOM      1  NBD DV8 d   1      13.086  54.728  91.385  0.00  0.00    -0.360 N 
ATOM      2  CAO DV8 d   1      14.554  55.025  91.415  0.00  0.00     0.020 C 
ATOM      3  CBA DV8 d   1      14.763  55.995  90.281  0.00  0.00     0.053 C 
ATOM      4  CAN DV8 d   1      13.862  55.458  89.197  0.00  0.00    -0.015 C 
ATOM      5  CBC DV8 d   1      12.623  54.920  89.929  0.00  0.00     0.065 C 
ATOM      6  H9  DV8 d   1      15.140  54.108  91.256  0.00  0.00     0.068 H 
ATOM      7  H10 DV8 d   1      14.839  55.481  92.375  0.00  0.00     0.068 H 
ATOM      8  H11 DV8 d   1      15.814  56.024  89.958  0.00  0.00     0.085 H 
ATOM      9  H13 DV8 d   1      14.364  54.650  88.644  0.00  0.00     0.040 H 
ATOM     10  H14 DV8 d   1      13.579  56.260  88.499  0.00  0.00     0.040 H 
ATOM     11  H15 DV8 d   1      11.810  55.661  89.908  0.00  0.00     0.084 H 
ENDROOT
BRANCH   5  12
ATOM     12  CAU DV8 d   1      12.176  53.753  89.256  0.00  0.00     0.097 C 
ATOM     13  SAF DV8 d   1      12.726  52.257  89.790  0.00  0.00    -0.063 SA
ATOM     14  NAQ DV8 d   1      11.360  53.901  88.176  0.00  0.00    -0.378 N 
ATOM     15  H16 DV8 d   1      11.084  54.825  87.911  0.00  0.00     0.160 HD
BRANCH  14  16
ATOM     16  CAM DV8 d   1      10.864  52.767  87.379  0.00  0.00     0.017 C 
ATOM     17  H17 DV8 d   1       9.832  52.973  87.059  0.00  0.00     0.071 H 
ATOM     18  H18 DV8 d   1      10.882  51.856  87.996  0.00  0.00     0.071 H 
BRANCH  16  19
ATOM     19  CAX DV8 d   1      11.679  52.570  86.230  0.00  0.00    -0.041 A 
ATOM     20  CAI DV8 d   1      12.456  53.582  85.643  0.00  0.00    -0.074 A 
ATOM     21  CAK DV8 d   1      13.239  53.322  84.514  0.00  0.00    -0.071 A 
ATOM     22  H19 DV8 d   1      12.449  54.578  86.071  0.00  0.00     0.084 H 
ATOM     23  CAY DV8 d   1      13.264  52.056  83.917  0.00  0.00    -0.017 A 
ATOM     24  H20 DV8 d   1      13.840  54.119  84.091  0.00  0.00     0.084 H 
ATOM     25  CAJ DV8 d   1      12.494  51.042  84.502  0.00  0.00    -0.071 A 
ATOM     26  CAH DV8 d   1      11.710  51.300  85.633  0.00  0.00    -0.074 A 
ATOM     27  H22 DV8 d   1      12.505  50.046  84.074  0.00  0.00     0.084 H 
ATOM     28  H21 DV8 d   1      11.113  50.501  86.057  0.00  0.00     0.084 H 
BRANCH  23  29
ATOM     29  CAZ DV8 d   1      14.030  51.840  82.828  0.00  0.00     0.040 A 
ATOM     30  SAS DV8 d   1      15.591  52.375  82.672  0.00  0.00    -0.080 SA
ATOM     31  CAL DV8 d   1      15.845  51.766  81.163  0.00  0.00     0.041 A 
ATOM     32  NAP DV8 d   1      14.718  51.154  80.778  0.00  0.00    -0.258 NA
ATOM     33  H23 DV8 d   1      16.763  51.846  80.583  0.00  0.00     0.126 H 
ATOM     34  CAW DV8 d   1      13.719  51.195  81.682  0.00  0.00     0.049 A 
BRANCH  34  35
ATOM     35  CAB DV8 d   1      12.372  50.532  81.355  0.00  0.00    -0.034 C 
ATOM     36  H24 DV8 d   1      12.417  50.087  80.350  0.00  0.00     0.035 H 
ATOM     37  H25 DV8 d   1      11.574  51.288  81.386  0.00  0.00     0.035 H 
ATOM     38  H26 DV8 d   1      12.161  49.746  82.095  0.00  0.00     0.035 H 
ENDBRANCH  34  35
ENDBRANCH  23  29
ENDBRANCH  16  19
ENDBRANCH  14  16
ENDBRANCH   5  12
BRANCH   1  39
ATOM     39  CAV DV8 d   1      12.301  54.436  92.455  0.00  0.00     0.099 C 
ATOM     40  SAG DV8 d   1      10.687  54.150  92.304  0.00  0.00    -0.063 SA
BRANCH  39  41
ATOM     41  CBB DV8 d   1      12.928  54.259  93.867  0.00  0.00     0.059 C 
ATOM     42  H5  DV8 d   1      13.739  54.991  93.996  0.00  0.00     0.083 H 
BRANCH  41  43
ATOM     43  NAR DV8 d   1      11.934  54.450  94.942  0.00  0.00    -0.351 N 
ATOM     44  CAT DV8 d   1      11.607  55.668  95.418  0.00  0.00     0.214 C 
ATOM     45  OAD DV8 d   1      12.083  56.733  95.025  0.00  0.00    -0.274 OA
ATOM     46  H4  DV8 d   1      11.486  53.645  95.332  0.00  0.00     0.163 HD
BRANCH  44  47
ATOM     47  CAA DV8 d   1      10.551  55.660  96.527  0.00  0.00    -0.003 C 
ATOM     48  H1  DV8 d   1      10.250  54.623  96.739  0.00  0.00     0.040 H 
ATOM     49  H2  DV8 d   1       9.673  56.237  96.202  0.00  0.00     0.040 H 
ATOM     50  H3  DV8 d   1      10.971  56.113  97.437  0.00  0.00     0.040 H 
ENDBRANCH  44  47
ENDBRANCH  41  43
BRANCH  41  51
ATOM     51  CAC DV8 d   1      13.494  52.838  93.958  0.00  0.00    -0.051 C 
ATOM     52  H6  DV8 d   1      14.236  52.687  93.160  0.00  0.00     0.030 H 
ATOM     53  H7  DV8 d   1      12.678  52.110  93.842  0.00  0.00     0.030 H 
ATOM     54  H8  DV8 d   1      13.975  52.697  94.937  0.00  0.00     0.030 H 
ENDBRANCH  41  51
ENDBRANCH  39  41
ENDBRANCH   1  39
BRANCH   3  55
ATOM     55  OAE DV8 d   1      14.324  57.307  90.681  0.00  0.00    -0.394 OA
ATOM     56  H12 DV8 d   1      14.825  57.591  91.436  0.00  0.00     0.210 HD
ENDBRANCH   3  55
TORSDOF 11
