REMARK  6 active torsions:
REMARK  status: ('A' for Active; 'I' for Inactive)
REMARK    1  A    between atoms: C1_1  and  O_5 
REMARK    2  A    between atoms: C3_3  and  C2_2 
REMARK    3  A    between atoms: N_14  and  C3_3 
REMARK    4  A    between atoms: C4_4  and  N_14 
REMARK    5  A    between atoms: C13_17  and  O3_25 
REMARK    6  A    between atoms: C17_23  and  O4_24 
ROOT
ATOM      1  C4  E4E d   1      17.807  17.950  17.546  0.00  0.00     0.701 A 
ATOM      2  C5  E4E d   1      16.732  17.226  19.279  0.00  0.00     0.081 A 
ATOM      3  C6  E4E d   1      15.780  16.764  20.196  0.00  0.00    -0.027 A 
ATOM      4  C7  E4E d   1      16.072  16.799  21.565  0.00  0.00     0.067 A 
ATOM      5  C8  E4E d   1      15.318  16.571  23.769  0.00  0.00     0.679 A 
ATOM      6  C9  E4E d   1      17.570  17.399  23.441  0.00  0.00     0.272 A 
ATOM      7  O2  E4E d   1      18.622  17.815  23.915  0.00  0.00    -0.267 OA
ATOM      8  C10 E4E d   1      17.321  17.271  21.998  0.00  0.00     0.062 A 
ATOM      9  C11 E4E d   1      18.288  17.687  21.081  0.00  0.00    -0.035 A 
ATOM     10  C12 E4E d   1      17.974  17.676  19.730  0.00  0.00     0.104 A 
ATOM     11  N2  E4E d   1      15.069  16.427  22.470  0.00  0.00    -0.191 N 
ATOM     12  N3  E4E d   1      14.384  16.256  24.666  0.00  0.00    -0.234 N 
ATOM     13  N4  E4E d   1      16.512  17.044  24.245  0.00  0.00    -0.156 N 
ATOM     14  N1  E4E d   1      16.650  17.407  17.895  0.00  0.00    -0.188 N 
ATOM     15  N5  E4E d   1      18.644  18.117  18.597  0.00  0.00    -0.063 NA
ATOM     16  H6  E4E d   1      14.826  16.383  19.849  0.00  0.00     0.090 H 
ATOM     17  H8  E4E d   1      19.265  18.012  21.418  0.00  0.00     0.088 H 
ATOM     18  H10 E4E d   1      14.167  16.054  22.140  0.00  0.00     0.184 HD
ATOM     19  H11 E4E d   1      14.577  16.368  25.672  0.00  0.00     0.174 HD
ATOM     20  H12 E4E d   1      13.469  15.901  24.354  0.00  0.00     0.174 HD
ATOM     21  H13 E4E d   1      16.621  17.137  25.235  0.00  0.00     0.187 HD
ATOM     22  H14 E4E d   1      15.860  17.169  17.279  0.00  0.00     0.184 HD
ENDROOT
BRANCH   1  23
ATOM     23  N   E4E d   1      18.109  18.318  16.294  0.00  0.00    -0.222 N 
ATOM     24  H7  E4E d   1      19.026  18.752  16.118  0.00  0.00     0.177 HD
BRANCH  23  25
ATOM     25  C3  E4E d   1      17.202  18.134  15.172  0.00  0.00     0.036 C 
ATOM     26  H3  E4E d   1      17.599  17.329  14.536  0.00  0.00     0.068 H 
ATOM     27  H4  E4E d   1      16.219  17.838  15.567  0.00  0.00     0.068 H 
BRANCH  25  28
ATOM     28  C2  E4E d   1      17.017  19.372  14.315  0.00  0.00     0.084 C 
ATOM     29  O1  E4E d   1      18.329  19.930  14.097  0.00  0.00    -0.349 OA
ATOM     30  C1  E4E d   1      18.732  19.791  12.747  0.00  0.00     0.156 C 
ATOM     31  C17 E4E d   1      17.733  18.818  12.131  0.00  0.00     0.110 C 
ATOM     32  H1  E4E d   1      18.705  20.765  12.236  0.00  0.00     0.133 H 
ATOM     33  C13 E4E d   1      16.464  19.130  12.919  0.00  0.00     0.091 C 
ATOM     34  H15 E4E d   1      18.047  17.774  12.279  0.00  0.00     0.094 H 
ATOM     35  H9  E4E d   1      15.749  18.295  12.892  0.00  0.00     0.091 H 
ATOM     36  H2  E4E d   1      16.366  20.081  14.847  0.00  0.00     0.090 H 
BRANCH  30  37
ATOM     37  O   E4E d   1      20.010  19.237  12.642  0.00  0.00    -0.369 OA
ATOM     38  H5  E4E d   1      20.015  18.377  13.046  0.00  0.00     0.212 HD
ENDBRANCH  30  37
BRANCH  31  39
ATOM     39  O4  E4E d   1      17.565  19.067  10.745  0.00  0.00    -0.388 OA
ATOM     40  H16 E4E d   1      16.863  18.522  10.409  0.00  0.00     0.210 HD
ENDBRANCH  31  39
BRANCH  33  41
ATOM     41  O3  E4E d   1      15.852  20.323  12.447  0.00  0.00    -0.390 OA
ATOM     42  H17 E4E d   1      15.625  20.220  11.530  0.00  0.00     0.210 HD
ENDBRANCH  33  41
ENDBRANCH  25  28
ENDBRANCH  23  25
ENDBRANCH   1  23
TORSDOF 6
