REMARK  31 active torsions:
REMARK  status: ('A' for Active; 'I' for Inactive)
REMARK    1  A    between atoms: C_1  and  CH3_3 
REMARK       I    between atoms: C_1  and  N_4 
REMARK    2  A    between atoms: N_4  and  CA_5 
REMARK    3  A    between atoms: CA_5  and  C_6 
REMARK    4  A    between atoms: CA_5  and  CB_8 
REMARK       I    between atoms: C_6  and  N_12 
REMARK    5  A    between atoms: CB_8  and  CG_9 
REMARK    6  A    between atoms: N_12  and  CA_13 
REMARK    7  A    between atoms: CA_13  and  C_14 
REMARK    8  A    between atoms: CA_13  and  CB_16 
REMARK       I    between atoms: C_14  and  N_21 
REMARK    9  A    between atoms: CB_16  and  CG_17 
REMARK   10  A    between atoms: CG_17  and  CD_18 
REMARK   11  A    between atoms: N_21  and  CA_22 
REMARK   12  A    between atoms: CA_22  and  C_23 
REMARK   13  A    between atoms: CA_22  and  CB_25 
REMARK       I    between atoms: C_23  and  N_30 
REMARK   14  A    between atoms: CB_25  and  CG_26 
REMARK   15  A    between atoms: CG_26  and  CD_27 
REMARK   16  A    between atoms: N_30  and  CA_31 
REMARK   17  A    between atoms: CA_31  and  C_32 
REMARK   18  A    between atoms: CA_31  and  CB_34 
REMARK       I    between atoms: C_32  and  N_37 
REMARK   19  A    between atoms: CB_34  and  OG1_35 
REMARK   20  A    between atoms: CB_34  and  CG2_36 
REMARK   21  A    between atoms: N_37  and  CA_38 
REMARK   22  A    between atoms: CA_38  and  C_39 
REMARK       I    between atoms: C_39  and  N_41 
REMARK   23  A    between atoms: N_41  and  CA_42 
REMARK   24  A    between atoms: CA_42  and  C_43 
REMARK   25  A    between atoms: CA_42  and  CB_45 
REMARK       I    between atoms: C_43  and  N_50 
REMARK   26  A    between atoms: CB_45  and  CG_46 
REMARK   27  A    between atoms: CG_46  and  CD_47 
REMARK   28  A    between atoms: N_50  and  CA_51 
REMARK   29  A    between atoms: CA_51  and  C_52 
REMARK   30  A    between atoms: CA_51  and  CB_54 
REMARK   31  A    between atoms: CB_54  and  CG_55 
ROOT
ATOM      1  CA  THR d   1       6.710  -2.564 -28.501  0.00  0.00     0.113 C 
ATOM      2  H21 THR d   1       7.328  -2.883 -29.353  0.00  0.00     0.091 H 
ENDROOT
BRANCH   1   3
ATOM      3  N   THR d   1       6.640  -3.666 -27.569  0.00  0.00    -0.344 N 
ATOM      4  C   GLU d   1       7.551  -4.752 -27.753  0.00  0.00     0.241 C 
ATOM      5  O   GLU d   1       8.301  -4.656 -28.601  0.00  0.00    -0.271 OA
ATOM      6  H20 THR d   1       5.977  -3.669 -26.821  0.00  0.00     0.163 HD
BRANCH   4   7
ATOM      7  CA  GLU d   1       7.611  -5.970 -26.884  0.00  0.00     0.090 C 
ATOM      8  H15 GLU d   1       8.551  -6.524 -27.023  0.00  0.00     0.087 H 
BRANCH   7   9
ATOM      9  N   GLU d   1       7.519  -5.385 -25.600  0.00  0.00    -0.346 N 
ATOM     10  C   GLU d   1       8.684  -4.923 -24.928  0.00  0.00     0.241 C 
ATOM     11  O   GLU d   1       9.713  -5.033 -25.417  0.00  0.00    -0.271 OA
ATOM     12  H14 GLU d   1       6.625  -5.295 -25.160  0.00  0.00     0.163 HD
BRANCH  10  13
ATOM     13  CA  GLU d   1       8.560  -4.301 -23.568  0.00  0.00     0.090 C 
ATOM     14  H9  GLU d   1       9.295  -3.489 -23.464  0.00  0.00     0.087 H 
BRANCH  13  15
ATOM     15  N   GLU d   1       7.229  -3.746 -23.434  0.00  0.00    -0.346 N 
ATOM     16  C   ASP d   1       7.039  -2.394 -23.845  0.00  0.00     0.241 C 
ATOM     17  O   ASP d   1       7.946  -1.831 -24.249  0.00  0.00    -0.271 OA
ATOM     18  H8  GLU d   1       6.473  -4.289 -23.068  0.00  0.00     0.163 HD
BRANCH  16  19
ATOM     19  CA  ASP d   1       5.775  -1.592 -23.787  0.00  0.00     0.098 C 
ATOM     20  H5  ASP d   1       5.764  -0.905 -24.646  0.00  0.00     0.088 H 
BRANCH  19  21
ATOM     21  N   ASP d   1       4.584  -2.375 -23.807  0.00  0.00    -0.348 N 
ATOM     22  C   ACY d   1       4.431  -3.508 -24.638  0.00  0.00     0.214 C 
ATOM     23  O   ACY d   1       5.298  -3.847 -25.316  0.00  0.00    -0.274 OA
ATOM     24  H4  ASP d   1       3.827  -2.112 -23.209  0.00  0.00     0.163 HD
BRANCH  22  25
ATOM     25  CH3 ACY d   1       3.142  -4.276 -24.617  0.00  0.00    -0.003 C 
ATOM     26  H1  ACY d   1       2.443  -3.800 -23.913  0.00  0.00     0.040 H 
ATOM     27  H2  ACY d   1       3.337  -5.310 -24.297  0.00  0.00     0.040 H 
ATOM     28  H3  ACY d   1       2.701  -4.280 -25.625  0.00  0.00     0.040 H 
ENDBRANCH  22  25
ENDBRANCH  19  21
BRANCH  19  29
ATOM     29  CB  ASP d   1       5.738  -0.807 -22.508  0.00  0.00     0.043 C 
ATOM     30  H6  ASP d   1       5.457  -1.488 -21.692  0.00  0.00     0.052 H 
ATOM     31  H7  ASP d   1       4.976  -0.019 -22.607  0.00  0.00     0.052 H 
BRANCH  29  32
ATOM     32  CG  ASP d   1       7.036  -0.163 -22.156  0.00  0.00     0.175 C 
ATOM     33  OD1 ASP d   1       8.039  -0.810 -21.914  0.00  0.00    -0.648 OA
ATOM     34  OD2 ASP d   1       7.106   1.047 -22.085  0.00  0.00    -0.648 OA
ENDBRANCH  29  32
ENDBRANCH  19  29
ENDBRANCH  16  19
ENDBRANCH  13  15
BRANCH  13  35
ATOM     35  CB  GLU d   1       8.854  -5.368 -22.521  0.00  0.00    -0.029 C 
ATOM     36  H10 GLU d   1       9.418  -6.179 -23.006  0.00  0.00     0.037 H 
ATOM     37  H11 GLU d   1       7.895  -5.759 -22.150  0.00  0.00     0.037 H 
BRANCH  35  38
ATOM     38  CG  GLU d   1       9.667  -4.873 -21.317  0.00  0.00     0.018 C 
ATOM     39  H12 GLU d   1       9.555  -5.620 -20.517  0.00  0.00     0.049 H 
ATOM     40  H13 GLU d   1       9.225  -3.919 -20.993  0.00  0.00     0.049 H 
BRANCH  38  41
ATOM     41  CD  GLU d   1      11.161  -4.638 -21.513  0.00  0.00     0.172 C 
ATOM     42  OE1 GLU d   1      11.591  -3.533 -21.881  0.00  0.00    -0.648 OA
ATOM     43  OE2 GLU d   1      11.991  -5.537 -21.290  0.00  0.00    -0.648 OA
ENDBRANCH  38  41
ENDBRANCH  35  38
ENDBRANCH  13  35
ENDBRANCH  10  13
ENDBRANCH   7   9
BRANCH   7  44
ATOM     44  CB  GLU d   1       6.420  -6.897 -27.116  0.00  0.00    -0.029 C 
ATOM     45  H16 GLU d   1       5.953  -6.598 -28.066  0.00  0.00     0.037 H 
ATOM     46  H17 GLU d   1       5.711  -6.732 -26.291  0.00  0.00     0.037 H 
BRANCH  44  47
ATOM     47  CG  GLU d   1       6.684  -8.397 -27.193  0.00  0.00     0.018 C 
ATOM     48  H18 GLU d   1       7.453  -8.639 -26.445  0.00  0.00     0.049 H 
ATOM     49  H19 GLU d   1       7.070  -8.616 -28.200  0.00  0.00     0.049 H 
BRANCH  47  50
ATOM     50  CD  GLU d   1       5.495  -9.315 -26.945  0.00  0.00     0.172 C 
ATOM     51  OE1 GLU d   1       5.112 -10.214 -27.736  0.00  0.00    -0.648 OA
ATOM     52  OE2 GLU d   1       4.877  -9.191 -25.893  0.00  0.00    -0.648 OA
ENDBRANCH  47  50
ENDBRANCH  44  47
ENDBRANCH   7  44
ENDBRANCH   4   7
ENDBRANCH   1   3
BRANCH   1  53
ATOM     53  C   THR d   1       7.239  -1.290 -27.952  0.00  0.00     0.243 C 
ATOM     54  O   THR d   1       7.358  -0.480 -28.716  0.00  0.00    -0.271 OA
ATOM     55  N   GLY d   1       7.523  -1.010 -26.586  0.00  0.00    -0.350 N 
ATOM     56  H27 GLY d   1       7.404  -1.718 -25.890  0.00  0.00     0.163 HD
BRANCH  55  57
ATOM     57  CA  GLY d   1       7.983   0.300 -26.217  0.00  0.00     0.069 C 
ATOM     58  H28 GLY d   1       8.727   0.626 -26.959  0.00  0.00     0.078 H 
ATOM     59  H29 GLY d   1       8.458   0.233 -25.227  0.00  0.00     0.078 H 
BRANCH  57  60
ATOM     60  C   GLY d   1       6.893   1.344 -26.149  0.00  0.00     0.236 C 
ATOM     61  O   GLY d   1       7.105   2.413 -25.816  0.00  0.00    -0.272 OA
ATOM     62  N   GLU d   1       5.559   1.033 -26.512  0.00  0.00    -0.346 N 
ATOM     63  H30 GLU d   1       5.319   0.110 -26.814  0.00  0.00     0.163 HD
BRANCH  62  64
ATOM     64  CA  GLU d   1       4.570   2.043 -26.442  0.00  0.00     0.090 C 
ATOM     65  H31 GLU d   1       4.947   2.972 -26.894  0.00  0.00     0.087 H 
BRANCH  64  66
ATOM     66  C   GLU d   1       4.171   2.273 -25.027  0.00  0.00     0.241 C 
ATOM     67  O   GLU d   1       4.460   1.553 -24.183  0.00  0.00    -0.271 OA
ATOM     68  N   PHE d   1       3.386   3.427 -24.776  0.00  0.00    -0.344 N 
ATOM     69  H36 PHE d   1       3.171   4.003 -25.565  0.00  0.00     0.163 HD
BRANCH  68  70
ATOM     70  CA  PHE d   1       2.873   3.851 -23.522  0.00  0.00     0.100 C 
ATOM     71  H37 PHE d   1       3.149   3.194 -22.684  0.00  0.00     0.090 H 
BRANCH  70  72
ATOM     72  C   PHE d   1       1.393   3.921 -23.792  0.00  0.00     0.197 C 
ATOM     73  O   PHE d   1       0.586   3.107 -23.330  0.00  0.00    -0.646 OA
ATOM     74  OXT PHE d   1       0.944   4.795 -24.539  0.00  0.00    -0.646 OA
ENDBRANCH  70  72
BRANCH  70  75
ATOM     75  CB  PHE d   1       3.303   5.280 -23.321  0.00  0.00    -0.013 C 
ATOM     76  H38 PHE d   1       2.644   5.707 -22.551  0.00  0.00     0.043 H 
ATOM     77  H39 PHE d   1       3.138   5.801 -24.276  0.00  0.00     0.043 H 
BRANCH  75  78
ATOM     78  CG  PHE d   1       4.729   5.577 -22.896  0.00  0.00    -0.056 A 
ATOM     79  CD1 PHE d   1       5.565   4.623 -22.461  0.00  0.00    -0.077 A 
ATOM     80  CE1 PHE d   1       6.832   4.986 -22.090  0.00  0.00    -0.082 A 
ATOM     81  H40 PHE d   1       5.245   3.589 -22.404  0.00  0.00     0.084 H 
ATOM     82  CZ  PHE d   1       7.270   6.271 -22.150  0.00  0.00    -0.083 A 
ATOM     83  H42 PHE d   1       7.511   4.220 -21.735  0.00  0.00     0.083 H 
ATOM     84  CE2 PHE d   1       6.435   7.220 -22.586  0.00  0.00    -0.082 A 
ATOM     85  H44 PHE d   1       8.280   6.523 -21.849  0.00  0.00     0.083 H 
ATOM     86  CD2 PHE d   1       5.185   6.858 -22.946  0.00  0.00    -0.077 A 
ATOM     87  H43 PHE d   1       6.754   8.254 -22.649  0.00  0.00     0.083 H 
ATOM     88  H41 PHE d   1       4.508   7.630 -23.294  0.00  0.00     0.084 H 
ENDBRANCH  75  78
ENDBRANCH  70  75
ENDBRANCH  68  70
ENDBRANCH  64  66
BRANCH  64  89
ATOM     89  CB  GLU d   1       3.328   1.563 -27.155  0.00  0.00    -0.029 C 
ATOM     90  H32 GLU d   1       2.509   2.270 -26.957  0.00  0.00     0.037 H 
ATOM     91  H33 GLU d   1       3.057   0.570 -26.767  0.00  0.00     0.037 H 
BRANCH  89  92
ATOM     92  CG  GLU d   1       3.535   1.463 -28.644  0.00  0.00     0.018 C 
ATOM     93  H34 GLU d   1       4.083   0.532 -28.852  0.00  0.00     0.049 H 
ATOM     94  H35 GLU d   1       4.140   2.324 -28.964  0.00  0.00     0.049 H 
BRANCH  92  95
ATOM     95  CD  GLU d   1       2.277   1.453 -29.451  0.00  0.00     0.172 C 
ATOM     96  OE1 GLU d   1       2.291   1.201 -30.642  0.00  0.00    -0.648 OA
ATOM     97  OE2 GLU d   1       1.209   1.682 -28.935  0.00  0.00    -0.648 OA
ENDBRANCH  92  95
ENDBRANCH  89  92
ENDBRANCH  64  89
ENDBRANCH  62  64
ENDBRANCH  57  60
ENDBRANCH  55  57
ENDBRANCH   1  53
BRANCH   1  98
ATOM     98  CB  THR d   1       5.339  -2.155 -28.969  0.00  0.00     0.060 C 
ATOM     99  H22 THR d   1       5.438  -1.492 -29.841  0.00  0.00     0.086 H 
BRANCH  98 100
ATOM    100  OG1 THR d   1       4.633  -1.533 -27.979  0.00  0.00    -0.393 OA
ATOM    101  H23 THR d   1       5.100  -0.754 -27.701  0.00  0.00     0.210 HD
ENDBRANCH  98 100
BRANCH  98 102
ATOM    102  CG2 THR d   1       4.527  -3.357 -29.316  0.00  0.00    -0.050 C 
ATOM    103  H24 THR d   1       3.530  -3.040 -29.655  0.00  0.00     0.031 H 
ATOM    104  H25 THR d   1       4.425  -3.999 -28.429  0.00  0.00     0.031 H 
ATOM    105  H26 THR d   1       5.027  -3.918 -30.120  0.00  0.00     0.031 H 
ENDBRANCH  98 102
ENDBRANCH   1  98
TORSDOF 31
