REMARK  19 active torsions:
REMARK  status: ('A' for Active; 'I' for Inactive)
REMARK    1  A    between atoms: PBO_2  and  CBN_5 
REMARK    2  A    between atoms: CBM_10  and  OBG_11 
REMARK    3  A    between atoms: OBG_11  and  CAZ_12 
REMARK    4  A    between atoms: CAZ_12  and  CBI_13 
REMARK       I    between atoms: CBI_13  and  NBC_15 
REMARK    5  A    between atoms: NBC_15  and  CBK_16 
REMARK    6  A    between atoms: CBL_21  and  CBJ_22 
REMARK       I    between atoms: CBJ_22  and  NBB_24 
REMARK    7  A    between atoms: NBB_24  and  CAR_25 
REMARK    8  A    between atoms: CAR_25  and  CAS_26 
REMARK    9  A    between atoms: CAS_26  and  OBD_27 
REMARK   10  A    between atoms: OBD_27  and  CAT_28 
REMARK   11  A    between atoms: CAT_28  and  CAU_29 
REMARK   12  A    between atoms: CAU_29  and  OBE_30 
REMARK   13  A    between atoms: OBE_30  and  CAV_31 
REMARK   14  A    between atoms: CAV_31  and  CAW_32 
REMARK   15  A    between atoms: CAW_32  and  OBF_33 
REMARK   16  A    between atoms: OBF_33  and  CAX_34 
REMARK   17  A    between atoms: CAX_34  and  CAY_35 
REMARK   18  A    between atoms: CAY_35  and  CBH_36 
REMARK       I    between atoms: CBH_36  and  NBA_38 
REMARK   19  A    between atoms: NBA_38  and  CAQ_39 
ROOT
ATOM      1  CBJ DW8 d   1      11.973   6.198   4.074  0.00  0.00     0.251 C 
ATOM      2  OAD DW8 d   1      11.641   6.035   5.247  0.00  0.00    -0.268 OA
ATOM      3  NBB DW8 d   1      13.243   6.071   3.658  0.00  0.00    -0.355 N 
ATOM      4  H12 DW8 d   1      13.450   6.218   2.691  0.00  0.00     0.162 HD
ENDROOT
BRANCH   3   5
ATOM      5  CAR DW8 d   1      14.331   5.726   4.565  0.00  0.00     0.015 C 
ATOM      6  H13 DW8 d   1      15.035   5.037   4.076  0.00  0.00     0.067 H 
ATOM      7  H14 DW8 d   1      13.936   5.259   5.479  0.00  0.00     0.067 H 
BRANCH   5   8
ATOM      8  CAS DW8 d   1      15.025   7.056   4.898  0.00  0.00     0.034 C 
ATOM      9  H15 DW8 d   1      15.146   7.644   3.976  0.00  0.00     0.076 H 
ATOM     10  H16 DW8 d   1      16.014   6.851   5.334  0.00  0.00     0.076 H 
BRANCH   8  11
ATOM     11  OBD DW8 d   1      14.238   7.804   5.838  0.00  0.00    -0.387 OA
BRANCH  11  12
ATOM     12  CAT DW8 d   1      14.702   9.136   5.977  0.00  0.00     0.039 C 
ATOM     13  H17 DW8 d   1      15.760   9.206   5.683  0.00  0.00     0.077 H 
ATOM     14  H18 DW8 d   1      14.587   9.475   7.017  0.00  0.00     0.077 H 
BRANCH  12  15
ATOM     15  CAU DW8 d   1      13.827   9.985   5.036  0.00  0.00     0.039 C 
ATOM     16  H19 DW8 d   1      14.013   9.684   3.995  0.00  0.00     0.077 H 
ATOM     17  H20 DW8 d   1      14.082  11.048   5.162  0.00  0.00     0.077 H 
BRANCH  15  18
ATOM     18  OBE DW8 d   1      12.435   9.788   5.348  0.00  0.00    -0.387 OA
BRANCH  18  19
ATOM     19  CAV DW8 d   1      11.661  10.973   5.287  0.00  0.00     0.039 C 
ATOM     20  H21 DW8 d   1      11.376  11.200   4.249  0.00  0.00     0.077 H 
ATOM     21  H22 DW8 d   1      12.216  11.824   5.709  0.00  0.00     0.077 H 
BRANCH  19  22
ATOM     22  CAW DW8 d   1      10.422  10.656   6.135  0.00  0.00     0.039 C 
ATOM     23  H23 DW8 d   1      10.739  10.387   7.154  0.00  0.00     0.077 H 
ATOM     24  H24 DW8 d   1       9.880   9.811   5.684  0.00  0.00     0.077 H 
BRANCH  22  25
ATOM     25  OBF DW8 d   1       9.552  11.799   6.195  0.00  0.00    -0.389 OA
BRANCH  25  26
ATOM     26  CAX DW8 d   1       8.552  11.610   7.176  0.00  0.00     0.027 C 
ATOM     27  H25 DW8 d   1       8.416  10.541   7.395  0.00  0.00     0.075 H 
ATOM     28  H26 DW8 d   1       7.595  12.042   6.848  0.00  0.00     0.075 H 
BRANCH  26  29
ATOM     29  CAY DW8 d   1       9.096  12.355   8.404  0.00  0.00     0.029 C 
ATOM     30  H27 DW8 d   1       9.311  13.396   8.123  0.00  0.00     0.050 H 
ATOM     31  H28 DW8 d   1      10.024  11.866   8.736  0.00  0.00     0.050 H 
BRANCH  29  32
ATOM     32  CBH DW8 d   1       8.088  12.350   9.563  0.00  0.00     0.219 C 
ATOM     33  OAB DW8 d   1       7.263  11.443   9.688  0.00  0.00    -0.274 OA
ATOM     34  NBA DW8 d   1       8.209  13.390  10.410  0.00  0.00    -0.365 N 
ATOM     35  H29 DW8 d   1       8.915  14.075  10.230  0.00  0.00     0.161 HD
BRANCH  34  36
ATOM     36  CAQ DW8 d   1       7.345  13.560  11.590  0.00  0.00    -0.018 C 
ATOM     37  H30 DW8 d   1       7.632  14.477  12.125  0.00  0.00     0.056 H 
ATOM     38  H31 DW8 d   1       7.462  12.694  12.258  0.00  0.00     0.056 H 
ATOM     39  H32 DW8 d   1       6.296  13.636  11.268  0.00  0.00     0.056 H 
ENDBRANCH  34  36
ENDBRANCH  29  32
ENDBRANCH  26  29
ENDBRANCH  25  26
ENDBRANCH  22  25
ENDBRANCH  19  22
ENDBRANCH  18  19
ENDBRANCH  15  18
ENDBRANCH  12  15
ENDBRANCH  11  12
ENDBRANCH   8  11
ENDBRANCH   5   8
ENDBRANCH   3   5
BRANCH   1  40
ATOM     40  CBL DW8 d   1      11.020   6.562   3.107  0.00  0.00     0.034 A 
ATOM     41  CAO DW8 d   1      10.037   7.497   3.437  0.00  0.00    -0.042 A 
ATOM     42  CBK DW8 d   1       9.076   7.890   2.512  0.00  0.00     0.035 A 
ATOM     43  H8  DW8 d   1      10.023   7.925   4.433  0.00  0.00     0.088 H 
ATOM     44  CAK DW8 d   1       9.080   7.335   1.235  0.00  0.00    -0.057 A 
ATOM     45  CAJ DW8 d   1      10.056   6.402   0.894  0.00  0.00    -0.080 A 
ATOM     46  H9  DW8 d   1       8.328   7.627   0.511  0.00  0.00     0.086 H 
ATOM     47  CAL DW8 d   1      11.018   6.013   1.824  0.00  0.00    -0.068 A 
ATOM     48  H10 DW8 d   1      10.067   5.975  -0.102  0.00  0.00     0.083 H 
ATOM     49  H11 DW8 d   1      11.768   5.280   1.550  0.00  0.00     0.085 H 
BRANCH  42  50
ATOM     50  NBC DW8 d   1       8.159   8.785   2.888  0.00  0.00    -0.325 N 
ATOM     51  CBI DW8 d   1       8.087   9.982   2.272  0.00  0.00     0.246 C 
ATOM     52  OAC DW8 d   1       8.798  10.351   1.339  0.00  0.00    -0.271 OA
ATOM     53  H7  DW8 d   1       7.524   8.567   3.629  0.00  0.00     0.169 HD
BRANCH  51  54
ATOM     54  CAZ DW8 d   1       7.014  10.918   2.832  0.00  0.00     0.100 C 
ATOM     55  H5  DW8 d   1       7.479  11.633   3.526  0.00  0.00     0.089 H 
ATOM     56  H6  DW8 d   1       6.539  11.466   2.005  0.00  0.00     0.089 H 
BRANCH  54  57
ATOM     57  OBG DW8 d   1       6.016  10.150   3.533  0.00  0.00    -0.341 OA
BRANCH  57  58
ATOM     58  CBM DW8 d   1       5.539  10.713   4.683  0.00  0.00     0.089 A 
ATOM     59  CBN DW8 d   1       5.228   9.836   5.723  0.00  0.00     0.101 A 
ATOM     60  CAN DW8 d   1       4.731  10.343   6.923  0.00  0.00    -0.061 A 
ATOM     61  CAI DW8 d   1       4.538  11.716   7.080  0.00  0.00    -0.082 A 
ATOM     62  H1  DW8 d   1       4.494   9.668   7.737  0.00  0.00     0.085 H 
ATOM     63  CAH DW8 d   1       4.848  12.586   6.039  0.00  0.00    -0.080 A 
ATOM     64  H2  DW8 d   1       4.146  12.105   8.013  0.00  0.00     0.083 H 
ATOM     65  CAM DW8 d   1       5.348  12.089   4.838  0.00  0.00    -0.050 A 
ATOM     66  H3  DW8 d   1       4.700  13.653   6.163  0.00  0.00     0.083 H 
ATOM     67  H4  DW8 d   1       5.588  12.767   4.027  0.00  0.00     0.087 H 
BRANCH  59  68
ATOM     68  PBO DW8 d   1       5.435   8.123   5.588  0.00  0.00     0.298 P 
ATOM     69  OAF DW8 d   1       4.653   7.586   4.315  0.00  0.00    -0.636 OA
ATOM     70  OAG DW8 d   1       6.947   7.758   5.191  0.00  0.00    -0.636 OA
ATOM     71  OAE DW8 d   1       5.030   7.280   6.730  0.00  0.00    -0.636 OA
ENDBRANCH  59  68
ENDBRANCH  57  58
ENDBRANCH  54  57
ENDBRANCH  51  54
ENDBRANCH  42  50
ENDBRANCH   1  40
TORSDOF 19
