REMARK  3 active torsions:
REMARK  status: ('A' for Active; 'I' for Inactive)
REMARK    1  A    between atoms: C09_10  and  C13_2 
REMARK    2  A    between atoms: C02_4  and  C01_3 
REMARK    3  A    between atoms: C03_5  and  N17_15 
ROOT
ATOM      1  C10 DY5 d   1      32.272  10.217  -1.262  0.00  0.00     0.028 C 
ATOM      2  C02 DY5 d   1      30.372  14.742  -1.989  0.00  0.00    -0.028 A 
ATOM      3  C03 DY5 d   1      30.752  13.538  -2.557  0.00  0.00     0.125 A 
ATOM      4  C04 DY5 d   1      31.250  12.439  -1.777  0.00  0.00     0.077 A 
ATOM      5  C05 DY5 d   1      31.329  12.651  -0.396  0.00  0.00     0.086 A 
ATOM      6  C06 DY5 d   1      30.938  13.886   0.200  0.00  0.00    -0.049 A 
ATOM      7  C07 DY5 d   1      30.469  14.912  -0.591  0.00  0.00    -0.072 A 
ATOM      8  C09 DY5 d   1      32.484  10.697  -0.049  0.00  0.00     0.145 C 
ATOM      9  C11 DY5 d   1      31.672  11.090  -2.303  0.00  0.00     0.167 C 
ATOM     10  O08 DY5 d   1      31.754  11.670   0.489  0.00  0.00    -0.335 OA
ATOM     11  O12 DY5 d   1      31.527  10.722  -3.464  0.00  0.00    -0.292 OA
ATOM     12  H1  DY5 d   1      31.605   9.349  -1.150  0.00  0.00     0.049 H 
ATOM     13  H2  DY5 d   1      33.246   9.883  -1.648  0.00  0.00     0.049 H 
ATOM     14  H6  DY5 d   1      31.010  14.017   1.274  0.00  0.00     0.087 H 
ATOM     15  H7  DY5 d   1      30.174  15.852  -0.139  0.00  0.00     0.084 H 
ATOM     16  H8  DY5 d   1      32.194   9.820   0.549  0.00  0.00     0.098 H 
ENDROOT
BRANCH   8  17
ATOM     17  C13 DY5 d   1      33.881  10.986   0.421  0.00  0.00     0.414 C 
ATOM     18  F14 DY5 d   1      34.327  10.030   1.257  0.00  0.00    -0.168 F 
ATOM     19  F15 DY5 d   1      34.769  11.156  -0.590  0.00  0.00    -0.168 F 
ATOM     20  F16 DY5 d   1      33.896  12.157   1.121  0.00  0.00    -0.168 F 
ENDBRANCH   8  17
BRANCH   3  21
ATOM     21  N17 DY5 d   1      30.631  13.414  -4.120  0.00  0.00    -0.114 N 
ATOM     22  O18 DY5 d   1      31.534  13.921  -4.756  0.00  0.00    -0.532 OA
ATOM     23  O19 DY5 d   1      29.673  12.851  -4.614  0.00  0.00    -0.532 OA
ENDBRANCH   3  21
BRANCH   2  24
ATOM     24  C01 DY5 d   1      29.869  15.867  -2.804  0.00  0.00    -0.049 C 
ATOM     25  H3  DY5 d   1      29.629  16.717  -2.148  0.00  0.00     0.033 H 
ATOM     26  H4  DY5 d   1      28.963  15.553  -3.343  0.00  0.00     0.033 H 
ATOM     27  H5  DY5 d   1      30.640  16.169  -3.528  0.00  0.00     0.033 H 
ENDBRANCH   2  24
TORSDOF 3
