REMARK  4 active torsions:
REMARK  status: ('A' for Active; 'I' for Inactive)
REMARK    1  A    between atoms: CA_9  and  N_1 
REMARK    2  A    between atoms: C_2  and  CA_9 
REMARK    3  A    between atoms: CA_9  and  CB_11 
REMARK    4  A    between atoms: CB_11  and  CG_12 
ROOT
ATOM      1  CA  DY8 d   1       9.183  15.047  15.100  0.00  0.00     0.191 C 
ATOM      2  H10 DY8 d   1      10.187  14.915  14.670  0.00  0.00     0.102 H 
ENDROOT
BRANCH   1   3
ATOM      3  N   DY8 d   1       9.120  16.347  15.727  0.00  0.00    -0.053 N 
ATOM      4  CAG DY8 d   1       9.614  17.319  14.788  0.00  0.00     0.104 C 
ATOM      5  CAE DY8 d   1      10.850  18.162  15.083  0.00  0.00     0.042 C 
ATOM      6  H2  DY8 d   1       8.791  18.027  14.614  0.00  0.00     0.079 H 
ATOM      7  H3  DY8 d   1       9.828  16.770  13.859  0.00  0.00     0.079 H 
ATOM      8  OAL DY8 d   1      11.511  17.797  16.263  0.00  0.00    -0.388 OA
ATOM      9  H4  DY8 d   1      10.541  19.214  15.169  0.00  0.00     0.076 H 
ATOM     10  H5  DY8 d   1      11.553  18.054  14.244  0.00  0.00     0.076 H 
ATOM     11  CAF DY8 d   1      10.585  17.622  17.293  0.00  0.00     0.042 C 
ATOM     12  CAH DY8 d   1       9.760  16.391  17.016  0.00  0.00     0.104 C 
ATOM     13  H6  DY8 d   1       9.926  18.501  17.349  0.00  0.00     0.076 H 
ATOM     14  H7  DY8 d   1      11.116  17.501  18.248  0.00  0.00     0.076 H 
ATOM     15  H8  DY8 d   1      10.421  15.516  17.095  0.00  0.00     0.079 H 
ATOM     16  H9  DY8 d   1       8.976  16.329  17.785  0.00  0.00     0.079 H 
ATOM     17  H1  DY8 d   1       8.147  16.556  15.889  0.00  0.00     0.281 HD
ENDBRANCH   1   3
BRANCH   1  18
ATOM     18  C   DY8 d   1       8.144  14.991  13.985  0.00  0.00     0.205 C 
ATOM     19  O   DY8 d   1       8.482  14.735  12.839  0.00  0.00    -0.646 OA
ATOM     20  OXT DY8 d   1       6.972  15.223  14.236  0.00  0.00    -0.646 OA
ENDBRANCH   1  18
BRANCH   1  21
ATOM     21  CB  DY8 d   1       8.919  13.902  16.070  0.00  0.00     0.011 C 
ATOM     22  H11 DY8 d   1       7.930  14.052  16.528  0.00  0.00     0.046 H 
ATOM     23  H12 DY8 d   1       9.692  13.920  16.852  0.00  0.00     0.046 H 
BRANCH  21  24
ATOM     24  CG  DY8 d   1       8.940  12.542  15.401  0.00  0.00     0.030 A 
ATOM     25  CD2 DY8 d   1       9.780  12.103  14.395  0.00  0.00     0.025 A 
ATOM     26  NE2 DY8 d   1       9.449  10.793  14.105  0.00  0.00    -0.254 NA
ATOM     27  H13 DY8 d   1      10.564  12.687  13.915  0.00  0.00     0.117 H 
ATOM     28  CE1 DY8 d   1       8.425  10.418  14.923  0.00  0.00     0.063 A 
ATOM     29  ND1 DY8 d   1       8.111  11.501  15.731  0.00  0.00    -0.353 N 
ATOM     30  H14 DY8 d   1       7.940   9.443  14.939  0.00  0.00     0.143 H 
ATOM     31  H15 DY8 d   1       7.379  11.520  16.456  0.00  0.00     0.166 HD
ENDBRANCH  21  24
ENDBRANCH   1  21
TORSDOF 4
