REMARK  4 active torsions:
REMARK  status: ('A' for Active; 'I' for Inactive)
REMARK    1  A    between atoms: N3_6  and  CAK_14 
REMARK    2  A    between atoms: CAM_8  and  CAN_7 
REMARK    3  A    between atoms: CAM_8  and  N7_9 
REMARK    4  A    between atoms: CAK_14  and  CAL_15 
ROOT
ATOM      1  C4  DYZ d   1     -12.362  -6.190   0.599  0.00  0.00     0.168 A 
ATOM      2  C5  DYZ d   1     -13.277  -5.422   0.067  0.00  0.00     0.151 A 
ATOM      3  C6  DYZ d   1     -14.542  -5.237   0.526  0.00  0.00     0.280 A 
ATOM      4  C8  DYZ d   1     -11.406  -5.448  -1.072  0.00  0.00     0.069 A 
ATOM      5  N1  DYZ d   1     -14.805  -5.961   1.749  0.00  0.00    -0.273 N 
ATOM      6  N3  DYZ d   1     -12.652  -6.948   1.815  0.00  0.00    -0.277 N 
ATOM      7  N7  DYZ d   1     -12.610  -4.929  -1.072  0.00  0.00    -0.334 N 
ATOM      8  N9  DYZ d   1     -11.192  -6.228  -0.017  0.00  0.00    -0.223 NA
ATOM      9  O6  DYZ d   1     -15.487  -4.528   0.169  0.00  0.00    -0.265 OA
ATOM     10  C2  DYZ d   1     -13.858  -6.795   2.354  0.00  0.00     0.331 A 
ATOM     11  O2  DYZ d   1     -14.155  -7.379   3.391  0.00  0.00    -0.246 OA
ATOM     12  H1  DYZ d   1     -10.665  -5.261  -1.848  0.00  0.00     0.143 H 
ATOM     13  H2  DYZ d   1     -15.701  -5.862   2.181  0.00  0.00     0.173 HD
ENDROOT
BRANCH   6  14
ATOM     14  CAK DYZ d   1     -11.528  -7.697   2.482  0.00  0.00     0.030 C 
ATOM     15  H8  DYZ d   1     -10.903  -8.175   1.713  0.00  0.00     0.072 H 
ATOM     16  H9  DYZ d   1     -11.948  -8.468   3.145  0.00  0.00     0.072 H 
BRANCH  14  17
ATOM     17  CAL DYZ d   1     -10.703  -6.773   3.273  0.00  0.00    -0.040 A 
ATOM     18  CAP DYZ d   1     -11.121  -6.266   4.524  0.00  0.00    -0.075 A 
ATOM     19  CAQ DYZ d   1     -10.334  -5.404   5.290  0.00  0.00    -0.082 A 
ATOM     20  H10 DYZ d   1     -12.093  -6.559   4.905  0.00  0.00     0.084 H 
ATOM     21  CAR DYZ d   1      -9.154  -4.937   4.897  0.00  0.00    -0.083 A 
ATOM     22  H11 DYZ d   1     -10.707  -5.098   6.261  0.00  0.00     0.083 H 
ATOM     23  CAS DYZ d   1      -8.691  -5.468   3.723  0.00  0.00    -0.082 A 
ATOM     24  H12 DYZ d   1      -8.601  -4.194   5.461  0.00  0.00     0.083 H 
ATOM     25  CAT DYZ d   1      -9.394  -6.356   2.857  0.00  0.00    -0.075 A 
ATOM     26  H13 DYZ d   1      -7.689  -5.185   3.422  0.00  0.00     0.083 H 
ATOM     27  H14 DYZ d   1      -8.959  -6.701   1.926  0.00  0.00     0.084 H 
ENDBRANCH  14  17
ENDBRANCH   6  14
BRANCH   7  28
ATOM     28  CAM DYZ d   1     -13.103  -3.903  -1.969  0.00  0.00    -0.002 C 
ATOM     29  H6  DYZ d   1     -12.495  -3.906  -2.886  0.00  0.00     0.064 H 
ATOM     30  H7  DYZ d   1     -14.151  -4.122  -2.223  0.00  0.00     0.064 H 
BRANCH  28  31
ATOM     31  CAN DYZ d   1     -13.027  -2.545  -1.336  0.00  0.00    -0.061 C 
ATOM     32  H3  DYZ d   1     -13.407  -1.790  -2.040  0.00  0.00     0.029 H 
ATOM     33  H4  DYZ d   1     -11.981  -2.316  -1.083  0.00  0.00     0.029 H 
ATOM     34  H5  DYZ d   1     -13.637  -2.533  -0.421  0.00  0.00     0.029 H 
ENDBRANCH  28  31
ENDBRANCH   7  28
TORSDOF 4
