REMARK  17 active torsions:
REMARK  status: ('A' for Active; 'I' for Inactive)
REMARK    1  A    between atoms: C5_2  and  C4_1 
REMARK    2  A    between atoms: C6_3  and  C5_2 
REMARK    3  A    between atoms: C7_4  and  C6_3 
REMARK    4  A    between atoms: C8_5  and  C7_4 
REMARK    5  A    between atoms: C23_20  and  C8_5 
REMARK    6  A    between atoms: C10_7  and  O9_6 
REMARK    7  A    between atoms: C10_7  and  C11_8 
REMARK    8  A    between atoms: C10_7  and  C12_9 
REMARK    9  A    between atoms: C13_10  and  C10_7 
REMARK   10  A    between atoms: C14_11  and  C13_10 
REMARK   11  A    between atoms: C15_12  and  C14_11 
REMARK   12  A    between atoms: C16_13  and  C15_12 
REMARK   13  A    between atoms: C17_14  and  C16_13 
REMARK   14  A    between atoms: C18_15  and  C17_14 
REMARK   15  A    between atoms: C24_21  and  C25_22 
REMARK   16  A    between atoms: C29_26  and  O30_27 
REMARK   17  A    between atoms: C32_29  and  O33_30 
ROOT
ATOM      1  C8  LX3 d   1      -0.031  35.538  38.915  0.00  0.00    -0.048 C 
ATOM      2  C24 LX3 d   1       0.461  36.800  38.797  0.00  0.00    -0.075 C 
ATOM      3  H31 LX3 d   1       1.544  36.888  38.867  0.00  0.00     0.084 H 
ENDROOT
BRANCH   1   4
ATOM      4  C7  LX3 d   1      -1.488  35.187  38.860  0.00  0.00    -0.040 C 
ATOM      5  H8  LX3 d   1      -1.619  34.197  39.321  0.00  0.00     0.040 H 
ATOM      6  H9  LX3 d   1      -2.043  35.938  39.441  0.00  0.00     0.040 H 
BRANCH   4   7
ATOM      7  C6  LX3 d   1      -2.078  35.139  37.463  0.00  0.00    -0.062 C 
ATOM      8  H6  LX3 d   1      -2.118  36.157  37.047  0.00  0.00     0.033 H 
ATOM      9  H7  LX3 d   1      -1.449  34.505  36.821  0.00  0.00     0.033 H 
BRANCH   7  10
ATOM     10  C5  LX3 d   1      -3.462  34.570  37.523  0.00  0.00    -0.068 C 
ATOM     11  H4  LX3 d   1      -3.459  33.722  38.223  0.00  0.00     0.032 H 
ATOM     12  H5  LX3 d   1      -4.143  35.350  37.894  0.00  0.00     0.032 H 
BRANCH  10  13
ATOM     13  C4  LX3 d   1      -3.964  34.094  36.210  0.00  0.00    -0.077 C 
ATOM     14  H1  LX3 d   1      -4.981  33.691  36.330  0.00  0.00     0.027 H 
ATOM     15  H2  LX3 d   1      -3.300  33.305  35.828  0.00  0.00     0.027 H 
ATOM     16  H3  LX3 d   1      -3.984  34.933  35.499  0.00  0.00     0.027 H 
ENDBRANCH  10  13
ENDBRANCH   7  10
ENDBRANCH   4   7
ENDBRANCH   1   4
BRANCH   1  17
ATOM     17  C23 LX3 d   1       0.955  34.438  39.123  0.00  0.00    -0.029 A 
ATOM     18  C19 LX3 d   1       0.658  33.135  38.722  0.00  0.00    -0.067 A 
ATOM     19  C18 LX3 d   1       1.571  32.099  38.915  0.00  0.00    -0.057 A 
ATOM     20  H27 LX3 d   1      -0.297  32.925  38.254  0.00  0.00     0.085 H 
ATOM     21  C20 LX3 d   1       2.778  32.378  39.541  0.00  0.00    -0.077 A 
ATOM     22  C21 LX3 d   1       3.084  33.665  39.947  0.00  0.00    -0.082 A 
ATOM     23  H28 LX3 d   1       3.489  31.578  39.714  0.00  0.00     0.084 H 
ATOM     24  C22 LX3 d   1       2.183  34.692  39.734  0.00  0.00    -0.072 A 
ATOM     25  H29 LX3 d   1       4.032  33.868  40.433  0.00  0.00     0.083 H 
ATOM     26  H30 LX3 d   1       2.432  35.700  40.044  0.00  0.00     0.084 H 
BRANCH  19  27
ATOM     27  C17 LX3 d   1       1.272  30.713  38.400  0.00  0.00    -0.041 C 
ATOM     28  H25 LX3 d   1       1.931  29.998  38.913  0.00  0.00     0.040 H 
ATOM     29  H26 LX3 d   1       0.223  30.473  38.627  0.00  0.00     0.040 H 
BRANCH  27  30
ATOM     30  C16 LX3 d   1       1.488  30.582  36.897  0.00  0.00    -0.061 C 
ATOM     31  H23 LX3 d   1       0.890  29.733  36.532  0.00  0.00     0.033 H 
ATOM     32  H24 LX3 d   1       1.143  31.508  36.414  0.00  0.00     0.033 H 
BRANCH  30  33
ATOM     33  C15 LX3 d   1       2.937  30.350  36.509  0.00  0.00    -0.065 C 
ATOM     34  H21 LX3 d   1       3.571  30.708  37.334  0.00  0.00     0.033 H 
ATOM     35  H22 LX3 d   1       3.084  29.268  36.376  0.00  0.00     0.033 H 
BRANCH  33  36
ATOM     36  C14 LX3 d   1       3.388  31.045  35.235  0.00  0.00    -0.062 C 
ATOM     37  H19 LX3 d   1       2.853  32.003  35.157  0.00  0.00     0.033 H 
ATOM     38  H20 LX3 d   1       4.469  31.233  35.309  0.00  0.00     0.033 H 
BRANCH  36  39
ATOM     39  C13 LX3 d   1       3.128  30.248  33.961  0.00  0.00    -0.037 C 
ATOM     40  H17 LX3 d   1       2.427  29.442  34.222  0.00  0.00     0.037 H 
ATOM     41  H18 LX3 d   1       2.650  30.932  33.245  0.00  0.00     0.037 H 
BRANCH  39  42
ATOM     42  C10 LX3 d   1       4.313  29.596  33.238  0.00  0.00     0.051 C 
BRANCH  42  43
ATOM     43  O9  LX3 d   1       4.813  28.535  34.079  0.00  0.00    -0.391 OA
ATOM     44  H10 LX3 d   1       5.113  28.900  34.903  0.00  0.00     0.210 HD
ENDBRANCH  42  43
BRANCH  42  45
ATOM     45  C11 LX3 d   1       5.439  30.587  32.987  0.00  0.00    -0.048 C 
ATOM     46  H11 LX3 d   1       5.073  31.403  32.346  0.00  0.00     0.031 H 
ATOM     47  H12 LX3 d   1       6.274  30.074  32.487  0.00  0.00     0.031 H 
ATOM     48  H13 LX3 d   1       5.784  31.000  33.946  0.00  0.00     0.031 H 
ENDBRANCH  42  45
BRANCH  42  49
ATOM     49  C12 LX3 d   1       3.860  28.987  31.925  0.00  0.00    -0.048 C 
ATOM     50  H14 LX3 d   1       3.474  29.780  31.267  0.00  0.00     0.031 H 
ATOM     51  H15 LX3 d   1       3.066  28.251  32.117  0.00  0.00     0.031 H 
ATOM     52  H16 LX3 d   1       4.712  28.489  31.439  0.00  0.00     0.031 H 
ENDBRANCH  42  49
ENDBRANCH  39  42
ENDBRANCH  36  39
ENDBRANCH  33  36
ENDBRANCH  30  33
ENDBRANCH  27  30
ENDBRANCH  19  27
ENDBRANCH   1  17
BRANCH   2  53
ATOM     53  C25 LX3 d   1      -0.247  38.034  38.593  0.00  0.00    -0.076 C 
ATOM     54  C26 LX3 d   1       0.291  39.239  38.247  0.00  0.00    -0.048 C 
ATOM     55  C27 LX3 d   1       1.724  39.391  37.966  0.00  0.00    -0.033 C 
ATOM     56  C34 LX3 d   1      -0.570  40.471  38.033  0.00  0.00    -0.016 C 
ATOM     57  C28 LX3 d   1       2.357  38.532  37.186  0.00  0.00    -0.113 C 
ATOM     58  C29 LX3 d   1       2.303  40.643  38.585  0.00  0.00     0.063 C 
ATOM     59  H33 LX3 d   1       1.832  37.661  36.797  0.00  0.00     0.067 H 
ATOM     60  H34 LX3 d   1       3.403  38.696  36.932  0.00  0.00     0.067 H 
ATOM     61  C31 LX3 d   1       1.513  41.826  38.038  0.00  0.00    -0.013 C 
ATOM     62  H35 LX3 d   1       2.214  40.604  39.681  0.00  0.00     0.090 H 
ATOM     63  C32 LX3 d   1       0.075  41.760  38.519  0.00  0.00     0.042 C 
ATOM     64  H37 LX3 d   1       1.530  41.798  36.938  0.00  0.00     0.041 H 
ATOM     65  H38 LX3 d   1       1.971  42.763  38.388  0.00  0.00     0.041 H 
ATOM     66  H39 LX3 d   1      -0.486  42.618  38.121  0.00  0.00     0.083 H 
ATOM     67  H41 LX3 d   1      -1.517  40.331  38.575  0.00  0.00     0.043 H 
ATOM     68  H42 LX3 d   1      -0.774  40.569  36.957  0.00  0.00     0.043 H 
ATOM     69  H32 LX3 d   1      -1.327  38.004  38.729  0.00  0.00     0.084 H 
BRANCH  58  70
ATOM     70  O30 LX3 d   1       3.683  40.754  38.216  0.00  0.00    -0.391 OA
ATOM     71  H36 LX3 d   1       3.754  40.803  37.270  0.00  0.00     0.210 HD
ENDBRANCH  58  70
BRANCH  63  72
ATOM     72  O33 LX3 d   1       0.065  41.807  39.947  0.00  0.00    -0.395 OA
ATOM     73  H40 LX3 d   1      -0.832  41.766  40.258  0.00  0.00     0.210 HD
ENDBRANCH  63  72
ENDBRANCH   2  53
TORSDOF 17
