REMARK  20 active torsions:
REMARK  status: ('A' for Active; 'I' for Inactive)
REMARK    1  A    between atoms: C2_2  and  C1_1 
REMARK    2  A    between atoms: C3_3  and  C2_2 
REMARK    3  A    between atoms: C4_4  and  C3_3 
REMARK    4  A    between atoms: C5_5  and  C4_4 
REMARK    5  A    between atoms: C6_6  and  C5_5 
REMARK    6  A    between atoms: C7_7  and  C6_6 
REMARK    7  A    between atoms: C8_8  and  C7_7 
REMARK    8  A    between atoms: C23_23  and  C8_8 
REMARK    9  A    between atoms: C10_10  and  O9_9 
REMARK   10  A    between atoms: C10_10  and  C11_11 
REMARK   11  A    between atoms: C10_10  and  C12_12 
REMARK   12  A    between atoms: C13_13  and  C10_10 
REMARK   13  A    between atoms: C14_14  and  C13_13 
REMARK   14  A    between atoms: C15_15  and  C14_14 
REMARK   15  A    between atoms: C16_16  and  C15_15 
REMARK   16  A    between atoms: C17_17  and  C16_16 
REMARK   17  A    between atoms: C18_18  and  C17_17 
REMARK   18  A    between atoms: C24_24  and  C25_25 
REMARK   19  A    between atoms: C29_29  and  O30_30 
REMARK   20  A    between atoms: C32_32  and  O33_33 
ROOT
ATOM      1  C8  DZW d   1       0.495  34.536  39.169  0.00  0.00    -0.048 C 
ATOM      2  C24 DZW d   1       0.972  35.821  39.111  0.00  0.00    -0.075 C 
ATOM      3  H37 DZW d   1       2.035  35.939  39.315  0.00  0.00     0.084 H 
ENDROOT
BRANCH   1   4
ATOM      4  C7  DZW d   1      -0.934  34.144  38.917  0.00  0.00    -0.040 C 
ATOM      5  H14 DZW d   1      -1.132  33.179  39.407  0.00  0.00     0.040 H 
ATOM      6  H15 DZW d   1      -1.596  34.913  39.342  0.00  0.00     0.040 H 
BRANCH   4   7
ATOM      7  C6  DZW d   1      -1.219  34.012  37.438  0.00  0.00    -0.061 C 
ATOM      8  H12 DZW d   1      -0.934  34.953  36.945  0.00  0.00     0.033 H 
ATOM      9  H13 DZW d   1      -0.607  33.190  37.039  0.00  0.00     0.033 H 
BRANCH   7  10
ATOM     10  C5  DZW d   1      -2.658  33.728  37.120  0.00  0.00    -0.065 C 
ATOM     11  H10 DZW d   1      -2.893  32.687  37.387  0.00  0.00     0.033 H 
ATOM     12  H11 DZW d   1      -3.301  34.408  37.698  0.00  0.00     0.033 H 
BRANCH  10  13
ATOM     13  C4  DZW d   1      -2.905  33.936  35.644  0.00  0.00    -0.065 C 
ATOM     14  H8  DZW d   1      -3.928  34.322  35.520  0.00  0.00     0.033 H 
ATOM     15  H9  DZW d   1      -2.185  34.683  35.279  0.00  0.00     0.033 H 
BRANCH  13  16
ATOM     16  C3  DZW d   1      -2.765  32.694  34.793  0.00  0.00    -0.065 C 
ATOM     17  H6  DZW d   1      -1.747  32.296  34.916  0.00  0.00     0.033 H 
ATOM     18  H7  DZW d   1      -3.495  31.947  35.138  0.00  0.00     0.033 H 
BRANCH  16  19
ATOM     19  C2  DZW d   1      -3.004  32.963  33.327  0.00  0.00    -0.069 C 
ATOM     20  H4  DZW d   1      -3.928  33.549  33.216  0.00  0.00     0.032 H 
ATOM     21  H5  DZW d   1      -2.156  33.536  32.925  0.00  0.00     0.032 H 
BRANCH  19  22
ATOM     22  C1  DZW d   1      -3.137  31.709  32.570  0.00  0.00    -0.077 C 
ATOM     23  H1  DZW d   1      -3.310  31.938  31.508  0.00  0.00     0.027 H 
ATOM     24  H2  DZW d   1      -3.987  31.131  32.963  0.00  0.00     0.027 H 
ATOM     25  H3  DZW d   1      -2.214  31.119  32.672  0.00  0.00     0.027 H 
ENDBRANCH  19  22
ENDBRANCH  16  19
ENDBRANCH  13  16
ENDBRANCH  10  13
ENDBRANCH   7  10
ENDBRANCH   4   7
ENDBRANCH   1   4
BRANCH   1  26
ATOM     26  C23 DZW d   1       1.452  33.415  39.383  0.00  0.00    -0.029 A 
ATOM     27  C19 DZW d   1       1.211  32.163  38.812  0.00  0.00    -0.067 A 
ATOM     28  C18 DZW d   1       2.110  31.112  38.972  0.00  0.00    -0.057 A 
ATOM     29  H33 DZW d   1       0.307  32.007  38.234  0.00  0.00     0.085 H 
ATOM     30  C20 DZW d   1       3.261  31.327  39.719  0.00  0.00    -0.077 A 
ATOM     31  C21 DZW d   1       3.515  32.565  40.291  0.00  0.00    -0.082 A 
ATOM     32  H34 DZW d   1       3.969  30.518  39.857  0.00  0.00     0.084 H 
ATOM     33  C22 DZW d   1       2.613  33.603  40.133  0.00  0.00    -0.072 A 
ATOM     34  H35 DZW d   1       4.423  32.720  40.863  0.00  0.00     0.083 H 
ATOM     35  H36 DZW d   1       2.809  34.565  40.593  0.00  0.00     0.084 H 
BRANCH  28  36
ATOM     36  C17 DZW d   1       1.849  29.789  38.291  0.00  0.00    -0.041 C 
ATOM     37  H31 DZW d   1       1.768  29.020  39.073  0.00  0.00     0.040 H 
ATOM     38  H32 DZW d   1       0.891  29.871  37.756  0.00  0.00     0.040 H 
BRANCH  36  39
ATOM     39  C16 DZW d   1       2.911  29.319  37.281  0.00  0.00    -0.061 C 
ATOM     40  H29 DZW d   1       3.752  28.895  37.849  0.00  0.00     0.033 H 
ATOM     41  H30 DZW d   1       2.458  28.534  36.657  0.00  0.00     0.033 H 
BRANCH  39  42
ATOM     42  C15 DZW d   1       3.469  30.391  36.351  0.00  0.00    -0.065 C 
ATOM     43  H27 DZW d   1       2.693  30.640  35.612  0.00  0.00     0.033 H 
ATOM     44  H28 DZW d   1       3.699  31.281  36.955  0.00  0.00     0.033 H 
BRANCH  42  45
ATOM     45  C14 DZW d   1       4.728  29.992  35.599  0.00  0.00    -0.062 C 
ATOM     46  H25 DZW d   1       5.461  30.809  35.676  0.00  0.00     0.033 H 
ATOM     47  H26 DZW d   1       5.142  29.083  36.059  0.00  0.00     0.033 H 
BRANCH  45  48
ATOM     48  C13 DZW d   1       4.455  29.716  34.127  0.00  0.00    -0.037 C 
ATOM     49  H23 DZW d   1       3.512  29.152  34.078  0.00  0.00     0.037 H 
ATOM     50  H24 DZW d   1       4.323  30.693  33.639  0.00  0.00     0.037 H 
BRANCH  48  51
ATOM     51  C10 DZW d   1       5.470  28.947  33.303  0.00  0.00     0.051 C 
BRANCH  51  52
ATOM     52  O9  DZW d   1       5.621  27.647  33.897  0.00  0.00    -0.391 OA
ATOM     53  H16 DZW d   1       5.938  27.742  34.788  0.00  0.00     0.210 HD
ENDBRANCH  51  52
BRANCH  51  54
ATOM     54  C11 DZW d   1       6.834  29.620  33.312  0.00  0.00    -0.048 C 
ATOM     55  H17 DZW d   1       6.752  30.621  32.862  0.00  0.00     0.031 H 
ATOM     56  H18 DZW d   1       7.546  29.014  32.732  0.00  0.00     0.031 H 
ATOM     57  H19 DZW d   1       7.191  29.712  34.349  0.00  0.00     0.031 H 
ENDBRANCH  51  54
BRANCH  51  58
ATOM     58  C12 DZW d   1       4.975  28.754  31.881  0.00  0.00    -0.048 C 
ATOM     59  H20 DZW d   1       4.850  29.735  31.400  0.00  0.00     0.031 H 
ATOM     60  H21 DZW d   1       4.009  28.228  31.897  0.00  0.00     0.031 H 
ATOM     61  H22 DZW d   1       5.707  28.159  31.315  0.00  0.00     0.031 H 
ENDBRANCH  51  58
ENDBRANCH  48  51
ENDBRANCH  45  48
ENDBRANCH  42  45
ENDBRANCH  39  42
ENDBRANCH  36  39
ENDBRANCH  28  36
ENDBRANCH   1  26
BRANCH   2  62
ATOM     62  C25 DZW d   1       0.253  37.040  38.816  0.00  0.00    -0.076 C 
ATOM     63  C26 DZW d   1       0.752  38.243  38.411  0.00  0.00    -0.048 C 
ATOM     64  C27 DZW d   1       2.153  38.552  38.085  0.00  0.00    -0.033 C 
ATOM     65  C34 DZW d   1      -0.196  39.393  38.160  0.00  0.00    -0.016 C 
ATOM     66  C28 DZW d   1       2.871  37.738  37.335  0.00  0.00    -0.113 C 
ATOM     67  C29 DZW d   1       2.632  39.852  38.687  0.00  0.00     0.063 C 
ATOM     68  H39 DZW d   1       2.428  36.821  36.949  0.00  0.00     0.067 H 
ATOM     69  H40 DZW d   1       3.906  37.983  37.102  0.00  0.00     0.067 H 
ATOM     70  C31 DZW d   1       1.697  40.989  38.295  0.00  0.00    -0.013 C 
ATOM     71  H41 DZW d   1       2.646  39.761  39.783  0.00  0.00     0.090 H 
ATOM     72  C32 DZW d   1       0.285  40.698  38.767  0.00  0.00     0.042 C 
ATOM     73  H43 DZW d   1       1.698  41.098  37.200  0.00  0.00     0.041 H 
ATOM     74  H44 DZW d   1       2.049  41.923  38.757  0.00  0.00     0.041 H 
ATOM     75  H45 DZW d   1      -0.376  41.513  38.436  0.00  0.00     0.083 H 
ATOM     76  H47 DZW d   1      -1.175  39.143  38.596  0.00  0.00     0.043 H 
ATOM     77  H48 DZW d   1      -0.302  39.529  37.074  0.00  0.00     0.043 H 
ATOM     78  H38 DZW d   1      -0.829  36.991  38.932  0.00  0.00     0.084 H 
BRANCH  67  79
ATOM     79  O30 DZW d   1       3.942  40.116  38.223  0.00  0.00    -0.391 OA
ATOM     80  H42 DZW d   1       3.933  40.184  37.276  0.00  0.00     0.210 HD
ENDBRANCH  67  79
BRANCH  72  81
ATOM     81  O33 DZW d   1       0.238  40.617  40.195  0.00  0.00    -0.395 OA
ATOM     82  H46 DZW d   1      -0.652  40.435  40.472  0.00  0.00     0.210 HD
ENDBRANCH  72  81
ENDBRANCH   2  62
TORSDOF 20
