REMARK  15 active torsions:
REMARK  status: ('A' for Active; 'I' for Inactive)
REMARK    1  A    between atoms: C7_2  and  C6_1 
REMARK    2  A    between atoms: C8_3  and  C7_2 
REMARK    3  A    between atoms: C23_18  and  C8_3 
REMARK    4  A    between atoms: C10_5  and  O9_4 
REMARK    5  A    between atoms: C10_5  and  C11_6 
REMARK    6  A    between atoms: C10_5  and  C12_7 
REMARK    7  A    between atoms: C13_8  and  C10_5 
REMARK    8  A    between atoms: C14_9  and  C13_8 
REMARK    9  A    between atoms: C15_10  and  C14_9 
REMARK   10  A    between atoms: C16_11  and  C15_10 
REMARK   11  A    between atoms: C17_12  and  C16_11 
REMARK   12  A    between atoms: C18_13  and  C17_12 
REMARK   13  A    between atoms: C24_19  and  C25_20 
REMARK   14  A    between atoms: C29_24  and  O30_25 
REMARK   15  A    between atoms: C32_27  and  O33_28 
ROOT
ATOM      1  C18 E05 d   1       1.939  31.153  38.774  0.00  0.00    -0.057 A 
ATOM      2  C19 E05 d   1       0.918  32.101  38.686  0.00  0.00    -0.067 A 
ATOM      3  C20 E05 d   1       3.139  31.508  39.373  0.00  0.00    -0.077 A 
ATOM      4  C21 E05 d   1       3.323  32.781  39.882  0.00  0.00    -0.082 A 
ATOM      5  C22 E05 d   1       2.317  33.725  39.774  0.00  0.00    -0.072 A 
ATOM      6  C23 E05 d   1       1.107  33.402  39.156  0.00  0.00    -0.029 A 
ATOM      7  H23 E05 d   1      -0.034  31.823  38.247  0.00  0.00     0.085 H 
ATOM      8  H24 E05 d   1       3.940  30.781  39.443  0.00  0.00     0.084 H 
ATOM      9  H25 E05 d   1       4.258  33.040  40.367  0.00  0.00     0.083 H 
ATOM     10  H26 E05 d   1       2.469  34.722  40.172  0.00  0.00     0.084 H 
ENDROOT
BRANCH   6  11
ATOM     11  C8  E05 d   1       0.075  34.457  38.926  0.00  0.00    -0.048 C 
ATOM     12  C24 E05 d   1       0.517  35.754  38.971  0.00  0.00    -0.075 C 
ATOM     13  H27 E05 d   1       1.568  35.845  39.242  0.00  0.00     0.084 H 
BRANCH  11  14
ATOM     14  C7  E05 d   1      -1.319  33.950  38.641  0.00  0.00    -0.043 C 
ATOM     15  H4  E05 d   1      -1.352  32.880  38.892  0.00  0.00     0.039 H 
ATOM     16  H5  E05 d   1      -2.021  34.499  39.285  0.00  0.00     0.039 H 
BRANCH  14  17
ATOM     17  C6  E05 d   1      -1.782  34.115  37.175  0.00  0.00    -0.073 C 
ATOM     18  H1  E05 d   1      -2.803  33.719  37.066  0.00  0.00     0.028 H 
ATOM     19  H2  E05 d   1      -1.102  33.562  36.511  0.00  0.00     0.028 H 
ATOM     20  H3  E05 d   1      -1.771  35.181  36.905  0.00  0.00     0.028 H 
ENDBRANCH  14  17
ENDBRANCH  11  14
BRANCH  12  21
ATOM     21  C25 E05 d   1      -0.118  37.004  38.736  0.00  0.00    -0.076 C 
ATOM     22  C26 E05 d   1       0.494  38.200  38.451  0.00  0.00    -0.048 C 
ATOM     23  C27 E05 d   1       1.949  38.382  38.248  0.00  0.00    -0.033 C 
ATOM     24  C34 E05 d   1      -0.362  39.428  38.212  0.00  0.00    -0.016 C 
ATOM     25  C28 E05 d   1       2.686  37.498  37.589  0.00  0.00    -0.113 C 
ATOM     26  C29 E05 d   1       2.503  39.672  38.811  0.00  0.00     0.063 C 
ATOM     27  H29 E05 d   1       2.230  36.586  37.207  0.00  0.00     0.067 H 
ATOM     28  H30 E05 d   1       3.747  37.684  37.430  0.00  0.00     0.067 H 
ATOM     29  C31 E05 d   1       1.674  40.846  38.307  0.00  0.00    -0.013 C 
ATOM     30  H31 E05 d   1       2.468  39.643  39.910  0.00  0.00     0.090 H 
ATOM     31  C32 E05 d   1       0.238  40.706  38.774  0.00  0.00     0.042 C 
ATOM     32  H33 E05 d   1       1.699  40.864  37.208  0.00  0.00     0.041 H 
ATOM     33  H34 E05 d   1       2.095  41.784  38.699  0.00  0.00     0.041 H 
ATOM     34  H35 E05 d   1      -0.341  41.563  38.400  0.00  0.00     0.083 H 
ATOM     35  H37 E05 d   1      -1.342  39.267  38.685  0.00  0.00     0.043 H 
ATOM     36  H38 E05 d   1      -0.495  39.554  37.127  0.00  0.00     0.043 H 
ATOM     37  H28 E05 d   1      -1.206  37.014  38.788  0.00  0.00     0.084 H 
BRANCH  26  38
ATOM     38  O30 E05 d   1       3.847  39.815  38.379  0.00  0.00    -0.391 OA
ATOM     39  H32 E05 d   1       3.873  39.839  37.430  0.00  0.00     0.210 HD
ENDBRANCH  26  38
BRANCH  31  40
ATOM     40  O33 E05 d   1       0.174  40.700  40.201  0.00  0.00    -0.395 OA
ATOM     41  H36 E05 d   1       0.530  41.514  40.536  0.00  0.00     0.210 HD
ENDBRANCH  31  40
ENDBRANCH  12  21
ENDBRANCH   6  11
BRANCH   1  42
ATOM     42  C17 E05 d   1       1.772  29.785  38.157  0.00  0.00    -0.041 C 
ATOM     43  H21 E05 d   1       1.988  29.033  38.930  0.00  0.00     0.040 H 
ATOM     44  H22 E05 d   1       0.727  29.684  37.830  0.00  0.00     0.040 H 
BRANCH  42  45
ATOM     45  C16 E05 d   1       2.680  29.502  36.949  0.00  0.00    -0.061 C 
ATOM     46  H19 E05 d   1       3.725  29.606  37.276  0.00  0.00     0.033 H 
ATOM     47  H20 E05 d   1       2.499  28.468  36.621  0.00  0.00     0.033 H 
BRANCH  45  48
ATOM     48  C15 E05 d   1       2.466  30.418  35.757  0.00  0.00    -0.065 C 
ATOM     49  H17 E05 d   1       1.402  30.693  35.715  0.00  0.00     0.033 H 
ATOM     50  H18 E05 d   1       3.073  31.324  35.900  0.00  0.00     0.033 H 
BRANCH  48  51
ATOM     51  C14 E05 d   1       2.852  29.784  34.436  0.00  0.00    -0.062 C 
ATOM     52  H15 E05 d   1       2.590  28.716  34.472  0.00  0.00     0.033 H 
ATOM     53  H16 E05 d   1       2.281  30.275  33.634  0.00  0.00     0.033 H 
BRANCH  51  54
ATOM     54  C13 E05 d   1       4.342  29.907  34.116  0.00  0.00    -0.037 C 
ATOM     55  H13 E05 d   1       4.478  30.851  33.568  0.00  0.00     0.037 H 
ATOM     56  H14 E05 d   1       4.875  29.960  35.077  0.00  0.00     0.037 H 
BRANCH  54  57
ATOM     57  C10 E05 d   1       5.012  28.808  33.290  0.00  0.00     0.051 C 
BRANCH  57  58
ATOM     58  O9  E05 d   1       5.163  27.664  34.148  0.00  0.00    -0.391 OA
ATOM     59  H6  E05 d   1       4.307  27.377  34.445  0.00  0.00     0.210 HD
ENDBRANCH  57  58
BRANCH  57  60
ATOM     60  C11 E05 d   1       6.402  29.234  32.837  0.00  0.00    -0.048 C 
ATOM     61  H7  E05 d   1       6.320  30.110  32.177  0.00  0.00     0.031 H 
ATOM     62  H8  E05 d   1       6.879  28.407  32.291  0.00  0.00     0.031 H 
ATOM     63  H9  E05 d   1       7.011  29.493  33.716  0.00  0.00     0.031 H 
ENDBRANCH  57  60
BRANCH  57  64
ATOM     64  C12 E05 d   1       4.166  28.390  32.095  0.00  0.00    -0.048 C 
ATOM     65  H10 E05 d   1       4.035  29.249  31.421  0.00  0.00     0.031 H 
ATOM     66  H11 E05 d   1       3.182  28.045  32.445  0.00  0.00     0.031 H 
ATOM     67  H12 E05 d   1       4.670  27.574  31.556  0.00  0.00     0.031 H 
ENDBRANCH  57  64
ENDBRANCH  54  57
ENDBRANCH  51  54
ENDBRANCH  48  51
ENDBRANCH  45  48
ENDBRANCH  42  45
ENDBRANCH   1  42
TORSDOF 15
