REMARK  5 active torsions:
REMARK  status: ('A' for Active; 'I' for Inactive)
REMARK    1  A    between atoms: C1_30  and  C2_1 
REMARK    2  A    between atoms: C5_4  and  C6_7 
REMARK    3  A    between atoms: C11_6  and  N3_13 
REMARK    4  A    between atoms: C6_7  and  N_21 
REMARK    5  A    between atoms: N_21  and  C7_8 
ROOT
ATOM      1  C6  E48 d   1      17.074  17.945  15.185  0.00  0.00     0.064 C 
ATOM      2  H7  E48 d   1      17.661  17.555  14.340  0.00  0.00     0.073 H 
ATOM      3  H8  E48 d   1      16.288  17.223  15.449  0.00  0.00     0.073 H 
ENDROOT
BRANCH   1   4
ATOM      4  C5  E48 d   1      16.429  19.278  14.786  0.00  0.00     0.212 C 
ATOM      5  O1  E48 d   1      17.536  19.980  14.252  0.00  0.00    -0.349 OA
ATOM      6  C4  E48 d   1      17.167  21.081  13.415  0.00  0.00     0.050 C 
ATOM      7  C3  E48 d   1      16.617  20.514  12.129  0.00  0.00     0.089 C 
ATOM      8  H5  E48 d   1      16.400  21.691  13.914  0.00  0.00     0.078 H 
ATOM      9  H6  E48 d   1      18.049  21.703  13.203  0.00  0.00     0.078 H 
ATOM     10  C20 E48 d   1      15.589  19.402  12.364  0.00  0.00     0.098 C 
ATOM     11  O   E48 d   1      17.680  19.888  11.392  0.00  0.00    -0.352 OA
ATOM     12  H4  E48 d   1      16.164  21.326  11.542  0.00  0.00     0.090 H 
ATOM     13  C19 E48 d   1      15.234  19.193  13.829  0.00  0.00     0.124 C 
ATOM     14  O5  E48 d   1      16.237  18.217  11.915  0.00  0.00    -0.351 OA
ATOM     15  H20 E48 d   1      14.674  19.604  11.788  0.00  0.00     0.091 H 
ATOM     16  O4  E48 d   1      14.398  20.269  14.241  0.00  0.00    -0.353 OA
ATOM     17  H17 E48 d   1      14.726  18.224  13.944  0.00  0.00     0.096 H 
ATOM     18  C16 E48 d   1      14.588  20.461  15.645  0.00  0.00     0.107 C 
ATOM     19  O3  E48 d   1      15.915  19.967  15.917  0.00  0.00    -0.327 OA
ATOM     20  H18 E48 d   1      13.840  19.892  16.217  0.00  0.00     0.117 H 
ATOM     21  H19 E48 d   1      14.513  21.528  15.902  0.00  0.00     0.117 H 
ATOM     22  C1  E48 d   1      17.297  18.561  11.026  0.00  0.00     0.129 C 
ATOM     23  H21 E48 d   1      16.970  18.517   9.977  0.00  0.00     0.128 H 
BRANCH  22  24
ATOM     24  C2  E48 d   1      18.450  17.618  11.259  0.00  0.00    -0.031 C 
ATOM     25  H1  E48 d   1      19.276  17.873  10.578  0.00  0.00     0.034 H 
ATOM     26  H2  E48 d   1      18.123  16.585  11.068  0.00  0.00     0.034 H 
ATOM     27  H3  E48 d   1      18.793  17.708  12.300  0.00  0.00     0.034 H 
ENDBRANCH  22  24
ENDBRANCH   1   4
BRANCH   1  28
ATOM     28  N   E48 d   1      17.949  18.147  16.329  0.00  0.00    -0.219 N 
ATOM     29  H16 E48 d   1      18.877  18.567  16.172  0.00  0.00     0.178 HD
BRANCH  28  30
ATOM     30  C7  E48 d   1      17.602  17.812  17.574  0.00  0.00     0.701 A 
ATOM     31  N1  E48 d   1      16.442  17.274  17.913  0.00  0.00    -0.188 N 
ATOM     32  C8  E48 d   1      16.503  17.142  19.299  0.00  0.00     0.081 A 
ATOM     33  H9  E48 d   1      15.665  17.011  17.290  0.00  0.00     0.184 HD
ATOM     34  C9  E48 d   1      15.552  16.672  20.201  0.00  0.00    -0.027 A 
ATOM     35  C15 E48 d   1      17.731  17.620  19.759  0.00  0.00     0.104 A 
ATOM     36  C10 E48 d   1      15.827  16.733  21.570  0.00  0.00     0.067 A 
ATOM     37  H14 E48 d   1      14.612  16.265  19.847  0.00  0.00     0.090 H 
ATOM     38  N2  E48 d   1      14.814  16.375  22.462  0.00  0.00    -0.191 N 
ATOM     39  C13 E48 d   1      17.062  17.231  22.009  0.00  0.00     0.062 A 
ATOM     40  C11 E48 d   1      15.042  16.545  23.762  0.00  0.00     0.679 A 
ATOM     41  H13 E48 d   1      13.919  15.992  22.125  0.00  0.00     0.184 HD
ATOM     42  N4  E48 d   1      16.229  17.020  24.243  0.00  0.00    -0.156 N 
ATOM     43  C12 E48 d   1      17.294  17.373  23.445  0.00  0.00     0.272 A 
ATOM     44  H10 E48 d   1      16.330  17.117  25.233  0.00  0.00     0.187 HD
ATOM     45  O2  E48 d   1      18.332  17.814  23.920  0.00  0.00    -0.267 OA
ATOM     46  C14 E48 d   1      18.033  17.664  21.109  0.00  0.00    -0.035 A 
ATOM     47  H15 E48 d   1      18.995  18.024  21.455  0.00  0.00     0.088 H 
ATOM     48  N5  E48 d   1      18.422  18.031  18.627  0.00  0.00    -0.063 NA
BRANCH  40  49
ATOM     49  N3  E48 d   1      14.087  16.250  24.649  0.00  0.00    -0.234 N 
ATOM     50  H11 E48 d   1      13.178  15.889  24.326  0.00  0.00     0.174 HD
ATOM     51  H12 E48 d   1      14.260  16.383  25.656  0.00  0.00     0.174 HD
ENDBRANCH  40  49
ENDBRANCH  28  30
ENDBRANCH   1  28
TORSDOF 5
