REMARK  11 active torsions:
REMARK  status: ('A' for Active; 'I' for Inactive)
REMARK    1  A    between atoms: CAQ_14  and  CAA_1 
REMARK    2  A    between atoms: CAV_15  and  CAB_2 
REMARK    3  A    between atoms: CBB_21  and  CAC_3 
REMARK    4  A    between atoms: NBH_28  and  CAD_4 
REMARK    5  A    between atoms: OAS_32  and  CAQ_14 
REMARK    6  A    between atoms: CAY_18  and  CAV_15 
REMARK    7  A    between atoms: CAW_16  and  CBD_23 
REMARK       I    between atoms: NAR_27  and  CAW_16 
REMARK    8  A    between atoms: CAX_17  and  NAR_27 
REMARK    9  A    between atoms: CAZ_19  and  CBE_24 
REMARK   10  A    between atoms: CBF_25  and  CBA_20 
REMARK   11  A    between atoms: CBC_22  and  OAS_32 
ROOT
ATOM      1  CAM E2T d   1       7.138  -8.537  23.304  0.00  0.00    -0.046 A 
ATOM      2  CAN E2T d   1       5.267  -7.926  21.928  0.00  0.00    -0.046 A 
ATOM      3  CAO E2T d   1       6.183  -6.350  23.462  0.00  0.00    -0.061 A 
ATOM      4  CAX E2T d   1       6.203  -8.895  22.322  0.00  0.00     0.036 A 
ATOM      5  CAZ E2T d   1       7.150  -7.258  23.894  0.00  0.00    -0.020 A 
ATOM      6  CBA E2T d   1       5.216  -6.637  22.476  0.00  0.00    -0.015 A 
ATOM      7  H18 E2T d   1       7.875  -9.267  23.619  0.00  0.00     0.088 H 
ATOM      8  H19 E2T d   1       4.547  -8.188  21.161  0.00  0.00     0.088 H 
ATOM      9  H20 E2T d   1       6.174  -5.364  23.912  0.00  0.00     0.086 H 
ENDROOT
BRANCH   5  10
ATOM     10  CBE E2T d   1       8.127  -6.890  24.862  0.00  0.00     0.009 A 
ATOM     11  CAP E2T d   1       9.047  -5.865  24.549  0.00  0.00    -0.056 A 
ATOM     12  CAY E2T d   1      10.065  -5.452  25.435  0.00  0.00     0.010 A 
ATOM     13  H21 E2T d   1       8.968  -5.374  23.586  0.00  0.00     0.086 H 
ATOM     14  CAK E2T d   1      10.155  -6.087  26.671  0.00  0.00    -0.067 A 
ATOM     15  CAL E2T d   1       9.266  -7.111  26.991  0.00  0.00    -0.049 A 
ATOM     16  H16 E2T d   1      10.915  -5.785  27.383  0.00  0.00     0.085 H 
ATOM     17  CBC E2T d   1       8.256  -7.500  26.106  0.00  0.00     0.079 A 
ATOM     18  H17 E2T d   1       9.359  -7.616  27.945  0.00  0.00     0.087 H 
BRANCH  12  19
ATOM     19  CAV E2T d   1      11.013  -4.462  25.106  0.00  0.00     0.155 C 
ATOM     20  OAE E2T d   1      11.997  -4.215  25.813  0.00  0.00    -0.293 OA
BRANCH  19  21
ATOM     21  CAB E2T d   1      10.895  -3.786  23.742  0.00  0.00    -0.017 C 
ATOM     22  H4  E2T d   1      11.698  -3.042  23.631  0.00  0.00     0.038 H 
ATOM     23  H5  E2T d   1       9.919  -3.285  23.664  0.00  0.00     0.038 H 
ATOM     24  H6  E2T d   1      10.983  -4.543  22.949  0.00  0.00     0.038 H 
ENDBRANCH  19  21
ENDBRANCH  12  19
BRANCH  17  25
ATOM     25  OAS E2T d   1       7.343  -8.489  26.376  0.00  0.00    -0.351 OA
BRANCH  25  26
ATOM     26  CAQ E2T d   1       7.589  -9.205  27.588  0.00  0.00     0.023 C 
ATOM     27  H22 E2T d   1       7.247 -10.244  27.475  0.00  0.00     0.074 H 
ATOM     28  H23 E2T d   1       8.667  -9.195  27.807  0.00  0.00     0.074 H 
BRANCH  26  29
ATOM     29  CAA E2T d   1       6.833  -8.544  28.733  0.00  0.00    -0.056 C 
ATOM     30  H1  E2T d   1       7.023  -9.096  29.665  0.00  0.00     0.030 H 
ATOM     31  H2  E2T d   1       5.755  -8.554  28.515  0.00  0.00     0.030 H 
ATOM     32  H3  E2T d   1       7.175  -7.505  28.846  0.00  0.00     0.030 H 
ENDBRANCH  26  29
ENDBRANCH  25  26
ENDBRANCH  17  25
ENDBRANCH   5  10
BRANCH   4  33
ATOM     33  NAR E2T d   1       6.128 -10.116  21.667  0.00  0.00    -0.321 N 
ATOM     34  CAW E2T d   1       6.926 -11.195  21.843  0.00  0.00     0.279 C 
ATOM     35  OAF E2T d   1       7.819 -11.254  22.686  0.00  0.00    -0.265 OA
ATOM     36  H24 E2T d   1       5.401 -10.210  20.987  0.00  0.00     0.169 HD
BRANCH  34  37
ATOM     37  CBD E2T d   1       6.702 -12.291  21.066  0.00  0.00     0.142 A 
ATOM     38  CAJ E2T d   1       6.065 -12.442  19.896  0.00  0.00    -0.043 A 
ATOM     39  CAH E2T d   1       6.127 -13.733  19.514  0.00  0.00    -0.059 A 
ATOM     40  H15 E2T d   1       5.574 -11.645  19.340  0.00  0.00     0.088 H 
ATOM     41  CAI E2T d   1       6.823 -14.400  20.427  0.00  0.00     0.020 A 
ATOM     42  H13 E2T d   1       5.684 -14.155  18.613  0.00  0.00     0.086 H 
ATOM     43  OAT E2T d   1       7.202 -13.504  21.405  0.00  0.00    -0.317 OA
ATOM     44  H14 E2T d   1       7.053 -15.464  20.407  0.00  0.00     0.123 H 
ENDBRANCH  34  37
ENDBRANCH   4  33
BRANCH   6  45
ATOM     45  CBF E2T d   1       4.263  -5.713  22.033  0.00  0.00     0.075 A 
ATOM     46  CBB E2T d   1       4.412  -4.365  21.901  0.00  0.00     0.089 A 
ATOM     47  OAU E2T d   1       3.287  -3.786  21.423  0.00  0.00    -0.237 OA
ATOM     48  NBH E2T d   1       2.403  -4.790  21.233  0.00  0.00    -0.221 N 
ATOM     49  CBG E2T d   1       2.986  -5.943  21.594  0.00  0.00     0.280 A 
ATOM     50  OAG E2T d   1       2.386  -7.034  21.524  0.00  0.00    -0.265 OA
BRANCH  46  51
ATOM     51  CAC E2T d   1       5.612  -3.465  22.214  0.00  0.00    -0.028 C 
ATOM     52  H7  E2T d   1       5.359  -2.421  21.977  0.00  0.00     0.036 H 
ATOM     53  H8  E2T d   1       6.474  -3.780  21.608  0.00  0.00     0.036 H 
ATOM     54  H9  E2T d   1       5.864  -3.548  23.281  0.00  0.00     0.036 H 
ENDBRANCH  46  51
BRANCH  48  55
ATOM     55  CAD E2T d   1       1.049  -4.469  20.698  0.00  0.00     0.010 C 
ATOM     56  H10 E2T d   1       0.969  -3.385  20.529  0.00  0.00     0.060 H 
ATOM     57  H11 E2T d   1       0.284  -4.785  21.423  0.00  0.00     0.060 H 
ATOM     58  H12 E2T d   1       0.895  -5.000  19.747  0.00  0.00     0.060 H 
ENDBRANCH  48  55
ENDBRANCH   6  45
TORSDOF 11
