REMARK  7 active torsions:
REMARK  status: ('A' for Active; 'I' for Inactive)
REMARK    1  A    between atoms: CAM_10  and  CAA_1 
REMARK    2  A    between atoms: CAS_15  and  CAB_2 
REMARK    3  A    between atoms: OAR_26  and  CAM_10 
REMARK    4  A    between atoms: CAT_16  and  CAS_15 
REMARK    5  A    between atoms: CAX_20  and  CAU_17 
REMARK    6  A    between atoms: CAV_18  and  NAY_24 
REMARK    7  A    between atoms: CAW_19  and  OAR_26 
ROOT
ATOM      1  CAF E3B d   1      -0.731  -0.650   0.172  0.00  0.00    -0.080 A 
ATOM      2  CAG E3B d   1      -1.756  -0.666  -0.773  0.00  0.00    -0.072 A 
ATOM      3  CAI E3B d   1       0.180  -1.699   0.248  0.00  0.00    -0.057 A 
ATOM      4  CAK E3B d   1      -0.960  -2.784  -1.581  0.00  0.00    -0.047 A 
ATOM      5  CAU E3B d   1      -1.870  -1.727  -1.673  0.00  0.00    -0.021 A 
ATOM      6  CAV E3B d   1       0.058  -2.774  -0.632  0.00  0.00     0.031 A 
ATOM      7  H7  E3B d   1      -0.643   0.188   0.854  0.00  0.00     0.083 H 
ATOM      8  H8  E3B d   1      -2.469   0.150  -0.809  0.00  0.00     0.084 H 
ATOM      9  H10 E3B d   1       0.976  -1.681   0.984  0.00  0.00     0.086 H 
ATOM     10  H12 E3B d   1      -1.049  -3.625  -2.260  0.00  0.00     0.088 H 
ENDROOT
BRANCH   5  11
ATOM     11  CAX E3B d   1      -2.910  -1.786  -2.618  0.00  0.00     0.009 A 
ATOM     12  CAL E3B d   1      -4.234  -1.805  -2.172  0.00  0.00    -0.056 A 
ATOM     13  CAT E3B d   1      -5.312  -1.881  -3.063  0.00  0.00     0.010 A 
ATOM     14  H13 E3B d   1      -4.432  -1.760  -1.107  0.00  0.00     0.086 H 
ATOM     15  CAH E3B d   1      -5.052  -1.961  -4.436  0.00  0.00    -0.067 A 
ATOM     16  CAJ E3B d   1      -3.741  -1.954  -4.894  0.00  0.00    -0.049 A 
ATOM     17  H9  E3B d   1      -5.873  -2.028  -5.141  0.00  0.00     0.085 H 
ATOM     18  CAW E3B d   1      -2.680  -1.874  -3.993  0.00  0.00     0.079 A 
ATOM     19  H11 E3B d   1      -3.542  -2.011  -5.958  0.00  0.00     0.087 H 
BRANCH  13  20
ATOM     20  CAS E3B d   1      -6.649  -1.929  -2.620  0.00  0.00     0.155 C 
ATOM     21  OAC E3B d   1      -7.574  -2.148  -3.413  0.00  0.00    -0.293 OA
BRANCH  20  22
ATOM     22  CAB E3B d   1      -6.928  -1.903  -1.105  0.00  0.00    -0.017 C 
ATOM     23  H4  E3B d   1      -8.013  -1.947  -0.931  0.00  0.00     0.038 H 
ATOM     24  H5  E3B d   1      -6.525  -0.975  -0.674  0.00  0.00     0.038 H 
ATOM     25  H6  E3B d   1      -6.445  -2.769  -0.628  0.00  0.00     0.038 H 
ENDBRANCH  20  22
ENDBRANCH  13  20
BRANCH  18  26
ATOM     26  OAR E3B d   1      -1.377  -1.859  -4.404  0.00  0.00    -0.351 OA
BRANCH  26  27
ATOM     27  CAM E3B d   1      -1.223  -2.188  -5.790  0.00  0.00     0.023 C 
ATOM     28  H14 E3B d   1      -2.178  -2.035  -6.314  0.00  0.00     0.074 H 
ATOM     29  H15 E3B d   1      -0.452  -1.545  -6.238  0.00  0.00     0.074 H 
BRANCH  27  30
ATOM     30  CAA E3B d   1      -0.801  -3.655  -5.909  0.00  0.00    -0.056 C 
ATOM     31  H1  E3B d   1      -0.680  -3.917  -6.971  0.00  0.00     0.030 H 
ATOM     32  H2  E3B d   1      -1.573  -4.296  -5.459  0.00  0.00     0.030 H 
ATOM     33  H3  E3B d   1       0.153  -3.806  -5.383  0.00  0.00     0.030 H 
ENDBRANCH  27  30
ENDBRANCH  26  27
ENDBRANCH  18  26
ENDBRANCH   5  11
BRANCH   6  34
ATOM     34  NAY E3B d   1       0.940  -3.790  -0.587  0.00  0.00    -0.375 N 
ATOM     35  CAO E3B d   1       2.257  -3.592   0.069  0.00  0.00    -0.004 C 
ATOM     36  CAN E3B d   1       2.804  -4.867   0.700  0.00  0.00    -0.045 C 
ATOM     37  H18 E3B d   1       2.975  -3.238  -0.685  0.00  0.00     0.064 H 
ATOM     38  H19 E3B d   1       2.146  -2.831   0.855  0.00  0.00     0.064 H 
ATOM     39  CAP E3B d   1       2.704  -6.023  -0.281  0.00  0.00    -0.001 C 
ATOM     40  H16 E3B d   1       2.221  -5.105   1.602  0.00  0.00     0.035 H 
ATOM     41  H17 E3B d   1       3.858  -4.713   0.974  0.00  0.00     0.035 H 
ATOM     42  CAZ E3B d   1       1.238  -6.258  -0.587  0.00  0.00     0.259 C 
ATOM     43  H20 E3B d   1       3.141  -6.929   0.165  0.00  0.00     0.042 H 
ATOM     44  H21 E3B d   1       3.242  -5.773  -1.207  0.00  0.00     0.042 H 
ATOM     45  CAQ E3B d   1       0.659  -5.057  -1.307  0.00  0.00     0.056 C 
ATOM     46  FAD E3B d   1       0.545  -6.486   0.573  0.00  0.00    -0.205 F 
ATOM     47  FAE E3B d   1       1.101  -7.298  -1.366  0.00  0.00    -0.205 F 
ATOM     48  H22 E3B d   1      -0.430  -5.184  -1.391  0.00  0.00     0.073 H 
ATOM     49  H23 E3B d   1       1.100  -4.999  -2.313  0.00  0.00     0.073 H 
ENDBRANCH   6  34
TORSDOF 7
