REMARK  12 active torsions:
REMARK  status: ('A' for Active; 'I' for Inactive)
REMARK    1  A    between atoms: CAQ_14  and  CAA_1 
REMARK    2  A    between atoms: CAR_15  and  CAB_2 
REMARK    3  A    between atoms: CAW_16  and  CAC_3 
REMARK    4  A    between atoms: CBC_22  and  CAD_4 
REMARK    5  A    between atoms: OAT_33  and  CAQ_14 
REMARK    6  A    between atoms: NBI_29  and  CAR_15 
REMARK    7  A    between atoms: CAZ_19  and  CAW_16 
REMARK    8  A    between atoms: CAX_17  and  CBE_24 
REMARK       I    between atoms: NAS_28  and  CAX_17 
REMARK    9  A    between atoms: CAY_18  and  NAS_28 
REMARK   10  A    between atoms: CBA_20  and  CBF_25 
REMARK   11  A    between atoms: CBG_26  and  CBB_21 
REMARK   12  A    between atoms: CBD_23  and  OAT_33 
ROOT
ATOM      1  CAM E3H d   1     -14.156 -17.257  -1.963  0.00  0.00    -0.046 A 
ATOM      2  CAN E3H d   1     -16.072 -16.637  -3.294  0.00  0.00    -0.046 A 
ATOM      3  CAO E3H d   1     -15.124 -15.071  -1.756  0.00  0.00    -0.061 A 
ATOM      4  CAY E3H d   1     -15.109 -17.605  -2.933  0.00  0.00     0.036 A 
ATOM      5  CBA E3H d   1     -14.146 -15.981  -1.350  0.00  0.00    -0.020 A 
ATOM      6  CBB E3H d   1     -16.104 -15.358  -2.719  0.00  0.00    -0.015 A 
ATOM      7  H18 E3H d   1     -13.407 -17.986  -1.675  0.00  0.00     0.088 H 
ATOM      8  H19 E3H d   1     -16.813 -16.892  -4.043  0.00  0.00     0.088 H 
ATOM      9  H20 E3H d   1     -15.127 -14.087  -1.302  0.00  0.00     0.086 H 
ENDROOT
BRANCH   5  10
ATOM     10  CBF E3H d   1     -13.161 -15.602  -0.395  0.00  0.00     0.009 A 
ATOM     11  CAP E3H d   1     -12.248 -14.577  -0.709  0.00  0.00    -0.056 A 
ATOM     12  CAZ E3H d   1     -11.232 -14.173   0.173  0.00  0.00     0.010 A 
ATOM     13  H21 E3H d   1     -12.332 -14.080  -1.669  0.00  0.00     0.086 H 
ATOM     14  CAK E3H d   1     -11.119 -14.819   1.406  0.00  0.00    -0.067 A 
ATOM     15  CAL E3H d   1     -12.009 -15.844   1.732  0.00  0.00    -0.049 A 
ATOM     16  H16 E3H d   1     -10.345 -14.526   2.106  0.00  0.00     0.085 H 
ATOM     17  CBD E3H d   1     -13.024 -16.222   0.843  0.00  0.00     0.079 A 
ATOM     18  H17 E3H d   1     -11.914 -16.354   2.684  0.00  0.00     0.087 H 
BRANCH  12  19
ATOM     19  CAW E3H d   1     -10.289 -13.172  -0.149  0.00  0.00     0.155 C 
ATOM     20  OAE E3H d   1      -9.313 -12.916   0.567  0.00  0.00    -0.293 OA
BRANCH  19  21
ATOM     21  CAC E3H d   1     -10.442 -12.460  -1.498  0.00  0.00    -0.017 C 
ATOM     22  H7  E3H d   1      -9.643 -11.712  -1.611  0.00  0.00     0.038 H 
ATOM     23  H8  E3H d   1     -11.421 -11.960  -1.540  0.00  0.00     0.038 H 
ATOM     24  H9  E3H d   1     -10.371 -13.197  -2.312  0.00  0.00     0.038 H 
ENDBRANCH  19  21
ENDBRANCH  12  19
BRANCH  17  25
ATOM     25  OAT E3H d   1     -13.934 -17.230   1.100  0.00  0.00    -0.351 OA
BRANCH  25  26
ATOM     26  CAQ E3H d   1     -13.647 -17.929   2.312  0.00  0.00     0.023 C 
ATOM     27  H22 E3H d   1     -13.841 -19.003   2.175  0.00  0.00     0.074 H 
ATOM     28  H23 E3H d   1     -12.592 -17.778   2.586  0.00  0.00     0.074 H 
BRANCH  26  29
ATOM     29  CAA E3H d   1     -14.548 -17.381   3.416  0.00  0.00    -0.056 C 
ATOM     30  H1  E3H d   1     -14.338 -17.910   4.357  0.00  0.00     0.030 H 
ATOM     31  H2  E3H d   1     -15.602 -17.531   3.138  0.00  0.00     0.030 H 
ATOM     32  H3  E3H d   1     -14.353 -16.306   3.549  0.00  0.00     0.030 H 
ENDBRANCH  26  29
ENDBRANCH  25  26
ENDBRANCH  17  25
ENDBRANCH   5  10
BRANCH   4  33
ATOM     33  NAS E3H d   1     -15.178 -18.826  -3.580  0.00  0.00    -0.321 N 
ATOM     34  CAX E3H d   1     -14.324 -19.881  -3.417  0.00  0.00     0.279 C 
ATOM     35  OAF E3H d   1     -13.377 -19.902  -2.644  0.00  0.00    -0.265 OA
ATOM     36  H26 E3H d   1     -15.927 -18.949  -4.231  0.00  0.00     0.169 HD
BRANCH  34  37
ATOM     37  CBE E3H d   1     -14.554 -20.982  -4.165  0.00  0.00     0.142 A 
ATOM     38  CAJ E3H d   1     -15.375 -21.127  -5.205  0.00  0.00    -0.043 A 
ATOM     39  CAH E3H d   1     -15.288 -22.395  -5.654  0.00  0.00    -0.059 A 
ATOM     40  H15 E3H d   1     -16.012 -20.349  -5.623  0.00  0.00     0.088 H 
ATOM     41  CAI E3H d   1     -14.402 -23.054  -4.906  0.00  0.00     0.020 A 
ATOM     42  H13 E3H d   1     -15.848 -22.812  -6.489  0.00  0.00     0.086 H 
ATOM     43  OAU E3H d   1     -13.920 -22.126  -3.961  0.00  0.00    -0.317 OA
ATOM     44  H14 E3H d   1     -14.110 -24.098  -5.005  0.00  0.00     0.123 H 
ENDBRANCH  34  37
ENDBRANCH   4  33
BRANCH   6  45
ATOM     45  CBG E3H d   1     -17.053 -14.433  -3.097  0.00  0.00     0.075 A 
ATOM     46  CBC E3H d   1     -16.873 -13.095  -3.270  0.00  0.00     0.089 A 
ATOM     47  OAV E3H d   1     -18.041 -12.502  -3.657  0.00  0.00    -0.236 OA
ATOM     48  NBI E3H d   1     -18.973 -13.539  -3.736  0.00  0.00    -0.216 N 
ATOM     49  CBH E3H d   1     -18.353 -14.671  -3.397  0.00  0.00     0.281 A 
ATOM     50  OAG E3H d   1     -18.936 -15.761  -3.370  0.00  0.00    -0.265 OA
BRANCH  46  51
ATOM     51  CAD E3H d   1     -15.611 -12.237  -3.085  0.00  0.00    -0.028 C 
ATOM     52  H10 E3H d   1     -15.844 -11.187  -3.317  0.00  0.00     0.036 H 
ATOM     53  H11 E3H d   1     -14.821 -12.596  -3.762  0.00  0.00     0.036 H 
ATOM     54  H12 E3H d   1     -15.265 -12.314  -2.044  0.00  0.00     0.036 H 
ENDBRANCH  46  51
BRANCH  48  55
ATOM     55  CAR E3H d   1     -20.364 -13.287  -4.128  0.00  0.00     0.021 C 
ATOM     56  H24 E3H d   1     -20.668 -14.008  -4.901  0.00  0.00     0.067 H 
ATOM     57  H25 E3H d   1     -21.021 -13.390  -3.252  0.00  0.00     0.067 H 
BRANCH  55  58
ATOM     58  CAB E3H d   1     -20.461 -11.868  -4.681  0.00  0.00    -0.059 C 
ATOM     59  H4  E3H d   1     -21.499 -11.661  -4.981  0.00  0.00     0.029 H 
ATOM     60  H5  E3H d   1     -19.801 -11.769  -5.555  0.00  0.00     0.029 H 
ATOM     61  H6  E3H d   1     -20.153 -11.151  -3.906  0.00  0.00     0.029 H 
ENDBRANCH  55  58
ENDBRANCH  48  55
ENDBRANCH   6  45
TORSDOF 12
