REMARK  9 active torsions:
REMARK  status: ('A' for Active; 'I' for Inactive)
REMARK    1  A    between atoms: C13_2  and  C15_3 
REMARK    2  A    between atoms: C13_2  and  C14_15 
REMARK    3  A    between atoms: S12_33  and  C13_2 
REMARK    4  A    between atoms: C22_5  and  C23_18 
REMARK    5  A    between atoms: N21_27  and  C22_5 
REMARK    6  A    between atoms: C26_7  and  O27_32 
REMARK    7  A    between atoms: O27_32  and  C28_8 
REMARK       I    between atoms: N03_25  and  C02_9 
REMARK       I    between atoms: C02_9  and  N21_27 
REMARK    8  A    between atoms: C04_10  and  N03_25 
REMARK    9  A    between atoms: N11_26  and  S12_33 
ROOT
ATOM      1  C10 E3N d   1     -10.520 -30.257 -33.820  0.00  0.00     0.008 C 
ATOM      2  C20 E3N d   1     -12.572 -27.363 -35.564  0.00  0.00    -0.017 C 
ATOM      3  C04 E3N d   1     -12.167 -25.975 -36.051  0.00  0.00     0.018 C 
ATOM      4  C05 E3N d   1     -11.358 -25.355 -34.914  0.00  0.00    -0.026 C 
ATOM      5  C06 E3N d   1     -10.164 -26.194 -34.590  0.00  0.00     0.022 C 
ATOM      6  C08 E3N d   1     -11.436 -28.206 -35.048  0.00  0.00     0.066 C 
ATOM      7  C09 E3N d   1     -11.746 -29.488 -34.350  0.00  0.00    -0.021 C 
ATOM      8  C18 E3N d   1      -9.270 -29.434 -35.768  0.00  0.00     0.008 C 
ATOM      9  C19 E3N d   1     -10.469 -28.588 -36.133  0.00  0.00    -0.021 C 
ATOM     10  N11 E3N d   1      -9.449 -30.560 -34.811  0.00  0.00    -0.310 N 
ATOM     11  O07 E3N d   1     -10.501 -27.488 -34.333  0.00  0.00    -0.380 OA
ATOM     12  H1  E3N d   1     -10.876 -31.213 -33.410  0.00  0.00     0.065 H 
ATOM     13  H2  E3N d   1     -10.071 -29.657 -33.015  0.00  0.00     0.065 H 
ATOM     14  H7  E3N d   1     -13.041 -27.897 -36.404  0.00  0.00     0.040 H 
ATOM     15  H8  E3N d   1     -13.304 -27.241 -34.752  0.00  0.00     0.040 H 
ATOM     16  H12 E3N d   1     -11.520 -26.087 -36.933  0.00  0.00     0.072 H 
ATOM     17  H13 E3N d   1     -11.995 -25.275 -34.021  0.00  0.00     0.039 H 
ATOM     18  H14 E3N d   1     -11.022 -24.352 -35.216  0.00  0.00     0.039 H 
ATOM     19  H15 E3N d   1      -9.666 -25.775 -33.703  0.00  0.00     0.074 H 
ATOM     20  H16 E3N d   1      -9.472 -26.171 -35.445  0.00  0.00     0.074 H 
ATOM     21  H17 E3N d   1     -12.401 -29.261 -33.496  0.00  0.00     0.040 H 
ATOM     22  H18 E3N d   1     -12.278 -30.141 -35.057  0.00  0.00     0.040 H 
ATOM     23  H22 E3N d   1      -8.518 -28.758 -35.334  0.00  0.00     0.065 H 
ATOM     24  H23 E3N d   1      -8.881 -29.864 -36.703  0.00  0.00     0.065 H 
ATOM     25  H24 E3N d   1     -10.086 -27.654 -36.570  0.00  0.00     0.040 H 
ATOM     26  H25 E3N d   1     -11.038 -29.143 -36.894  0.00  0.00     0.040 H 
ENDROOT
BRANCH   3  27
ATOM     27  N03 E3N d   1     -13.278 -25.140 -36.433  0.00  0.00    -0.338 N 
ATOM     28  C02 E3N d   1     -14.057 -25.201 -37.575  0.00  0.00     0.316 C 
ATOM     29  N21 E3N d   1     -15.091 -24.334 -37.882  0.00  0.00    -0.339 N 
ATOM     30  O01 E3N d   1     -13.792 -26.084 -38.368  0.00  0.00    -0.247 OA
ATOM     31  H30 E3N d   1     -15.276 -23.607 -37.221  0.00  0.00     0.164 HD
ATOM     32  H29 E3N d   1     -13.519 -24.418 -35.784  0.00  0.00     0.164 HD
BRANCH  29  33
ATOM     33  C22 E3N d   1     -15.929 -24.369 -39.054  0.00  0.00     0.021 C 
ATOM     34  H9  E3N d   1     -15.629 -23.534 -39.705  0.00  0.00     0.071 H 
ATOM     35  H10 E3N d   1     -15.742 -25.322 -39.571  0.00  0.00     0.071 H 
BRANCH  33  36
ATOM     36  C23 E3N d   1     -17.397 -24.259 -38.822  0.00  0.00    -0.040 A 
ATOM     37  C24 E3N d   1     -18.022 -24.696 -37.678  0.00  0.00    -0.073 A 
ATOM     38  C25 E3N d   1     -19.398 -24.597 -37.462  0.00  0.00    -0.050 A 
ATOM     39  H11 E3N d   1     -17.413 -25.142 -36.900  0.00  0.00     0.084 H 
ATOM     40  C26 E3N d   1     -20.205 -24.038 -38.430  0.00  0.00     0.078 A 
ATOM     41  H26 E3N d   1     -19.830 -24.959 -36.536  0.00  0.00     0.087 H 
ATOM     42  C32 E3N d   1     -19.615 -23.593 -39.570  0.00  0.00    -0.050 A 
ATOM     43  C33 E3N d   1     -18.246 -23.703 -39.737  0.00  0.00    -0.073 A 
ATOM     44  H27 E3N d   1     -20.220 -23.149 -40.353  0.00  0.00     0.087 H 
ATOM     45  H28 E3N d   1     -17.817 -23.322 -40.657  0.00  0.00     0.084 H 
BRANCH  40  46
ATOM     46  O27 E3N d   1     -21.551 -23.891 -38.263  0.00  0.00    -0.255 OA
BRANCH  46  47
ATOM     47  C28 E3N d   1     -22.306 -24.783 -37.552  0.00  0.00     0.530 C 
ATOM     48  F29 E3N d   1     -22.203 -26.009 -37.988  0.00  0.00    -0.144 F 
ATOM     49  F30 E3N d   1     -23.583 -24.407 -37.628  0.00  0.00    -0.144 F 
ATOM     50  F31 E3N d   1     -22.080 -24.849 -36.254  0.00  0.00    -0.144 F 
ENDBRANCH  46  47
ENDBRANCH  40  46
ENDBRANCH  33  36
ENDBRANCH  29  33
ENDBRANCH   3  27
BRANCH  10  51
ATOM     51  S12 E3N d   1      -8.605 -31.959 -34.923  0.00  0.00     0.232 S 
ATOM     52  O16 E3N d   1      -7.758 -31.822 -36.020  0.00  0.00    -0.205 OA
ATOM     53  O17 E3N d   1      -7.954 -32.173 -33.702  0.00  0.00    -0.205 OA
BRANCH  51  54
ATOM     54  C13 E3N d   1      -9.625 -33.237 -35.268  0.00  0.00     0.056 C 
ATOM     55  H3  E3N d   1      -9.133 -34.141 -34.880  0.00  0.00     0.065 H 
BRANCH  54  56
ATOM     56  C15 E3N d   1     -10.983 -33.124 -34.614  0.00  0.00    -0.059 C 
ATOM     57  H4  E3N d   1     -11.595 -33.997 -34.886  0.00  0.00     0.029 H 
ATOM     58  H5  E3N d   1     -11.481 -32.206 -34.959  0.00  0.00     0.029 H 
ATOM     59  H6  E3N d   1     -10.862 -33.087 -33.521  0.00  0.00     0.029 H 
ENDBRANCH  54  56
BRANCH  54  60
ATOM     60  C14 E3N d   1      -9.895 -33.449 -36.745  0.00  0.00    -0.059 C 
ATOM     61  H19 E3N d   1     -10.572 -34.306 -36.875  0.00  0.00     0.029 H 
ATOM     62  H20 E3N d   1      -8.947 -33.648 -37.266  0.00  0.00     0.029 H 
ATOM     63  H21 E3N d   1     -10.362 -32.546 -37.166  0.00  0.00     0.029 H 
ENDBRANCH  54  60
ENDBRANCH  51  54
ENDBRANCH  10  51
TORSDOF 9
