REMARK  27 active torsions:
REMARK  status: ('A' for Active; 'I' for Inactive)
REMARK    1  A    between atoms: N_1  and  CA_2 
REMARK    2  A    between atoms: CA_2  and  C_3 
REMARK    3  A    between atoms: CA_2  and  CB_5 
REMARK       I    between atoms: C_3  and  N_6 
REMARK    4  A    between atoms: CA_7  and  C_8 
REMARK       I    between atoms: C_8  and  N_13 
REMARK    5  A    between atoms: N_13  and  CA_14 
REMARK    6  A    between atoms: CA_14  and  C_15 
REMARK    7  A    between atoms: CA_14  and  CB_17 
REMARK       I    between atoms: C_15  and  N_21 
REMARK    8  A    between atoms: CB_17  and  CG_18 
REMARK    9  A    between atoms: N_21  and  CA_22 
REMARK   10  A    between atoms: CA_22  and  CB_23 
REMARK   11  A    between atoms: CA_22  and  C_26 
REMARK   12  A    between atoms: CB_23  and  CG2_24 
REMARK   13  A    between atoms: CB_23  and  SEG_25 
REMARK   14  A    between atoms: SEG_25  and  C1_48 
REMARK       I    between atoms: C_26  and  N_28 
REMARK   15  A    between atoms: N_28  and  CA_29 
REMARK   16  A    between atoms: CA_29  and  C_30 
REMARK   17  A    between atoms: CA_29  and  CB_32 
REMARK       I    between atoms: C_30  and  N_39 
REMARK   18  A    between atoms: CB_32  and  CG_33 
REMARK   19  A    between atoms: CG_33  and  CD_34 
REMARK   20  A    between atoms: CD_34  and  NE_35 
REMARK       I    between atoms: NE_35  and  CZ_36 
REMARK       I    between atoms: CZ_36  and  NH1_37 
REMARK   21  A    between atoms: CA_40  and  C_41 
REMARK       I    between atoms: C_41  and  N_46 
REMARK   22  A    between atoms: C2_49  and  N2_50 
REMARK       I    between atoms: N2_50  and  C7_58 
REMARK   23  A    between atoms: C3_51  and  O3_52 
REMARK   24  A    between atoms: C4_53  and  O4_54 
REMARK   25  A    between atoms: C5_55  and  C6_56 
REMARK   26  A    between atoms: C6_56  and  O6_57 
REMARK   27  A    between atoms: C7_58  and  C8_60 
ROOT
ATOM      1  CA  ALA d   1      18.971  10.636   3.421  0.00  0.00     0.093 C 
ATOM      2  H20 ALA d   1      18.538   9.625   3.427  0.00  0.00     0.088 H 
ENDROOT
BRANCH   1   3
ATOM      3  N   ALA d   1      18.363  11.375   4.554  0.00  0.00    -0.346 N 
ATOM      4  C   ALA d   1      17.978  10.749   5.682  0.00  0.00     0.241 C 
ATOM      5  O   ALA d   1      18.146   9.554   5.896  0.00  0.00    -0.271 OA
ATOM      6  H19 ALA d   1      18.236  12.364   4.478  0.00  0.00     0.163 HD
BRANCH   4   7
ATOM      7  CA  ALA d   1      17.351  11.654   6.756  0.00  0.00     0.098 C 
ATOM      8  H16 ALA d   1      17.707  12.686   6.620  0.00  0.00     0.088 H 
BRANCH   7   9
ATOM      9  N   ALA d   1      15.883  11.618   6.612  0.00  0.00    -0.346 N 
ATOM     10  C   ALA d   1      15.261  12.299   5.628  0.00  0.00     0.241 C 
ATOM     11  O   ALA d   1      15.895  12.989   4.824  0.00  0.00    -0.271 OA
ATOM     12  H15 ALA d   1      15.339  11.079   7.255  0.00  0.00     0.163 HD
BRANCH  10  13
ATOM     13  CA  ALA d   1      13.841  12.187   5.527  0.00  0.00     0.091 C 
ATOM     14  N   ALA d   1      13.359  12.644   4.172  0.00  0.00    -0.337 N 
ATOM     15  C   ALA d   1      13.227  13.935   3.778  0.00  0.00     0.250 C 
ATOM     16  CD  ALA d   1      13.051  11.466   3.364  0.00  0.00    -0.001 C 
ATOM     17  O   ALA d   1      13.499  14.885   4.507  0.00  0.00    -0.271 OA
ATOM     18  CG  ALA d   1      13.562  10.310   4.149  0.00  0.00    -0.048 C 
ATOM     19  H13 ALA d   1      13.557  11.524   2.389  0.00  0.00     0.064 H 
ATOM     20  H14 ALA d   1      11.966  11.377   3.209  0.00  0.00     0.064 H 
ATOM     21  CB  ALA d   1      13.283  10.750   5.531  0.00  0.00    -0.036 C 
ATOM     22  H11 ALA d   1      13.019   9.386   3.904  0.00  0.00     0.035 H 
ATOM     23  H12 ALA d   1      14.639  10.157   3.985  0.00  0.00     0.035 H 
ATOM     24  H9  ALA d   1      12.204  10.741   5.744  0.00  0.00     0.036 H 
ATOM     25  H10 ALA d   1      13.807  10.120   6.265  0.00  0.00     0.036 H 
ATOM     26  H8  ALA d   1      13.388  12.778   6.337  0.00  0.00     0.087 H 
BRANCH  15  27
ATOM     27  CA  ALA d   1      12.798  14.188   2.322  0.00  0.00     0.172 C 
ATOM     28  H4  ALA d   1      12.098  13.401   2.003  0.00  0.00     0.098 H 
BRANCH  27  29
ATOM     29  N   ALA d   1      12.144  15.500   2.182  0.00  0.00    -0.067 N 
ATOM     30  H1  ALA d   1      11.874  15.640   1.221  0.00  0.00     0.275 HD
ATOM     31  H2  ALA d   1      12.785  16.226   2.460  0.00  0.00     0.275 HD
ATOM     32  H3  ALA d   1      11.325  15.532   2.769  0.00  0.00     0.275 HD
ENDBRANCH  27  29
BRANCH  27  33
ATOM     33  CB  ALA d   1      14.062  14.144   1.451  0.00  0.00    -0.042 C 
ATOM     34  H5  ALA d   1      14.547  13.163   1.558  0.00  0.00     0.030 H 
ATOM     35  H6  ALA d   1      14.757  14.934   1.773  0.00  0.00     0.030 H 
ATOM     36  H7  ALA d   1      13.787  14.304   0.398  0.00  0.00     0.030 H 
ENDBRANCH  27  33
ENDBRANCH  15  27
ENDBRANCH  10  13
ENDBRANCH   7   9
BRANCH   7  37
ATOM     37  CB  ALA d   1      17.755  11.158   8.156  0.00  0.00     0.043 C 
ATOM     38  H17 ALA d   1      17.588  10.072   8.210  0.00  0.00     0.052 H 
ATOM     39  H18 ALA d   1      17.128  11.663   8.906  0.00  0.00     0.052 H 
BRANCH  37  40
ATOM     40  CG  ALA d   1      19.240  11.450   8.470  0.00  0.00     0.175 C 
ATOM     41  OD1 ALA d   1      19.955  11.951   7.578  0.00  0.00    -0.648 OA
ATOM     42  OD2 ALA d   1      19.649  11.120   9.597  0.00  0.00    -0.648 OA
ENDBRANCH  37  40
ENDBRANCH   7  37
ENDBRANCH   4   7
ENDBRANCH   1   3
BRANCH   1  43
ATOM     43  CB  ALA d   1      18.607  11.296   2.064  0.00  0.00    -0.024 C 
ATOM     44  H21 ALA d   1      18.939  10.610   1.271  0.00  0.00     0.043 H 
BRANCH  43  45
ATOM     45  CG2 ALA d   1      17.087  11.494   1.881  0.00  0.00    -0.070 C 
ATOM     46  H22 ALA d   1      16.893  11.963   0.905  0.00  0.00     0.028 H 
ATOM     47  H23 ALA d   1      16.703  12.142   2.682  0.00  0.00     0.028 H 
ATOM     48  H24 ALA d   1      16.582  10.518   1.925  0.00  0.00     0.028 H 
ENDBRANCH  43  45
BRANCH  43  49
ATOM     49 SEG  ALA d   1      19.594  12.999   1.826  0.00  0.00     0.000 Se
ATOM     50  H25 ALA d   1      20.514  12.713   3.595  0.00  0.00     0.000 HD
ATOM     51  H26 ALA d   1      20.912  11.758   0.940  0.00  0.00     0.000 HD
ATOM     52  H27 ALA d   1      20.809  14.561   1.446  0.00  0.00     0.000 HD
ATOM     53  H28 ALA d   1      18.674  13.285   0.057  0.00  0.00     0.000 HD
BRANCH  49  54
ATOM     54  C1  ALA d   1      18.493  14.436   2.631  0.00  0.00     0.088 C 
ATOM     55  O   ALA d   1      18.631  14.486   4.085  0.00  0.00    -0.371 OA
ATOM     56  C5  ALA d   1      19.934  14.895   4.616  0.00  0.00     0.086 C 
ATOM     57  C4  ALA d   1      20.466  16.204   3.968  0.00  0.00     0.089 C 
ATOM     58  H58 ALA d   1      20.663  14.094   4.421  0.00  0.00     0.090 H 
ATOM     59  C3  ALA d   1      20.318  16.172   2.447  0.00  0.00     0.084 C 
ATOM     60  H56 ALA d   1      21.535  16.296   4.212  0.00  0.00     0.091 H 
ATOM     61  C2  ALA d   1      18.861  15.833   2.073  0.00  0.00     0.067 C 
ATOM     62  H54 ALA d   1      20.983  15.401   2.032  0.00  0.00     0.090 H 
ATOM     63  H52 ALA d   1      18.201  16.574   2.547  0.00  0.00     0.080 H 
ATOM     64  H51 ALA d   1      17.441  14.228   2.387  0.00  0.00     0.090 H 
BRANCH  56  65
ATOM     65  C6  ALA d   1      19.774  15.078   6.135  0.00  0.00     0.043 C 
ATOM     66  H59 ALA d   1      19.515  14.110   6.590  0.00  0.00     0.078 H 
ATOM     67  H60 ALA d   1      18.968  15.801   6.328  0.00  0.00     0.078 H 
BRANCH  65  68
ATOM     68  O6  ALA d   1      20.991  15.562   6.720  0.00  0.00    -0.398 OA
ATOM     69  H61 ALA d   1      20.871  15.668   7.656  0.00  0.00     0.209 HD
ENDBRANCH  65  68
ENDBRANCH  56  65
BRANCH  57  70
ATOM     70  O4  ALA d   1      19.773  17.362   4.492  0.00  0.00    -0.390 OA
ATOM     71  H57 ALA d   1      20.149  18.151   4.119  0.00  0.00     0.210 HD
ENDBRANCH  57  70
BRANCH  59  72
ATOM     72  O3  ALA d   1      20.693  17.455   1.916  0.00  0.00    -0.391 OA
ATOM     73  H55 ALA d   1      20.120  18.124   2.272  0.00  0.00     0.210 HD
ENDBRANCH  59  72
BRANCH  61  74
ATOM     74  N2  ALA d   1      18.661  15.920   0.604  0.00  0.00    -0.352 N 
ATOM     75  C7  ALA d   1      18.327  17.080  -0.016  0.00  0.00     0.214 C 
ATOM     76  O7  ALA d   1      18.174  18.160   0.560  0.00  0.00    -0.274 OA
ATOM     77  H53 ALA d   1      18.777  15.094   0.052  0.00  0.00     0.163 HD
BRANCH  75  78
ATOM     78  C8  ALA d   1      18.165  17.003  -1.542  0.00  0.00    -0.003 C 
ATOM     79  H62 ALA d   1      17.896  17.995  -1.933  0.00  0.00     0.040 H 
ATOM     80  H63 ALA d   1      17.371  16.283  -1.791  0.00  0.00     0.040 H 
ATOM     81  H64 ALA d   1      19.112  16.675  -1.995  0.00  0.00     0.040 H 
ENDBRANCH  75  78
ENDBRANCH  61  74
ENDBRANCH  49  54
ENDBRANCH  43  49
ENDBRANCH   1  43
BRANCH   1  82
ATOM     82  C   ALA d   1      20.522  10.476   3.541  0.00  0.00     0.241 C 
ATOM     83  O   ALA d   1      21.144   9.957   2.612  0.00  0.00    -0.271 OA
ATOM     84  N   ALA d   1      21.130  10.898   4.677  0.00  0.00    -0.346 N 
ATOM     85  H29 ALA d   1      20.574  11.311   5.398  0.00  0.00     0.163 HD
BRANCH  84  86
ATOM     86  CA  ALA d   1      22.589  10.767   4.885  0.00  0.00     0.089 C 
ATOM     87  H30 ALA d   1      23.131  11.197   4.030  0.00  0.00     0.087 H 
BRANCH  86  88
ATOM     88  C   ALA d   1      22.946   9.270   5.031  0.00  0.00     0.243 C 
ATOM     89  O   ALA d   1      22.357   8.591   5.869  0.00  0.00    -0.271 OA
ATOM     90  N   ALA d   1      23.905   8.756   4.226  0.00  0.00    -0.337 N 
ATOM     91  CA  ALA d   1      24.289   7.306   4.284  0.00  0.00     0.091 C 
ATOM     92  CD  ALA d   1      24.676   9.376   3.153  0.00  0.00    -0.001 C 
ATOM     93  CB  ALA d   1      25.298   7.145   3.130  0.00  0.00    -0.036 C 
ATOM     94  H42 ALA d   1      23.402   6.685   4.089  0.00  0.00     0.087 H 
ATOM     95  CG  ALA d   1      25.907   8.519   3.113  0.00  0.00    -0.048 C 
ATOM     96  H43 ALA d   1      24.796   6.911   2.180  0.00  0.00     0.036 H 
ATOM     97  H44 ALA d   1      26.047   6.370   3.350  0.00  0.00     0.036 H 
ATOM     98  H45 ALA d   1      26.490   8.691   2.196  0.00  0.00     0.035 H 
ATOM     99  H46 ALA d   1      26.547   8.689   3.992  0.00  0.00     0.035 H 
ATOM    100  H47 ALA d   1      24.925  10.421   3.392  0.00  0.00     0.064 H 
ATOM    101  H48 ALA d   1      24.132   9.338   2.198  0.00  0.00     0.064 H 
BRANCH  91 102
ATOM    102  C   ALA d   1      24.829   6.908   5.540  0.00  0.00     0.238 C 
ATOM    103  O   ALA d   1      25.531   7.671   6.201  0.00  0.00    -0.271 OA
ATOM    104  N   ALA d   1      24.511   5.679   5.960  0.00  0.00    -0.368 N 
ATOM    105  H49 ALA d   1      24.861   5.343   6.835  0.00  0.00     0.159 HD
ATOM    106  H50 ALA d   1      23.924   5.095   5.399  0.00  0.00     0.159 HD
ENDBRANCH  91 102
ENDBRANCH  86  88
BRANCH  86 107
ATOM    107  CB  ALA d   1      22.964  11.519   6.174  0.00  0.00    -0.036 C 
ATOM    108  H31 ALA d   1      22.646  10.920   7.040  0.00  0.00     0.036 H 
ATOM    109  H32 ALA d   1      22.442  12.487   6.186  0.00  0.00     0.036 H 
BRANCH 107 110
ATOM    110  CG  ALA d   1      24.473  11.769   6.272  0.00  0.00    -0.048 C 
ATOM    111  H33 ALA d   1      24.768  12.543   5.549  0.00  0.00     0.035 H 
ATOM    112  H34 ALA d   1      25.018  10.838   6.056  0.00  0.00     0.035 H 
BRANCH 110 113
ATOM    113  CD  ALA d   1      24.798  12.239   7.694  0.00  0.00     0.009 C 
ATOM    114  H35 ALA d   1      24.520  11.452   8.411  0.00  0.00     0.064 H 
ATOM    115  H36 ALA d   1      24.229  13.154   7.915  0.00  0.00     0.064 H 
BRANCH 113 116
ATOM    116  NE  ALA d   1      26.240  12.520   7.811  0.00  0.00    -0.227 N 
ATOM    117  CZ  ALA d   1      26.867  13.688   7.549  0.00  0.00     0.665 C 
ATOM    118  NH1 ALA d   1      26.203  14.786   7.129  0.00  0.00    -0.235 N 
ATOM    119  NH2 ALA d   1      28.201  13.756   7.711  0.00  0.00    -0.235 N 
ATOM    120  H38 ALA d   1      26.718  15.658   6.940  0.00  0.00     0.174 HD
ATOM    121  H39 ALA d   1      25.182  14.752   6.998  0.00  0.00     0.174 HD
ATOM    122  H40 ALA d   1      28.724  12.928   8.031  0.00  0.00     0.174 HD
ATOM    123  H41 ALA d   1      28.699  14.636   7.515  0.00  0.00     0.174 HD
ATOM    124  H37 ALA d   1      26.835  11.741   8.127  0.00  0.00     0.177 HD
ENDBRANCH 113 116
ENDBRANCH 110 113
ENDBRANCH 107 110
ENDBRANCH  86 107
ENDBRANCH  84  86
ENDBRANCH   1  82
TORSDOF 27
