REMARK  8 active torsions:
REMARK  status: ('A' for Active; 'I' for Inactive)
REMARK       I    between atoms: C02_2  and  N03_3 
REMARK    1  A    between atoms: C02_2  and  C13_13 
REMARK    2  A    between atoms: N03_3  and  C04_4 
REMARK    3  A    between atoms: C04_4  and  C05_5 
REMARK    4  A    between atoms: C05_5  and  C06_6 
REMARK    5  A    between atoms: C06_6  and  N07_7 
REMARK    6  A    between atoms: C13_13  and  O14_14 
REMARK    7  A    between atoms: O14_14  and  C15_15 
REMARK    8  A    between atoms: C18_18  and  C19_19 
ROOT
ATOM      1  C04 E5H d   1      29.965  20.955   9.392  0.00  0.00    -0.003 C 
ATOM      2  H2  E5H d   1      30.151  19.901   9.644  0.00  0.00     0.064 H 
ATOM      3  H3  E5H d   1      29.366  21.012   8.471  0.00  0.00     0.064 H 
ENDROOT
BRANCH   1   4
ATOM      4  N03 E5H d   1      31.313  21.579   9.082  0.00  0.00    -0.359 N 
ATOM      5  C02 E5H d   1      32.068  21.313   7.809  0.00  0.00     0.241 C 
ATOM      6  O01 E5H d   1      31.623  20.554   6.921  0.00  0.00    -0.271 OA
ATOM      7  H1  E5H d   1      31.718  22.196   9.756  0.00  0.00     0.162 HD
BRANCH   5   8
ATOM      8  C13 E5H d   1      33.479  22.018   7.547  0.00  0.00     0.099 C 
ATOM      9  H19 E5H d   1      33.482  22.366   6.503  0.00  0.00     0.089 H 
ATOM     10  H20 E5H d   1      34.257  21.252   7.681  0.00  0.00     0.089 H 
BRANCH   8  11
ATOM     11  O14 E5H d   1      33.843  23.160   8.388  0.00  0.00    -0.342 OA
BRANCH  11  12
ATOM     12  C15 E5H d   1      35.056  23.875   8.104  0.00  0.00     0.069 A 
ATOM     13  C16 E5H d   1      35.644  24.760   9.050  0.00  0.00    -0.050 A 
ATOM     14  C17 E5H d   1      36.848  25.457   8.754  0.00  0.00    -0.075 A 
ATOM     15  H21 E5H d   1      35.167  24.905  10.012  0.00  0.00     0.087 H 
ATOM     16  C18 E5H d   1      37.597  25.373   7.550  0.00  0.00    -0.062 A 
ATOM     17  H22 E5H d   1      37.232  26.117   9.523  0.00  0.00     0.084 H 
ATOM     18  C25 E5H d   1      36.989  24.481   6.620  0.00  0.00    -0.075 A 
ATOM     19  C26 E5H d   1      35.785  23.773   6.882  0.00  0.00    -0.050 A 
ATOM     20  H26 E5H d   1      37.471  24.334   5.660  0.00  0.00     0.084 H 
ATOM     21  H27 E5H d   1      35.399  23.118   6.109  0.00  0.00     0.087 H 
BRANCH  16  22
ATOM     22  C19 E5H d   1      38.901  26.163   7.302  0.00  0.00    -0.051 C 
ATOM     23  H23 E5H d   1      39.288  25.927   6.300  0.00  0.00     0.033 H 
ATOM     24  H24 E5H d   1      39.649  25.883   8.059  0.00  0.00     0.033 H 
ATOM     25  H25 E5H d   1      38.695  27.241   7.371  0.00  0.00     0.033 H 
ENDBRANCH  16  22
ENDBRANCH  11  12
ENDBRANCH   8  11
ENDBRANCH   5   8
ENDBRANCH   1   4
BRANCH   1  26
ATOM     26  C05 E5H d   1      29.086  21.552  10.545  0.00  0.00    -0.028 C 
ATOM     27  H4  E5H d   1      28.600  22.476  10.197  0.00  0.00     0.037 H 
ATOM     28  H5  E5H d   1      29.722  21.777  11.414  0.00  0.00     0.037 H 
BRANCH  26  29
ATOM     29  C06 E5H d   1      27.996  20.510  10.952  0.00  0.00     0.085 C 
ATOM     30  H6  E5H d   1      28.470  19.530  11.108  0.00  0.00     0.076 H 
ATOM     31  H7  E5H d   1      27.249  20.432  10.148  0.00  0.00     0.076 H 
BRANCH  29  32
ATOM     32  N07 E5H d   1      27.299  20.952  12.255  0.00  0.00    -0.071 N 
ATOM     33  C08 E5H d   1      25.951  20.202  12.182  0.00  0.00     0.084 C 
ATOM     34  C09 E5H d   1      25.267  20.068  13.568  0.00  0.00    -0.042 C 
ATOM     35  H9  E5H d   1      26.130  19.194  11.779  0.00  0.00     0.076 H 
ATOM     36  H10 E5H d   1      25.278  20.753  11.509  0.00  0.00     0.076 H 
ATOM     37  C10 E5H d   1      26.190  19.500  14.617  0.00  0.00    -0.062 C 
ATOM     38  H11 E5H d   1      24.396  19.404  13.468  0.00  0.00     0.035 H 
ATOM     39  H12 E5H d   1      24.933  21.064  13.894  0.00  0.00     0.035 H 
ATOM     40  C11 E5H d   1      27.468  20.309  14.731  0.00  0.00    -0.042 C 
ATOM     41  H13 E5H d   1      26.445  18.465  14.346  0.00  0.00     0.033 H 
ATOM     42  H14 E5H d   1      25.674  19.508  15.589  0.00  0.00     0.033 H 
ATOM     43  C12 E5H d   1      28.211  20.475  13.380  0.00  0.00     0.084 C 
ATOM     44  H15 E5H d   1      28.140  19.802  15.439  0.00  0.00     0.035 H 
ATOM     45  H16 E5H d   1      27.216  21.308  15.116  0.00  0.00     0.035 H 
ATOM     46  H17 E5H d   1      29.019  21.210  13.512  0.00  0.00     0.076 H 
ATOM     47  H18 E5H d   1      28.642  19.504  13.095  0.00  0.00     0.076 H 
ATOM     48  H8  E5H d   1      27.159  21.949  12.309  0.00  0.00     0.279 HD
ENDBRANCH  29  32
ENDBRANCH  26  29
ENDBRANCH   1  26
TORSDOF 8
