REMARK  7 active torsions:
REMARK  status: ('A' for Active; 'I' for Inactive)
REMARK       I    between atoms: C02_2  and  N03_3 
REMARK    1  A    between atoms: C02_2  and  C17_17 
REMARK    2  A    between atoms: C08_8  and  N09_9 
REMARK    3  A    between atoms: N12_12  and  C13_13 
REMARK    4  A    between atoms: C13_13  and  C14_14 
REMARK    5  A    between atoms: C17_17  and  O18_18 
REMARK    6  A    between atoms: O18_18  and  C19_19 
REMARK    7  A    between atoms: C22_22  and  C23_23 
ROOT
ATOM      1  O01 E5K d   1      31.720  22.044   8.235  0.00  0.00    -0.271 OA
ATOM      2  C02 E5K d   1      31.738  22.809   9.202  0.00  0.00     0.244 C 
ATOM      3  N03 E5K d   1      30.506  22.925   9.966  0.00  0.00    -0.350 N 
ATOM      4  C04 E5K d   1      30.331  23.822  11.181  0.00  0.00    -0.001 C 
ATOM      5  C05 E5K d   1      29.613  23.179  12.390  0.00  0.00    -0.023 C 
ATOM      6  C06 E5K d   1      29.253  22.220   9.661  0.00  0.00    -0.001 C 
ATOM      7  C07 E5K d   1      28.568  21.528  10.861  0.00  0.00    -0.023 C 
ATOM      8  C08 E5K d   1      28.301  22.508  11.994  0.00  0.00     0.107 C 
ATOM      9  H1  E5K d   1      29.748  24.702  10.871  0.00  0.00     0.064 H 
ATOM     10  H2  E5K d   1      31.330  24.142  11.512  0.00  0.00     0.064 H 
ATOM     11  H3  E5K d   1      29.400  23.962  13.132  0.00  0.00     0.038 H 
ATOM     12  H4  E5K d   1      30.277  22.423  12.835  0.00  0.00     0.038 H 
ATOM     13  H5  E5K d   1      29.473  21.450   8.906  0.00  0.00     0.064 H 
ATOM     14  H6  E5K d   1      28.546  22.952   9.243  0.00  0.00     0.064 H 
ATOM     15  H7  E5K d   1      29.222  20.724  11.231  0.00  0.00     0.038 H 
ATOM     16  H8  E5K d   1      27.612  21.099  10.527  0.00  0.00     0.038 H 
ATOM     17  H9  E5K d   1      27.564  23.253  11.660  0.00  0.00     0.084 H 
ENDROOT
BRANCH   8  18
ATOM     18  N09 E5K d   1      27.819  21.835  13.265  0.00  0.00    -0.064 N 
ATOM     19  C10 E5K d   1      28.797  20.837  13.745  0.00  0.00     0.106 C 
ATOM     20  C11 E5K d   1      28.186  20.043  14.949  0.00  0.00     0.106 C 
ATOM     21  H11 E5K d   1      29.714  21.350  14.072  0.00  0.00     0.078 H 
ATOM     22  H12 E5K d   1      29.038  20.139  12.930  0.00  0.00     0.078 H 
ATOM     23  N12 E5K d   1      26.819  19.494  14.675  0.00  0.00    -0.068 N 
ATOM     24  H13 E5K d   1      28.122  20.719  15.814  0.00  0.00     0.078 H 
ATOM     25  H14 E5K d   1      28.856  19.204  15.188  0.00  0.00     0.078 H 
ATOM     26  C15 E5K d   1      25.976  20.463  14.176  0.00  0.00     0.106 C 
ATOM     27  H15 E5K d   1      26.884  18.730  14.021  0.00  0.00     0.280 HD
ATOM     28  C16 E5K d   1      26.527  21.166  12.940  0.00  0.00     0.106 C 
ATOM     29  H21 E5K d   1      25.808  21.216  14.960  0.00  0.00     0.078 H 
ATOM     30  H22 E5K d   1      25.019  19.990  13.911  0.00  0.00     0.078 H 
ATOM     31  H23 E5K d   1      26.691  20.426  12.143  0.00  0.00     0.078 H 
ATOM     32  H24 E5K d   1      25.803  21.920  12.597  0.00  0.00     0.078 H 
ATOM     33  H10 E5K d   1      27.676  22.528  13.983  0.00  0.00     0.280 HD
BRANCH  23  34
ATOM     34  C13 E5K d   1      26.251  19.026  15.968  0.00  0.00     0.080 C 
ATOM     35  H16 E5K d   1      25.165  18.878  15.872  0.00  0.00     0.075 H 
ATOM     36  H17 E5K d   1      26.452  19.765  16.758  0.00  0.00     0.075 H 
BRANCH  34  37
ATOM     37  C14 E5K d   1      26.923  17.719  16.299  0.00  0.00    -0.053 C 
ATOM     38  H18 E5K d   1      26.530  17.336  17.252  0.00  0.00     0.029 H 
ATOM     39  H19 E5K d   1      28.008  17.876  16.386  0.00  0.00     0.029 H 
ATOM     40  H20 E5K d   1      26.721  16.990  15.500  0.00  0.00     0.029 H 
ENDBRANCH  34  37
ENDBRANCH  23  34
ENDBRANCH   8  18
BRANCH   2  41
ATOM     41  C17 E5K d   1      33.150  23.592   9.504  0.00  0.00     0.099 C 
ATOM     42  H25 E5K d   1      33.492  23.281  10.502  0.00  0.00     0.089 H 
ATOM     43  H26 E5K d   1      32.934  24.671   9.510  0.00  0.00     0.089 H 
BRANCH  41  44
ATOM     44  O18 E5K d   1      34.255  23.372   8.574  0.00  0.00    -0.342 OA
BRANCH  44  45
ATOM     45  C19 E5K d   1      35.325  24.300   8.503  0.00  0.00     0.069 A 
ATOM     46  C20 E5K d   1      36.021  24.554   7.302  0.00  0.00    -0.050 A 
ATOM     47  C21 E5K d   1      37.097  25.478   7.223  0.00  0.00    -0.075 A 
ATOM     48  H27 E5K d   1      35.723  24.023   6.405  0.00  0.00     0.087 H 
ATOM     49  C22 E5K d   1      37.605  26.244   8.298  0.00  0.00    -0.062 A 
ATOM     50  H28 E5K d   1      37.569  25.607   6.256  0.00  0.00     0.084 H 
ATOM     51  C31 E5K d   1      36.885  25.965   9.486  0.00  0.00    -0.075 A 
ATOM     52  C32 E5K d   1      35.804  25.045   9.597  0.00  0.00    -0.050 A 
ATOM     53  H32 E5K d   1      37.181  26.495  10.384  0.00  0.00     0.084 H 
ATOM     54  H33 E5K d   1      35.331  24.913  10.563  0.00  0.00     0.087 H 
BRANCH  49  55
ATOM     55  C23 E5K d   1      38.806  27.261   8.158  0.00  0.00    -0.051 C 
ATOM     56  H29 E5K d   1      39.007  27.727   9.134  0.00  0.00     0.033 H 
ATOM     57  H30 E5K d   1      38.544  28.040   7.427  0.00  0.00     0.033 H 
ATOM     58  H31 E5K d   1      39.703  26.724   7.816  0.00  0.00     0.033 H 
ENDBRANCH  49  55
ENDBRANCH  44  45
ENDBRANCH  41  44
ENDBRANCH   2  41
TORSDOF 7
