REMARK  7 active torsions:
REMARK  status: ('A' for Active; 'I' for Inactive)
REMARK    1  A    between atoms: C1_15  and  C4_1 
REMARK    2  A    between atoms: C3_13  and  C5_3 
REMARK    3  A    between atoms: C2_16  and  C6_4 
REMARK    4  A    between atoms: C8_7  and  C12_10 
REMARK    5  A    between atoms: C10_9  and  O2_17 
REMARK    6  A    between atoms: C12_10  and  C13_11 
REMARK    7  A    between atoms: C12_10  and  O3_18 
ROOT
ATOM      1  C6  E5T d   1      30.135  16.413  -0.292  0.00  0.00    -0.018 A 
ATOM      2  C11 E5T d   1      29.319  16.219   0.836  0.00  0.00    -0.040 A 
ATOM      3  C7  E5T d   1      29.655  16.195  -1.535  0.00  0.00    -0.063 A 
ATOM      4  C8  E5T d   1      28.313  15.767  -1.683  0.00  0.00    -0.026 A 
ATOM      5  C9  E5T d   1      27.500  15.524  -0.548  0.00  0.00    -0.042 A 
ATOM      6  C10 E5T d   1      27.988  15.795   0.719  0.00  0.00     0.067 A 
ATOM      7  H9  E5T d   1      29.730  16.402   1.822  0.00  0.00     0.089 H 
ATOM      8  H10 E5T d   1      30.285  16.345  -2.404  0.00  0.00     0.085 H 
ATOM      9  H11 E5T d   1      26.499  15.127  -0.671  0.00  0.00     0.088 H 
ENDROOT
BRANCH   1  10
ATOM     10  C2  E5T d   1      31.535  16.879  -0.117  0.00  0.00     0.032 A 
ATOM     11  C3  E5T d   1      31.930  17.898   0.709  0.00  0.00     0.071 A 
ATOM     12  N1  E5T d   1      33.280  18.002   0.602  0.00  0.00    -0.133 NA
ATOM     13  O1  E5T d   1      33.681  17.083  -0.254  0.00  0.00    -0.217 OA
ATOM     14  C1  E5T d   1      32.700  16.411  -0.697  0.00  0.00     0.088 A 
BRANCH  11  15
ATOM     15  C5  E5T d   1      31.051  18.795   1.555  0.00  0.00    -0.033 C 
ATOM     16  H6  E5T d   1      30.001  18.483   1.452  0.00  0.00     0.035 H 
ATOM     17  H7  E5T d   1      31.158  19.837   1.218  0.00  0.00     0.035 H 
ATOM     18  H8  E5T d   1      31.355  18.717   2.609  0.00  0.00     0.035 H 
ENDBRANCH  11  15
BRANCH  14  19
ATOM     19  C4  E5T d   1      32.991  15.312  -1.691  0.00  0.00    -0.028 C 
ATOM     20  H1  E5T d   1      32.050  14.822  -1.982  0.00  0.00     0.036 H 
ATOM     21  H2  E5T d   1      33.663  14.572  -1.233  0.00  0.00     0.036 H 
ATOM     22  H3  E5T d   1      33.471  15.742  -2.582  0.00  0.00     0.036 H 
ENDBRANCH  14  19
ENDBRANCH   1  10
BRANCH   6  23
ATOM     23  O2  E5T d   1      27.257  15.636   1.885  0.00  0.00    -0.361 OA
ATOM     24  H14 E5T d   1      27.793  15.882   2.630  0.00  0.00     0.217 HD
ENDBRANCH   6  23
BRANCH   4  25
ATOM     25  C12 E5T d   1      27.810  15.597  -3.051  0.00  0.00     0.064 C 
ATOM     26  H12 E5T d   1      27.022  14.830  -3.013  0.00  0.00     0.091 H 
BRANCH  25  27
ATOM     27  C13 E5T d   1      27.185  16.885  -3.611  0.00  0.00    -0.025 A 
ATOM     28  C14 E5T d   1      28.011  17.763  -4.533  0.00  0.00    -0.059 A 
ATOM     29  C15 E5T d   1      26.862  16.987  -5.103  0.00  0.00    -0.059 A 
ATOM     30  H4  E5T d   1      29.043  17.476  -4.783  0.00  0.00     0.033 H 
ATOM     31  H5  E5T d   1      27.945  18.858  -4.451  0.00  0.00     0.033 H 
ATOM     32  H16 E5T d   1      27.052  16.131  -5.766  0.00  0.00     0.033 H 
ATOM     33  H17 E5T d   1      25.954  17.513  -5.434  0.00  0.00     0.033 H 
ATOM     34  H13 E5T d   1      26.513  17.332  -2.864  0.00  0.00     0.044 H 
ENDBRANCH  25  27
BRANCH  25  35
ATOM     35  O3  E5T d   1      28.830  15.135  -3.961  0.00  0.00    -0.391 OA
ATOM     36  H15 E5T d   1      29.220  14.339  -3.620  0.00  0.00     0.210 HD
ENDBRANCH  25  35
ENDBRANCH   4  25
TORSDOF 7
