REMARK  6 active torsions:
REMARK  status: ('A' for Active; 'I' for Inactive)
REMARK    1  A    between atoms: C3_14  and  C4_1 
REMARK    2  A    between atoms: C1_16  and  C5_3 
REMARK    3  A    between atoms: C2_17  and  C6_4 
REMARK    4  A    between atoms: C8_7  and  C12_10 
REMARK    5  A    between atoms: C10_9  and  O2_18 
REMARK    6  A    between atoms: C12_10  and  N2_13 
ROOT
ATOM      1  C6  E5W d   1      34.920  28.765  10.577  0.00  0.00    -0.018 A 
ATOM      2  C11 E5W d   1      35.001  27.878  11.679  0.00  0.00    -0.040 A 
ATOM      3  C7  E5W d   1      35.407  28.361   9.339  0.00  0.00    -0.064 A 
ATOM      4  C8  E5W d   1      35.978  27.090   9.160  0.00  0.00    -0.029 A 
ATOM      5  C9  E5W d   1      36.059  26.221  10.256  0.00  0.00    -0.043 A 
ATOM      6  C10 E5W d   1      35.568  26.623  11.491  0.00  0.00     0.067 A 
ATOM      7  H9  E5W d   1      34.627  28.173  12.653  0.00  0.00     0.089 H 
ATOM      8  H10 E5W d   1      35.345  29.040   8.496  0.00  0.00     0.085 H 
ATOM      9  H11 E5W d   1      36.503  25.239  10.140  0.00  0.00     0.088 H 
ENDROOT
BRANCH   4  10
ATOM     10  C12 E5W d   1      36.456  26.656   7.738  0.00  0.00     0.107 C 
ATOM     11  H12 E5W d   1      36.999  25.704   7.829  0.00  0.00     0.083 H 
ATOM     12  H13 E5W d   1      37.134  27.429   7.348  0.00  0.00     0.083 H 
BRANCH  10  13
ATOM     13  N2  E5W d   1      35.325  26.470   6.753  0.00  0.00    -0.067 N 
ATOM     14  C13 E5W d   1      34.255  25.543   7.283  0.00  0.00     0.089 C 
ATOM     15  C14 E5W d   1      33.052  25.299   6.328  0.00  0.00     0.019 C 
ATOM     16  H14 E5W d   1      34.723  24.570   7.495  0.00  0.00     0.076 H 
ATOM     17  H15 E5W d   1      33.865  25.974   8.217  0.00  0.00     0.076 H 
ATOM     18  C15 E5W d   1      33.464  25.114   4.880  0.00  0.00     0.246 C 
ATOM     19  H4  E5W d   1      32.375  26.164   6.391  0.00  0.00     0.044 H 
ATOM     20  H5  E5W d   1      32.522  24.394   6.659  0.00  0.00     0.044 H 
ATOM     21  C16 E5W d   1      34.630  26.018   4.506  0.00  0.00     0.019 C 
ATOM     22  F1  E5W d   1      32.428  25.362   4.080  0.00  0.00    -0.206 F 
ATOM     23  F2  E5W d   1      33.720  23.879   4.687  0.00  0.00    -0.206 F 
ATOM     24  C17 E5W d   1      35.797  25.901   5.482  0.00  0.00     0.089 C 
ATOM     25  H18 E5W d   1      34.280  27.061   4.499  0.00  0.00     0.044 H 
ATOM     26  H19 E5W d   1      34.982  25.742   3.501  0.00  0.00     0.044 H 
ATOM     27  H20 E5W d   1      36.077  24.846   5.617  0.00  0.00     0.076 H 
ATOM     28  H21 E5W d   1      36.664  26.466   5.109  0.00  0.00     0.076 H 
ATOM     29  H16 E5W d   1      34.915  27.374   6.575  0.00  0.00     0.280 HD
ENDBRANCH  10  13
ENDBRANCH   4  10
BRANCH   1  30
ATOM     30  C2  E5W d   1      34.319  30.130  10.705  0.00  0.00     0.032 A 
ATOM     31  C3  E5W d   1      33.119  30.448  11.289  0.00  0.00     0.071 A 
ATOM     32  N1  E5W d   1      32.919  31.785  11.156  0.00  0.00    -0.133 NA
ATOM     33  O1  E5W d   1      33.956  32.260  10.462  0.00  0.00    -0.217 OA
ATOM     34  C1  E5W d   1      34.787  31.325  10.165  0.00  0.00     0.088 A 
BRANCH  31  35
ATOM     35  C4  E5W d   1      32.212  29.568  12.078  0.00  0.00    -0.033 C 
ATOM     36  H1  E5W d   1      32.580  28.532  12.037  0.00  0.00     0.035 H 
ATOM     37  H2  E5W d   1      31.198  29.614  11.655  0.00  0.00     0.035 H 
ATOM     38  H3  E5W d   1      32.189  29.908  13.124  0.00  0.00     0.035 H 
ENDBRANCH  31  35
BRANCH  34  39
ATOM     39  C5  E5W d   1      36.002  31.737   9.372  0.00  0.00    -0.028 C 
ATOM     40  H6  E5W d   1      36.632  30.855   9.182  0.00  0.00     0.036 H 
ATOM     41  H7  E5W d   1      36.577  32.482   9.942  0.00  0.00     0.036 H 
ATOM     42  H8  E5W d   1      35.684  32.174   8.414  0.00  0.00     0.036 H 
ENDBRANCH  34  39
ENDBRANCH   1  30
BRANCH   6  43
ATOM     43  O2  E5W d   1      35.611  25.798  12.567  0.00  0.00    -0.361 OA
ATOM     44  H17 E5W d   1      35.233  26.240  13.319  0.00  0.00     0.217 HD
ENDBRANCH   6  43
TORSDOF 6
