REMARK  1 active torsions:
REMARK  status: ('A' for Active; 'I' for Inactive)
REMARK    1  A    between atoms: C7_5  and  C2_17 
ROOT
ATOM      1  N1  E6Q d   1      64.396  64.529  56.835  0.00  0.00    -0.363 N 
ATOM      2  C7  E6Q d   1      63.722  64.581  54.680  0.00  0.00     0.002 A 
ATOM      3  C8  E6Q d   1      62.539  64.487  55.542  0.00  0.00     0.004 A 
ATOM      4  N2  E6Q d   1      61.085  64.306  59.932  0.00  0.00    -0.353 N 
ATOM      5  C9  E6Q d   1      64.810  64.593  55.523  0.00  0.00    -0.011 A 
ATOM      6  C10 E6Q d   1      63.024  64.473  56.865  0.00  0.00     0.059 A 
ATOM      7  C11 E6Q d   1      61.163  64.418  55.304  0.00  0.00    -0.069 A 
ATOM      8  C12 E6Q d   1      60.281  64.352  56.369  0.00  0.00    -0.073 A 
ATOM      9  C13 E6Q d   1      62.116  64.406  57.942  0.00  0.00     0.067 A 
ATOM     10  C14 E6Q d   1      60.749  64.351  57.677  0.00  0.00    -0.022 A 
ATOM     11  C15 E6Q d   1      62.329  64.359  59.392  0.00  0.00     0.254 A 
ATOM     12  C16 E6Q d   1      60.007  64.296  58.960  0.00  0.00     0.020 A 
ATOM     13  O1  E6Q d   1      63.388  64.365  60.017  0.00  0.00    -0.268 OA
ATOM     14  H4  E6Q d   1      65.014  64.524  57.659  0.00  0.00     0.165 HD
ATOM     15  H5  E6Q d   1      60.924  64.276  60.919  0.00  0.00     0.163 HD
ATOM     16  H6  E6Q d   1      65.848  64.645  55.199  0.00  0.00     0.112 H 
ATOM     17  H7  E6Q d   1      60.787  64.416  54.287  0.00  0.00     0.085 H 
ATOM     18  H8  E6Q d   1      59.215  64.301  56.180  0.00  0.00     0.084 H 
ATOM     19  H11 E6Q d   1      59.352  65.171  59.081  0.00  0.00     0.071 H 
ATOM     20  H12 E6Q d   1      59.408  63.376  59.036  0.00  0.00     0.071 H 
ENDROOT
BRANCH   2  21
ATOM     21  C2  E6Q d   1      63.768  64.700  53.199  0.00  0.00    -0.024 A 
ATOM     22  C4  E6Q d   1      62.854  64.022  52.400  0.00  0.00    -0.072 A 
ATOM     23  C6  E6Q d   1      62.934  64.104  51.021  0.00  0.00    -0.082 A 
ATOM     24  H1  E6Q d   1      62.074  63.426  52.860  0.00  0.00     0.084 H 
ATOM     25  C5  E6Q d   1      63.927  64.844  50.429  0.00  0.00    -0.083 A 
ATOM     26  H3  E6Q d   1      62.210  63.582  50.406  0.00  0.00     0.083 H 
ATOM     27  C3  E6Q d   1      64.834  65.518  51.209  0.00  0.00    -0.082 A 
ATOM     28  H2  E6Q d   1      63.995  64.896  49.348  0.00  0.00     0.083 H 
ATOM     29  C1  E6Q d   1      64.752  65.460  52.585  0.00  0.00    -0.072 A 
ATOM     30  H10 E6Q d   1      65.620  66.100  50.740  0.00  0.00     0.083 H 
ATOM     31  H9  E6Q d   1      65.462  66.012  53.190  0.00  0.00     0.084 H 
ENDBRANCH   2  21
TORSDOF 1
