REMARK  2 active torsions:
REMARK  status: ('A' for Active; 'I' for Inactive)
REMARK    1  A    between atoms: C5_2  and  C10_8 
REMARK    2  A    between atoms: C14_12  and  O1_20 
ROOT
ATOM      1  C4  E6T d   1     -19.723  19.354  12.364  0.00  0.00     0.004 A 
ATOM      2  C5  E6T d   1     -19.031  18.254  13.030  0.00  0.00     0.002 A 
ATOM      3  C6  E6T d   1     -18.458  17.505  12.027  0.00  0.00    -0.011 A 
ATOM      4  N1  E6T d   1     -20.452  21.383   8.260  0.00  0.00    -0.353 N 
ATOM      5  C7  E6T d   1     -19.510  19.177  10.984  0.00  0.00     0.059 A 
ATOM      6  C8  E6T d   1     -19.997  20.128  10.086  0.00  0.00     0.067 A 
ATOM      7  C9  E6T d   1     -19.797  20.259   8.629  0.00  0.00     0.254 A 
ATOM      8  O   E6T d   1     -19.223  19.482   7.861  0.00  0.00    -0.268 OA
ATOM      9  C   E6T d   1     -21.076  22.085   9.366  0.00  0.00     0.020 A 
ATOM     10  C1  E6T d   1     -20.680  21.238  10.541  0.00  0.00    -0.022 A 
ATOM     11  C3  E6T d   1     -20.435  20.474  12.815  0.00  0.00    -0.069 A 
ATOM     12  C2  E6T d   1     -20.913  21.408  11.905  0.00  0.00    -0.073 A 
ATOM     13  N   E6T d   1     -18.753  18.045  10.799  0.00  0.00    -0.363 N 
ATOM     14  H1  E6T d   1     -17.856  16.611  12.185  0.00  0.00     0.112 H 
ATOM     15  H2  E6T d   1     -20.502  21.701   7.313  0.00  0.00     0.163 HD
ATOM     16  H7  E6T d   1     -22.169  22.121   9.250  0.00  0.00     0.071 H 
ATOM     17  H8  E6T d   1     -20.684  23.108   9.461  0.00  0.00     0.071 H 
ATOM     18  H9  E6T d   1     -20.613  20.611  13.876  0.00  0.00     0.085 H 
ATOM     19  H10 E6T d   1     -21.468  22.270  12.256  0.00  0.00     0.084 H 
ATOM     20  H11 E6T d   1     -18.456  17.664   9.889  0.00  0.00     0.165 HD
ENDROOT
BRANCH   2  21
ATOM     21  C10 E6T d   1     -18.924  17.888  14.472  0.00  0.00    -0.021 A 
ATOM     22  C11 E6T d   1     -19.961  18.167  15.339  0.00  0.00    -0.072 A 
ATOM     23  C12 E6T d   1     -19.865  17.826  16.678  0.00  0.00    -0.080 A 
ATOM     24  H3  E6T d   1     -20.855  18.656  14.970  0.00  0.00     0.084 H 
ATOM     25  C13 E6T d   1     -18.732  17.193  17.159  0.00  0.00    -0.051 A 
ATOM     26  H4  E6T d   1     -20.681  18.056  17.353  0.00  0.00     0.083 H 
ATOM     27  C14 E6T d   1     -17.696  16.895  16.289  0.00  0.00     0.066 A 
ATOM     28  H5  E6T d   1     -18.656  16.932  18.209  0.00  0.00     0.087 H 
ATOM     29  C15 E6T d   1     -17.781  17.245  14.951  0.00  0.00    -0.040 A 
ATOM     30  H6  E6T d   1     -16.962  17.020  14.278  0.00  0.00     0.089 H 
BRANCH  27  31
ATOM     31  O1  E6T d   1     -16.584  16.244  16.746  0.00  0.00    -0.361 OA
ATOM     32  H12 E6T d   1     -15.818  16.785  16.596  0.00  0.00     0.217 HD
ENDBRANCH  27  31
ENDBRANCH   2  21
TORSDOF 2
