REMARK  1 active torsions:
REMARK  status: ('A' for Active; 'I' for Inactive)
REMARK    1  A    between atoms: C5_2  and  C6_3 
ROOT
ATOM      1  C4  E6W d   1      35.959  29.930  79.119  0.00  0.00     0.005 A 
ATOM      2  C5  E6W d   1      35.934  30.949  78.071  0.00  0.00     0.021 A 
ATOM      3  N1  E6W d   1      36.294  29.176  83.664  0.00  0.00    -0.353 N 
ATOM      4  C12 E6W d   1      35.916  32.107  78.777  0.00  0.00     0.092 A 
ATOM      5  C13 E6W d   1      35.933  30.609  80.356  0.00  0.00     0.060 A 
ATOM      6  C14 E6W d   1      36.055  29.878  81.540  0.00  0.00     0.067 A 
ATOM      7  C15 E6W d   1      36.107  30.297  82.949  0.00  0.00     0.254 A 
ATOM      8 BR   E6W d   1      36.200  33.782  78.043  0.00  0.00    -0.030 Br
ATOM      9  N   E6W d   1      35.881  31.954  80.115  0.00  0.00    -0.348 N 
ATOM     10  C3  E6W d   1      36.067  28.545  79.090  0.00  0.00    -0.069 A 
ATOM     11  C2  E6W d   1      36.167  27.833  80.270  0.00  0.00    -0.073 A 
ATOM     12  C1  E6W d   1      36.184  28.497  81.489  0.00  0.00    -0.022 A 
ATOM     13  O   E6W d   1      36.006  31.425  83.418  0.00  0.00    -0.268 OA
ATOM     14  C   E6W d   1      36.394  27.966  82.873  0.00  0.00     0.020 A 
ATOM     15  H1  E6W d   1      36.359  29.176  84.662  0.00  0.00     0.163 HD
ATOM     16  H7  E6W d   1      35.826  32.704  80.819  0.00  0.00     0.166 HD
ATOM     17  H8  E6W d   1      36.073  28.022  78.140  0.00  0.00     0.085 H 
ATOM     18  H9  E6W d   1      36.233  26.751  80.244  0.00  0.00     0.084 H 
ATOM     19  H10 E6W d   1      35.614  27.241  83.148  0.00  0.00     0.071 H 
ATOM     20  H11 E6W d   1      37.384  27.498  82.978  0.00  0.00     0.071 H 
ENDROOT
BRANCH   2  21
ATOM     21  C6  E6W d   1      35.945  30.681  76.602  0.00  0.00    -0.022 A 
ATOM     22  C7  E6W d   1      34.836  30.983  75.819  0.00  0.00    -0.072 A 
ATOM     23  C8  E6W d   1      34.872  30.797  74.444  0.00  0.00    -0.082 A 
ATOM     24  H2  E6W d   1      33.936  31.367  76.286  0.00  0.00     0.084 H 
ATOM     25  C9  E6W d   1      36.007  30.305  73.837  0.00  0.00    -0.083 A 
ATOM     26  H3  E6W d   1      34.002  31.040  73.844  0.00  0.00     0.083 H 
ATOM     27  C10 E6W d   1      37.111  29.985  74.606  0.00  0.00    -0.082 A 
ATOM     28  H4  E6W d   1      36.034  30.169  72.762  0.00  0.00     0.083 H 
ATOM     29  C11 E6W d   1      37.082  30.162  75.979  0.00  0.00    -0.072 A 
ATOM     30  H5  E6W d   1      38.004  29.594  74.132  0.00  0.00     0.083 H 
ATOM     31  H6  E6W d   1      37.948  29.896  76.574  0.00  0.00     0.084 H 
ENDBRANCH   2  21
TORSDOF 1
