REMARK  8 active torsions:
REMARK  status: ('A' for Active; 'I' for Inactive)
REMARK    1  A    between atoms: C3_3  and  C7_4 
REMARK    2  A    between atoms: C8_5  and  C17_20 
REMARK    3  A    between atoms: C9_6  and  N23_16 
REMARK       I    between atoms: N23_16  and  C11_8 
REMARK    4  A    between atoms: C11_8  and  C18_21 
REMARK    5  A    between atoms: C20_15  and  C15_12 
REMARK    6  A    between atoms: C6_19  and  C16_13 
REMARK    7  A    between atoms: C20_15  and  C19_14 
REMARK    8  A    between atoms: C20_15  and  N22_23 
ROOT
ATOM      1  C1  E78 d   1      -9.586 -46.483  25.127  0.00  0.00    -0.063 A 
ATOM      2  C2  E78 d   1      -8.600 -47.403  23.152  0.00  0.00    -0.065 A 
ATOM      3  C3  E78 d   1      -8.481 -46.981  24.465  0.00  0.00    -0.016 A 
ATOM      4  C10 E78 d   1     -12.249 -46.653  22.710  0.00  0.00     0.255 A 
ATOM      5  C12 E78 d   1     -12.080 -45.919  24.964  0.00  0.00     0.023 A 
ATOM      6  C4  E78 d   1     -10.874 -46.843  23.160  0.00  0.00     0.046 A 
ATOM      7  C5  E78 d   1     -10.782 -46.419  24.454  0.00  0.00    -0.023 A 
ATOM      8  C6  E78 d   1      -9.797 -47.348  22.468  0.00  0.00    -0.045 A 
ATOM      9  N22 E78 d   1     -12.916 -46.126  23.799  0.00  0.00    -0.339 N 
ATOM     10  O24 E78 d   1     -12.652 -46.901  21.582  0.00  0.00    -0.267 OA
ATOM     11  H1  E78 d   1      -9.511 -46.150  26.156  0.00  0.00     0.085 H 
ATOM     12  H2  E78 d   1      -7.724 -47.789  22.644  0.00  0.00     0.085 H 
ATOM     13  H3  E78 d   1     -12.025 -44.856  25.241  0.00  0.00     0.071 H 
ATOM     14  H4  E78 d   1     -12.431 -46.505  25.826  0.00  0.00     0.071 H 
ENDROOT
BRANCH   3  15
ATOM     15  C7  E78 d   1      -7.193 -47.025  25.131  0.00  0.00     0.043 A 
ATOM     16  C8  E78 d   1      -6.691 -46.236  26.148  0.00  0.00     0.051 A 
ATOM     17  N21 E78 d   1      -5.410 -46.519  26.550  0.00  0.00    -0.228 NA
ATOM     18  C9  E78 d   1      -4.924 -47.515  25.849  0.00  0.00     0.174 A 
ATOM     19  S26 E78 d   1      -5.991 -48.165  24.668  0.00  0.00    -0.049 SA
BRANCH  16  20
ATOM     20  C17 E78 d   1      -7.376 -45.134  26.843  0.00  0.00    -0.034 C 
ATOM     21  H18 E78 d   1      -6.705 -44.706  27.603  0.00  0.00     0.035 H 
ATOM     22  H19 E78 d   1      -8.285 -45.517  27.330  0.00  0.00     0.035 H 
ATOM     23  H20 E78 d   1      -7.649 -44.355  26.116  0.00  0.00     0.035 H 
ENDBRANCH  16  20
BRANCH  18  24
ATOM     24  N23 E78 d   1      -3.653 -48.032  26.019  0.00  0.00    -0.306 N 
ATOM     25  C11 E78 d   1      -3.175 -49.098  25.297  0.00  0.00     0.219 C 
ATOM     26  O25 E78 d   1      -3.719 -49.668  24.364  0.00  0.00    -0.274 OA
ATOM     27  H17 E78 d   1      -3.054 -47.610  26.699  0.00  0.00     0.171 HD
BRANCH  25  28
ATOM     28  C18 E78 d   1      -1.827 -49.509  25.793  0.00  0.00    -0.002 C 
ATOM     29  H21 E78 d   1      -1.464 -50.363  25.202  0.00  0.00     0.040 H 
ATOM     30  H22 E78 d   1      -1.899 -49.800  26.851  0.00  0.00     0.040 H 
ATOM     31  H23 E78 d   1      -1.126 -48.667  25.691  0.00  0.00     0.040 H 
ENDBRANCH  25  28
ENDBRANCH  18  24
ENDBRANCH   3  15
BRANCH   8  32
ATOM     32  C16 E78 d   1      -9.875 -47.810  21.054  0.00  0.00    -0.050 C 
ATOM     33  H10 E78 d   1      -8.886 -48.167  20.730  0.00  0.00     0.033 H 
ATOM     34  H11 E78 d   1     -10.191 -46.974  20.412  0.00  0.00     0.033 H 
ATOM     35  H12 E78 d   1     -10.605 -48.629  20.976  0.00  0.00     0.033 H 
ENDBRANCH   8  32
BRANCH   9  36
ATOM     36  C20 E78 d   1     -14.261 -45.602  23.696  0.00  0.00     0.015 C 
ATOM     37  H16 E78 d   1     -14.637 -45.842  22.690  0.00  0.00     0.072 H 
BRANCH  36  38
ATOM     38  C15 E78 d   1     -14.280 -44.119  23.838  0.00  0.00    -0.035 A 
ATOM     39  C13 E78 d   1     -14.193 -43.311  22.575  0.00  0.00    -0.059 A 
ATOM     40  C14 E78 d   1     -15.471 -43.341  23.354  0.00  0.00    -0.059 A 
ATOM     41  H5  E78 d   1     -13.586 -42.394  22.550  0.00  0.00     0.033 H 
ATOM     42  H6  E78 d   1     -14.131 -43.819  21.601  0.00  0.00     0.033 H 
ATOM     43  H7  E78 d   1     -16.347 -43.871  22.952  0.00  0.00     0.033 H 
ATOM     44  H8  E78 d   1     -15.802 -42.446  23.901  0.00  0.00     0.033 H 
ATOM     45  H9  E78 d   1     -13.747 -43.813  24.750  0.00  0.00     0.043 H 
ENDBRANCH  36  38
BRANCH  36  46
ATOM     46  C19 E78 d   1     -15.173 -46.275  24.697  0.00  0.00    -0.057 C 
ATOM     47  H13 E78 d   1     -15.129 -47.365  24.558  0.00  0.00     0.030 H 
ATOM     48  H14 E78 d   1     -16.205 -45.927  24.544  0.00  0.00     0.030 H 
ATOM     49  H15 E78 d   1     -14.848 -46.022  25.717  0.00  0.00     0.030 H 
ENDBRANCH  36  46
ENDBRANCH   9  36
TORSDOF 8
