REMARK  4 active torsions:
REMARK  status: ('A' for Active; 'I' for Inactive)
REMARK    1  A    between atoms: C11_4  and  C3_3 
REMARK       I    between atoms: N12_21  and  C11_4 
REMARK    2  A    between atoms: C18_8  and  N12_21 
REMARK    3  A    between atoms: C22_11  and  C24_13 
REMARK       I    between atoms: C24_13  and  N25_25 
REMARK    4  A    between atoms: C7_17  and  N14_23 
ROOT
ATOM      1  C1  E7H d   1       9.580  11.741   2.473  0.00  0.00    -0.050 C 
ATOM      2  C2  E7H d   1       7.544  10.962   0.442  0.00  0.00    -0.019 C 
ATOM      3  C3  E7H d   1       7.889  10.001   1.638  0.00  0.00     0.044 C 
ATOM      4  C4  E7H d   1       9.086   9.088   1.201  0.00  0.00    -0.046 C 
ATOM      5  C5  E7H d   1      10.314   9.963   0.799  0.00  0.00    -0.050 C 
ATOM      6  C6  E7H d   1       9.938  10.919  -0.376  0.00  0.00    -0.031 C 
ATOM      7  C7  E7H d   1       8.767  11.856   0.060  0.00  0.00     0.125 C 
ATOM      8  C8  E7H d   1       8.351  10.864   2.856  0.00  0.00    -0.046 C 
ATOM      9  C9  E7H d   1      10.750  10.814   2.034  0.00  0.00    -0.058 C 
ATOM     10  C10 E7H d   1       9.194  12.688   1.305  0.00  0.00    -0.031 C 
ATOM     11  H1  E7H d   1       9.891  12.339   3.342  0.00  0.00     0.040 H 
ATOM     12  H2  E7H d   1       6.704  11.610   0.734  0.00  0.00     0.038 H 
ATOM     13  H3  E7H d   1       7.255  10.358  -0.431  0.00  0.00     0.038 H 
ATOM     14  H8  E7H d   1       8.780   8.475   0.341  0.00  0.00     0.035 H 
ATOM     15  H9  E7H d   1       9.366   8.431   2.038  0.00  0.00     0.035 H 
ATOM     16  H10 E7H d   1      11.143   9.310   0.487  0.00  0.00     0.040 H 
ATOM     17  H11 E7H d   1       9.625  10.323  -1.246  0.00  0.00     0.037 H 
ATOM     18  H12 E7H d   1      10.813  11.529  -0.645  0.00  0.00     0.037 H 
ATOM     19  H13 E7H d   1       7.524  11.518   3.170  0.00  0.00     0.035 H 
ATOM     20  H14 E7H d   1       8.627  10.198   3.687  0.00  0.00     0.035 H 
ATOM     21  H15 E7H d   1      11.016  10.143   2.864  0.00  0.00     0.034 H 
ATOM     22  H16 E7H d   1      11.622  11.428   1.765  0.00  0.00     0.034 H 
ATOM     23  H17 E7H d   1      10.059  13.315   1.044  0.00  0.00     0.037 H 
ATOM     24  H18 E7H d   1       8.357  13.330   1.618  0.00  0.00     0.037 H 
ENDROOT
BRANCH   3  25
ATOM     25  C11 E7H d   1       6.665   9.193   2.064  0.00  0.00     0.231 C 
ATOM     26  N12 E7H d   1       5.430   9.479   1.534  0.00  0.00    -0.326 N 
ATOM     27  H19 E7H d   1       5.394  10.197   0.839  0.00  0.00     0.169 HD
ATOM     28  O13 E7H d   1       6.860   8.312   2.892  0.00  0.00    -0.272 OA
BRANCH  26  29
ATOM     29  C18 E7H d   1       4.191   8.853   1.876  0.00  0.00     0.047 A 
ATOM     30  C15 E7H d   1       3.071   9.626   2.257  0.00  0.00    -0.056 A 
ATOM     31  C16 E7H d   1       1.845   9.037   2.635  0.00  0.00    -0.079 A 
ATOM     32  H4  E7H d   1       3.156  10.707   2.259  0.00  0.00     0.086 H 
ATOM     33  C17 E7H d   1       1.720   7.640   2.642  0.00  0.00    -0.056 A 
ATOM     34  H5  E7H d   1       1.005   9.661   2.918  0.00  0.00     0.083 H 
ATOM     35  C20 E7H d   1       2.817   6.874   2.220  0.00  0.00     0.045 A 
ATOM     36  H6  E7H d   1       0.801   7.165   2.965  0.00  0.00     0.086 H 
ATOM     37  C19 E7H d   1       4.007   7.467   1.834  0.00  0.00     0.020 A 
ATOM     38  N21 E7H d   1       2.925   5.532   2.087  0.00  0.00    -0.351 N 
ATOM     39  C23 E7H d   1       4.866   6.282   1.493  0.00  0.00    -0.037 A 
ATOM     40  C22 E7H d   1       4.114   5.178   1.666  0.00  0.00     0.102 A 
ATOM     41  H7  E7H d   1       5.904   6.311   1.166  0.00  0.00     0.088 H 
ATOM     42  H23 E7H d   1       2.164   4.869   2.292  0.00  0.00     0.166 HD
BRANCH  40  43
ATOM     43  C24 E7H d   1       4.617   3.798   1.449  0.00  0.00     0.266 C 
ATOM     44  N25 E7H d   1       5.755   3.530   0.805  0.00  0.00    -0.365 N 
ATOM     45  H24 E7H d   1       6.050   2.582   0.685  0.00  0.00     0.159 HD
ATOM     46  H25 E7H d   1       6.312   4.277   0.443  0.00  0.00     0.159 HD
ATOM     47  O26 E7H d   1       3.989   2.866   1.903  0.00  0.00    -0.266 OA
ENDBRANCH  40  43
ENDBRANCH  26  29
ENDBRANCH   3  25
BRANCH   7  48
ATOM     48  N14 E7H d   1       8.382  12.787  -1.029  0.00  0.00    -0.070 N 
ATOM     49  H20 E7H d   1       8.104  12.258  -1.841  0.00  0.00     0.275 HD
ATOM     50  H21 E7H d   1       9.168  13.373  -1.263  0.00  0.00     0.275 HD
ATOM     51  H22 E7H d   1       7.613  13.362  -0.723  0.00  0.00     0.275 HD
ENDBRANCH   7  48
TORSDOF 4
