REMARK  8 active torsions:
REMARK  status: ('A' for Active; 'I' for Inactive)
REMARK    1  A    between atoms: C02_2  and  C01_1 
REMARK    2  A    between atoms: C03_3  and  C02_2 
REMARK    3  A    between atoms: C04_4  and  C03_3 
REMARK    4  A    between atoms: C05_5  and  C04_4 
REMARK    5  A    between atoms: C06_6  and  C05_5 
REMARK       I    between atoms: N08_17  and  C06_6 
REMARK    6  A    between atoms: C10_7  and  N08_17 
REMARK    7  A    between atoms: C15_10  and  N14_18 
REMARK    8  A    between atoms: N08_17  and  O09_20 
ROOT
ATOM      1  C10 E7Q d   1      46.116  33.166  86.077  0.00  0.00     0.127 C 
ATOM      2  C11 E7Q d   1      45.672  34.177  87.159  0.00  0.00     0.040 C 
ATOM      3  C12 E7Q d   1      44.498  34.853  86.493  0.00  0.00     0.233 C 
ATOM      4  C22 E7Q d   1      45.669  33.812  84.783  0.00  0.00     0.257 C 
ATOM      5  N14 E7Q d   1      44.624  34.679  85.108  0.00  0.00    -0.251 N 
ATOM      6  O13 E7Q d   1      43.551  35.401  87.038  0.00  0.00    -0.273 OA
ATOM      7  O23 E7Q d   1      46.095  33.615  83.662  0.00  0.00    -0.270 OA
ATOM      8  H12 E7Q d   1      45.499  32.263  86.192  0.00  0.00     0.092 H 
ATOM      9  H13 E7Q d   1      46.472  34.897  87.386  0.00  0.00     0.051 H 
ATOM     10  H14 E7Q d   1      45.367  33.665  88.083  0.00  0.00     0.051 H 
ENDROOT
BRANCH   1  11
ATOM     11  N08 E7Q d   1      47.510  32.680  86.262  0.00  0.00    -0.214 N 
ATOM     12  C06 E7Q d   1      48.137  31.814  85.433  0.00  0.00     0.243 C 
ATOM     13  O07 E7Q d   1      48.124  30.608  85.655  0.00  0.00    -0.271 OA
BRANCH  12  14
ATOM     14  C05 E7Q d   1      48.877  32.391  84.249  0.00  0.00     0.011 C 
ATOM     15  H10 E7Q d   1      49.127  31.571  83.560  0.00  0.00     0.047 H 
ATOM     16  H11 E7Q d   1      48.217  33.109  83.740  0.00  0.00     0.047 H 
BRANCH  14  17
ATOM     17  C04 E7Q d   1      50.158  33.104  84.634  0.00  0.00    -0.057 C 
ATOM     18  H8  E7Q d   1      50.758  33.268  83.727  0.00  0.00     0.033 H 
ATOM     19  H9  E7Q d   1      49.901  34.074  85.084  0.00  0.00     0.033 H 
BRANCH  17  20
ATOM     20  C03 E7Q d   1      50.980  32.314  85.622  0.00  0.00    -0.065 C 
ATOM     21  H6  E7Q d   1      51.986  32.757  85.654  0.00  0.00     0.033 H 
ATOM     22  H7  E7Q d   1      50.505  32.411  86.609  0.00  0.00     0.033 H 
BRANCH  20  23
ATOM     23  C02 E7Q d   1      51.133  30.830  85.322  0.00  0.00    -0.069 C 
ATOM     24  H4  E7Q d   1      51.752  30.377  86.111  0.00  0.00     0.032 H 
ATOM     25  H5  E7Q d   1      50.135  30.369  85.329  0.00  0.00     0.032 H 
BRANCH  23  26
ATOM     26  C01 E7Q d   1      51.762  30.557  84.024  0.00  0.00    -0.077 C 
ATOM     27  H1  E7Q d   1      51.840  29.470  83.876  0.00  0.00     0.027 H 
ATOM     28  H2  E7Q d   1      52.767  31.003  84.003  0.00  0.00     0.027 H 
ATOM     29  H3  E7Q d   1      51.150  30.994  83.221  0.00  0.00     0.027 H 
ENDBRANCH  23  26
ENDBRANCH  20  23
ENDBRANCH  17  20
ENDBRANCH  14  17
ENDBRANCH  12  14
BRANCH  11  30
ATOM     30  O09 E7Q d   1      47.819  32.460  87.609  0.00  0.00    -0.284 OA
ATOM     31  H19 E7Q d   1      47.228  31.807  87.966  0.00  0.00     0.245 HD
ENDBRANCH  11  30
ENDBRANCH   1  11
BRANCH   5  32
ATOM     32  C15 E7Q d   1      43.712  35.230  84.135  0.00  0.00     0.045 A 
ATOM     33  C16 E7Q d   1      42.357  35.341  84.426  0.00  0.00    -0.055 A 
ATOM     34  C17 E7Q d   1      41.470  35.779  83.458  0.00  0.00    -0.060 A 
ATOM     35  H15 E7Q d   1      41.994  35.084  85.415  0.00  0.00     0.087 H 
ATOM     36  C18 E7Q d   1      41.946  36.099  82.204  0.00  0.00     0.034 A 
ATOM     37  H16 E7Q d   1      40.413  35.869  83.683  0.00  0.00     0.086 H 
ATOM     38  C20 E7Q d   1      43.288  36.020  81.904  0.00  0.00    -0.060 A 
ATOM     39 CL   E7Q d   1      40.820  36.566  80.958  0.00  0.00    -0.084 Cl
ATOM     40  C21 E7Q d   1      44.173  35.589  82.875  0.00  0.00    -0.055 A 
ATOM     41  H17 E7Q d   1      43.646  36.293  80.918  0.00  0.00     0.086 H 
ATOM     42  H18 E7Q d   1      45.232  35.531  82.652  0.00  0.00     0.087 H 
ENDBRANCH   5  32
TORSDOF 8
