REMARK  11 active torsions:
REMARK  status: ('A' for Active; 'I' for Inactive)
REMARK    1  A    between atoms: C20_3  and  C19_19 
REMARK    2  A    between atoms: N23_30  and  C22_5 
REMARK    3  A    between atoms: C25_20  and  C26_6 
REMARK    4  A    between atoms: C26_6  and  C27_21 
REMARK    5  A    between atoms: C02_7  and  N01_26 
REMARK    6  A    between atoms: C05_9  and  C06_10 
REMARK    7  A    between atoms: C09_13  and  N10_28 
REMARK    8  A    between atoms: S24_34  and  C25_20 
REMARK    9  A    between atoms: C30_22  and  O31_33 
REMARK   10  A    between atoms: O31_33  and  C32_23 
REMARK   11  A    between atoms: N23_30  and  S24_34 
ROOT
ATOM      1  C02 E7N d   1       3.069 -29.643  22.008  0.00  0.00     0.132 A 
ATOM      2  C04 E7N d   1       1.483 -31.083  22.950  0.00  0.00     0.015 A 
ATOM      3  C05 E7N d   1       1.841 -32.102  22.050  0.00  0.00    -0.007 A 
ATOM      4  C18 E7N d   1       2.868 -31.871  21.087  0.00  0.00    -0.056 A 
ATOM      5  C19 E7N d   1       3.512 -30.600  21.063  0.00  0.00     0.021 A 
ATOM      6  N03 E7N d   1       2.105 -29.904  22.896  0.00  0.00    -0.242 NA
ATOM      7  H7  E7N d   1       0.705 -31.255  23.685  0.00  0.00     0.116 H 
ATOM      8  H17 E7N d   1       3.153 -32.648  20.387  0.00  0.00     0.086 H 
ENDROOT
BRANCH   5   9
ATOM      9  C20 E7N d   1       4.658 -30.202  20.050  0.00  0.00    -0.020 A 
ATOM     10  C21 E7N d   1       4.557 -30.496  18.717  0.00  0.00    -0.043 A 
ATOM     11  C22 E7N d   1       5.569 -30.133  17.819  0.00  0.00     0.076 A 
ATOM     12  H4  E7N d   1       3.680 -31.018  18.351  0.00  0.00     0.088 H 
ATOM     13  C30 E7N d   1       6.712 -29.445  18.261  0.00  0.00     0.095 A 
ATOM     14  C33 E7N d   1       6.801 -29.146  19.602  0.00  0.00    -0.048 A 
ATOM     15  C34 E7N d   1       5.793 -29.516  20.493  0.00  0.00    -0.069 A 
ATOM     16  H26 E7N d   1       7.670 -28.614  19.972  0.00  0.00     0.087 H 
ATOM     17  H27 E7N d   1       5.891 -29.268  21.544  0.00  0.00     0.085 H 
BRANCH  11  18
ATOM     18  N23 E7N d   1       5.354 -30.505  16.422  0.00  0.00    -0.282 N 
ATOM     19  H32 E7N d   1       5.543 -29.840  15.700  0.00  0.00     0.178 HD
BRANCH  18  20
ATOM     20  S24 E7N d   1       4.775 -32.085  16.001  0.00  0.00     0.231 S 
ATOM     21  O28 E7N d   1       5.038 -32.396  14.583  0.00  0.00    -0.206 OA
ATOM     22  O29 E7N d   1       3.307 -32.095  16.022  0.00  0.00    -0.206 OA
BRANCH  20  23
ATOM     23  C25 E7N d   1       5.480 -33.361  17.136  0.00  0.00     0.046 C 
ATOM     24  H18 E7N d   1       5.218 -33.110  18.174  0.00  0.00     0.058 H 
ATOM     25  H19 E7N d   1       5.064 -34.347  16.880  0.00  0.00     0.058 H 
BRANCH  23  26
ATOM     26  C26 E7N d   1       7.030 -33.401  16.990  0.00  0.00    -0.055 C 
ATOM     27  H5  E7N d   1       7.479 -33.437  17.994  0.00  0.00     0.033 H 
ATOM     28  H6  E7N d   1       7.360 -32.488  16.474  0.00  0.00     0.033 H 
BRANCH  26  29
ATOM     29  C27 E7N d   1       7.514 -34.629  16.185  0.00  0.00    -0.076 C 
ATOM     30  H20 E7N d   1       8.611 -34.610  16.111  0.00  0.00     0.027 H 
ATOM     31  H21 E7N d   1       7.078 -34.601  15.175  0.00  0.00     0.027 H 
ATOM     32  H22 E7N d   1       7.197 -35.550  16.695  0.00  0.00     0.027 H 
ENDBRANCH  26  29
ENDBRANCH  23  26
ENDBRANCH  20  23
ENDBRANCH  18  20
ENDBRANCH  11  18
BRANCH  13  33
ATOM     33  O31 E7N d   1       7.794 -29.026  17.438  0.00  0.00    -0.354 OA
BRANCH  33  34
ATOM     34  C32 E7N d   1       7.765 -29.251  16.042  0.00  0.00     0.010 C 
ATOM     35  H23 E7N d   1       8.686 -28.857  15.588  0.00  0.00     0.066 H 
ATOM     36  H24 E7N d   1       6.894 -28.740  15.606  0.00  0.00     0.066 H 
ATOM     37  H25 E7N d   1       7.692 -30.331  15.846  0.00  0.00     0.066 H 
ENDBRANCH  33  34
ENDBRANCH  13  33
ENDBRANCH   5   9
BRANCH   1  38
ATOM     38  N01 E7N d   1       3.682 -28.285  22.053  0.00  0.00    -0.383 N 
ATOM     39  H28 E7N d   1       3.354 -27.595  22.743  0.00  0.00     0.157 HD
ATOM     40  H29 E7N d   1       4.434 -28.037  21.394  0.00  0.00     0.157 HD
ENDBRANCH   1  38
BRANCH   3  41
ATOM     41  C06 E7N d   1       1.075 -33.440  22.183  0.00  0.00    -0.024 A 
ATOM     42  C17 E7N d   1       0.765 -33.891  23.467  0.00  0.00    -0.070 A 
ATOM     43  C16 E7N d   1       0.061 -35.101  23.652  0.00  0.00    -0.057 A 
ATOM     44  H3  E7N d   1       1.067 -33.308  24.329  0.00  0.00     0.084 H 
ATOM     45  C09 E7N d   1      -0.340 -35.861  22.550  0.00  0.00     0.030 A 
ATOM     46  H16 E7N d   1      -0.170 -35.442  24.655  0.00  0.00     0.086 H 
ATOM     47  C08 E7N d   1      -0.041 -35.411  21.256  0.00  0.00    -0.057 A 
ATOM     48  C07 E7N d   1       0.667 -34.194  21.070  0.00  0.00    -0.070 A 
ATOM     49  H9  E7N d   1      -0.351 -35.993  20.396  0.00  0.00     0.086 H 
ATOM     50  H8  E7N d   1       0.893 -33.846  20.068  0.00  0.00     0.084 H 
BRANCH  45  51
ATOM     51  N10 E7N d   1      -1.100 -37.162  22.768  0.00  0.00    -0.378 N 
ATOM     52  C15 E7N d   1      -1.324 -37.677  24.155  0.00  0.00     0.018 C 
ATOM     53  C14 E7N d   1      -0.110 -38.440  24.702  0.00  0.00     0.096 C 
ATOM     54  H1  E7N d   1      -1.533 -36.825  24.818  0.00  0.00     0.066 H 
ATOM     55  H2  E7N d   1      -2.191 -38.354  24.144  0.00  0.00     0.066 H 
ATOM     56  N13 E7N d   1       0.347 -39.495  23.848  0.00  0.00    -0.072 N 
ATOM     57  H14 E7N d   1      -0.384 -38.876  25.674  0.00  0.00     0.078 H 
ATOM     58  H15 E7N d   1       0.715 -37.725  24.840  0.00  0.00     0.078 H 
ATOM     59  C12 E7N d   1       0.424 -39.158  22.474  0.00  0.00     0.096 C 
ATOM     60  H30 E7N d   1       1.267 -39.770  24.155  0.00  0.00     0.277 HD
ATOM     61  H31 E7N d   1      -0.287 -40.273  23.945  0.00  0.00     0.277 HD
ATOM     62  C11 E7N d   1      -0.790 -38.380  21.940  0.00  0.00     0.018 C 
ATOM     63  H12 E7N d   1       1.322 -38.541  22.321  0.00  0.00     0.078 H 
ATOM     64  H13 E7N d   1       0.516 -40.090  21.896  0.00  0.00     0.078 H 
ATOM     65  H10 E7N d   1      -1.667 -39.044  21.947  0.00  0.00     0.066 H 
ATOM     66  H11 E7N d   1      -0.580 -38.062  20.908  0.00  0.00     0.066 H 
ENDBRANCH  45  51
ENDBRANCH   3  41
TORSDOF 11
