REMARK  7 active torsions:
REMARK  status: ('A' for Active; 'I' for Inactive)
REMARK    1  A    between atoms: C4_3  and  N26_19 
REMARK    2  A    between atoms: C14_15  and  N12_7 
REMARK    3  A    between atoms: N12_7  and  C11_16 
REMARK    4  A    between atoms: C17_9  and  O24_13 
REMARK    5  A    between atoms: N26_19  and  C28_12 
REMARK    6  A    between atoms: C31_23  and  C38_25 
REMARK    7  A    between atoms: C38_25  and  N41_26 
ROOT
ATOM      1  N1  E85 d   1       1.583  -1.180  -9.095  0.00  0.00    -0.152 NA
ATOM      2  N3  E85 d   1       2.050  -2.352  -8.529  0.00  0.00    -0.260 N 
ATOM      3  C4  E85 d   1       3.316  -2.081  -8.129  0.00  0.00     0.140 A 
ATOM      4  C5  E85 d   1       3.691  -0.697  -8.471  0.00  0.00     0.105 A 
ATOM      5  C6  E85 d   1       2.509  -0.207  -9.074  0.00  0.00     0.188 A 
ATOM      6  C8  E85 d   1       3.510   1.887  -9.392  0.00  0.00     0.091 A 
ATOM      7  C11 E85 d   1       4.789   0.169  -8.363  0.00  0.00     0.147 A 
ATOM      8  N10 E85 d   1       4.649   1.444  -8.834  0.00  0.00    -0.223 NA
ATOM      9  N7  E85 d   1       2.438   1.088  -9.516  0.00  0.00    -0.220 NA
ATOM     10  H1  E85 d   1       1.543  -3.243  -8.432  0.00  0.00     0.191 HD
ATOM     11  H2  E85 d   1       3.455   2.909  -9.749  0.00  0.00     0.146 H 
ENDROOT
BRANCH   3  12
ATOM     12  N26 E85 d   1       4.186  -3.011  -7.621  0.00  0.00    -0.341 N 
ATOM     13  H9  E85 d   1       5.075  -2.655  -7.241  0.00  0.00     0.167 HD
BRANCH  12  14
ATOM     14  C28 E85 d   1       3.994  -4.357  -7.568  0.00  0.00     0.034 A 
ATOM     15  C36 E85 d   1       3.128  -5.085  -8.399  0.00  0.00    -0.057 A 
ATOM     16  C34 E85 d   1       2.932  -6.440  -8.149  0.00  0.00    -0.080 A 
ATOM     17  H10 E85 d   1       2.619  -4.599  -9.223  0.00  0.00     0.086 H 
ATOM     18  C32 E85 d   1       3.555  -7.094  -7.084  0.00  0.00    -0.075 A 
ATOM     19  H11 E85 d   1       2.276  -7.005  -8.801  0.00  0.00     0.083 H 
ATOM     20  C31 E85 d   1       4.418  -6.389  -6.266  0.00  0.00    -0.031 A 
ATOM     21  H12 E85 d   1       3.364  -8.145  -6.900  0.00  0.00     0.084 H 
ATOM     22  C29 E85 d   1       4.622  -5.045  -6.529  0.00  0.00    -0.050 A 
ATOM     23  H13 E85 d   1       5.307  -4.497  -5.893  0.00  0.00     0.087 H 
BRANCH  20  24
ATOM     24  C38 E85 d   1       5.107  -7.053  -5.093  0.00  0.00     0.103 C 
ATOM     25  H14 E85 d   1       4.842  -8.120  -5.069  0.00  0.00     0.082 H 
ATOM     26  H15 E85 d   1       4.781  -6.574  -4.158  0.00  0.00     0.082 H 
BRANCH  24  27
ATOM     27  N41 E85 d   1       6.556  -6.914  -5.232  0.00  0.00    -0.075 N 
ATOM     28  H16 E85 d   1       7.013  -7.357  -4.450  0.00  0.00     0.274 HD
ATOM     29  H17 E85 d   1       6.799  -5.936  -5.253  0.00  0.00     0.274 HD
ATOM     30  H18 E85 d   1       6.855  -7.353  -6.088  0.00  0.00     0.274 HD
ENDBRANCH  24  27
ENDBRANCH  20  24
ENDBRANCH  12  14
ENDBRANCH   3  12
BRANCH   7  31
ATOM     31  N12 E85 d   1       5.999  -0.237  -7.912  0.00  0.00    -0.340 N 
ATOM     32  H3  E85 d   1       6.023  -1.066  -7.301  0.00  0.00     0.167 HD
BRANCH  31  33
ATOM     33  C14 E85 d   1       7.188   0.364  -8.202  0.00  0.00     0.036 A 
ATOM     34  C15 E85 d   1       8.241   0.078  -7.328  0.00  0.00    -0.025 A 
ATOM     35  C17 E85 d   1       9.471   0.698  -7.455  0.00  0.00     0.067 A 
ATOM     36  H4  E85 d   1       8.090  -0.645  -6.534  0.00  0.00     0.091 H 
ATOM     37  C18 E85 d   1       9.674   1.616  -8.483  0.00  0.00    -0.051 A 
ATOM     38  C20 E85 d   1       8.644   1.913  -9.382  0.00  0.00    -0.078 A 
ATOM     39  H8  E85 d   1      10.637   2.103  -8.587  0.00  0.00     0.087 H 
ATOM     40  C22 E85 d   1       7.413   1.290  -9.254  0.00  0.00    -0.057 A 
ATOM     41  H5  E85 d   1       8.809   2.630 -10.178  0.00  0.00     0.083 H 
ATOM     42  H6  E85 d   1       6.620   1.510  -9.959  0.00  0.00     0.086 H 
BRANCH  35  43
ATOM     43  O24 E85 d   1      10.471   0.365  -6.578  0.00  0.00    -0.361 OA
ATOM     44  H7  E85 d   1      11.251   0.866  -6.784  0.00  0.00     0.217 HD
ENDBRANCH  35  43
ENDBRANCH  31  33
ENDBRANCH   7  31
TORSDOF 7
