REMARK  5 active torsions:
REMARK  status: ('A' for Active; 'I' for Inactive)
REMARK    1  A    between atoms: N1_18  and  C3_1 
REMARK    2  A    between atoms: C39_25  and  C46_4 
REMARK    3  A    between atoms: C46_4  and  N49_27 
REMARK    4  A    between atoms: C26_13  and  C24_12 
REMARK       I    between atoms: C24_12  and  N1_18 
REMARK    5  A    between atoms: C36_23  and  C29_15 
ROOT
ATOM      1  C26 E82 d   1       0.881  13.644 -24.273  0.00  0.00     0.032 C 
ATOM      2  C27 E82 d   1       1.525  14.181 -23.131  0.00  0.00    -0.057 C 
ATOM      3  C29 E82 d   1       1.262  15.517 -22.817  0.00  0.00    -0.025 C 
ATOM      4  C30 E82 d   1       0.334  16.286 -23.494  0.00  0.00    -0.072 C 
ATOM      5  C34 E82 d   1      -0.079  14.413 -24.931  0.00  0.00    -0.068 C 
ATOM      6  C32 E82 d   1      -0.312  15.768 -24.630  0.00  0.00    -0.081 C 
ATOM      7  H12 E82 d   1       2.194  13.580 -22.526  0.00  0.00     0.086 H 
ATOM      8  H13 E82 d   1       0.105  17.288 -23.149  0.00  0.00     0.084 H 
ATOM      9  H19 E82 d   1      -0.672  13.946 -25.709  0.00  0.00     0.085 H 
ATOM     10  H20 E82 d   1      -0.959  16.383 -25.245  0.00  0.00     0.083 H 
ENDROOT
BRANCH   1  11
ATOM     11  C24 E82 d   1       1.113  12.184 -24.615  0.00  0.00     0.252 C 
ATOM     12  O25 E82 d   1       0.168  11.675 -25.301  0.00  0.00    -0.268 OA
ATOM     13  N1  E82 d   1       2.147  11.570 -24.138  0.00  0.00    -0.348 N 
ATOM     14  H14 E82 d   1       2.812  12.094 -23.606  0.00  0.00     0.163 HD
BRANCH  13  15
ATOM     15  C3  E82 d   1       2.394  10.084 -24.352  0.00  0.00     0.038 C 
ATOM     16  C15 E82 d   1       3.132   9.513 -23.223  0.00  0.00    -0.029 A 
ATOM     17  C14 E82 d   1       4.491   9.118 -23.208  0.00  0.00    -0.050 A 
ATOM     18  C16 E82 d   1       2.419   9.359 -22.019  0.00  0.00    -0.074 A 
ATOM     19  C11 E82 d   1       5.301   9.196 -24.462  0.00  0.00    -0.040 C 
ATOM     20  C22 E82 d   1       5.029   8.601 -22.005  0.00  0.00    -0.076 A 
ATOM     21  C8  E82 d   1       4.699  10.063 -25.561  0.00  0.00    -0.059 C 
ATOM     22  H6  E82 d   1       5.418   8.176 -24.857  0.00  0.00     0.040 H 
ATOM     23  H7  E82 d   1       6.289   9.606 -24.206  0.00  0.00     0.040 H 
ATOM     24  C5  E82 d   1       3.196   9.889 -25.662  0.00  0.00    -0.042 C 
ATOM     25  H15 E82 d   1       5.154   9.784 -26.523  0.00  0.00     0.033 H 
ATOM     26  H16 E82 d   1       4.920  11.118 -25.343  0.00  0.00     0.033 H 
ATOM     27  H17 E82 d   1       2.823  10.619 -26.395  0.00  0.00     0.036 H 
ATOM     28  H18 E82 d   1       3.000   8.870 -26.026  0.00  0.00     0.036 H 
ATOM     29  C20 E82 d   1       4.302   8.478 -20.856  0.00  0.00    -0.082 A 
ATOM     30  H11 E82 d   1       6.067   8.288 -21.996  0.00  0.00     0.084 H 
ATOM     31  C18 E82 d   1       2.982   8.821 -20.854  0.00  0.00    -0.082 A 
ATOM     32  H10 E82 d   1       4.771   8.110 -19.951  0.00  0.00     0.083 H 
ATOM     33  H9  E82 d   1       2.378   8.680 -19.965  0.00  0.00     0.083 H 
ATOM     34  H8  E82 d   1       1.382   9.672 -21.992  0.00  0.00     0.084 H 
ATOM     35  H1  E82 d   1       1.426   9.569 -24.441  0.00  0.00     0.080 H 
ENDBRANCH  13  15
ENDBRANCH   1  11
BRANCH   3  36
ATOM     36  C36 E82 d   1       1.946  16.174 -21.638  0.00  0.00    -0.025 A 
ATOM     37  C44 E82 d   1       1.273  17.152 -20.841  0.00  0.00    -0.072 A 
ATOM     38  C42 E82 d   1       1.844  17.702 -19.714  0.00  0.00    -0.082 A 
ATOM     39  H3  E82 d   1       0.279  17.472 -21.134  0.00  0.00     0.084 H 
ATOM     40  C40 E82 d   1       3.140  17.313 -19.348  0.00  0.00    -0.075 A 
ATOM     41  H2  E82 d   1       1.299  18.425 -19.119  0.00  0.00     0.083 H 
ATOM     42  C39 E82 d   1       3.799  16.335 -20.144  0.00  0.00    -0.032 A 
ATOM     43  H21 E82 d   1       3.627  17.746 -18.482  0.00  0.00     0.084 H 
ATOM     44  C37 E82 d   1       3.228  15.829 -21.289  0.00  0.00    -0.065 A 
ATOM     45  H22 E82 d   1       3.794  15.153 -21.920  0.00  0.00     0.085 H 
BRANCH  42  46
ATOM     46  C46 E82 d   1       5.160  15.828 -19.791  0.00  0.00     0.103 C 
ATOM     47  H4  E82 d   1       5.279  14.817 -20.208  0.00  0.00     0.082 H 
ATOM     48  H5  E82 d   1       5.248  15.786 -18.695  0.00  0.00     0.082 H 
BRANCH  46  49
ATOM     49  N49 E82 d   1       6.240  16.691 -20.321  0.00  0.00    -0.075 N 
ATOM     50  H23 E82 d   1       7.135  16.309 -20.058  0.00  0.00     0.274 HD
ATOM     51  H24 E82 d   1       6.146  17.619 -19.940  0.00  0.00     0.274 HD
ATOM     52  H25 E82 d   1       6.175  16.732 -21.326  0.00  0.00     0.274 HD
ENDBRANCH  46  49
ENDBRANCH  42  46
ENDBRANCH   3  36
TORSDOF 5
