REMARK  17 active torsions:
REMARK  status: ('A' for Active; 'I' for Inactive)
REMARK    1  A    between atoms: C36_33  and  C20_2 
REMARK    2  A    between atoms: C20_2  and  C22_35 
REMARK    3  A    between atoms: C20_2  and  N18_39 
REMARK    4  A    between atoms: C02_4  and  C03_5 
REMARK       I    between atoms: N18_39  and  C02_4 
REMARK    5  A    between atoms: C03_5  and  C05_6 
REMARK    6  A    between atoms: C05_6  and  C07_7 
REMARK    7  A    between atoms: C70_18  and  C73_17 
REMARK    8  A    between atoms: N68_19  and  C70_18 
REMARK       I    between atoms: C66_20  and  N68_19 
REMARK    9  A    between atoms: C57_22  and  C66_20 
REMARK   10  A    between atoms: C57_22  and  O58_23 
REMARK   11  A    between atoms: C40_24  and  C57_22 
REMARK   12  A    between atoms: C40_24  and  C42_25 
REMARK   13  A    between atoms: N38_32  and  C40_24 
REMARK   14  A    between atoms: C42_25  and  C45_26 
REMARK       I    between atoms: N38_32  and  C36_33 
REMARK   15  A    between atoms: C22_35  and  C25_36 
REMARK   16  A    between atoms: C25_36  and  C34_37 
REMARK   17  A    between atoms: C25_36  and  C26_38 
ROOT
ATOM      1  C40 E8E d   1      54.703  13.974  47.624  0.00  0.00     0.046 C 
ATOM      2  H19 E8E d   1      55.138  13.797  48.618  0.00  0.00     0.077 H 
ENDROOT
BRANCH   1   3
ATOM      3  C57 E8E d   1      54.448  15.464  47.434  0.00  0.00     0.131 C 
ATOM      4  H17 E8E d   1      54.178  15.678  46.389  0.00  0.00     0.101 H 
BRANCH   3   5
ATOM      5  C66 E8E d   1      55.640  16.279  47.835  0.00  0.00     0.248 C 
ATOM      6  N68 E8E d   1      55.411  17.011  48.961  0.00  0.00    -0.355 N 
ATOM      7  H16 E8E d   1      54.489  16.968  49.347  0.00  0.00     0.162 HD
ATOM      8  O67 E8E d   1      56.706  16.238  47.227  0.00  0.00    -0.271 OA
BRANCH   6   9
ATOM      9  C70 E8E d   1      56.396  17.866  49.671  0.00  0.00     0.019 C 
ATOM     10  H14 E8E d   1      57.180  18.177  48.965  0.00  0.00     0.071 H 
ATOM     11  H15 E8E d   1      55.884  18.756  50.066  0.00  0.00     0.071 H 
BRANCH   9  12
ATOM     12  C73 E8E d   1      56.990  17.157  50.742  0.00  0.00    -0.041 A 
ATOM     13  C74 E8E d   1      56.539  15.895  51.177  0.00  0.00    -0.075 A 
ATOM     14  C82 E8E d   1      57.128  15.210  52.269  0.00  0.00    -0.082 A 
ATOM     15  H9  E8E d   1      55.710  15.430  50.656  0.00  0.00     0.084 H 
ATOM     16  C80 E8E d   1      58.138  15.853  52.966  0.00  0.00    -0.083 A 
ATOM     17  H10 E8E d   1      56.799  14.216  52.550  0.00  0.00     0.083 H 
ATOM     18  C78 E8E d   1      58.599  17.128  52.579  0.00  0.00    -0.082 A 
ATOM     19  H11 E8E d   1      58.583  15.366  53.826  0.00  0.00     0.083 H 
ATOM     20  C76 E8E d   1      58.021  17.773  51.477  0.00  0.00    -0.075 A 
ATOM     21  H12 E8E d   1      59.398  17.608  53.132  0.00  0.00     0.083 H 
ATOM     22  H13 E8E d   1      58.372  18.757  51.187  0.00  0.00     0.084 H 
ENDBRANCH   9  12
ENDBRANCH   6   9
ENDBRANCH   3   5
BRANCH   3  23
ATOM     23  O58 E8E d   1      53.333  15.807  48.362  0.00  0.00    -0.384 OA
ATOM     24  H18 E8E d   1      53.139  16.734  48.293  0.00  0.00     0.210 HD
ENDBRANCH   3  23
ENDBRANCH   1   3
BRANCH   1  25
ATOM     25  C42 E8E d   1      55.645  13.341  46.550  0.00  0.00    -0.032 C 
ATOM     26  H20 E8E d   1      56.582  13.917  46.525  0.00  0.00     0.037 H 
ATOM     27  H21 E8E d   1      55.149  13.405  45.570  0.00  0.00     0.037 H 
BRANCH  25  28
ATOM     28  C45 E8E d   1      55.985  11.869  46.829  0.00  0.00     0.027 C 
ATOM     29  C54 E8E d   1      56.823  11.718  48.125  0.00  0.00    -0.039 C 
ATOM     30  C51 E8E d   1      57.782  10.588  47.800  0.00  0.00    -0.004 C 
ATOM     31  H23 E8E d   1      56.182  11.455  48.979  0.00  0.00     0.036 H 
ATOM     32  H24 E8E d   1      57.370  12.645  48.349  0.00  0.00     0.036 H 
ATOM     33  N49 E8E d   1      57.830  10.568  46.289  0.00  0.00    -0.361 N 
ATOM     34  H25 E8E d   1      57.405   9.632  48.191  0.00  0.00     0.064 H 
ATOM     35  H26 E8E d   1      58.779  10.789  48.220  0.00  0.00     0.064 H 
ATOM     36  C47 E8E d   1      56.847  11.314  45.772  0.00  0.00     0.221 C 
ATOM     37  H27 E8E d   1      58.505  10.065  45.749  0.00  0.00     0.162 HD
ATOM     38  O48 E8E d   1      56.595  11.356  44.561  0.00  0.00    -0.273 OA
ATOM     39  H22 E8E d   1      55.051  11.293  46.906  0.00  0.00     0.054 H 
ENDBRANCH  25  28
ENDBRANCH   1  25
BRANCH   1  40
ATOM     40  N38 E8E d   1      53.352  13.366  47.530  0.00  0.00    -0.352 N 
ATOM     41  C36 E8E d   1      52.873  12.667  48.611  0.00  0.00     0.240 C 
ATOM     42  O37 E8E d   1      53.480  12.501  49.663  0.00  0.00    -0.271 OA
ATOM     43  H28 E8E d   1      52.804  13.463  46.699  0.00  0.00     0.163 HD
BRANCH  41  44
ATOM     44  C20 E8E d   1      51.513  12.182  48.454  0.00  0.00     0.090 C 
ATOM     45  H2  E8E d   1      51.281  12.034  47.389  0.00  0.00     0.087 H 
BRANCH  44  46
ATOM     46  C22 E8E d   1      50.587  13.247  49.059  0.00  0.00    -0.035 C 
ATOM     47  H29 E8E d   1      50.806  14.218  48.591  0.00  0.00     0.037 H 
ATOM     48  H30 E8E d   1      50.775  13.310  50.141  0.00  0.00     0.037 H 
BRANCH  46  49
ATOM     49  C25 E8E d   1      49.097  12.904  48.828  0.00  0.00    -0.059 C 
ATOM     50  H31 E8E d   1      48.929  11.841  49.053  0.00  0.00     0.038 H 
BRANCH  49  51
ATOM     51  C34 E8E d   1      48.662  13.187  47.405  0.00  0.00    -0.073 C 
ATOM     52  H32 E8E d   1      47.599  12.929  47.288  0.00  0.00     0.028 H 
ATOM     53  H33 E8E d   1      49.264  12.583  46.710  0.00  0.00     0.028 H 
ATOM     54  H34 E8E d   1      48.806  14.255  47.183  0.00  0.00     0.028 H 
ENDBRANCH  49  51
BRANCH  49  55
ATOM     55  C26 E8E d   1      48.245  13.799  49.791  0.00  0.00    -0.073 C 
ATOM     56  H35 E8E d   1      48.546  13.608  50.831  0.00  0.00     0.028 H 
ATOM     57  H36 E8E d   1      47.179  13.558  49.668  0.00  0.00     0.028 H 
ATOM     58  H37 E8E d   1      48.412  14.859  49.550  0.00  0.00     0.028 H 
ENDBRANCH  49  55
ENDBRANCH  46  49
ENDBRANCH  44  46
BRANCH  44  59
ATOM     59  N18 E8E d   1      51.349  10.927  49.171  0.00  0.00    -0.344 N 
ATOM     60  C02 E8E d   1      50.875   9.874  48.505  0.00  0.00     0.241 C 
ATOM     61  O01 E8E d   1      50.698   9.835  47.231  0.00  0.00    -0.269 OA
ATOM     62  H38 E8E d   1      51.586  10.856  50.140  0.00  0.00     0.163 HD
BRANCH  60  63
ATOM     63  C03 E8E d   1      50.749   8.706  49.497  0.00  0.00    -0.017 C 
ATOM     64  H3  E8E d   1      51.005   8.850  50.546  0.00  0.00     0.092 H 
BRANCH  63  65
ATOM     65  C05 E8E d   1      50.277   7.381  49.019  0.00  0.00    -0.068 C 
ATOM     66  H4  E8E d   1      50.037   7.268  47.963  0.00  0.00     0.085 H 
BRANCH  65  67
ATOM     67  C07 E8E d   1      50.126   6.279  49.852  0.00  0.00    -0.036 A 
ATOM     68  C08 E8E d   1      49.913   6.389  51.234  0.00  0.00    -0.073 A 
ATOM     69  C10 E8E d   1      49.730   5.197  51.953  0.00  0.00    -0.082 A 
ATOM     70  H5  E8E d   1      49.891   7.354  51.727  0.00  0.00     0.084 H 
ATOM     71  C12 E8E d   1      49.740   3.936  51.329  0.00  0.00    -0.083 A 
ATOM     72  H1  E8E d   1      49.576   5.250  53.025  0.00  0.00     0.083 H 
ATOM     73  C14 E8E d   1      49.932   3.829  49.958  0.00  0.00    -0.082 A 
ATOM     74  H6  E8E d   1      49.597   3.041  51.923  0.00  0.00     0.083 H 
ATOM     75  C16 E8E d   1      50.117   5.001  49.236  0.00  0.00    -0.073 A 
ATOM     76  H7  E8E d   1      49.937   2.862  49.467  0.00  0.00     0.083 H 
ATOM     77  H8  E8E d   1      50.260   4.937  48.163  0.00  0.00     0.084 H 
ENDBRANCH  65  67
ENDBRANCH  63  65
ENDBRANCH  60  63
ENDBRANCH  44  59
ENDBRANCH  41  44
ENDBRANCH   1  40
TORSDOF 17
