REMARK  15 active torsions:
REMARK  status: ('A' for Active; 'I' for Inactive)
REMARK    1  A    between atoms: C02_2  and  C03_3 
REMARK       I    between atoms: C02_2  and  N18_11 
REMARK    2  A    between atoms: C03_3  and  C05_4 
REMARK    3  A    between atoms: C05_4  and  C07_5 
REMARK    4  A    between atoms: N18_11  and  C20_12 
REMARK    5  A    between atoms: C20_12  and  C22_13 
REMARK    6  A    between atoms: C20_12  and  C36_20 
REMARK    7  A    between atoms: C22_13  and  C25_14 
REMARK       I    between atoms: C36_20  and  N38_22 
REMARK    8  A    between atoms: N38_22  and  C40_23 
REMARK    9  A    between atoms: C40_23  and  C42_24 
REMARK   10  A    between atoms: C40_23  and  C57_31 
REMARK   11  A    between atoms: C42_24  and  C45_25 
REMARK   12  A    between atoms: C57_31  and  O58_32 
REMARK   13  A    between atoms: C57_31  and  C66_33 
REMARK       I    between atoms: C66_33  and  N68_35 
REMARK   14  A    between atoms: N68_35  and  C70_36 
REMARK   15  A    between atoms: C70_36  and  C73_37 
ROOT
ATOM      1  C36 D03 d   1      52.821  12.132  48.397  0.00  0.00     0.241 C 
ATOM      2  O37 D03 d   1      53.605  11.763  49.256  0.00  0.00    -0.271 OA
ATOM      3  N38 D03 d   1      53.129  12.832  47.287  0.00  0.00    -0.352 N 
ATOM      4  H19 D03 d   1      52.398  13.050  46.640  0.00  0.00     0.163 HD
ENDROOT
BRANCH   3   5
ATOM      5  C40 D03 d   1      54.496  13.290  46.986  0.00  0.00     0.046 C 
ATOM      6  H20 D03 d   1      55.091  13.164  47.902  0.00  0.00     0.077 H 
BRANCH   5   7
ATOM      7  C42 D03 d   1      55.195  12.473  45.879  0.00  0.00    -0.032 C 
ATOM      8  H21 D03 d   1      56.198  12.894  45.715  0.00  0.00     0.037 H 
ATOM      9  H22 D03 d   1      54.605  12.562  44.955  0.00  0.00     0.037 H 
BRANCH   7  10
ATOM     10  C45 D03 d   1      55.340  11.004  46.217  0.00  0.00     0.027 C 
ATOM     11  C47 D03 d   1      55.920  10.283  45.071  0.00  0.00     0.221 C 
ATOM     12  O48 D03 d   1      55.474  10.372  43.967  0.00  0.00    -0.273 OA
ATOM     13  N49 D03 d   1      56.924   9.530  45.433  0.00  0.00    -0.361 N 
ATOM     14  C51 D03 d   1      57.204   9.589  46.841  0.00  0.00    -0.004 C 
ATOM     15  H24 D03 d   1      57.447   8.967  44.793  0.00  0.00     0.162 HD
ATOM     16  C54 D03 d   1      56.329  10.731  47.341  0.00  0.00    -0.039 C 
ATOM     17  H25 D03 d   1      58.268   9.804  47.020  0.00  0.00     0.064 H 
ATOM     18  H26 D03 d   1      56.933   8.644  47.334  0.00  0.00     0.064 H 
ATOM     19  H27 D03 d   1      55.798  10.436  48.258  0.00  0.00     0.036 H 
ATOM     20  H28 D03 d   1      56.939  11.624  47.542  0.00  0.00     0.036 H 
ATOM     21  H23 D03 d   1      54.351  10.599  46.476  0.00  0.00     0.054 H 
ENDBRANCH   7  10
ENDBRANCH   5   7
BRANCH   5  22
ATOM     22  C57 D03 d   1      54.478  14.780  46.644  0.00  0.00     0.131 C 
ATOM     23  H29 D03 d   1      53.838  14.931  45.763  0.00  0.00     0.101 H 
BRANCH  22  24
ATOM     24  O58 D03 d   1      55.816  15.204  46.308  0.00  0.00    -0.384 OA
ATOM     25  H30 D03 d   1      55.809  16.130  46.095  0.00  0.00     0.210 HD
ENDBRANCH  22  24
BRANCH  22  26
ATOM     26  C66 D03 d   1      53.889  15.574  47.793  0.00  0.00     0.248 C 
ATOM     27  O67 D03 d   1      52.682  15.537  47.968  0.00  0.00    -0.271 OA
ATOM     28  N68 D03 d   1      54.744  16.230  48.598  0.00  0.00    -0.355 N 
ATOM     29  H31 D03 d   1      55.700  16.316  48.317  0.00  0.00     0.162 HD
BRANCH  28  30
ATOM     30  C70 D03 d   1      54.332  16.817  49.857  0.00  0.00     0.019 C 
ATOM     31  H32 D03 d   1      53.527  16.211  50.299  0.00  0.00     0.071 H 
ATOM     32  H33 D03 d   1      53.968  17.840  49.684  0.00  0.00     0.071 H 
BRANCH  30  33
ATOM     33  C73 D03 d   1      55.513  16.854  50.800  0.00  0.00    -0.041 A 
ATOM     34  C74 D03 d   1      55.512  16.127  52.002  0.00  0.00    -0.075 A 
ATOM     35  C82 D03 d   1      56.636  16.212  52.839  0.00  0.00    -0.082 A 
ATOM     36  H34 D03 d   1      54.662  15.514  52.277  0.00  0.00     0.084 H 
ATOM     37  C80 D03 d   1      57.746  17.017  52.486  0.00  0.00    -0.083 A 
ATOM     38  H38 D03 d   1      56.654  15.654  53.768  0.00  0.00     0.083 H 
ATOM     39  C78 D03 d   1      57.749  17.747  51.292  0.00  0.00    -0.082 A 
ATOM     40  H37 D03 d   1      58.603  17.068  53.148  0.00  0.00     0.083 H 
ATOM     41  C76 D03 d   1      56.623  17.646  50.461  0.00  0.00    -0.075 A 
ATOM     42  H36 D03 d   1      58.593  18.370  51.018  0.00  0.00     0.083 H 
ATOM     43  H35 D03 d   1      56.609  18.197  49.527  0.00  0.00     0.084 H 
ENDBRANCH  30  33
ENDBRANCH  28  30
ENDBRANCH  22  26
ENDBRANCH   5  22
ENDBRANCH   3   5
BRANCH   1  44
ATOM     44  C20 D03 d   1      51.394  11.811  48.645  0.00  0.00     0.093 C 
ATOM     45  H11 D03 d   1      50.818  11.920  47.714  0.00  0.00     0.088 H 
BRANCH  44  46
ATOM     46  N18 D03 d   1      51.159  10.472  49.177  0.00  0.00    -0.347 N 
ATOM     47  C02 D03 d   1      51.350   9.354  48.464  0.00  0.00     0.218 C 
ATOM     48  O01 D03 d   1      51.783   9.348  47.319  0.00  0.00    -0.274 OA
ATOM     49  H10 D03 d   1      50.840  10.385  50.121  0.00  0.00     0.163 HD
BRANCH  47  50
ATOM     50  C03 D03 d   1      50.977   8.045  49.141  0.00  0.00     0.013 C 
ATOM     51  H1  D03 d   1      51.481   7.991  50.117  0.00  0.00     0.047 H 
ATOM     52  H2  D03 d   1      51.309   7.208  48.509  0.00  0.00     0.047 H 
BRANCH  50  53
ATOM     53  C05 D03 d   1      49.453   7.936  49.357  0.00  0.00    -0.033 C 
ATOM     54  H3  D03 d   1      48.961   8.778  48.849  0.00  0.00     0.040 H 
ATOM     55  H4  D03 d   1      49.242   7.985  50.435  0.00  0.00     0.040 H 
BRANCH  53  56
ATOM     56  C07 D03 d   1      48.892   6.632  48.805  0.00  0.00    -0.058 A 
ATOM     57  C16 D03 d   1      47.927   6.648  47.787  0.00  0.00    -0.077 A 
ATOM     58  C14 D03 d   1      47.419   5.439  47.288  0.00  0.00    -0.082 A 
ATOM     59  H5  D03 d   1      47.575   7.592  47.387  0.00  0.00     0.084 H 
ATOM     60  C12 D03 d   1      47.872   4.212  47.799  0.00  0.00    -0.083 A 
ATOM     61  H6  D03 d   1      46.672   5.452  46.503  0.00  0.00     0.083 H 
ATOM     62  C10 D03 d   1      48.828   4.197  48.819  0.00  0.00    -0.082 A 
ATOM     63  H7  D03 d   1      47.482   3.281  47.404  0.00  0.00     0.083 H 
ATOM     64  C08 D03 d   1      49.337   5.400  49.317  0.00  0.00    -0.077 A 
ATOM     65  H8  D03 d   1      49.174   3.253  49.224  0.00  0.00     0.083 H 
ATOM     66  H9  D03 d   1      50.081   5.383  50.105  0.00  0.00     0.084 H 
ENDBRANCH  53  56
ENDBRANCH  50  53
ENDBRANCH  47  50
ENDBRANCH  44  46
BRANCH  44  67
ATOM     67  C22 D03 d   1      50.990  12.872  49.654  0.00  0.00    -0.014 C 
ATOM     68  H12 D03 d   1      51.355  13.852  49.314  0.00  0.00     0.043 H 
ATOM     69  H13 D03 d   1      51.437  12.632  50.630  0.00  0.00     0.043 H 
BRANCH  67  70
ATOM     70  C25 D03 d   1      49.500  12.922  49.793  0.00  0.00    -0.056 A 
ATOM     71  C34 D03 d   1      48.910  12.549  50.994  0.00  0.00    -0.077 A 
ATOM     72  C32 D03 d   1      47.536  12.611  51.093  0.00  0.00    -0.082 A 
ATOM     73  H14 D03 d   1      49.514  12.218  51.831  0.00  0.00     0.084 H 
ATOM     74  C30 D03 d   1      46.771  13.035  50.003  0.00  0.00    -0.083 A 
ATOM     75  H15 D03 d   1      47.048  12.330  52.019  0.00  0.00     0.083 H 
ATOM     76  C28 D03 d   1      47.366  13.402  48.807  0.00  0.00    -0.082 A 
ATOM     77  H16 D03 d   1      45.692  13.078  50.095  0.00  0.00     0.083 H 
ATOM     78  C26 D03 d   1      48.742  13.346  48.706  0.00  0.00    -0.077 A 
ATOM     79  H17 D03 d   1      46.763  13.727  47.967  0.00  0.00     0.083 H 
ATOM     80  H18 D03 d   1      49.231  13.632  47.782  0.00  0.00     0.084 H 
ENDBRANCH  67  70
ENDBRANCH  44  67
ENDBRANCH   1  44
TORSDOF 15
