REMARK  24 active torsions:
REMARK  status: ('A' for Active; 'I' for Inactive)
REMARK    1  A    between atoms: C_1  and  CH3_3 
REMARK       I    between atoms: C_1  and  N_4 
REMARK    2  A    between atoms: N_4  and  CA_5 
REMARK    3  A    between atoms: CA_5  and  C_6 
REMARK    4  A    between atoms: CA_5  and  CB_8 
REMARK       I    between atoms: C_6  and  N_13 
REMARK    5  A    between atoms: CB_8  and  CG_9 
REMARK    6  A    between atoms: CG_9  and  CD_10 
REMARK       I    between atoms: CD_10  and  NE2_12 
REMARK    7  A    between atoms: N_13  and  CA_14 
REMARK    8  A    between atoms: CA_14  and  C_15 
REMARK    9  A    between atoms: CA_14  and  CB_17 
REMARK       I    between atoms: C_15  and  N_24 
REMARK   10  A    between atoms: CB_17  and  CG_18 
REMARK   11  A    between atoms: N_24  and  CA_25 
REMARK   12  A    between atoms: CA_25  and  C_26 
REMARK   13  A    between atoms: CA_25  and  CB_28 
REMARK       I    between atoms: C_26  and  N_32 
REMARK   14  A    between atoms: CB_28  and  CG_29 
REMARK   15  A    between atoms: N_32  and  CA_33 
REMARK   16  A    between atoms: CA_33  and  C_34 
REMARK   17  A    between atoms: CA_33  and  CB_36 
REMARK       I    between atoms: C_34  and  N_40 
REMARK   18  A    between atoms: CB_36  and  CG_37 
REMARK   19  A    between atoms: CG_37  and  CD1_38 
REMARK   20  A    between atoms: CG_37  and  CD2_39 
REMARK   21  A    between atoms: N_40  and  CA_41 
REMARK   22  A    between atoms: CA_41  and  C_42 
REMARK   23  A    between atoms: CA_41  and  CB_44 
REMARK   24  A    between atoms: CB_44  and  CG_45 
ROOT
ATOM      1  C   ACE d   1      28.322  65.218 -19.271  0.00  0.00     0.241 C 
ATOM      2  O   ACE d   1      27.734  65.307 -18.208  0.00  0.00    -0.271 OA
ATOM      3  N   ACE d   1      29.020  66.228 -19.785  0.00  0.00    -0.346 N 
ATOM      4  H27 ACE d   1      29.490  66.085 -20.656  0.00  0.00     0.163 HD
ENDROOT
BRANCH   3   5
ATOM      5  CA  ACE d   1      29.135  67.533 -19.142  0.00  0.00     0.098 C 
ATOM      6  H28 ACE d   1      28.721  67.445 -18.127  0.00  0.00     0.088 H 
BRANCH   5   7
ATOM      7  C   ACE d   1      28.364  68.625 -19.879  0.00  0.00     0.241 C 
ATOM      8  O   ACE d   1      28.277  68.613 -21.112  0.00  0.00    -0.271 OA
ATOM      9  N   ACE d   1      27.805  69.565 -19.105  0.00  0.00    -0.346 N 
ATOM     10  H31 ACE d   1      27.870  69.481 -18.111  0.00  0.00     0.163 HD
BRANCH   9  11
ATOM     11  CA  ACE d   1      27.103  70.710 -19.679  0.00  0.00     0.089 C 
ATOM     12  H32 ACE d   1      26.439  70.345 -20.476  0.00  0.00     0.087 H 
BRANCH  11  13
ATOM     13  C   ACE d   1      28.061  71.730 -20.265  0.00  0.00     0.241 C 
ATOM     14  O   ACE d   1      27.726  72.399 -21.247  0.00  0.00    -0.271 OA
ATOM     15  N   ACE d   1      29.237  71.872 -19.673  0.00  0.00    -0.344 N 
ATOM     16  H42 ACE d   1      29.463  71.285 -18.896  0.00  0.00     0.163 HD
BRANCH  15  17
ATOM     17  CA  ACE d   1      30.206  72.853 -20.118  0.00  0.00     0.100 C 
ATOM     18  H43 ACE d   1      30.207  72.882 -21.218  0.00  0.00     0.090 H 
BRANCH  17  19
ATOM     19  C   ACE d   1      31.582  72.425 -19.637  0.00  0.00     0.197 C 
ATOM     20  O   ACE d   1      32.603  72.899 -20.132  0.00  0.00    -0.646 OA
ATOM     21  OXT ACE d   1      31.687  71.569 -18.758  0.00  0.00    -0.646 OA
ENDBRANCH  17  19
BRANCH  17  22
ATOM     22  CB  ACE d   1      29.841  74.255 -19.593  0.00  0.00    -0.013 C 
ATOM     23  H44 ACE d   1      28.966  74.616 -20.154  0.00  0.00     0.043 H 
ATOM     24  H45 ACE d   1      30.695  74.924 -19.775  0.00  0.00     0.043 H 
BRANCH  22  25
ATOM     25  CG  ACE d   1      29.509  74.300 -18.114  0.00  0.00    -0.056 A 
ATOM     26  CD1 ACE d   1      30.515  74.329 -17.156  0.00  0.00    -0.077 A 
ATOM     27  CE1 ACE d   1      30.207  74.366 -15.799  0.00  0.00    -0.082 A 
ATOM     28  H46 ACE d   1      31.553  74.323 -17.469  0.00  0.00     0.084 H 
ATOM     29  CZ  ACE d   1      28.882  74.368 -15.387  0.00  0.00    -0.083 A 
ATOM     30  H48 ACE d   1      31.003  74.393 -15.063  0.00  0.00     0.083 H 
ATOM     31  CE2 ACE d   1      27.869  74.335 -16.331  0.00  0.00    -0.082 A 
ATOM     32  H50 ACE d   1      28.641  74.395 -14.331  0.00  0.00     0.083 H 
ATOM     33  CD2 ACE d   1      28.184  74.296 -17.686  0.00  0.00    -0.077 A 
ATOM     34  H49 ACE d   1      26.832  74.340 -16.015  0.00  0.00     0.083 H 
ATOM     35  H47 ACE d   1      27.386  74.262 -18.419  0.00  0.00     0.084 H 
ENDBRANCH  22  25
ENDBRANCH  17  22
ENDBRANCH  15  17
ENDBRANCH  11  13
BRANCH  11  36
ATOM     36  CB  ACE d   1      26.270  71.415 -18.614  0.00  0.00    -0.035 C 
ATOM     37  H33 ACE d   1      26.076  72.430 -18.991  0.00  0.00     0.037 H 
ATOM     38  H34 ACE d   1      26.898  71.472 -17.713  0.00  0.00     0.037 H 
BRANCH  36  39
ATOM     39  CG  ACE d   1      24.933  70.858 -18.171  0.00  0.00    -0.059 C 
ATOM     40  H35 ACE d   1      25.019  69.775 -17.997  0.00  0.00     0.038 H 
BRANCH  39  41
ATOM     41  CD1 ACE d   1      24.521  71.536 -16.873  0.00  0.00    -0.073 C 
ATOM     42  H36 ACE d   1      23.550  71.138 -16.543  0.00  0.00     0.028 H 
ATOM     43  H37 ACE d   1      24.436  72.620 -17.037  0.00  0.00     0.028 H 
ATOM     44  H38 ACE d   1      25.279  71.340 -16.100  0.00  0.00     0.028 H 
ENDBRANCH  39  41
BRANCH  39  45
ATOM     45  CD2 ACE d   1      23.929  71.108 -19.290  0.00  0.00    -0.073 C 
ATOM     46  H39 ACE d   1      24.267  70.601 -20.206  0.00  0.00     0.028 H 
ATOM     47  H40 ACE d   1      23.850  72.189 -19.477  0.00  0.00     0.028 H 
ATOM     48  H41 ACE d   1      22.945  70.715 -18.995  0.00  0.00     0.028 H 
ENDBRANCH  39  45
ENDBRANCH  36  39
ENDBRANCH  11  36
ENDBRANCH   9  11
ENDBRANCH   5   7
BRANCH   5  49
ATOM     49  CB  ACE d   1      30.600  67.960 -19.036  0.00  0.00     0.043 C 
ATOM     50  H29 ACE d   1      30.639  68.980 -18.625  0.00  0.00     0.052 H 
ATOM     51  H30 ACE d   1      31.041  67.954 -20.044  0.00  0.00     0.052 H 
BRANCH  49  52
ATOM     52  CG  ACE d   1      31.419  67.050 -18.146  0.00  0.00     0.175 C 
ATOM     53  OD1 ACE d   1      30.899  66.590 -17.108  0.00  0.00    -0.648 OA
ATOM     54  OD2 ACE d   1      32.592  66.799 -18.491  0.00  0.00    -0.648 OA
ENDBRANCH  49  52
ENDBRANCH   5  49
ENDBRANCH   3   5
BRANCH   1  55
ATOM     55  CA  ACE d   1      28.311  63.904 -20.131  0.00  0.00     0.089 C 
ATOM     56  H13 ACE d   1      29.308  63.691 -20.544  0.00  0.00     0.087 H 
BRANCH  55  57
ATOM     57  N   ACE d   1      27.896  62.806 -19.236  0.00  0.00    -0.346 N 
ATOM     58  C   ACE d   1      28.697  62.351 -18.282  0.00  0.00     0.241 C 
ATOM     59  O   ACE d   1      29.807  62.824 -18.071  0.00  0.00    -0.271 OA
ATOM     60  H12 ACE d   1      26.991  62.396 -19.352  0.00  0.00     0.163 HD
BRANCH  58  61
ATOM     61  CA  ACE d   1      28.161  61.216 -17.414  0.00  0.00     0.089 C 
ATOM     62  H5  ACE d   1      27.099  61.064 -17.656  0.00  0.00     0.087 H 
BRANCH  61  63
ATOM     63  N   ACE d   1      28.865  59.975 -17.683  0.00  0.00    -0.348 N 
ATOM     64  C   ACE d   1      28.738  59.323 -18.836  0.00  0.00     0.214 C 
ATOM     65  O   ACE d   1      28.012  59.655 -19.736  0.00  0.00    -0.274 OA
ATOM     66  H4  ACE d   1      29.465  59.598 -16.978  0.00  0.00     0.163 HD
BRANCH  64  67
ATOM     67  CH3 ACE d   1      29.551  58.076 -18.943  0.00  0.00    -0.003 C 
ATOM     68  H1  ACE d   1      30.145  57.946 -18.026  0.00  0.00     0.040 H 
ATOM     69  H2  ACE d   1      30.225  58.151 -19.809  0.00  0.00     0.040 H 
ATOM     70  H3  ACE d   1      28.882  57.212 -19.072  0.00  0.00     0.040 H 
ENDBRANCH  64  67
ENDBRANCH  61  63
BRANCH  61  71
ATOM     71  CB  ACE d   1      28.269  61.617 -15.936  0.00  0.00    -0.030 C 
ATOM     72  H6  ACE d   1      29.330  61.748 -15.678  0.00  0.00     0.037 H 
ATOM     73  H7  ACE d   1      27.837  60.817 -15.317  0.00  0.00     0.037 H 
BRANCH  71  74
ATOM     74  CG  ACE d   1      27.528  62.917 -15.652  0.00  0.00     0.011 C 
ATOM     75  H8  ACE d   1      28.014  63.727 -16.216  0.00  0.00     0.047 H 
ATOM     76  H9  ACE d   1      27.594  63.129 -14.575  0.00  0.00     0.047 H 
BRANCH  74  77
ATOM     77  CD  ACE d   1      26.055  62.866 -16.047  0.00  0.00     0.215 C 
ATOM     78  OE1 ACE d   1      25.322  62.003 -15.595  0.00  0.00    -0.274 OA
ATOM     79  NE2 ACE d   1      25.628  63.782 -16.909  0.00  0.00    -0.370 N 
ATOM     80  H10 ACE d   1      24.671  63.789 -17.198  0.00  0.00     0.159 HD
ATOM     81  H11 ACE d   1      26.264  64.465 -17.269  0.00  0.00     0.159 HD
ENDBRANCH  74  77
ENDBRANCH  71  74
ENDBRANCH  61  71
ENDBRANCH  58  61
ENDBRANCH  55  57
BRANCH  55  82
ATOM     82  CB  ACE d   1      27.318  64.153 -21.265  0.00  0.00    -0.035 C 
ATOM     83  H14 ACE d   1      27.434  65.197 -21.593  0.00  0.00     0.037 H 
ATOM     84  H15 ACE d   1      26.304  64.004 -20.865  0.00  0.00     0.037 H 
BRANCH  82  85
ATOM     85  CG  ACE d   1      27.476  63.255 -22.492  0.00  0.00    -0.052 C 
ATOM     86  CD2 ACE d   1      28.843  62.588 -22.579  0.00  0.00    -0.062 C 
ATOM     87  CE2 ACE d   1      28.992  61.765 -23.856  0.00  0.00    -0.065 C 
ATOM     88  H17 ACE d   1      28.971  61.925 -21.711  0.00  0.00     0.033 H 
ATOM     89  H18 ACE d   1      29.620  63.366 -22.564  0.00  0.00     0.033 H 
ATOM     90  CZ  ACE d   1      27.893  60.723 -23.976  0.00  0.00    -0.065 C 
ATOM     91  H19 ACE d   1      29.967  61.256 -23.842  0.00  0.00     0.033 H 
ATOM     92  H20 ACE d   1      28.942  62.439 -24.724  0.00  0.00     0.033 H 
ATOM     93  CE1 ACE d   1      26.519  61.361 -23.862  0.00  0.00    -0.065 C 
ATOM     94  H21 ACE d   1      28.012  59.981 -23.173  0.00  0.00     0.033 H 
ATOM     95  H22 ACE d   1      27.977  60.223 -24.952  0.00  0.00     0.033 H 
ATOM     96  CD1 ACE d   1      26.397  62.185 -22.583  0.00  0.00    -0.062 C 
ATOM     97  H23 ACE d   1      25.756  60.569 -23.853  0.00  0.00     0.033 H 
ATOM     98  H24 ACE d   1      26.355  62.018 -24.729  0.00  0.00     0.033 H 
ATOM     99  H25 ACE d   1      25.411  62.672 -22.567  0.00  0.00     0.033 H 
ATOM    100  H26 ACE d   1      26.489  61.513 -21.717  0.00  0.00     0.033 H 
ATOM    101  H16 ACE d   1      27.371  63.905 -23.373  0.00  0.00     0.040 H 
ENDBRANCH  82  85
ENDBRANCH  55  82
ENDBRANCH   1  55
TORSDOF 24
