REMARK  24 active torsions:
REMARK  status: ('A' for Active; 'I' for Inactive)
REMARK    1  A    between atoms: C_1  and  CH3_3 
REMARK       I    between atoms: C_1  and  N_4 
REMARK    2  A    between atoms: N_4  and  CA_5 
REMARK    3  A    between atoms: CA_5  and  C_6 
REMARK    4  A    between atoms: CA_5  and  CB_8 
REMARK       I    between atoms: C_6  and  N_13 
REMARK    5  A    between atoms: CB_8  and  CG_9 
REMARK    6  A    between atoms: CG_9  and  CD_10 
REMARK       I    between atoms: CD_10  and  NE2_12 
REMARK    7  A    between atoms: N_13  and  CA_14 
REMARK    8  A    between atoms: CA_14  and  C_15 
REMARK    9  A    between atoms: CA_14  and  CB_17 
REMARK       I    between atoms: C_15  and  N_24 
REMARK   10  A    between atoms: CB_17  and  CG_18 
REMARK   11  A    between atoms: N_24  and  CA_25 
REMARK   12  A    between atoms: CA_25  and  C_26 
REMARK   13  A    between atoms: CA_25  and  CB_28 
REMARK       I    between atoms: C_26  and  N_32 
REMARK   14  A    between atoms: CB_28  and  CG_29 
REMARK   15  A    between atoms: N_32  and  CA_33 
REMARK   16  A    between atoms: CA_33  and  C_34 
REMARK   17  A    between atoms: CA_33  and  CB_36 
REMARK       I    between atoms: C_34  and  N_40 
REMARK   18  A    between atoms: CB_36  and  CG_37 
REMARK   19  A    between atoms: CG_37  and  CD1_38 
REMARK   20  A    between atoms: CG_37  and  CD2_39 
REMARK   21  A    between atoms: N_40  and  CA_41 
REMARK   22  A    between atoms: CA_41  and  C_42 
REMARK   23  A    between atoms: CA_41  and  CB_44 
REMARK   24  A    between atoms: CB_44  and  CG_45 
ROOT
ATOM      1  C   ACE d   1      13.626  -7.982 -18.467  0.00  0.00     0.241 C 
ATOM      2  O   ACE d   1      12.840  -7.986 -17.531  0.00  0.00    -0.271 OA
ATOM      3  N   ACE d   1      14.120  -6.843 -18.948  0.00  0.00    -0.346 N 
ATOM      4  H27 ACE d   1      14.779  -6.864 -19.700  0.00  0.00     0.163 HD
ENDROOT
BRANCH   3   5
ATOM      5  CA  ACE d   1      13.701  -5.557 -18.379  0.00  0.00     0.098 C 
ATOM      6  H28 ACE d   1      13.402  -5.737 -17.336  0.00  0.00     0.088 H 
BRANCH   5   7
ATOM      7  C   ACE d   1      12.532  -4.931 -19.113  0.00  0.00     0.241 C 
ATOM      8  O   ACE d   1      12.520  -4.876 -20.342  0.00  0.00    -0.271 OA
ATOM      9  N   ACE d   1      11.590  -4.386 -18.340  0.00  0.00    -0.346 N 
ATOM     10  H31 ACE d   1      11.597  -4.560 -17.355  0.00  0.00     0.163 HD
BRANCH   9  11
ATOM     11  CA  ACE d   1      10.552  -3.540 -18.915  0.00  0.00     0.089 C 
ATOM     12  H32 ACE d   1      10.067  -4.088 -19.736  0.00  0.00     0.087 H 
BRANCH  11  13
ATOM     13  C   ACE d   1      11.139  -2.248 -19.468  0.00  0.00     0.241 C 
ATOM     14  O   ACE d   1      10.707  -1.760 -20.518  0.00  0.00    -0.271 OA
ATOM     15  N   ACE d   1      12.099  -1.665 -18.763  0.00  0.00    -0.344 N 
ATOM     16  H42 ACE d   1      12.421  -2.103 -17.924  0.00  0.00     0.163 HD
BRANCH  15  17
ATOM     17  CA  ACE d   1      12.695  -0.408 -19.177  0.00  0.00     0.100 C 
ATOM     18  H43 ACE d   1      12.787  -0.409 -20.273  0.00  0.00     0.090 H 
BRANCH  17  19
ATOM     19  C   ACE d   1      14.084  -0.274 -18.578  0.00  0.00     0.197 C 
ATOM     20  O   ACE d   1      14.836   0.642 -18.915  0.00  0.00    -0.646 OA
ATOM     21  OXT ACE d   1      14.475  -1.088 -17.738  0.00  0.00    -0.646 OA
ENDBRANCH  17  19
BRANCH  17  22
ATOM     22  CB  ACE d   1      11.805   0.776 -18.769  0.00  0.00    -0.013 C 
ATOM     23  H44 ACE d   1      10.903   0.764 -19.398  0.00  0.00     0.043 H 
ATOM     24  H45 ACE d   1      12.364   1.706 -18.948  0.00  0.00     0.043 H 
BRANCH  22  25
ATOM     25  CG  ACE d   1      11.376   0.751 -17.326  0.00  0.00    -0.056 A 
ATOM     26  CD1 ACE d   1      12.218   1.218 -16.326  0.00  0.00    -0.077 A 
ATOM     27  CE1 ACE d   1      11.826   1.189 -14.999  0.00  0.00    -0.082 A 
ATOM     28  H46 ACE d   1      13.194   1.610 -16.588  0.00  0.00     0.084 H 
ATOM     29  CZ  ACE d   1      10.584   0.701 -14.660  0.00  0.00    -0.083 A 
ATOM     30  H48 ACE d   1      12.496   1.550 -14.227  0.00  0.00     0.083 H 
ATOM     31  CE2 ACE d   1       9.731   0.237 -15.647  0.00  0.00    -0.082 A 
ATOM     32  H50 ACE d   1      10.274   0.680 -13.621  0.00  0.00     0.083 H 
ATOM     33  CD2 ACE d   1      10.129   0.261 -16.969  0.00  0.00    -0.077 A 
ATOM     34  H49 ACE d   1       8.752  -0.145 -15.382  0.00  0.00     0.083 H 
ATOM     35  H47 ACE d   1       9.459  -0.108 -17.737  0.00  0.00     0.084 H 
ENDBRANCH  22  25
ENDBRANCH  17  22
ENDBRANCH  15  17
ENDBRANCH  11  13
BRANCH  11  36
ATOM     36  CB  ACE d   1       9.503  -3.202 -17.854  0.00  0.00    -0.035 C 
ATOM     37  H33 ACE d   1       9.190  -2.162 -18.029  0.00  0.00     0.037 H 
ATOM     38  H34 ACE d   1       9.999  -3.276 -16.875  0.00  0.00     0.037 H 
BRANCH  36  39
ATOM     39  CG  ACE d   1       8.240  -4.040 -17.778  0.00  0.00    -0.059 C 
ATOM     40  H35 ACE d   1       8.516  -5.061 -17.476  0.00  0.00     0.038 H 
BRANCH  39  41
ATOM     41  CD1 ACE d   1       7.286  -3.473 -16.724  0.00  0.00    -0.073 C 
ATOM     42  H36 ACE d   1       6.377  -4.091 -16.682  0.00  0.00     0.028 H 
ATOM     43  H37 ACE d   1       7.015  -2.441 -16.992  0.00  0.00     0.028 H 
ATOM     44  H38 ACE d   1       7.780  -3.479 -15.741  0.00  0.00     0.028 H 
ENDBRANCH  39  41
BRANCH  39  45
ATOM     45  CD2 ACE d   1       7.591  -4.108 -19.133  0.00  0.00    -0.073 C 
ATOM     46  H39 ACE d   1       8.305  -4.519 -19.861  0.00  0.00     0.028 H 
ATOM     47  H40 ACE d   1       7.289  -3.098 -19.446  0.00  0.00     0.028 H 
ATOM     48  H41 ACE d   1       6.704  -4.757 -19.083  0.00  0.00     0.028 H 
ENDBRANCH  39  45
ENDBRANCH  36  39
ENDBRANCH  11  36
ENDBRANCH   9  11
ENDBRANCH   5   7
BRANCH   5  49
ATOM     49  CB  ACE d   1      14.833  -4.539 -18.396  0.00  0.00     0.043 C 
ATOM     50  H29 ACE d   1      14.519  -3.653 -17.824  0.00  0.00     0.052 H 
ATOM     51  H30 ACE d   1      15.032  -4.251 -19.439  0.00  0.00     0.052 H 
BRANCH  49  52
ATOM     52  CG  ACE d   1      16.084  -5.067 -17.803  0.00  0.00     0.175 C 
ATOM     53  OD1 ACE d   1      16.117  -5.248 -16.568  0.00  0.00    -0.648 OA
ATOM     54  OD2 ACE d   1      17.023  -5.299 -18.590  0.00  0.00    -0.648 OA
ENDBRANCH  49  52
ENDBRANCH   5  49
ENDBRANCH   3   5
BRANCH   1  55
ATOM     55  CA  ACE d   1      14.086  -9.280 -19.201  0.00  0.00     0.089 C 
ATOM     56  H13 ACE d   1      15.155  -9.257 -19.460  0.00  0.00     0.087 H 
BRANCH  55  57
ATOM     57  N   ACE d   1      13.819 -10.404 -18.284  0.00  0.00    -0.346 N 
ATOM     58  C   ACE d   1      14.729 -10.851 -17.418  0.00  0.00     0.241 C 
ATOM     59  O   ACE d   1      15.842 -10.343 -17.284  0.00  0.00    -0.271 OA
ATOM     60  H12 ACE d   1      12.923 -10.847 -18.313  0.00  0.00     0.163 HD
BRANCH  58  61
ATOM     61  CA  ACE d   1      14.309 -12.016 -16.536  0.00  0.00     0.089 C 
ATOM     62  H5  ACE d   1      13.331 -12.380 -16.883  0.00  0.00     0.087 H 
BRANCH  61  63
ATOM     63  N   ACE d   1      15.253 -13.130 -16.595  0.00  0.00    -0.348 N 
ATOM     64  C   ACE d   1      15.615 -13.739 -17.724  0.00  0.00     0.214 C 
ATOM     65  O   ACE d   1      15.220 -13.421 -18.810  0.00  0.00    -0.274 OA
ATOM     66  H4  ACE d   1      15.651 -13.455 -15.737  0.00  0.00     0.163 HD
BRANCH  64  67
ATOM     67  CH3 ACE d   1      16.601 -14.889 -17.577  0.00  0.00    -0.003 C 
ATOM     68  H1  ACE d   1      16.844 -15.030 -16.514  0.00  0.00     0.040 H 
ATOM     69  H2  ACE d   1      17.520 -14.658 -18.136  0.00  0.00     0.040 H 
ATOM     70  H3  ACE d   1      16.152 -15.810 -17.976  0.00  0.00     0.040 H 
ENDBRANCH  64  67
ENDBRANCH  61  63
BRANCH  61  71
ATOM     71  CB  ACE d   1      14.166 -11.508 -15.102  0.00  0.00    -0.030 C 
ATOM     72  H6  ACE d   1      15.140 -11.128 -14.760  0.00  0.00     0.037 H 
ATOM     73  H7  ACE d   1      13.851 -12.343 -14.458  0.00  0.00     0.037 H 
BRANCH  71  74
ATOM     74  CG  ACE d   1      13.152 -10.407 -15.000  0.00  0.00     0.011 C 
ATOM     75  H8  ACE d   1      13.461  -9.573 -15.648  0.00  0.00     0.047 H 
ATOM     76  H9  ACE d   1      13.101 -10.062 -13.957  0.00  0.00     0.047 H 
BRANCH  74  77
ATOM     77  CD  ACE d   1      11.773 -10.885 -15.432  0.00  0.00     0.215 C 
ATOM     78  OE1 ACE d   1      11.290 -11.922 -14.973  0.00  0.00    -0.274 OA
ATOM     79  NE2 ACE d   1      11.160 -10.155 -16.371  0.00  0.00    -0.370 N 
ATOM     80  H10 ACE d   1      10.252 -10.419 -16.696  0.00  0.00     0.159 HD
ATOM     81  H11 ACE d   1      11.610  -9.345 -16.748  0.00  0.00     0.159 HD
ENDBRANCH  74  77
ENDBRANCH  71  74
ENDBRANCH  61  71
ENDBRANCH  58  61
ENDBRANCH  55  57
BRANCH  55  82
ATOM     82  CB  ACE d   1      13.224  -9.266 -20.468  0.00  0.00    -0.035 C 
ATOM     83  H14 ACE d   1      13.118  -8.219 -20.789  0.00  0.00     0.037 H 
ATOM     84  H15 ACE d   1      12.236  -9.670 -20.205  0.00  0.00     0.037 H 
BRANCH  82  85
ATOM     85  CG  ACE d   1      13.752 -10.067 -21.659  0.00  0.00    -0.052 C 
ATOM     86  CD2 ACE d   1      15.228 -10.432 -21.563  0.00  0.00    -0.062 C 
ATOM     87  CE2 ACE d   1      15.721 -11.120 -22.832  0.00  0.00    -0.065 C 
ATOM     88  H17 ACE d   1      15.373 -11.111 -20.710  0.00  0.00     0.033 H 
ATOM     89  H18 ACE d   1      15.813  -9.514 -21.405  0.00  0.00     0.033 H 
ATOM     90  CZ  ACE d   1      14.899 -12.361 -23.141  0.00  0.00    -0.065 C 
ATOM     91  H19 ACE d   1      16.773 -11.411 -22.696  0.00  0.00     0.033 H 
ATOM     92  H20 ACE d   1      15.641 -10.418 -23.675  0.00  0.00     0.033 H 
ATOM     93  CE1 ACE d   1      13.417 -12.035 -23.217  0.00  0.00    -0.065 C 
ATOM     94  H21 ACE d   1      15.062 -13.106 -22.348  0.00  0.00     0.033 H 
ATOM     95  H22 ACE d   1      15.225 -12.776 -24.106  0.00  0.00     0.033 H 
ATOM     96  CD1 ACE d   1      12.941 -11.325 -21.950  0.00  0.00    -0.062 C 
ATOM     97  H23 ACE d   1      12.850 -12.970 -23.339  0.00  0.00     0.033 H 
ATOM     98  H24 ACE d   1      13.237 -11.381 -24.083  0.00  0.00     0.033 H 
ATOM     99  H25 ACE d   1      11.885 -11.045 -22.076  0.00  0.00     0.033 H 
ATOM    100  H26 ACE d   1      13.039 -12.015 -21.099  0.00  0.00     0.033 H 
ATOM    101  H16 ACE d   1      13.646  -9.410 -22.535  0.00  0.00     0.040 H 
ENDBRANCH  82  85
ENDBRANCH  55  82
ENDBRANCH   1  55
TORSDOF 24
