REMARK  24 active torsions:
REMARK  status: ('A' for Active; 'I' for Inactive)
REMARK    1  A    between atoms: C_1  and  CH3_3 
REMARK       I    between atoms: C_1  and  N_4 
REMARK    2  A    between atoms: N_4  and  CA_5 
REMARK    3  A    between atoms: CA_5  and  C_6 
REMARK    4  A    between atoms: CA_5  and  CB_8 
REMARK       I    between atoms: C_6  and  N_13 
REMARK    5  A    between atoms: CB_8  and  CG_9 
REMARK    6  A    between atoms: CG_9  and  CD_10 
REMARK       I    between atoms: CD_10  and  NE2_12 
REMARK    7  A    between atoms: N_13  and  CA_14 
REMARK    8  A    between atoms: CA_14  and  C_15 
REMARK    9  A    between atoms: CA_14  and  CB_17 
REMARK       I    between atoms: C_15  and  N_24 
REMARK   10  A    between atoms: CB_17  and  CG_18 
REMARK   11  A    between atoms: N_24  and  CA_25 
REMARK   12  A    between atoms: CA_25  and  C_26 
REMARK   13  A    between atoms: CA_25  and  CB_28 
REMARK       I    between atoms: C_26  and  N_32 
REMARK   14  A    between atoms: CB_28  and  CG_29 
REMARK   15  A    between atoms: N_32  and  CA_33 
REMARK   16  A    between atoms: CA_33  and  C_34 
REMARK   17  A    between atoms: CA_33  and  CB_36 
REMARK       I    between atoms: C_34  and  N_40 
REMARK   18  A    between atoms: CB_36  and  CG_37 
REMARK   19  A    between atoms: CG_37  and  CD1_38 
REMARK   20  A    between atoms: CG_37  and  CD2_39 
REMARK   21  A    between atoms: N_40  and  CA_41 
REMARK   22  A    between atoms: CA_41  and  C_42 
REMARK   23  A    between atoms: CA_41  and  CB_44 
REMARK   24  A    between atoms: CB_44  and  CG_45 
ROOT
ATOM      1  C   ACE d   1     -27.379 -13.959  47.841  0.00  0.00     0.241 C 
ATOM      2  O   ACE d   1     -27.381 -14.754  46.924  0.00  0.00    -0.271 OA
ATOM      3  N   ACE d   1     -27.729 -14.296  49.080  0.00  0.00    -0.346 N 
ATOM      4  H27 ACE d   1     -27.727 -13.592  49.791  0.00  0.00     0.163 HD
ENDROOT
BRANCH   3   5
ATOM      5  CA  ACE d   1     -28.116 -15.656  49.437  0.00  0.00     0.098 C 
ATOM      6  H28 ACE d   1     -27.984 -16.295  48.551  0.00  0.00     0.088 H 
BRANCH   5   7
ATOM      7  C   ACE d   1     -29.576 -15.727  49.870  0.00  0.00     0.241 C 
ATOM      8  O   ACE d   1     -30.120 -14.765  50.412  0.00  0.00    -0.271 OA
ATOM      9  N   ACE d   1     -30.207 -16.877  49.630  0.00  0.00    -0.346 N 
ATOM     10  H31 ACE d   1     -29.740 -17.601  49.122  0.00  0.00     0.163 HD
BRANCH   9  11
ATOM     11  CA  ACE d   1     -31.571 -17.089  50.101  0.00  0.00     0.089 C 
ATOM     12  H32 ACE d   1     -32.148 -16.172  49.912  0.00  0.00     0.087 H 
BRANCH  11  13
ATOM     13  C   ACE d   1     -31.606 -17.376  51.596  0.00  0.00     0.241 C 
ATOM     14  O   ACE d   1     -32.533 -16.947  52.293  0.00  0.00    -0.271 OA
ATOM     15  N   ACE d   1     -30.613 -18.100  52.099  0.00  0.00    -0.344 N 
ATOM     16  H42 ACE d   1     -29.873 -18.392  51.493  0.00  0.00     0.163 HD
BRANCH  15  17
ATOM     17  CA  ACE d   1     -30.566 -18.483  53.502  0.00  0.00     0.100 C 
ATOM     18  H43 ACE d   1     -30.903 -17.628  54.106  0.00  0.00     0.090 H 
BRANCH  17  19
ATOM     19  C   ACE d   1     -29.139 -18.829  53.913  0.00  0.00     0.197 C 
ATOM     20  O   ACE d   1     -28.867 -19.128  55.076  0.00  0.00    -0.646 OA
ATOM     21  OXT ACE d   1     -28.227 -18.817  53.087  0.00  0.00    -0.646 OA
ENDBRANCH  17  19
BRANCH  17  22
ATOM     22  CB  ACE d   1     -31.506 -19.664  53.771  0.00  0.00    -0.013 C 
ATOM     23  H44 ACE d   1     -32.542 -19.298  53.727  0.00  0.00     0.043 H 
ATOM     24  H45 ACE d   1     -31.296 -20.051  54.779  0.00  0.00     0.043 H 
BRANCH  22  25
ATOM     25  CG  ACE d   1     -31.362 -20.796  52.790  0.00  0.00    -0.056 A 
ATOM     26  CD1 ACE d   1     -30.469 -21.828  53.025  0.00  0.00    -0.077 A 
ATOM     27  CE1 ACE d   1     -30.340 -22.870  52.126  0.00  0.00    -0.082 A 
ATOM     28  H46 ACE d   1     -29.864 -21.819  53.925  0.00  0.00     0.084 H 
ATOM     29  CZ  ACE d   1     -31.107 -22.888  50.976  0.00  0.00    -0.083 A 
ATOM     30  H48 ACE d   1     -29.638 -23.672  52.322  0.00  0.00     0.083 H 
ATOM     31  CE2 ACE d   1     -32.000 -21.868  50.730  0.00  0.00    -0.082 A 
ATOM     32  H50 ACE d   1     -31.006 -23.703  50.269  0.00  0.00     0.083 H 
ATOM     33  CD2 ACE d   1     -32.128 -20.831  51.635  0.00  0.00    -0.077 A 
ATOM     34  H49 ACE d   1     -32.601 -21.879  49.828  0.00  0.00     0.083 H 
ATOM     35  H47 ACE d   1     -32.837 -20.035  51.439  0.00  0.00     0.084 H 
ENDBRANCH  22  25
ENDBRANCH  17  22
ENDBRANCH  15  17
ENDBRANCH  11  13
BRANCH  11  36
ATOM     36  CB  ACE d   1     -32.221 -18.239  49.334  0.00  0.00    -0.035 C 
ATOM     37  H33 ACE d   1     -32.862 -18.789  50.039  0.00  0.00     0.037 H 
ATOM     38  H34 ACE d   1     -31.416 -18.899  48.979  0.00  0.00     0.037 H 
BRANCH  36  39
ATOM     39  CG  ACE d   1     -33.075 -17.865  48.130  0.00  0.00    -0.059 C 
ATOM     40  H35 ACE d   1     -32.443 -17.368  47.380  0.00  0.00     0.038 H 
BRANCH  39  41
ATOM     41  CD1 ACE d   1     -33.676 -19.110  47.510  0.00  0.00    -0.073 C 
ATOM     42  H36 ACE d   1     -34.290 -18.828  46.642  0.00  0.00     0.028 H 
ATOM     43  H37 ACE d   1     -34.305 -19.623  48.253  0.00  0.00     0.028 H 
ATOM     44  H38 ACE d   1     -32.870 -19.784  47.185  0.00  0.00     0.028 H 
ENDBRANCH  39  41
BRANCH  39  45
ATOM     45  CD2 ACE d   1     -34.155 -16.903  48.577  0.00  0.00    -0.073 C 
ATOM     46  H39 ACE d   1     -33.690 -16.011  49.022  0.00  0.00     0.028 H 
ATOM     47  H40 ACE d   1     -34.797 -17.393  49.324  0.00  0.00     0.028 H 
ATOM     48  H41 ACE d   1     -34.763 -16.606  47.710  0.00  0.00     0.028 H 
ENDBRANCH  39  45
ENDBRANCH  36  39
ENDBRANCH  11  36
ENDBRANCH   9  11
ENDBRANCH   5   7
BRANCH   5  49
ATOM     49  CB  ACE d   1     -27.227 -16.190  50.564  0.00  0.00     0.043 C 
ATOM     50  H29 ACE d   1     -27.632 -17.154  50.904  0.00  0.00     0.052 H 
ATOM     51  H30 ACE d   1     -27.244 -15.471  51.396  0.00  0.00     0.052 H 
BRANCH  49  52
ATOM     52  CG  ACE d   1     -25.791 -16.394  50.130  0.00  0.00     0.175 C 
ATOM     53  OD1 ACE d   1     -25.569 -16.832  48.982  0.00  0.00    -0.648 OA
ATOM     54  OD2 ACE d   1     -24.882 -16.118  50.941  0.00  0.00    -0.648 OA
ENDBRANCH  49  52
ENDBRANCH   5  49
ENDBRANCH   3   5
BRANCH   1  55
ATOM     55  CA  ACE d   1     -26.983 -12.481  47.662  0.00  0.00     0.089 C 
ATOM     56  H13 ACE d   1     -26.209 -12.192  48.388  0.00  0.00     0.087 H 
BRANCH  55  57
ATOM     57  N   ACE d   1     -26.427 -12.350  46.302  0.00  0.00    -0.346 N 
ATOM     58  C   ACE d   1     -25.181 -12.717  46.016  0.00  0.00     0.241 C 
ATOM     59  O   ACE d   1     -24.431 -13.244  46.838  0.00  0.00    -0.271 OA
ATOM     60  H12 ACE d   1     -27.003 -11.975  45.575  0.00  0.00     0.163 HD
BRANCH  58  61
ATOM     61  CA  ACE d   1     -24.711 -12.449  44.589  0.00  0.00     0.089 C 
ATOM     62  H5  ACE d   1     -25.539 -11.986  44.032  0.00  0.00     0.087 H 
BRANCH  61  63
ATOM     63  N   ACE d   1     -23.581 -11.528  44.585  0.00  0.00    -0.348 N 
ATOM     64  C   ACE d   1     -23.711 -10.258  44.952  0.00  0.00     0.214 C 
ATOM     65  O   ACE d   1     -24.750  -9.788  45.302  0.00  0.00    -0.274 OA
ATOM     66  H4  ACE d   1     -22.683 -11.862  44.298  0.00  0.00     0.163 HD
BRANCH  64  67
ATOM     67  CH3 ACE d   1     -22.459  -9.426  44.896  0.00  0.00    -0.003 C 
ATOM     68  H1  ACE d   1     -21.620 -10.048  44.550  0.00  0.00     0.040 H 
ATOM     69  H2  ACE d   1     -22.235  -9.033  45.899  0.00  0.00     0.040 H 
ATOM     70  H3  ACE d   1     -22.606  -8.588  44.198  0.00  0.00     0.040 H 
ENDBRANCH  64  67
ENDBRANCH  61  63
BRANCH  61  71
ATOM     71  CB  ACE d   1     -24.335 -13.760  43.896  0.00  0.00    -0.030 C 
ATOM     72  H6  ACE d   1     -23.431 -14.158  44.380  0.00  0.00     0.037 H 
ATOM     73  H7  ACE d   1     -24.119 -13.542  42.840  0.00  0.00     0.037 H 
BRANCH  71  74
ATOM     74  CG  ACE d   1     -25.412 -14.827  43.950  0.00  0.00     0.011 C 
ATOM     75  H8  ACE d   1     -25.754 -14.929  44.990  0.00  0.00     0.047 H 
ATOM     76  H9  ACE d   1     -24.980 -15.780  43.611  0.00  0.00     0.047 H 
BRANCH  74  77
ATOM     77  CD  ACE d   1     -26.608 -14.498  43.076  0.00  0.00     0.215 C 
ATOM     78  OE1 ACE d   1     -26.502 -14.453  41.851  0.00  0.00    -0.274 OA
ATOM     79  NE2 ACE d   1     -27.754 -14.267  43.705  0.00  0.00    -0.370 N 
ATOM     80  H10 ACE d   1     -28.576 -14.045  43.181  0.00  0.00     0.159 HD
ATOM     81  H11 ACE d   1     -27.795 -14.315  44.703  0.00  0.00     0.159 HD
ENDBRANCH  74  77
ENDBRANCH  71  74
ENDBRANCH  61  71
ENDBRANCH  58  61
ENDBRANCH  55  57
BRANCH  55  82
ATOM     82  CB  ACE d   1     -28.256 -11.684  47.951  0.00  0.00    -0.035 C 
ATOM     83  H14 ACE d   1     -28.772 -12.160  48.798  0.00  0.00     0.037 H 
ATOM     84  H15 ACE d   1     -28.898 -11.730  47.059  0.00  0.00     0.037 H 
BRANCH  82  85
ATOM     85  CG  ACE d   1     -28.031 -10.213  48.298  0.00  0.00    -0.052 C 
ATOM     86  CD2 ACE d   1     -26.904 -10.036  49.309  0.00  0.00    -0.062 C 
ATOM     87  CE2 ACE d   1     -26.679  -8.571  49.668  0.00  0.00    -0.065 C 
ATOM     88  H17 ACE d   1     -25.976 -10.443  48.880  0.00  0.00     0.033 H 
ATOM     89  H18 ACE d   1     -27.159 -10.590  50.224  0.00  0.00     0.033 H 
ATOM     90  CZ  ACE d   1     -26.403  -7.740  48.429  0.00  0.00    -0.065 C 
ATOM     91  H19 ACE d   1     -25.819  -8.496  50.349  0.00  0.00     0.033 H 
ATOM     92  H20 ACE d   1     -27.578  -8.182  50.168  0.00  0.00     0.033 H 
ATOM     93  CE1 ACE d   1     -27.515  -7.903  47.411  0.00  0.00    -0.065 C 
ATOM     94  H21 ACE d   1     -25.453  -8.066  47.980  0.00  0.00     0.033 H 
ATOM     95  H22 ACE d   1     -26.329  -6.680  48.715  0.00  0.00     0.033 H 
ATOM     96  CD1 ACE d   1     -27.730  -9.373  47.064  0.00  0.00    -0.062 C 
ATOM     97  H23 ACE d   1     -27.248  -7.353  46.496  0.00  0.00     0.033 H 
ATOM     98  H24 ACE d   1     -28.447  -7.492  47.827  0.00  0.00     0.033 H 
ATOM     99  H25 ACE d   1     -28.576  -9.453  46.365  0.00  0.00     0.033 H 
ATOM    100  H26 ACE d   1     -26.820  -9.761  46.584  0.00  0.00     0.033 H 
ATOM    101  H16 ACE d   1     -28.959  -9.834  48.751  0.00  0.00     0.040 H 
ENDBRANCH  82  85
ENDBRANCH  55  82
ENDBRANCH   1  55
TORSDOF 24
