REMARK  24 active torsions:
REMARK  status: ('A' for Active; 'I' for Inactive)
REMARK    1  A    between atoms: C_1  and  CH3_3 
REMARK       I    between atoms: C_1  and  N_4 
REMARK    2  A    between atoms: N_4  and  CA_5 
REMARK    3  A    between atoms: CA_5  and  C_6 
REMARK    4  A    between atoms: CA_5  and  CB_8 
REMARK       I    between atoms: C_6  and  N_13 
REMARK    5  A    between atoms: CB_8  and  CG_9 
REMARK    6  A    between atoms: CG_9  and  CD_10 
REMARK       I    between atoms: CD_10  and  NE2_12 
REMARK    7  A    between atoms: N_13  and  CA_14 
REMARK    8  A    between atoms: CA_14  and  C_15 
REMARK    9  A    between atoms: CA_14  and  CB_17 
REMARK       I    between atoms: C_15  and  N_24 
REMARK   10  A    between atoms: CB_17  and  CG_18 
REMARK   11  A    between atoms: N_24  and  CA_25 
REMARK   12  A    between atoms: CA_25  and  C_26 
REMARK   13  A    between atoms: CA_25  and  CB_28 
REMARK       I    between atoms: C_26  and  N_32 
REMARK   14  A    between atoms: CB_28  and  CG_29 
REMARK   15  A    between atoms: N_32  and  CA_33 
REMARK   16  A    between atoms: CA_33  and  C_34 
REMARK   17  A    between atoms: CA_33  and  CB_36 
REMARK       I    between atoms: C_34  and  N_40 
REMARK   18  A    between atoms: CB_36  and  CG_37 
REMARK   19  A    between atoms: CG_37  and  CD1_38 
REMARK   20  A    between atoms: CG_37  and  CD2_39 
REMARK   21  A    between atoms: N_40  and  CA_41 
REMARK   22  A    between atoms: CA_41  and  C_42 
REMARK   23  A    between atoms: CA_41  and  CB_44 
REMARK   24  A    between atoms: CB_44  and  CG_45 
ROOT
ATOM      1  C   ACE d   1      -0.322 -18.962  27.153  0.00  0.00     0.241 C 
ATOM      2  O   ACE d   1      -0.047 -17.991  26.478  0.00  0.00    -0.271 OA
ATOM      3  N   ACE d   1      -0.934 -18.864  28.330  0.00  0.00    -0.346 N 
ATOM      4  H27 ACE d   1      -1.065 -19.690  28.878  0.00  0.00     0.163 HD
ENDROOT
BRANCH   3   5
ATOM      5  CA  ACE d   1      -1.421 -17.588  28.848  0.00  0.00     0.098 C 
ATOM      6  H28 ACE d   1      -1.360 -16.851  28.034  0.00  0.00     0.088 H 
BRANCH   5   7
ATOM      7  C   ACE d   1      -0.608 -17.053  30.021  0.00  0.00     0.241 C 
ATOM      8  O   ACE d   1      -0.094 -17.823  30.829  0.00  0.00    -0.271 OA
ATOM      9  N   ACE d   1      -0.507 -15.723  30.104  0.00  0.00    -0.346 N 
ATOM     10  H31 ACE d   1      -0.892 -15.151  29.380  0.00  0.00     0.163 HD
BRANCH   9  11
ATOM     11  CA  ACE d   1       0.160 -15.097  31.241  0.00  0.00     0.089 C 
ATOM     12  H32 ACE d   1       1.131 -15.593  31.387  0.00  0.00     0.087 H 
BRANCH  11  13
ATOM     13  C   ACE d   1      -0.656 -15.256  32.518  0.00  0.00     0.241 C 
ATOM     14  O   ACE d   1      -0.100 -15.525  33.589  0.00  0.00    -0.271 OA
ATOM     15  N   ACE d   1      -1.971 -15.083  32.426  0.00  0.00    -0.344 N 
ATOM     16  H42 ACE d   1      -2.374 -14.885  31.532  0.00  0.00     0.163 HD
BRANCH  15  17
ATOM     17  CA  ACE d   1      -2.841 -15.174  33.591  0.00  0.00     0.100 C 
ATOM     18  H43 ACE d   1      -2.378 -15.868  34.308  0.00  0.00     0.090 H 
BRANCH  17  19
ATOM     19  C   ACE d   1      -4.216 -15.723  33.221  0.00  0.00     0.197 C 
ATOM     20  O   ACE d   1      -4.654 -16.775  33.698  0.00  0.00    -0.646 OA
ATOM     21  OXT ACE d   1      -4.918 -15.121  32.422  0.00  0.00    -0.646 OA
ENDBRANCH  17  19
BRANCH  17  22
ATOM     22  CB  ACE d   1      -2.979 -13.800  34.269  0.00  0.00    -0.013 C 
ATOM     23  H44 ACE d   1      -2.058 -13.603  34.837  0.00  0.00     0.043 H 
ATOM     24  H45 ACE d   1      -3.834 -13.842  34.960  0.00  0.00     0.043 H 
BRANCH  22  25
ATOM     25  CG  ACE d   1      -3.200 -12.647  33.311  0.00  0.00    -0.056 A 
ATOM     26  CD1 ACE d   1      -4.476 -12.173  33.044  0.00  0.00    -0.077 A 
ATOM     27  CE1 ACE d   1      -4.671 -11.104  32.180  0.00  0.00    -0.082 A 
ATOM     28  H46 ACE d   1      -5.331 -12.643  33.516  0.00  0.00     0.084 H 
ATOM     29  CZ  ACE d   1      -3.587 -10.501  31.576  0.00  0.00    -0.083 A 
ATOM     30  H48 ACE d   1      -5.674 -10.744  31.980  0.00  0.00     0.083 H 
ATOM     31  CE2 ACE d   1      -2.314 -10.956  31.841  0.00  0.00    -0.082 A 
ATOM     32  H50 ACE d   1      -3.737  -9.671  30.895  0.00  0.00     0.083 H 
ATOM     33  CD2 ACE d   1      -2.124 -12.015  32.707  0.00  0.00    -0.077 A 
ATOM     34  H49 ACE d   1      -1.461 -10.482  31.369  0.00  0.00     0.083 H 
ATOM     35  H47 ACE d   1      -1.117 -12.357  32.918  0.00  0.00     0.084 H 
ENDBRANCH  22  25
ENDBRANCH  17  22
ENDBRANCH  15  17
ENDBRANCH  11  13
BRANCH  11  36
ATOM     36  CB  ACE d   1       0.409 -13.616  30.959  0.00  0.00    -0.035 C 
ATOM     37  H33 ACE d   1       0.129 -13.062  31.867  0.00  0.00     0.037 H 
ATOM     38  H34 ACE d   1      -0.257 -13.327  30.132  0.00  0.00     0.037 H 
BRANCH  36  39
ATOM     39  CG  ACE d   1       1.818 -13.172  30.578  0.00  0.00    -0.059 C 
ATOM     40  H35 ACE d   1       2.539 -13.652  31.256  0.00  0.00     0.038 H 
BRANCH  39  41
ATOM     41  CD1 ACE d   1       2.129 -13.593  29.158  0.00  0.00    -0.073 C 
ATOM     42  H36 ACE d   1       3.146 -13.268  28.894  0.00  0.00     0.028 H 
ATOM     43  H37 ACE d   1       1.406 -13.129  28.471  0.00  0.00     0.028 H 
ATOM     44  H38 ACE d   1       2.061 -14.688  29.077  0.00  0.00     0.028 H 
ENDBRANCH  39  41
BRANCH  39  45
ATOM     45  CD2 ACE d   1       1.937 -11.666  30.722  0.00  0.00    -0.073 C 
ATOM     46  H39 ACE d   1       1.708 -11.378  31.759  0.00  0.00     0.028 H 
ATOM     47  H40 ACE d   1       1.228 -11.175  30.040  0.00  0.00     0.028 H 
ATOM     48  H41 ACE d   1       2.962 -11.354  30.472  0.00  0.00     0.028 H 
ENDBRANCH  39  45
ENDBRANCH  36  39
ENDBRANCH  11  36
ENDBRANCH   9  11
ENDBRANCH   5   7
BRANCH   5  49
ATOM     49  CB  ACE d   1      -2.888 -17.729  29.271  0.00  0.00     0.043 C 
ATOM     50  H29 ACE d   1      -3.192 -16.812  29.797  0.00  0.00     0.052 H 
ATOM     51  H30 ACE d   1      -2.977 -18.588  29.952  0.00  0.00     0.052 H 
BRANCH  49  52
ATOM     52  CG  ACE d   1      -3.820 -17.945  28.091  0.00  0.00     0.175 C 
ATOM     53  OD1 ACE d   1      -3.342 -18.349  27.015  0.00  0.00    -0.648 OA
ATOM     54  OD2 ACE d   1      -5.035 -17.709  28.244  0.00  0.00    -0.648 OA
ENDBRANCH  49  52
ENDBRANCH   5  49
ENDBRANCH   3   5
BRANCH   1  55
ATOM     55  CA  ACE d   1       0.021 -20.396  26.706  0.00  0.00     0.089 C 
ATOM     56  H13 ACE d   1      -0.749 -21.103  27.049  0.00  0.00     0.087 H 
BRANCH  55  57
ATOM     57  N   ACE d   1       0.046 -20.371  25.233  0.00  0.00    -0.346 N 
ATOM     58  C   ACE d   1      -0.912 -20.931  24.502  0.00  0.00     0.241 C 
ATOM     59  O   ACE d   1      -1.917 -21.445  24.994  0.00  0.00    -0.271 OA
ATOM     60  H12 ACE d   1       0.808 -19.919  24.769  0.00  0.00     0.163 HD
BRANCH  58  61
ATOM     61  CA  ACE d   1      -0.705 -20.909  22.989  0.00  0.00     0.089 C 
ATOM     62  H5  ACE d   1       0.375 -20.849  22.788  0.00  0.00     0.087 H 
BRANCH  61  63
ATOM     63  N   ACE d   1      -1.219 -22.130  22.375  0.00  0.00    -0.348 N 
ATOM     64  C   ACE d   1      -0.769 -23.346  22.681  0.00  0.00     0.214 C 
ATOM     65  O   ACE d   1       0.094 -23.546  23.481  0.00  0.00    -0.274 OA
ATOM     66  H4  ACE d   1      -1.944 -22.049  21.691  0.00  0.00     0.163 HD
BRANCH  64  67
ATOM     67  CH3 ACE d   1      -1.419 -24.490  21.943  0.00  0.00    -0.003 C 
ATOM     68  H1  ACE d   1      -2.183 -24.096  21.257  0.00  0.00     0.040 H 
ATOM     69  H2  ACE d   1      -1.891 -25.172  22.666  0.00  0.00     0.040 H 
ATOM     70  H3  ACE d   1      -0.656 -25.036  21.368  0.00  0.00     0.040 H 
ENDBRANCH  64  67
ENDBRANCH  61  63
BRANCH  61  71
ATOM     71  CB  ACE d   1      -1.381 -19.677  22.377  0.00  0.00    -0.030 C 
ATOM     72  H6  ACE d   1      -2.441 -19.686  22.669  0.00  0.00     0.037 H 
ATOM     73  H7  ACE d   1      -1.302 -19.750  21.282  0.00  0.00     0.037 H 
BRANCH  71  74
ATOM     74  CG  ACE d   1      -0.780 -18.346  22.810  0.00  0.00     0.011 C 
ATOM     75  H8  ACE d   1      -0.668 -18.350  23.904  0.00  0.00     0.047 H 
ATOM     76  H9  ACE d   1      -1.465 -17.538  22.514  0.00  0.00     0.047 H 
BRANCH  74  77
ATOM     77  CD  ACE d   1       0.577 -18.085  22.185  0.00  0.00     0.215 C 
ATOM     78  OE1 ACE d   1       0.733 -18.140  20.965  0.00  0.00    -0.274 OA
ATOM     79  NE2 ACE d   1       1.570 -17.801  23.021  0.00  0.00    -0.370 N 
ATOM     80  H10 ACE d   1       2.487 -17.620  22.665  0.00  0.00     0.159 HD
ATOM     81  H11 ACE d   1       1.401 -17.768  24.006  0.00  0.00     0.159 HD
ENDBRANCH  74  77
ENDBRANCH  71  74
ENDBRANCH  61  71
ENDBRANCH  58  61
ENDBRANCH  55  57
BRANCH  55  82
ATOM     82  CB  ACE d   1       1.366 -20.778  27.327  0.00  0.00    -0.035 C 
ATOM     83  H14 ACE d   1       1.516 -20.161  28.225  0.00  0.00     0.037 H 
ATOM     84  H15 ACE d   1       2.157 -20.558  26.595  0.00  0.00     0.037 H 
BRANCH  82  85
ATOM     85  CG  ACE d   1       1.488 -22.247  27.732  0.00  0.00    -0.052 C 
ATOM     86  CD2 ACE d   1       0.551 -23.149  26.935  0.00  0.00    -0.062 C 
ATOM     87  CE2 ACE d   1       0.681 -24.613  27.340  0.00  0.00    -0.065 C 
ATOM     88  H17 ACE d   1       0.792 -23.054  25.866  0.00  0.00     0.033 H 
ATOM     89  H18 ACE d   1      -0.486 -22.824  27.108  0.00  0.00     0.033 H 
ATOM     90  CZ  ACE d   1       2.109 -25.093  27.189  0.00  0.00    -0.065 C 
ATOM     91  H19 ACE d   1       0.027 -25.223  26.700  0.00  0.00     0.033 H 
ATOM     92  H20 ACE d   1       0.373 -24.724  28.390  0.00  0.00     0.033 H 
ATOM     93  CE1 ACE d   1       3.058 -24.219  27.982  0.00  0.00    -0.065 C 
ATOM     94  H21 ACE d   1       2.390 -25.059  26.126  0.00  0.00     0.033 H 
ATOM     95  H22 ACE d   1       2.182 -26.128  27.554  0.00  0.00     0.033 H 
ATOM     96  CD1 ACE d   1       2.919 -22.753  27.585  0.00  0.00    -0.062 C 
ATOM     97  H23 ACE d   1       4.091 -24.546  27.792  0.00  0.00     0.033 H 
ATOM     98  H24 ACE d   1       2.832 -24.324  29.053  0.00  0.00     0.033 H 
ATOM     99  H25 ACE d   1       3.576 -22.149  28.228  0.00  0.00     0.033 H 
ATOM    100  H26 ACE d   1       3.228 -22.640  26.535  0.00  0.00     0.033 H 
ATOM    101  H16 ACE d   1       1.207 -22.321  28.793  0.00  0.00     0.040 H 
ENDBRANCH  82  85
ENDBRANCH  55  82
ENDBRANCH   1  55
TORSDOF 24
