REMARK WARNING: 32 MAX_TORS EXCEEDED!!!
REMARK  38 active torsions:
REMARK  status: ('A' for Active; 'I' for Inactive)
REMARK    1  A    between atoms: O6_22  and  C1_1 
REMARK    2  A    between atoms: C2_2  and  O2_7 
REMARK    3  A    between atoms: C3_3  and  O3_8 
REMARK    4  A    between atoms: C4_4  and  O4_9 
REMARK    5  A    between atoms: C5_5  and  C6_6 
REMARK    6  A    between atoms: C2_11  and  N2_18 
REMARK    7  A    between atoms: C3_12  and  O3_19 
REMARK    8  A    between atoms: O4_20  and  C4_13 
REMARK    9  A    between atoms: C5_14  and  C6_15 
REMARK   10  A    between atoms: C6_15  and  O6_22 
REMARK   11  A    between atoms: C7_16  and  C8_17 
REMARK       I    between atoms: N2_18  and  C7_16 
REMARK   12  A    between atoms: C1_26  and  O4_20 
REMARK   13  A    between atoms: C1_23  and  N1_25 
REMARK   14  A    between atoms: C2_27  and  N2_34 
REMARK   15  A    between atoms: C3_28  and  O3_35 
REMARK   16  A    between atoms: O4_36  and  C4_29 
REMARK   17  A    between atoms: C5_30  and  C6_31 
REMARK   18  A    between atoms: C6_31  and  O6_38 
REMARK   19  A    between atoms: C7_32  and  C8_33 
REMARK       I    between atoms: N2_34  and  C7_32 
REMARK   20  A    between atoms: C1_40  and  O4_36 
REMARK   21  A    between atoms: C2_41  and  O2_46 
REMARK   22  A    between atoms: C3_42  and  O3_47 
REMARK   23  A    between atoms: C4_43  and  O4_48 
REMARK   24  A    between atoms: C6_45  and  C5_44 
REMARK   25  A    between atoms: O6_50  and  C6_45 
REMARK   26  A    between atoms: C1_51  and  O6_50 
REMARK   27  A    between atoms: O2_57  and  C2_52 
REMARK   28  A    between atoms: C3_53  and  O3_58 
REMARK   29  A    between atoms: C4_54  and  O4_59 
REMARK   30  A    between atoms: C5_55  and  C6_56 
REMARK   31  A    between atoms: C6_56  and  O6_61 
REMARK   32  A    between atoms: C1_62  and  O2_57 
REMARK   33  A    between atoms: N2_70  and  C2_63 
REMARK   34  A    between atoms: C3_64  and  O3_71 
REMARK   35  A    between atoms: C4_65  and  O4_72 
REMARK   36  A    between atoms: C5_66  and  C6_67 
REMARK   37  A    between atoms: C6_67  and  O6_74 
REMARK   38  A    between atoms: C7_68  and  C8_69 
REMARK       I    between atoms: C7_68  and  N2_70 
ROOT
ATOM      1  H27 FUC d   1       9.278 -35.106  -1.277  0.00  0.00     0.132 H 
ATOM      2  H28 FUC d   1       7.363 -36.978  -2.721  0.00  0.00     0.084 H 
ATOM      3  H29 FUC d   1       8.293 -34.201  -3.592  0.00  0.00     0.090 H 
ATOM      4  H30 FUC d   1       5.569 -34.985  -2.483  0.00  0.00     0.091 H 
ATOM      5  H31 FUC d   1       7.878 -33.347  -1.333  0.00  0.00     0.090 H 
ATOM      6  C1  NAG d   1       8.431 -35.807  -1.270  0.00  0.00     0.154 C 
ATOM      7  C2  NAG d   1       8.087 -36.150  -2.705  0.00  0.00     0.087 C 
ATOM      8  C3  NAG d   1       7.501 -34.942  -3.411  0.00  0.00     0.087 C 
ATOM      9  C4  NAG d   1       6.416 -34.289  -2.577  0.00  0.00     0.095 C 
ATOM     10  C5  NAG d   1       6.980 -33.969  -1.203  0.00  0.00     0.089 C 
ATOM     11  O5  NAG d   1       7.363 -35.188  -0.562  0.00  0.00    -0.349 OA
ENDROOT
BRANCH   9  12
ATOM     12  O4  NAG d   1       5.952 -33.050  -3.155  0.00  0.00    -0.348 OA
BRANCH  12  13
ATOM     13  C1  BMA d   1       4.724 -33.303  -3.852  0.00  0.00     0.159 C 
ATOM     14  C2  BMA d   1       3.888 -32.047  -4.086  0.00  0.00     0.110 C 
ATOM     15  C3  BMA d   1       2.615 -32.486  -4.835  0.00  0.00     0.092 C 
ATOM     16  H41 FUC d   1       3.609 -31.605  -3.118  0.00  0.00     0.094 H 
ATOM     17  C4  BMA d   1       3.035 -33.159  -6.151  0.00  0.00     0.090 C 
ATOM     18  H42 FUC d   1       2.095 -33.236  -4.221  0.00  0.00     0.091 H 
ATOM     19  C5  BMA d   1       3.795 -34.426  -5.770  0.00  0.00     0.089 C 
ATOM     20  H43 FUC d   1       3.722 -32.480  -6.678  0.00  0.00     0.091 H 
ATOM     21  O5  BMA d   1       4.990 -33.935  -5.116  0.00  0.00    -0.348 OA
ATOM     22  H44 FUC d   1       3.193 -35.012  -5.060  0.00  0.00     0.090 H 
ATOM     23  H40 FUC d   1       4.129 -33.993  -3.236  0.00  0.00     0.133 H 
BRANCH  14  24
ATOM     24  O2  BMA d   1       4.633 -31.073  -4.840  0.00  0.00    -0.388 OA
ATOM     25  H47 FUC d   1       4.888 -31.448  -5.675  0.00  0.00     0.210 HD
ENDBRANCH  14  24
BRANCH  15  26
ATOM     26  O3  BMA d   1       1.710 -31.388  -5.025  0.00  0.00    -0.390 OA
ATOM     27  H48 FUC d   1       0.921 -31.700  -5.453  0.00  0.00     0.210 HD
ENDBRANCH  15  26
BRANCH  17  28
ATOM     28  O4  BMA d   1       1.956 -33.444  -7.046  0.00  0.00    -0.390 OA
ATOM     29  H49 FUC d   1       1.504 -32.637  -7.263  0.00  0.00     0.210 HD
ENDBRANCH  17  28
BRANCH  19  30
ATOM     30  C6  BMA d   1       4.139 -35.332  -6.953  0.00  0.00     0.049 C 
ATOM     31  H45 FUC d   1       3.215 -35.691  -7.430  0.00  0.00     0.078 H 
ATOM     32  H46 FUC d   1       4.731 -36.192  -6.606  0.00  0.00     0.078 H 
BRANCH  30  33
ATOM     33  O6  BMA d   1       4.907 -34.557  -7.894  0.00  0.00    -0.356 OA
BRANCH  33  34
ATOM     34  C1  MAN d   1       4.968 -35.213  -9.180  0.00  0.00     0.159 C 
ATOM     35  C2  MAN d   1       6.164 -34.677  -9.972  0.00  0.00     0.116 C 
ATOM     36  C3  MAN d   1       6.030 -33.204 -10.331  0.00  0.00     0.092 C 
ATOM     37  H51 FUC d   1       7.093 -34.843  -9.407  0.00  0.00     0.095 H 
ATOM     38  C4  MAN d   1       4.714 -32.985 -11.063  0.00  0.00     0.090 C 
ATOM     39  H52 FUC d   1       6.057 -32.597  -9.414  0.00  0.00     0.091 H 
ATOM     40  C5  MAN d   1       3.545 -33.592 -10.277  0.00  0.00     0.089 C 
ATOM     41  H53 FUC d   1       4.766 -33.487 -12.041  0.00  0.00     0.091 H 
ATOM     42  O5  MAN d   1       3.779 -34.988  -9.955  0.00  0.00    -0.348 OA
ATOM     43  H54 FUC d   1       3.434 -33.035  -9.335  0.00  0.00     0.090 H 
ATOM     44  H50 FUC d   1       5.090 -36.294  -9.019  0.00  0.00     0.133 H 
BRANCH  35  45
ATOM     45  O2  MAN d   1       6.175 -35.386 -11.209  0.00  0.00    -0.346 OA
BRANCH  45  46
ATOM     46  C1  NAG d   1       7.433 -35.990 -11.534  0.00  0.00     0.154 C 
ATOM     47  C2  NAG d   1       7.148 -37.299 -12.276  0.00  0.00     0.087 C 
ATOM     48  C3  NAG d   1       8.448 -37.906 -12.784  0.00  0.00     0.086 C 
ATOM     49  H61 FUC d   1       6.484 -37.112 -13.133  0.00  0.00     0.084 H 
ATOM     50  C4  NAG d   1       9.270 -36.865 -13.547  0.00  0.00     0.089 C 
ATOM     51  H62 FUC d   1       9.030 -38.232 -11.910  0.00  0.00     0.090 H 
ATOM     52  C5  NAG d   1       9.468 -35.593 -12.707  0.00  0.00     0.089 C 
ATOM     53  H63 FUC d   1       8.745 -36.595 -14.475  0.00  0.00     0.091 H 
ATOM     54  O5  NAG d   1       8.202 -35.055 -12.295  0.00  0.00    -0.349 OA
ATOM     55  H64 FUC d   1      10.048 -35.867 -11.814  0.00  0.00     0.090 H 
ATOM     56  H60 FUC d   1       7.982 -36.223 -10.610  0.00  0.00     0.132 H 
BRANCH  47  57
ATOM     57  N2  NAG d   1       6.475 -38.159 -11.312  0.00  0.00    -0.349 N 
ATOM     58  C7  NAG d   1       5.136 -38.287 -11.220  0.00  0.00     0.214 C 
ATOM     59  O7  NAG d   1       4.347 -37.716 -11.969  0.00  0.00    -0.274 OA
ATOM     60  H70 FUC d   1       7.041 -38.687 -10.679  0.00  0.00     0.163 HD
BRANCH  58  61
ATOM     61  C8  NAG d   1       4.634 -39.191 -10.122  0.00  0.00    -0.003 C 
ATOM     62  H67 FUC d   1       3.534 -39.218 -10.143  0.00  0.00     0.040 H 
ATOM     63  H68 FUC d   1       4.972 -38.808  -9.148  0.00  0.00     0.040 H 
ATOM     64  H69 FUC d   1       5.029 -40.206 -10.274  0.00  0.00     0.040 H 
ENDBRANCH  58  61
ENDBRANCH  47  57
BRANCH  48  65
ATOM     65  O3  NAG d   1       8.223 -39.055 -13.621  0.00  0.00    -0.391 OA
ATOM     66  H71 FUC d   1       9.058 -39.433 -13.869  0.00  0.00     0.210 HD
ENDBRANCH  48  65
BRANCH  50  67
ATOM     67  O4  NAG d   1      10.525 -37.466 -13.871  0.00  0.00    -0.390 OA
ATOM     68  H72 FUC d   1      10.376 -38.248 -14.389  0.00  0.00     0.210 HD
ENDBRANCH  50  67
BRANCH  52  69
ATOM     69  C6  NAG d   1      10.218 -34.481 -13.449  0.00  0.00     0.043 C 
ATOM     70  H65 FUC d   1      11.008 -34.941 -14.061  0.00  0.00     0.078 H 
ATOM     71  H66 FUC d   1      10.674 -33.811 -12.706  0.00  0.00     0.078 H 
BRANCH  69  72
ATOM     72  O6  NAG d   1       9.369 -33.700 -14.309  0.00  0.00    -0.398 OA
ATOM     73  H73 FUC d   1       8.687 -33.290 -13.791  0.00  0.00     0.209 HD
ENDBRANCH  69  72
ENDBRANCH  52  69
ENDBRANCH  45  46
ENDBRANCH  35  45
BRANCH  36  74
ATOM     74  O3  MAN d   1       7.095 -32.810 -11.207  0.00  0.00    -0.390 OA
ATOM     75  H57 FUC d   1       7.066 -33.338 -11.996  0.00  0.00     0.210 HD
ENDBRANCH  36  74
BRANCH  38  76
ATOM     76  O4  MAN d   1       4.534 -31.582 -11.281  0.00  0.00    -0.390 OA
ATOM     77  H58 FUC d   1       5.274 -31.241 -11.769  0.00  0.00     0.210 HD
ENDBRANCH  38  76
BRANCH  40  78
ATOM     78  C6  MAN d   1       2.257 -33.452 -11.083  0.00  0.00     0.043 C 
ATOM     79  H55 FUC d   1       2.389 -33.899 -12.079  0.00  0.00     0.078 H 
ATOM     80  H56 FUC d   1       1.997 -32.389 -11.190  0.00  0.00     0.078 H 
BRANCH  78  81
ATOM     81  O6  MAN d   1       1.212 -34.142 -10.373  0.00  0.00    -0.398 OA
ATOM     82  H59 FUC d   1       1.445 -35.058 -10.281  0.00  0.00     0.209 HD
ENDBRANCH  78  81
ENDBRANCH  40  78
ENDBRANCH  33  34
ENDBRANCH  30  33
ENDBRANCH  19  30
ENDBRANCH  12  13
ENDBRANCH   9  12
BRANCH   8  83
ATOM     83  O3  NAG d   1       7.002 -35.414  -4.654  0.00  0.00    -0.391 OA
ATOM     84  H38 FUC d   1       7.709 -35.815  -5.146  0.00  0.00     0.210 HD
ENDBRANCH   8  83
BRANCH  10  85
ATOM     85  C6  NAG d   1       5.989 -33.188  -0.353  0.00  0.00     0.043 C 
ATOM     86  H32 FUC d   1       5.024 -33.714  -0.307  0.00  0.00     0.078 H 
ATOM     87  H33 FUC d   1       5.838 -32.181  -0.768  0.00  0.00     0.078 H 
BRANCH  85  88
ATOM     88  O6  NAG d   1       6.578 -33.109   0.949  0.00  0.00    -0.398 OA
ATOM     89  H39 FUC d   1       6.711 -33.986   1.289  0.00  0.00     0.209 HD
ENDBRANCH  85  88
ENDBRANCH  10  85
BRANCH   7  90
ATOM     90  N2  NAG d   1       9.290 -36.531  -3.407  0.00  0.00    -0.349 N 
ATOM     91  C7  NAG d   1       9.664 -37.788  -3.612  0.00  0.00     0.214 C 
ATOM     92  O7  NAG d   1       9.026 -38.743  -3.227  0.00  0.00    -0.274 OA
ATOM     93  H37 FUC d   1       9.877 -35.803  -3.760  0.00  0.00     0.163 HD
BRANCH  91  94
ATOM     94  C8  NAG d   1      10.945 -37.985  -4.360  0.00  0.00    -0.003 C 
ATOM     95  H34 FUC d   1      11.146 -39.061  -4.466  0.00  0.00     0.040 H 
ATOM     96  H35 FUC d   1      11.769 -37.511  -3.807  0.00  0.00     0.040 H 
ATOM     97  H36 FUC d   1      10.861 -37.528  -5.357  0.00  0.00     0.040 H 
ENDBRANCH  91  94
ENDBRANCH   7  90
BRANCH   6  98
ATOM     98  O4  C4W d   1       8.831 -37.000  -0.624  0.00  0.00    -0.348 OA
BRANCH  98  99
ATOM     99  C4  C4W d   1       9.517 -36.749   0.597  0.00  0.00     0.095 C 
ATOM    100  C3  C4W d   1       8.595 -37.068   1.822  0.00  0.00     0.086 C 
ATOM    101  C2  C4W d   1       9.435 -37.229   3.107  0.00  0.00     0.088 C 
ATOM    102  H13 FUC d   1       8.079 -38.019   1.624  0.00  0.00     0.090 H 
ATOM    103  C1  C4W d   1      10.599 -38.216   2.801  0.00  0.00     0.212 C 
ATOM    104  H12 FUC d   1       9.822 -36.229   3.354  0.00  0.00     0.083 H 
ATOM    105  O5  C4W d   1      11.451 -37.668   1.791  0.00  0.00    -0.347 OA
ATOM    106  H23 FUC d   1      10.143 -39.135   2.404  0.00  0.00     0.132 H 
ATOM    107  C5  C4W d   1      10.782 -37.645   0.518  0.00  0.00     0.089 C 
ATOM    108  H15 FUC d   1      10.454 -38.661   0.253  0.00  0.00     0.090 H 
ATOM    109  H14 FUC d   1       9.817 -35.692   0.655  0.00  0.00     0.091 H 
BRANCH 100 110
ATOM    110  O3  C4W d   1       7.601 -36.049   2.006  0.00  0.00    -0.391 OA
ATOM    111  H22 FUC d   1       7.060 -35.991   1.227  0.00  0.00     0.210 HD
ENDBRANCH 100 110
BRANCH 101 112
ATOM    112  N2  C4W d   1       8.906 -37.813   4.325  0.00  0.00    -0.350 N 
ATOM    113  C7  C4W d   1       8.826 -37.570   5.665  0.00  0.00     0.214 C 
ATOM    114  O7  C4W d   1       9.084 -36.429   6.091  0.00  0.00    -0.274 OA
ATOM    115  H21 FUC d   1       8.450 -38.678   4.113  0.00  0.00     0.163 HD
BRANCH 113 116
ATOM    116  C8  C4W d   1       8.352 -38.706   6.591  0.00  0.00    -0.003 C 
ATOM    117  H18 FUC d   1       8.343 -38.351   7.632  0.00  0.00     0.040 H 
ATOM    118  H19 FUC d   1       9.037 -39.562   6.501  0.00  0.00     0.040 H 
ATOM    119  H20 FUC d   1       7.337 -39.016   6.301  0.00  0.00     0.040 H 
ENDBRANCH 113 116
ENDBRANCH 101 112
BRANCH 103 120
ATOM    120  N1  C4W d   1      11.431 -38.611   3.980  0.00  0.00    -0.051 N 
ATOM    121  H24 FUC d   1      12.154 -39.248   3.683  0.00  0.00     0.277 HD
ATOM    122  H25 FUC d   1      10.848 -39.062   4.667  0.00  0.00     0.277 HD
ATOM    123  H26 FUC d   1      11.852 -37.789   4.384  0.00  0.00     0.277 HD
ENDBRANCH 103 120
BRANCH 107 124
ATOM    124  C6  C4W d   1      11.838 -37.202  -0.481  0.00  0.00     0.049 C 
ATOM    125  H16 FUC d   1      11.398 -37.134  -1.487  0.00  0.00     0.078 H 
ATOM    126  H17 FUC d   1      12.670 -37.921  -0.492  0.00  0.00     0.078 H 
BRANCH 124 127
ATOM    127  O6  C4W d   1      12.312 -35.909  -0.064  0.00  0.00    -0.356 OA
BRANCH 127 128
ATOM    128  C1  FUC d   1      12.556 -35.053  -1.186  0.00  0.00     0.158 C 
ATOM    129  C2  FUC d   1      12.794 -33.658  -0.645  0.00  0.00     0.110 C 
ATOM    130  C3  FUC d   1      14.115 -33.634   0.123  0.00  0.00     0.092 C 
ATOM    131  H2  FUC d   1      12.867 -32.950  -1.483  0.00  0.00     0.094 H 
ATOM    132  C4  FUC d   1      15.249 -34.157  -0.776  0.00  0.00     0.087 C 
ATOM    133  H3  FUC d   1      14.030 -34.305   0.991  0.00  0.00     0.091 H 
ATOM    134  C5  FUC d   1      14.897 -35.572  -1.234  0.00  0.00     0.065 C 
ATOM    135  H4  FUC d   1      16.185 -34.177  -0.198  0.00  0.00     0.091 H 
ATOM    136  O5  FUC d   1      13.670 -35.509  -1.943  0.00  0.00    -0.351 OA
ATOM    137  H5  FUC d   1      14.786 -36.202  -0.339  0.00  0.00     0.086 H 
ATOM    138  H1  FUC d   1      11.670 -35.044  -1.837  0.00  0.00     0.133 H 
BRANCH 129 139
ATOM    139  O2  FUC d   1      11.666 -33.292   0.168  0.00  0.00    -0.388 OA
ATOM    140  H9  FUC d   1      10.875 -33.324  -0.357  0.00  0.00     0.210 HD
ENDBRANCH 129 139
BRANCH 130 141
ATOM    141  O3  FUC d   1      14.366 -32.316   0.605  0.00  0.00    -0.390 OA
ATOM    142  H10 FUC d   1      15.168 -32.313   1.113  0.00  0.00     0.210 HD
ENDBRANCH 130 141
BRANCH 132 143
ATOM    143  O4  FUC d   1      15.434 -33.329  -1.943  0.00  0.00    -0.390 OA
ATOM    144  H11 FUC d   1      15.654 -32.446  -1.671  0.00  0.00     0.210 HD
ENDBRANCH 132 143
BRANCH 134 145
ATOM    145  C6  FUC d   1      15.890 -36.243  -2.177  0.00  0.00    -0.050 C 
ATOM    146  H6  FUC d   1      15.529 -37.250  -2.434  0.00  0.00     0.031 H 
ATOM    147  H7  FUC d   1      16.870 -36.320  -1.683  0.00  0.00     0.031 H 
ATOM    148  H8  FUC d   1      15.987 -35.644  -3.094  0.00  0.00     0.031 H 
ENDBRANCH 134 145
ENDBRANCH 127 128
ENDBRANCH 124 127
ENDBRANCH 107 124
ENDBRANCH  98  99
ENDBRANCH   6  98
TORSDOF 38
