REMARK  7 active torsions:
REMARK  status: ('A' for Active; 'I' for Inactive)
REMARK    1  A    between atoms: C2_2  and  C1_1 
REMARK    2  A    between atoms: N3_9  and  C2_2 
REMARK    3  A    between atoms: O10_16  and  C11_3 
REMARK    4  A    between atoms: C14_6  and  C15_7 
REMARK    5  A    between atoms: C4_10  and  C14_6 
REMARK    6  A    between atoms: C15_7  and  C16_8 
REMARK    7  A    between atoms: C9_15  and  O10_16 
ROOT
ATOM      1  C12 EAE d   1      11.612  89.100  36.896  0.00  0.00    -0.024 A 
ATOM      2  C13 EAE d   1      10.833  90.266  36.803  0.00  0.00     0.055 A 
ATOM      3  N3  EAE d   1      11.086  91.422  36.129  0.00  0.00    -0.343 N 
ATOM      4  C4  EAE d   1      10.156  92.355  36.326  0.00  0.00     0.061 A 
ATOM      5  S5  EAE d   1       8.750  91.801  37.242  0.00  0.00    -0.074 SA
ATOM      6  C6  EAE d   1       9.606  90.303  37.445  0.00  0.00     0.033 A 
ATOM      7  C7  EAE d   1       9.112  89.227  38.191  0.00  0.00    -0.061 A 
ATOM      8  C8  EAE d   1       9.897  88.070  38.278  0.00  0.00    -0.049 A 
ATOM      9  C9  EAE d   1      11.148  88.000  37.637  0.00  0.00     0.070 A 
ATOM     10  H9  EAE d   1      12.572  89.049  36.395  0.00  0.00     0.091 H 
ATOM     11  H15 EAE d   1       8.150  89.287  38.687  0.00  0.00     0.085 H 
ATOM     12  H16 EAE d   1       9.537  87.219  38.845  0.00  0.00     0.087 H 
ENDROOT
BRANCH   4  13
ATOM     13  C14 EAE d   1      10.186  93.633  35.886  0.00  0.00     0.034 C 
ATOM     14  H10 EAE d   1      11.110  94.043  36.319  0.00  0.00     0.054 H 
ATOM     15  H11 EAE d   1      10.302  93.538  34.796  0.00  0.00     0.054 H 
BRANCH  13  16
ATOM     16  C15 EAE d   1       9.193  94.727  36.050  0.00  0.00     0.129 C 
ATOM     17  O17 EAE d   1       8.095  94.549  36.556  0.00  0.00    -0.298 OA
BRANCH  16  18
ATOM     18  C16 EAE d   1       9.534  96.116  35.569  0.00  0.00    -0.021 C 
ATOM     19  H12 EAE d   1       8.689  96.791  35.770  0.00  0.00     0.037 H 
ATOM     20  H13 EAE d   1       9.734  96.091  34.488  0.00  0.00     0.037 H 
ATOM     21  H14 EAE d   1      10.427  96.478  36.099  0.00  0.00     0.037 H 
ENDBRANCH  16  18
ENDBRANCH  13  16
ENDBRANCH   4  13
BRANCH   3  22
ATOM     22  C2  EAE d   1      12.247  91.559  35.223  0.00  0.00    -0.003 C 
ATOM     23  H4  EAE d   1      12.499  90.570  34.814  0.00  0.00     0.064 H 
ATOM     24  H5  EAE d   1      11.980  92.239  34.401  0.00  0.00     0.064 H 
BRANCH  22  25
ATOM     25  C1  EAE d   1      13.483  92.127  35.965  0.00  0.00    -0.061 C 
ATOM     26  H1  EAE d   1      14.324  92.215  35.262  0.00  0.00     0.029 H 
ATOM     27  H2  EAE d   1      13.761  91.450  36.786  0.00  0.00     0.029 H 
ATOM     28  H3  EAE d   1      13.242  93.119  36.373  0.00  0.00     0.029 H 
ENDBRANCH  22  25
ENDBRANCH   3  22
BRANCH   9  29
ATOM     29  O10 EAE d   1      11.954  86.849  37.713  0.00  0.00    -0.356 OA
BRANCH  29  30
ATOM     30  C11 EAE d   1      13.307  86.786  37.228  0.00  0.00     0.010 C 
ATOM     31  H6  EAE d   1      13.714  85.780  37.406  0.00  0.00     0.066 H 
ATOM     32  H7  EAE d   1      13.921  87.529  37.758  0.00  0.00     0.066 H 
ATOM     33  H8  EAE d   1      13.320  87.001  36.149  0.00  0.00     0.066 H 
ENDBRANCH  29  30
ENDBRANCH   9  29
TORSDOF 7
