REMARK  10 active torsions:
REMARK  status: ('A' for Active; 'I' for Inactive)
REMARK    1  A    between atoms: C1_1  and  C8_19 
REMARK    2  A    between atoms: C14_6  and  C17_7 
REMARK    3  A    between atoms: C18_8  and  C19_9 
REMARK    4  A    between atoms: O7_18  and  C18_8 
REMARK    5  A    between atoms: C19_9  and  C20_10 
REMARK    6  A    between atoms: C19_9  and  N24_24 
REMARK    7  A    between atoms: C20_10  and  C21_11 
REMARK    8  A    between atoms: C21_11  and  C22_12 
REMARK    9  A    between atoms: C21_11  and  C23_13 
REMARK   10  A    between atoms: C5_16  and  O7_18 
ROOT
ATOM      1  C1  EAZ d   1      -5.966  17.053  30.586  0.00  0.00    -0.006 A 
ATOM      2  C2  EAZ d   1      -4.578  17.121  30.766  0.00  0.00     0.013 A 
ATOM      3  N3  EAZ d   1      -3.831  15.995  30.795  0.00  0.00    -0.269 NA
ATOM      4  C4  EAZ d   1      -4.387  14.775  30.657  0.00  0.00     0.034 A 
ATOM      5  C5  EAZ d   1      -5.769  14.645  30.463  0.00  0.00     0.087 A 
ATOM      6  C6  EAZ d   1      -6.559  15.795  30.436  0.00  0.00    -0.037 A 
ATOM      7  H1  EAZ d   1      -4.099  18.086  30.883  0.00  0.00     0.116 H 
ATOM      8  H18 EAZ d   1      -3.762  13.890  30.696  0.00  0.00     0.119 H 
ATOM      9  H19 EAZ d   1      -7.631  15.713  30.299  0.00  0.00     0.089 H 
ENDROOT
BRANCH   5  10
ATOM     10  O7  EAZ d   1      -6.366  13.392  30.315  0.00  0.00    -0.348 OA
BRANCH  10  11
ATOM     11  C18 EAZ d   1      -7.636  13.139  29.696  0.00  0.00     0.052 C 
ATOM     12  H6  EAZ d   1      -8.438  13.682  30.216  0.00  0.00     0.078 H 
ATOM     13  H7  EAZ d   1      -7.619  13.435  28.637  0.00  0.00     0.078 H 
BRANCH  11  14
ATOM     14  C19 EAZ d   1      -7.830  11.608  29.835  0.00  0.00     0.121 C 
ATOM     15  H8  EAZ d   1      -8.769  11.325  29.337  0.00  0.00     0.087 H 
BRANCH  14  16
ATOM     16  C20 EAZ d   1      -7.899  11.163  31.320  0.00  0.00    -0.034 C 
ATOM     17  H9  EAZ d   1      -6.939  11.410  31.798  0.00  0.00     0.036 H 
ATOM     18  H10 EAZ d   1      -8.051  10.074  31.346  0.00  0.00     0.036 H 
BRANCH  16  19
ATOM     19  C21 EAZ d   1      -9.039  11.833  32.143  0.00  0.00    -0.059 C 
ATOM     20  H11 EAZ d   1      -9.826  12.164  31.449  0.00  0.00     0.038 H 
BRANCH  19  21
ATOM     21  C22 EAZ d   1      -9.637  10.793  33.127  0.00  0.00    -0.073 C 
ATOM     22  H12 EAZ d   1     -10.443  11.262  33.711  0.00  0.00     0.028 H 
ATOM     23  H13 EAZ d   1      -8.850  10.438  33.808  0.00  0.00     0.028 H 
ATOM     24  H14 EAZ d   1     -10.042   9.942  32.560  0.00  0.00     0.028 H 
ENDBRANCH  19  21
BRANCH  19  25
ATOM     25  C23 EAZ d   1      -8.524  13.070  32.932  0.00  0.00    -0.073 C 
ATOM     26  H15 EAZ d   1      -8.101  13.803  32.229  0.00  0.00     0.028 H 
ATOM     27  H16 EAZ d   1      -7.747  12.754  33.643  0.00  0.00     0.028 H 
ATOM     28  H17 EAZ d   1      -9.359  13.528  33.482  0.00  0.00     0.028 H 
ENDBRANCH  19  25
ENDBRANCH  16  19
ENDBRANCH  14  16
BRANCH  14  29
ATOM     29  N24 EAZ d   1      -6.703  10.915  29.180  0.00  0.00    -0.073 N 
ATOM     30  H23 EAZ d   1      -6.650  11.198  28.214  0.00  0.00     0.274 HD
ATOM     31  H24 EAZ d   1      -6.846   9.918  29.231  0.00  0.00     0.274 HD
ATOM     32  H25 EAZ d   1      -5.843  11.155  29.648  0.00  0.00     0.274 HD
ENDBRANCH  14  29
ENDBRANCH  11  14
ENDBRANCH  10  11
ENDBRANCH   5  10
BRANCH   1  33
ATOM     33  C8  EAZ d   1      -6.793  18.288  30.555  0.00  0.00    -0.023 A 
ATOM     34  C11 EAZ d   1      -6.208  19.511  30.161  0.00  0.00    -0.070 A 
ATOM     35  C10 EAZ d   1      -6.945  20.705  30.109  0.00  0.00    -0.054 A 
ATOM     36  H2  EAZ d   1      -5.158  19.529  29.890  0.00  0.00     0.084 H 
ATOM     37  C12 EAZ d   1      -8.284  20.629  30.479  0.00  0.00     0.062 A 
ATOM     38  H21 EAZ d   1      -6.493  21.639  29.796  0.00  0.00     0.087 H 
ATOM     39  C13 EAZ d   1      -8.859  19.429  30.874  0.00  0.00     0.019 A 
ATOM     40  N16 EAZ d   1      -9.188  21.623  30.516  0.00  0.00    -0.277 N 
ATOM     41  C14 EAZ d   1     -10.275  19.854  31.160  0.00  0.00     0.063 A 
ATOM     42  C9  EAZ d   1      -8.144  18.229  30.926  0.00  0.00    -0.058 A 
ATOM     43  N15 EAZ d   1     -10.364  21.107  30.936  0.00  0.00    -0.179 NA
ATOM     44  H20 EAZ d   1      -8.610  17.301  31.237  0.00  0.00     0.086 H 
ATOM     45  H22 EAZ d   1      -9.014  22.607  30.267  0.00  0.00     0.189 HD
BRANCH  41  46
ATOM     46  C17 EAZ d   1     -11.398  18.979  31.634  0.00  0.00    -0.033 C 
ATOM     47  H3  EAZ d   1     -12.310  19.584  31.751  0.00  0.00     0.035 H 
ATOM     48  H4  EAZ d   1     -11.130  18.530  32.602  0.00  0.00     0.035 H 
ATOM     49  H5  EAZ d   1     -11.578  18.182  30.897  0.00  0.00     0.035 H 
ENDBRANCH  41  46
ENDBRANCH   1  33
TORSDOF 10
