REMARK  3 active torsions:
REMARK  status: ('A' for Active; 'I' for Inactive)
REMARK    1  A    between atoms: C5_5  and  C23_23 
REMARK    2  A    between atoms: C10_10  and  N15_15 
REMARK    3  A    between atoms: N15_15  and  C16_16 
ROOT
ATOM      1  C1  3NG d   1      10.397  90.520  36.720  0.00  0.00     0.071 A 
ATOM      2  C2  3NG d   1       9.951  89.301  37.282  0.00  0.00     0.005 A 
ATOM      3  C3  3NG d   1       8.591  89.211  37.667  0.00  0.00    -0.069 A 
ATOM      4  C4  3NG d   1       7.714  90.288  37.507  0.00  0.00    -0.066 A 
ATOM      5  C5  3NG d   1       8.175  91.495  36.962  0.00  0.00     0.043 A 
ATOM      6  C6  3NG d   1       9.519  91.601  36.576  0.00  0.00    -0.038 A 
ATOM      7  C7  3NG d   1      12.223  88.466  36.991  0.00  0.00     0.024 A 
ATOM      8  C8  3NG d   1      10.885  88.257  37.412  0.00  0.00     0.008 A 
ATOM      9  N9  3NG d   1      11.692  90.700  36.324  0.00  0.00    -0.230 NA
ATOM     10  C10 3NG d   1      12.614  89.705  36.437  0.00  0.00     0.140 A 
ATOM     11  C11 3NG d   1      12.758  86.191  37.661  0.00  0.00     0.003 A 
ATOM     12  N12 3NG d   1      11.475  86.005  38.052  0.00  0.00    -0.272 NA
ATOM     13  C13 3NG d   1      10.554  86.988  37.935  0.00  0.00     0.013 A 
ATOM     14  C14 3NG d   1      13.153  87.418  37.115  0.00  0.00    -0.051 A 
ATOM     15  H1  3NG d   1       8.222  88.286  38.095  0.00  0.00     0.085 H 
ATOM     16  H2  3NG d   1       6.676  90.190  37.805  0.00  0.00     0.085 H 
ATOM     17  H3  3NG d   1       9.883  92.533  36.160  0.00  0.00     0.088 H 
ATOM     18  H4  3NG d   1      13.479  85.389  37.771  0.00  0.00     0.114 H 
ATOM     19  H5  3NG d   1       9.535  86.797  38.251  0.00  0.00     0.116 H 
ATOM     20  H6  3NG d   1      14.177  87.561  36.788  0.00  0.00     0.087 H 
ENDROOT
BRANCH  10  21
ATOM     21  N15 3NG d   1      13.906  89.902  36.019  0.00  0.00    -0.340 N 
ATOM     22  H7  3NG d   1      14.511  89.069  35.989  0.00  0.00     0.167 HD
BRANCH  21  23
ATOM     23  C16 3NG d   1      14.475  91.075  35.640  0.00  0.00     0.035 A 
ATOM     24  C17 3NG d   1      14.201  92.277  36.310  0.00  0.00    -0.036 A 
ATOM     25  C18 3NG d   1      14.804  93.465  35.903  0.00  0.00     0.036 A 
ATOM     26  H8  3NG d   1      13.516  92.281  37.150  0.00  0.00     0.089 H 
ATOM     27  C19 3NG d   1      15.706  93.484  34.828  0.00  0.00    -0.062 A 
ATOM     28 CL22 3NG d   1      14.422  94.925  36.775  0.00  0.00    -0.084 Cl
ATOM     29  C20 3NG d   1      15.992  92.291  34.155  0.00  0.00    -0.079 A 
ATOM     30  H9  3NG d   1      16.176  94.412  34.523  0.00  0.00     0.086 H 
ATOM     31  C21 3NG d   1      15.382  91.096  34.571  0.00  0.00    -0.057 A 
ATOM     32  H10 3NG d   1      16.680  92.289  33.318  0.00  0.00     0.083 H 
ATOM     33  H11 3NG d   1      15.617  90.172  34.055  0.00  0.00     0.086 H 
ENDBRANCH  21  23
ENDBRANCH  10  21
BRANCH   5  34
ATOM     34  C23 3NG d   1       7.222  92.653  36.772  0.00  0.00     0.209 C 
ATOM     35  O24 3NG d   1       7.637  93.797  36.669  0.00  0.00    -0.644 OA
ATOM     36  O25 3NG d   1       5.918  92.392  36.680  0.00  0.00    -0.644 OA
ENDBRANCH   5  34
TORSDOF 3
