REMARK  5 active torsions:
REMARK  status: ('A' for Active; 'I' for Inactive)
REMARK    1  A    between atoms: C1_2  and  C_1 
REMARK    2  A    between atoms: C2_3  and  C3_4 
REMARK    3  A    between atoms: C10_11  and  C9_10 
REMARK    4  A    between atoms: S_18  and  C10_11 
REMARK    5  A    between atoms: C11_12  and  S_18 
ROOT
ATOM      1  C1  EBB d   1     -11.697 -98.574 -18.306  0.00  0.00    -0.054 A 
ATOM      2  C2  EBB d   1     -11.095 -97.661 -17.430  0.00  0.00    -0.026 A 
ATOM      3  C4  EBB d   1     -11.403 -96.297 -17.545  0.00  0.00     0.081 A 
ATOM      4  C5  EBB d   1     -12.303 -95.847 -18.525  0.00  0.00     0.061 A 
ATOM      5  C6  EBB d   1     -12.893 -96.766 -19.388  0.00  0.00    -0.065 A 
ATOM      6  C7  EBB d   1     -12.586 -98.108 -19.270  0.00  0.00    -0.076 A 
ATOM      7  C8  EBB d   1     -12.608 -94.412 -18.624  0.00  0.00     0.259 A 
ATOM      8  C9  EBB d   1     -11.069 -94.162 -16.762  0.00  0.00     0.117 A 
ATOM      9  O   EBB d   1     -13.381 -93.933 -19.449  0.00  0.00    -0.267 OA
ATOM     10  N   EBB d   1     -11.959 -93.611 -17.713  0.00  0.00    -0.310 N 
ATOM     11  N1  EBB d   1     -10.779 -95.450 -16.656  0.00  0.00    -0.233 NA
ATOM     12  H7  EBB d   1     -13.589 -96.431 -20.148  0.00  0.00     0.085 H 
ATOM     13  H8  EBB d   1     -13.050 -98.817 -19.946  0.00  0.00     0.084 H 
ATOM     14  H14 EBB d   1     -12.119 -92.624 -17.723  0.00  0.00     0.170 HD
ENDROOT
BRANCH   8  15
ATOM     15  C10 EBB d   1     -10.414 -93.198 -15.815  0.00  0.00     0.039 C 
ATOM     16  H9  EBB d   1      -9.329 -93.181 -15.994  0.00  0.00     0.061 H 
ATOM     17  H10 EBB d   1     -10.610 -93.505 -14.777  0.00  0.00     0.061 H 
BRANCH  15  18
ATOM     18  S   EBB d   1     -11.106 -91.558 -16.106  0.00  0.00    -0.083 SA
BRANCH  18  19
ATOM     19  C11 EBB d   1     -10.605 -90.723 -14.649  0.00  0.00     0.188 A 
ATOM     20  N3  EBB d   1      -9.904 -91.441 -13.774  0.00  0.00    -0.235 NA
ATOM     21  C14 EBB d   1      -9.536 -90.777 -12.671  0.00  0.00     0.006 A 
ATOM     22  C13 EBB d   1      -9.846 -89.459 -12.441  0.00  0.00    -0.049 A 
ATOM     23  H13 EBB d   1      -8.963 -91.308 -11.920  0.00  0.00     0.114 H 
ATOM     24  C12 EBB d   1     -10.574 -88.835 -13.426  0.00  0.00     0.006 A 
ATOM     25  H12 EBB d   1      -9.536 -88.943 -11.539  0.00  0.00     0.087 H 
ATOM     26  N2  EBB d   1     -10.971 -89.446 -14.549  0.00  0.00    -0.235 NA
ATOM     27  H11 EBB d   1     -10.841 -87.794 -13.286  0.00  0.00     0.114 H 
ENDBRANCH  18  19
ENDBRANCH  15  18
ENDBRANCH   8  15
BRANCH   2  28
ATOM     28  C3  EBB d   1     -10.126 -98.136 -16.374  0.00  0.00    -0.049 C 
ATOM     29  H4  EBB d   1     -10.015 -99.228 -16.442  0.00  0.00     0.033 H 
ATOM     30  H5  EBB d   1     -10.508 -97.868 -15.378  0.00  0.00     0.033 H 
ATOM     31  H6  EBB d   1      -9.148 -97.658 -16.532  0.00  0.00     0.033 H 
ENDBRANCH   2  28
BRANCH   1  32
ATOM     32  C   EBB d   1     -11.395-100.047 -18.218  0.00  0.00    -0.051 C 
ATOM     33  H1  EBB d   1     -11.966-100.585 -18.989  0.00  0.00     0.033 H 
ATOM     34  H2  EBB d   1     -11.680-100.421 -17.223  0.00  0.00     0.033 H 
ATOM     35  H3  EBB d   1     -10.319-100.211 -18.377  0.00  0.00     0.033 H 
ENDBRANCH   1  32
TORSDOF 5
