REMARK  3 active torsions:
REMARK  status: ('A' for Active; 'I' for Inactive)
REMARK    1  A    between atoms: C5_5  and  C23_23 
REMARK    2  A    between atoms: C10_10  and  N15_15 
REMARK    3  A    between atoms: N15_15  and  C16_16 
ROOT
ATOM      1  C1  3NG d   1      -8.493 -16.982  15.817  0.00  0.00     0.071 A 
ATOM      2  C2  3NG d   1      -8.249 -17.120  14.431  0.00  0.00     0.005 A 
ATOM      3  C3  3NG d   1      -7.972 -18.431  13.956  0.00  0.00    -0.069 A 
ATOM      4  C4  3NG d   1      -7.953 -19.535  14.826  0.00  0.00    -0.066 A 
ATOM      5  C5  3NG d   1      -8.195 -19.362  16.205  0.00  0.00     0.043 A 
ATOM      6  C6  3NG d   1      -8.472 -18.078  16.688  0.00  0.00    -0.038 A 
ATOM      7  C7  3NG d   1      -8.582 -14.698  14.242  0.00  0.00     0.024 A 
ATOM      8  C8  3NG d   1      -8.295 -15.943  13.633  0.00  0.00     0.008 A 
ATOM      9  N9  3NG d   1      -8.770 -15.776  16.364  0.00  0.00    -0.230 NA
ATOM     10  C10 3NG d   1      -8.824 -14.637  15.629  0.00  0.00     0.140 A 
ATOM     11  C11 3NG d   1      -8.391 -13.611  12.065  0.00  0.00     0.003 A 
ATOM     12  N12 3NG d   1      -8.128 -14.803  11.490  0.00  0.00    -0.272 NA
ATOM     13  C13 3NG d   1      -8.087 -15.928  12.232  0.00  0.00     0.013 A 
ATOM     14  C14 3NG d   1      -8.627 -13.538  13.446  0.00  0.00    -0.051 A 
ATOM     15  H1  3NG d   1      -7.771 -18.582  12.902  0.00  0.00     0.085 H 
ATOM     16  H2  3NG d   1      -7.751 -20.526  14.435  0.00  0.00     0.085 H 
ATOM     17  H3  3NG d   1      -8.672 -17.931  17.743  0.00  0.00     0.088 H 
ATOM     18  H4  3NG d   1      -8.420 -12.711  11.461  0.00  0.00     0.114 H 
ATOM     19  H5  3NG d   1      -7.885 -16.868  11.731  0.00  0.00     0.116 H 
ATOM     20  H6  3NG d   1      -8.846 -12.580  13.904  0.00  0.00     0.087 H 
ENDROOT
BRANCH  10  21
ATOM     21  N15 3NG d   1      -9.108 -13.459  16.259  0.00  0.00    -0.340 N 
ATOM     22  H7  3NG d   1      -9.260 -12.639  15.654  0.00  0.00     0.167 HD
BRANCH  21  23
ATOM     23  C16 3NG d   1      -9.212 -13.252  17.603  0.00  0.00     0.035 A 
ATOM     24  C17 3NG d   1      -8.338 -13.851  18.521  0.00  0.00    -0.036 A 
ATOM     25  C18 3NG d   1      -8.456 -13.615  19.894  0.00  0.00     0.036 A 
ATOM     26  H8  3NG d   1      -7.556 -14.509  18.160  0.00  0.00     0.089 H 
ATOM     27  C19 3NG d   1      -9.459 -12.755  20.378  0.00  0.00    -0.062 A 
ATOM     28 CL22 3NG d   1      -7.338 -14.410  20.994  0.00  0.00    -0.084 Cl
ATOM     29  C20 3NG d   1     -10.337 -12.143  19.474  0.00  0.00    -0.079 A 
ATOM     30  H9  3NG d   1      -9.552 -12.568  21.442  0.00  0.00     0.086 H 
ATOM     31  C21 3NG d   1     -10.215 -12.395  18.098  0.00  0.00    -0.057 A 
ATOM     32  H10 3NG d   1     -11.110 -11.475  19.837  0.00  0.00     0.083 H 
ATOM     33  H11 3NG d   1     -10.903 -11.923  17.406  0.00  0.00     0.086 H 
ENDBRANCH  21  23
ENDBRANCH  10  21
BRANCH   5  34
ATOM     34  C23 3NG d   1      -8.207 -20.558  17.133  0.00  0.00     0.209 C 
ATOM     35  O24 3NG d   1      -8.594 -21.736  16.623  0.00  0.00    -0.644 OA
ATOM     36  O25 3NG d   1      -7.954 -20.443  18.326  0.00  0.00    -0.644 OA
ENDBRANCH   5  34
TORSDOF 3
