REMARK  3 active torsions:
REMARK  status: ('A' for Active; 'I' for Inactive)
REMARK    1  A    between atoms: C5_5  and  C23_23 
REMARK    2  A    between atoms: C10_10  and  N15_15 
REMARK    3  A    between atoms: N15_15  and  C16_16 
ROOT
ATOM      1  C1  3NG d   1     -28.592  22.368 -19.230  0.00  0.00     0.071 A 
ATOM      2  C2  3NG d   1     -28.703  21.038 -19.681  0.00  0.00     0.005 A 
ATOM      3  C3  3NG d   1     -27.773  20.623 -20.657  0.00  0.00    -0.069 A 
ATOM      4  C4  3NG d   1     -26.793  21.491 -21.152  0.00  0.00    -0.066 A 
ATOM      5  C5  3NG d   1     -26.702  22.807 -20.687  0.00  0.00     0.043 A 
ATOM      6  C6  3NG d   1     -27.616  23.239 -19.720  0.00  0.00    -0.038 A 
ATOM      7  C7  3NG d   1     -30.595  20.787 -18.148  0.00  0.00     0.024 A 
ATOM      8  C8  3NG d   1     -29.732  20.231 -19.124  0.00  0.00     0.008 A 
ATOM      9  N9  3NG d   1     -29.431  22.867 -18.302  0.00  0.00    -0.230 NA
ATOM     10  C10 3NG d   1     -30.423  22.126 -17.747  0.00  0.00     0.140 A 
ATOM     11  C11 3NG d   1     -31.787  18.674 -17.986  0.00  0.00     0.003 A 
ATOM     12  N12 3NG d   1     -30.955  18.152 -18.913  0.00  0.00    -0.272 NA
ATOM     13  C13 3NG d   1     -29.959  18.881 -19.476  0.00  0.00     0.013 A 
ATOM     14  C14 3NG d   1     -31.620  20.002 -17.583  0.00  0.00    -0.051 A 
ATOM     15  H1  3NG d   1     -27.818  19.607 -21.033  0.00  0.00     0.085 H 
ATOM     16  H2  3NG d   1     -26.096  21.139 -21.904  0.00  0.00     0.085 H 
ATOM     17  H3  3NG d   1     -27.567  24.256 -19.349  0.00  0.00     0.088 H 
ATOM     18  H4  3NG d   1     -32.578  18.068 -17.558  0.00  0.00     0.114 H 
ATOM     19  H5  3NG d   1     -29.319  18.415 -20.217  0.00  0.00     0.116 H 
ATOM     20  H6  3NG d   1     -32.279  20.428 -16.835  0.00  0.00     0.087 H 
ENDROOT
BRANCH  10  21
ATOM     21  N15 3NG d   1     -31.236  22.684 -16.801  0.00  0.00    -0.340 N 
ATOM     22  H7  3NG d   1     -31.920  22.047 -16.368  0.00  0.00     0.167 HD
BRANCH  21  23
ATOM     23  C16 3NG d   1     -31.262  23.973 -16.354  0.00  0.00     0.035 A 
ATOM     24  C17 3NG d   1     -31.176  25.081 -17.215  0.00  0.00    -0.036 A 
ATOM     25  C18 3NG d   1     -31.226  26.389 -16.711  0.00  0.00     0.036 A 
ATOM     26  H8  3NG d   1     -31.070  24.922 -18.282  0.00  0.00     0.089 H 
ATOM     27  C19 3NG d   1     -31.374  26.616 -15.334  0.00  0.00    -0.062 A 
ATOM     28 CL22 3NG d   1     -31.108  27.742 -17.816  0.00  0.00    -0.084 Cl
ATOM     29  C20 3NG d   1     -31.468  25.519 -14.464  0.00  0.00    -0.079 A 
ATOM     30  H9  3NG d   1     -31.415  27.628 -14.947  0.00  0.00     0.086 H 
ATOM     31  C21 3NG d   1     -31.419  24.211 -14.976  0.00  0.00    -0.057 A 
ATOM     32  H10 3NG d   1     -31.578  25.680 -13.398  0.00  0.00     0.083 H 
ATOM     33  H11 3NG d   1     -31.504  23.370 -14.297  0.00  0.00     0.086 H 
ENDBRANCH  21  23
ENDBRANCH  10  21
BRANCH   5  34
ATOM     34  C23 3NG d   1     -25.642  23.743 -21.224  0.00  0.00     0.209 C 
ATOM     35  O24 3NG d   1     -24.622  23.252 -21.935  0.00  0.00    -0.644 OA
ATOM     36  O25 3NG d   1     -25.739  24.945 -21.006  0.00  0.00    -0.644 OA
ENDBRANCH   5  34
TORSDOF 3
