REMARK WARNING: 32 MAX_TORS EXCEEDED!!!
REMARK  61 active torsions:
REMARK  status: ('A' for Active; 'I' for Inactive)
REMARK    1  A    between atoms: N_1  and  CA_2 
REMARK    2  A    between atoms: CA_2  and  C_3 
REMARK    3  A    between atoms: CA_2  and  CB_5 
REMARK       I    between atoms: C_3  and  N_10 
REMARK    4  A    between atoms: CB_5  and  CG_6 
REMARK    5  A    between atoms: CG_6  and  CD_7 
REMARK    6  A    between atoms: CA_11  and  C_12 
REMARK       I    between atoms: C_12  and  N_17 
REMARK    7  A    between atoms: N_17  and  CA_18 
REMARK    8  A    between atoms: CA_18  and  C_19 
REMARK    9  A    between atoms: CA_18  and  CB_21 
REMARK       I    between atoms: C_19  and  N_23 
REMARK   10  A    between atoms: CB_21  and  OG_22 
REMARK   11  A    between atoms: N_23  and  CA_24 
REMARK   12  A    between atoms: CA_24  and  C_25 
REMARK   13  A    between atoms: CA_24  and  CB_27 
REMARK       I    between atoms: C_25  and  N_31 
REMARK   14  A    between atoms: CB_27  and  CG_28 
REMARK   15  A    between atoms: CG_28  and  CD1_29 
REMARK   16  A    between atoms: CG_28  and  CD2_30 
REMARK   17  A    between atoms: N_31  and  CA_32 
REMARK   18  A    between atoms: CA_32  and  C_33 
REMARK   19  A    between atoms: CA_32  and  CB_35 
REMARK       I    between atoms: C_33  and  N_39 
REMARK   20  A    between atoms: CB_35  and  CG_36 
REMARK   21  A    between atoms: CG_36  and  CD1_37 
REMARK   22  A    between atoms: CG_36  and  CD2_38 
REMARK   23  A    between atoms: N_39  and  CA_40 
REMARK   24  A    between atoms: CA_40  and  C_41 
REMARK   25  A    between atoms: CA_40  and  CB_43 
REMARK       I    between atoms: C_41  and  N_48 
REMARK   26  A    between atoms: CB_43  and  CG_44 
REMARK   27  A    between atoms: CG_44  and  CD_45 
REMARK   28  A    between atoms: CD_45  and  CE_46 
REMARK   29  A    between atoms: CE_46  and  NZ_47 
REMARK   30  A    between atoms: N_48  and  CA_49 
REMARK   31  A    between atoms: CA_49  and  C_50 
REMARK   32  A    between atoms: CA_49  and  CB_52 
REMARK       I    between atoms: C_50  and  N_57 
REMARK   33  A    between atoms: CB_52  and  CG_53 
REMARK   34  A    between atoms: CG_53  and  CD_54 
REMARK   35  A    between atoms: CD_54  and  CE_55 
REMARK   36  A    between atoms: CE_55  and  NZ_56 
REMARK   37  A    between atoms: N_57  and  CA_58 
REMARK   38  A    between atoms: CA_58  and  C_59 
REMARK   39  A    between atoms: CA_58  and  CB_61 
REMARK       I    between atoms: C_59  and  N_65 
REMARK   40  A    between atoms: CB_61  and  CG_62 
REMARK   41  A    between atoms: CG_62  and  CD1_63 
REMARK   42  A    between atoms: CG_62  and  CD2_64 
REMARK   43  A    between atoms: N_65  and  CA_66 
REMARK   44  A    between atoms: CA_66  and  C_67 
REMARK   45  A    between atoms: CA_66  and  CB_69 
REMARK       I    between atoms: C_67  and  N_73 
REMARK   46  A    between atoms: CB_69  and  CG_70 
REMARK   47  A    between atoms: CG_70  and  CD1_71 
REMARK   48  A    between atoms: CG_70  and  CD2_72 
REMARK   49  A    between atoms: N_73  and  CA_74 
REMARK   50  A    between atoms: CA_74  and  C_75 
REMARK   51  A    between atoms: CA_74  and  CB_77 
REMARK       I    between atoms: C_75  and  N_81 
REMARK   52  A    between atoms: CB_77  and  CG_78 
REMARK   53  A    between atoms: CG_78  and  CD1_79 
REMARK   54  A    between atoms: CG_78  and  CD2_80 
REMARK   55  A    between atoms: N_81  and  CA_82 
REMARK   56  A    between atoms: CA_82  and  C_83 
REMARK   57  A    between atoms: CA_82  and  CB_85 
REMARK       I    between atoms: C_83  and  N_86 
REMARK   58  A    between atoms: CA_87  and  C_88 
REMARK       I    between atoms: C_88  and  N_93 
REMARK   59  A    between atoms: N_93  and  CA_94 
REMARK   60  A    between atoms: CA_94  and  C_95 
REMARK   61  A    between atoms: CA_94  and  CB_97 
ROOT
ATOM      1  CA  GLU d   1     -38.520  30.372  -8.385  0.00  0.00     0.089 C 
ATOM      2  H57 GLU d   1     -39.516  30.502  -8.833  0.00  0.00     0.087 H 
ENDROOT
BRANCH   1   3
ATOM      3  N   GLU d   1     -38.300  28.950  -8.152  0.00  0.00    -0.346 N 
ATOM      4  C   GLU d   1     -38.287  28.098  -9.183  0.00  0.00     0.241 C 
ATOM      5  O   GLU d   1     -38.441  28.475 -10.348  0.00  0.00    -0.271 OA
ATOM      6  H56 GLU d   1     -38.159  28.612  -7.222  0.00  0.00     0.163 HD
BRANCH   4   7
ATOM      7  CA  GLU d   1     -38.035  26.631  -8.878  0.00  0.00     0.089 C 
ATOM      8  H44 GLU d   1     -37.729  26.135  -9.811  0.00  0.00     0.087 H 
BRANCH   7   9
ATOM      9  N   GLU d   1     -36.957  26.487  -7.910  0.00  0.00    -0.346 N 
ATOM     10  C   GLU d   1     -35.755  26.976  -8.204  0.00  0.00     0.241 C 
ATOM     11  O   GLU d   1     -35.495  27.457  -9.314  0.00  0.00    -0.271 OA
ATOM     12  H43 GLU d   1     -37.118  26.027  -7.037  0.00  0.00     0.163 HD
BRANCH  10  13
ATOM     13  CA  GLU d   1     -34.692  26.905  -7.120  0.00  0.00     0.089 C 
ATOM     14  H33 GLU d   1     -33.898  27.627  -7.362  0.00  0.00     0.087 H 
BRANCH  13  15
ATOM     15  N   GLU d   1     -35.251  27.256  -5.819  0.00  0.00    -0.346 N 
ATOM     16  C   GLU d   1     -35.710  28.491  -5.605  0.00  0.00     0.241 C 
ATOM     17  O   GLU d   1     -35.600  29.391  -6.443  0.00  0.00    -0.271 OA
ATOM     18  H32 GLU d   1     -35.290  26.573  -5.090  0.00  0.00     0.163 HD
BRANCH  16  19
ATOM     19  CA  GLU d   1     -36.372  28.780  -4.269  0.00  0.00     0.089 C 
ATOM     20  H22 GLU d   1     -37.141  29.551  -4.426  0.00  0.00     0.087 H 
BRANCH  19  21
ATOM     21  N   GLU d   1     -37.026  27.589  -3.736  0.00  0.00    -0.346 N 
ATOM     22  C   GLU d   1     -38.156  27.154  -4.294  0.00  0.00     0.243 C 
ATOM     23  O   GLU d   1     -38.751  27.784  -5.174  0.00  0.00    -0.271 OA
ATOM     24  H21 GLU d   1     -36.629  27.103  -2.958  0.00  0.00     0.163 HD
BRANCH  22  25
ATOM     25  CA  GLU d   1     -38.670  25.801  -3.823  0.00  0.00     0.109 C 
ATOM     26  H17 GLU d   1     -38.014  25.442  -3.016  0.00  0.00     0.090 H 
BRANCH  25  27
ATOM     27  N   GLU d   1     -40.031  25.894  -3.311  0.00  0.00    -0.344 N 
ATOM     28  C   GLU d   1     -40.361  26.674  -2.286  0.00  0.00     0.241 C 
ATOM     29  O   GLU d   1     -39.578  27.467  -1.759  0.00  0.00    -0.271 OA
ATOM     30  H16 GLU d   1     -40.746  25.349  -3.748  0.00  0.00     0.163 HD
BRANCH  28  31
ATOM     31  CA  GLU d   1     -41.793  26.534  -1.800  0.00  0.00     0.091 C 
ATOM     32  N   GLU d   1     -41.858  26.272  -0.355  0.00  0.00    -0.337 N 
ATOM     33  C   GLU d   1     -41.053  25.358   0.195  0.00  0.00     0.251 C 
ATOM     34  CD  GLU d   1     -42.936  27.048   0.281  0.00  0.00    -0.001 C 
ATOM     35  O   GLU d   1     -40.275  24.668  -0.471  0.00  0.00    -0.271 OA
ATOM     36  CG  GLU d   1     -43.597  27.754  -0.887  0.00  0.00    -0.048 C 
ATOM     37  H14 GLU d   1     -42.527  27.774   0.999  0.00  0.00     0.064 H 
ATOM     38  H15 GLU d   1     -43.648  26.385   0.794  0.00  0.00     0.064 H 
ATOM     39  CB  GLU d   1     -42.574  27.840  -1.953  0.00  0.00    -0.036 C 
ATOM     40  H12 GLU d   1     -44.466  27.178  -1.238  0.00  0.00     0.035 H 
ATOM     41  H13 GLU d   1     -43.922  28.762  -0.589  0.00  0.00     0.035 H 
ATOM     42  H10 GLU d   1     -43.044  27.904  -2.946  0.00  0.00     0.036 H 
ATOM     43  H11 GLU d   1     -41.919  28.711  -1.801  0.00  0.00     0.036 H 
ATOM     44  H9  GLU d   1     -42.281  25.724  -2.361  0.00  0.00     0.087 H 
BRANCH  33  45
ATOM     45  CA  GLU d   1     -41.129  25.157   1.718  0.00  0.00     0.176 C 
ATOM     46  H4  GLU d   1     -40.182  24.698   2.039  0.00  0.00     0.099 H 
BRANCH  45  47
ATOM     47  N   GLU d   1     -41.291  26.398   2.471  0.00  0.00    -0.066 N 
ATOM     48  H1  GLU d   1     -41.333  26.190   3.456  0.00  0.00     0.275 HD
ATOM     49  H2  GLU d   1     -42.144  26.854   2.187  0.00  0.00     0.275 HD
ATOM     50  H3  GLU d   1     -40.508  27.006   2.289  0.00  0.00     0.275 HD
ENDBRANCH  45  47
BRANCH  45  51
ATOM     51  CB  GLU d   1     -42.267  24.192   2.051  0.00  0.00    -0.021 C 
ATOM     52  H5  GLU d   1     -42.034  23.213   1.607  0.00  0.00     0.037 H 
ATOM     53  H6  GLU d   1     -43.195  24.583   1.609  0.00  0.00     0.037 H 
BRANCH  51  54
ATOM     54  CG  GLU d   1     -42.486  24.004   3.538  0.00  0.00     0.018 C 
ATOM     55  H7  GLU d   1     -43.073  24.853   3.918  0.00  0.00     0.049 H 
ATOM     56  H8  GLU d   1     -41.507  23.982   4.038  0.00  0.00     0.049 H 
BRANCH  54  57
ATOM     57  CD  GLU d   1     -43.225  22.720   3.860  0.00  0.00     0.172 C 
ATOM     58  OE1 GLU d   1     -42.816  22.021   4.813  0.00  0.00    -0.648 OA
ATOM     59  OE2 GLU d   1     -44.209  22.407   3.157  0.00  0.00    -0.648 OA
ENDBRANCH  54  57
ENDBRANCH  51  54
ENDBRANCH  45  51
ENDBRANCH  33  45
ENDBRANCH  28  31
ENDBRANCH  25  27
BRANCH  25  60
ATOM     60  CB  GLU d   1     -38.639  24.794  -4.974  0.00  0.00     0.044 C 
ATOM     61  H18 GLU d   1     -39.417  25.062  -5.704  0.00  0.00     0.077 H 
ATOM     62  H19 GLU d   1     -38.841  23.789  -4.575  0.00  0.00     0.077 H 
BRANCH  60  63
ATOM     63  OG  GLU d   1     -37.382  24.786  -5.625  0.00  0.00    -0.398 OA
ATOM     64  H20 GLU d   1     -36.705  24.551  -5.001  0.00  0.00     0.209 HD
ENDBRANCH  60  63
ENDBRANCH  25  60
ENDBRANCH  22  25
ENDBRANCH  19  21
BRANCH  19  65
ATOM     65  CB  GLU d   1     -35.343  29.322  -3.276  0.00  0.00    -0.035 C 
ATOM     66  H23 GLU d   1     -34.889  30.221  -3.718  0.00  0.00     0.037 H 
ATOM     67  H24 GLU d   1     -34.570  28.552  -3.138  0.00  0.00     0.037 H 
BRANCH  65  68
ATOM     68  CG  GLU d   1     -35.884  29.702  -1.886  0.00  0.00    -0.059 C 
ATOM     69  H25 GLU d   1     -36.284  28.792  -1.415  0.00  0.00     0.038 H 
BRANCH  68  70
ATOM     70  CD1 GLU d   1     -34.790  30.265  -0.987  0.00  0.00    -0.073 C 
ATOM     71  H26 GLU d   1     -35.218  30.523  -0.007  0.00  0.00     0.028 H 
ATOM     72  H27 GLU d   1     -34.363  31.167  -1.450  0.00  0.00     0.028 H 
ATOM     73  H28 GLU d   1     -33.999  29.511  -0.856  0.00  0.00     0.028 H 
ENDBRANCH  68  70
BRANCH  68  74
ATOM     74  CD2 GLU d   1     -37.003  30.709  -2.012  0.00  0.00    -0.073 C 
ATOM     75  H29 GLU d   1     -37.792  30.301  -2.661  0.00  0.00     0.028 H 
ATOM     76  H30 GLU d   1     -36.612  31.639  -2.450  0.00  0.00     0.028 H 
ATOM     77  H31 GLU d   1     -37.420  30.920  -1.016  0.00  0.00     0.028 H 
ENDBRANCH  68  74
ENDBRANCH  65  68
ENDBRANCH  19  65
ENDBRANCH  16  19
ENDBRANCH  13  15
BRANCH  13  78
ATOM     78  CB  GLU d   1     -34.083  25.506  -7.086  0.00  0.00    -0.035 C 
ATOM     79  H34 GLU d   1     -33.903  25.197  -8.126  0.00  0.00     0.037 H 
ATOM     80  H35 GLU d   1     -34.822  24.834  -6.626  0.00  0.00     0.037 H 
BRANCH  78  81
ATOM     81  CG  GLU d   1     -32.775  25.339  -6.325  0.00  0.00    -0.059 C 
ATOM     82  H36 GLU d   1     -32.904  25.706  -5.296  0.00  0.00     0.038 H 
BRANCH  81  83
ATOM     83  CD1 GLU d   1     -32.395  23.862  -6.280  0.00  0.00    -0.073 C 
ATOM     84  H37 GLU d   1     -31.450  23.743  -5.730  0.00  0.00     0.028 H 
ATOM     85  H38 GLU d   1     -32.272  23.483  -7.306  0.00  0.00     0.028 H 
ATOM     86  H39 GLU d   1     -33.189  23.294  -5.772  0.00  0.00     0.028 H 
ENDBRANCH  81  83
BRANCH  81  87
ATOM     87  CD2 GLU d   1     -31.700  26.154  -7.008  0.00  0.00    -0.073 C 
ATOM     88  H40 GLU d   1     -31.999  27.212  -7.027  0.00  0.00     0.028 H 
ATOM     89  H41 GLU d   1     -31.565  25.793  -8.038  0.00  0.00     0.028 H 
ATOM     90  H42 GLU d   1     -30.754  26.050  -6.456  0.00  0.00     0.028 H 
ENDBRANCH  81  87
ENDBRANCH  78  81
ENDBRANCH  13  78
ENDBRANCH  10  13
ENDBRANCH   7   9
BRANCH   7  91
ATOM     91  CB  GLU d   1     -39.306  25.951  -8.372  0.00  0.00    -0.038 C 
ATOM     92  H45 GLU d   1     -40.155  26.298  -8.979  0.00  0.00     0.036 H 
ATOM     93  H46 GLU d   1     -39.464  26.239  -7.322  0.00  0.00     0.036 H 
BRANCH  91  94
ATOM     94  CG  GLU d   1     -39.240  24.433  -8.453  0.00  0.00    -0.061 C 
ATOM     95  H47 GLU d   1     -38.559  24.063  -7.672  0.00  0.00     0.033 H 
ATOM     96  H48 GLU d   1     -38.855  24.145  -9.442  0.00  0.00     0.033 H 
BRANCH  94  97
ATOM     97  CD  GLU d   1     -40.604  23.804  -8.254  0.00  0.00    -0.043 C 
ATOM     98  H49 GLU d   1     -41.285  24.161  -9.041  0.00  0.00     0.035 H 
ATOM     99  H50 GLU d   1     -40.997  24.096  -7.269  0.00  0.00     0.035 H 
BRANCH  97 100
ATOM    100  CE  GLU d   1     -40.511  22.296  -8.324  0.00  0.00     0.080 C 
ATOM    101  H51 GLU d   1     -39.899  21.937  -7.483  0.00  0.00     0.075 H 
ATOM    102  H52 GLU d   1     -40.032  22.012  -9.273  0.00  0.00     0.075 H 
BRANCH 100 103
ATOM    103  NZ  GLU d   1     -41.853  21.657  -8.251  0.00  0.00    -0.079 N 
ATOM    104  H53 GLU d   1     -41.751  20.655  -8.300  0.00  0.00     0.274 HD
ATOM    105  H54 GLU d   1     -42.419  21.976  -9.022  0.00  0.00     0.274 HD
ATOM    106  H55 GLU d   1     -42.297  21.907  -7.381  0.00  0.00     0.274 HD
ENDBRANCH 100 103
ENDBRANCH  97 100
ENDBRANCH  94  97
ENDBRANCH  91  94
ENDBRANCH   7  91
ENDBRANCH   4   7
ENDBRANCH   1   3
BRANCH   1 107
ATOM    107  C   GLU d   1     -37.484  30.931  -9.346  0.00  0.00     0.241 C 
ATOM    108  O   GLU d   1     -37.816  31.672 -10.283  0.00  0.00    -0.271 OA
ATOM    109  N   GLU d   1     -36.218  30.582  -9.131  0.00  0.00    -0.346 N 
ATOM    110  H69 GLU d   1     -35.992  29.992  -8.355  0.00  0.00     0.163 HD
BRANCH 109 111
ATOM    111  CA  GLU d   1     -35.156  31.050 -10.014  0.00  0.00     0.089 C 
ATOM    112  H70 GLU d   1     -35.227  32.145 -10.094  0.00  0.00     0.087 H 
BRANCH 111 113
ATOM    113  C   GLU d   1     -35.284  30.458 -11.409  0.00  0.00     0.241 C 
ATOM    114  O   GLU d   1     -34.938  31.111 -12.403  0.00  0.00    -0.271 OA
ATOM    115  N   GLU d   1     -35.729  29.202 -11.503  0.00  0.00    -0.346 N 
ATOM    116  H80 GLU d   1     -35.979  28.696 -10.677  0.00  0.00     0.163 HD
BRANCH 115 117
ATOM    117  CA  GLU d   1     -35.850  28.570 -12.809  0.00  0.00     0.089 C 
ATOM    118  H81 GLU d   1     -34.937  28.786 -13.382  0.00  0.00     0.087 H 
BRANCH 117 119
ATOM    119  C   GLU d   1     -37.039  29.120 -13.584  0.00  0.00     0.241 C 
ATOM    120  O   GLU d   1     -36.978  29.231 -14.812  0.00  0.00    -0.271 OA
ATOM    121  N   GLU d   1     -38.114  29.483 -12.891  0.00  0.00    -0.346 N 
ATOM    122  H91 GLU d   1     -38.120  29.393 -11.895  0.00  0.00     0.163 HD
BRANCH 121 123
ATOM    123  CA  GLU d   1     -39.282  30.011 -13.579  0.00  0.00     0.089 C 
ATOM    124  H92 GLU d   1     -39.362  29.493 -14.546  0.00  0.00     0.087 H 
BRANCH 123 125
ATOM    125  C   GLU d   1     -39.186  31.501 -13.855  0.00  0.00     0.241 C 
ATOM    126  O   GLU d   1     -39.984  32.018 -14.646  0.00  0.00    -0.271 OA
ATOM    127  N   GLU d   1     -38.240  32.194 -13.238  0.00  0.00    -0.346 N 
ATOM    128 2H10 GLU d   1     -37.612  31.736 -12.609  0.00  0.00     0.163 HD
BRANCH 127 129
ATOM    129  CA  GLU d   1     -38.119  33.621 -13.479  0.00  0.00     0.086 C 
ATOM    130 3H10 GLU d   1     -39.083  34.101 -13.257  0.00  0.00     0.086 H 
BRANCH 129 131
ATOM    131  C   GLU d   1     -37.777  33.858 -14.950  0.00  0.00     0.243 C 
ATOM    132  O   GLU d   1     -36.998  33.098 -15.537  0.00  0.00    -0.271 OA
ATOM    133  N   GLU d   1     -38.356  34.877 -15.580  0.00  0.00    -0.337 N 
ATOM    134  CA  GLU d   1     -38.123  35.099 -17.013  0.00  0.00     0.091 C 
ATOM    135  CD  GLU d   1     -39.404  35.762 -15.048  0.00  0.00    -0.001 C 
ATOM    136  CB  GLU d   1     -39.212  36.103 -17.404  0.00  0.00    -0.036 C 
ATOM    137 7H10 GLU d   1     -38.242  34.160 -17.573  0.00  0.00     0.087 H 
ATOM    138  CG  GLU d   1     -40.198  36.083 -16.269  0.00  0.00    -0.048 C 
ATOM    139 8H10 GLU d   1     -39.699  35.797 -18.342  0.00  0.00     0.036 H 
ATOM    140 9H10 GLU d   1     -38.783  37.109 -17.524  0.00  0.00     0.036 H 
ATOM    141 0H11 GLU d   1     -40.965  35.313 -16.441  0.00  0.00     0.035 H 
ATOM    142 1H11 GLU d   1     -40.682  37.065 -16.164  0.00  0.00     0.035 H 
ATOM    143 2H11 GLU d   1     -38.971  36.670 -14.604  0.00  0.00     0.064 H 
ATOM    144 3H11 GLU d   1     -40.019  35.245 -14.297  0.00  0.00     0.064 H 
BRANCH 134 145
ATOM    145  C   GLU d   1     -36.736  35.664 -17.282  0.00  0.00     0.241 C 
ATOM    146  O   GLU d   1     -36.019  36.112 -16.383  0.00  0.00    -0.271 OA
ATOM    147  N   GLU d   1     -36.365  35.632 -18.561  0.00  0.00    -0.345 N 
ATOM    148 4H11 GLU d   1     -36.979  35.204 -19.224  0.00  0.00     0.163 HD
BRANCH 147 149
ATOM    149  CA  GLU d   1     -35.101  36.193 -19.043  0.00  0.00     0.093 C 
ATOM    150 5H11 GLU d   1     -35.120  36.167 -20.142  0.00  0.00     0.089 H 
BRANCH 149 151
ATOM    151  C   GLU d   1     -33.888  35.381 -18.578  0.00  0.00     0.196 C 
ATOM    152  O   GLU d   1     -32.744  35.703 -18.914  0.00  0.00    -0.646 OA
ATOM    153  OXT GLU d   1     -34.014  34.383 -17.863  0.00  0.00    -0.646 OA
ENDBRANCH 149 151
BRANCH 149 154
ATOM    154  CB  GLU d   1     -34.967  37.650 -18.603  0.00  0.00    -0.048 C 
ATOM    155 6H11 GLU d   1     -34.014  38.058 -18.971  0.00  0.00     0.030 H 
ATOM    156 7H11 GLU d   1     -34.989  37.705 -17.505  0.00  0.00     0.030 H 
ATOM    157 8H11 GLU d   1     -35.801  38.236 -19.016  0.00  0.00     0.030 H 
ENDBRANCH 149 154
ENDBRANCH 147 149
ENDBRANCH 134 145
ENDBRANCH 129 131
BRANCH 129 158
ATOM    158  CB  GLU d   1     -37.051  34.233 -12.574  0.00  0.00    -0.049 C 
ATOM    159 4H10 GLU d   1     -36.976  35.312 -12.773  0.00  0.00     0.030 H 
ATOM    160 5H10 GLU d   1     -36.081  33.755 -12.776  0.00  0.00     0.030 H 
ATOM    161 6H10 GLU d   1     -37.327  34.072 -11.521  0.00  0.00     0.030 H 
ENDBRANCH 129 158
ENDBRANCH 127 129
ENDBRANCH 123 125
BRANCH 123 162
ATOM    162  CB  GLU d   1     -40.545  29.725 -12.775  0.00  0.00    -0.035 C 
ATOM    163  H93 GLU d   1     -41.402  30.200 -13.274  0.00  0.00     0.037 H 
ATOM    164  H94 GLU d   1     -40.429  30.146 -11.765  0.00  0.00     0.037 H 
BRANCH 162 165
ATOM    165  CG  GLU d   1     -40.807  28.224 -12.660  0.00  0.00    -0.059 C 
ATOM    166  H95 GLU d   1     -39.970  27.770 -12.110  0.00  0.00     0.038 H 
BRANCH 165 167
ATOM    167  CD1 GLU d   1     -42.083  27.966 -11.873  0.00  0.00    -0.073 C 
ATOM    168  H96 GLU d   1     -42.256  26.882 -11.800  0.00  0.00     0.028 H 
ATOM    169  H97 GLU d   1     -42.933  28.439 -12.387  0.00  0.00     0.028 H 
ATOM    170  H98 GLU d   1     -41.983  28.390 -10.863  0.00  0.00     0.028 H 
ENDBRANCH 165 167
BRANCH 165 171
ATOM    171  CD2 GLU d   1     -40.864  27.585 -14.044  0.00  0.00    -0.073 C 
ATOM    172  H99 GLU d   1     -39.927  27.792 -14.582  0.00  0.00     0.028 H 
ATOM    173 0H10 GLU d   1     -41.711  28.005 -14.607  0.00  0.00     0.028 H 
ATOM    174 1H10 GLU d   1     -40.995  26.498 -13.941  0.00  0.00     0.028 H 
ENDBRANCH 165 171
ENDBRANCH 162 165
ENDBRANCH 123 162
ENDBRANCH 121 123
ENDBRANCH 117 119
BRANCH 117 175
ATOM    175  CB  GLU d   1     -35.974  27.053 -12.650  0.00  0.00    -0.035 C 
ATOM    176  H82 GLU d   1     -36.385  26.643 -13.584  0.00  0.00     0.037 H 
ATOM    177  H83 GLU d   1     -36.671  26.851 -11.823  0.00  0.00     0.037 H 
BRANCH 175 178
ATOM    178  CG  GLU d   1     -34.663  26.334 -12.352  0.00  0.00    -0.059 C 
ATOM    179  H84 GLU d   1     -34.122  26.883 -11.567  0.00  0.00     0.038 H 
BRANCH 178 180
ATOM    180  CD1 GLU d   1     -34.955  24.928 -11.857  0.00  0.00    -0.073 C 
ATOM    181  H85 GLU d   1     -34.008  24.411 -11.643  0.00  0.00     0.028 H 
ATOM    182  H86 GLU d   1     -35.508  24.375 -12.630  0.00  0.00     0.028 H 
ATOM    183  H87 GLU d   1     -35.560  24.980 -10.940  0.00  0.00     0.028 H 
ENDBRANCH 178 180
BRANCH 178 184
ATOM    184  CD2 GLU d   1     -33.791  26.295 -13.623  0.00  0.00    -0.073 C 
ATOM    185  H88 GLU d   1     -33.592  27.322 -13.963  0.00  0.00     0.028 H 
ATOM    186  H89 GLU d   1     -34.320  25.743 -14.414  0.00  0.00     0.028 H 
ATOM    187  H90 GLU d   1     -32.839  25.792 -13.399  0.00  0.00     0.028 H 
ENDBRANCH 178 184
ENDBRANCH 175 178
ENDBRANCH 117 175
ENDBRANCH 115 117
ENDBRANCH 111 113
BRANCH 111 188
ATOM    188  CB  GLU d   1     -33.801  30.689  -9.422  0.00  0.00    -0.035 C 
ATOM    189  H71 GLU d   1     -33.039  30.891 -10.189  0.00  0.00     0.037 H 
ATOM    190  H72 GLU d   1     -33.815  29.613  -9.193  0.00  0.00     0.037 H 
BRANCH 188 191
ATOM    191  CG  GLU d   1     -33.384  31.423  -8.156  0.00  0.00    -0.059 C 
ATOM    192  H73 GLU d   1     -34.162  31.299  -7.388  0.00  0.00     0.038 H 
BRANCH 191 193
ATOM    193  CD1 GLU d   1     -32.095  30.794  -7.668  0.00  0.00    -0.073 C 
ATOM    194  H74 GLU d   1     -31.763  31.302  -6.750  0.00  0.00     0.028 H 
ATOM    195  H75 GLU d   1     -31.321  30.895  -8.443  0.00  0.00     0.028 H 
ATOM    196  H76 GLU d   1     -32.264  29.728  -7.456  0.00  0.00     0.028 H 
ENDBRANCH 191 193
BRANCH 191 197
ATOM    197  CD2 GLU d   1     -33.203  32.908  -8.431  0.00  0.00    -0.073 C 
ATOM    198  H77 GLU d   1     -34.154  33.334  -8.783  0.00  0.00     0.028 H 
ATOM    199  H78 GLU d   1     -32.431  33.047  -9.203  0.00  0.00     0.028 H 
ATOM    200  H79 GLU d   1     -32.893  33.417  -7.506  0.00  0.00     0.028 H 
ENDBRANCH 191 197
ENDBRANCH 188 191
ENDBRANCH 111 188
ENDBRANCH 109 111
ENDBRANCH   1 107
BRANCH   1 201
ATOM    201  CB  GLU d   1     -38.479  31.132  -7.063  0.00  0.00    -0.038 C 
ATOM    202  H58 GLU d   1     -38.480  32.209  -7.285  0.00  0.00     0.036 H 
ATOM    203  H59 GLU d   1     -37.548  30.866  -6.541  0.00  0.00     0.036 H 
BRANCH 201 204
ATOM    204  CG  GLU d   1     -39.654  30.834  -6.130  0.00  0.00    -0.061 C 
ATOM    205  H60 GLU d   1     -39.668  29.761  -5.887  0.00  0.00     0.033 H 
ATOM    206  H61 GLU d   1     -40.596  31.110  -6.626  0.00  0.00     0.033 H 
BRANCH 204 207
ATOM    207  CD  GLU d   1     -39.497  31.647  -4.843  0.00  0.00    -0.043 C 
ATOM    208  H62 GLU d   1     -39.158  32.660  -5.104  0.00  0.00     0.035 H 
ATOM    209  H63 GLU d   1     -38.743  31.160  -4.207  0.00  0.00     0.035 H 
BRANCH 207 210
ATOM    210  CE  GLU d   1     -40.799  31.753  -4.064  0.00  0.00     0.080 C 
ATOM    211  H64 GLU d   1     -40.649  32.413  -3.197  0.00  0.00     0.075 H 
ATOM    212  H65 GLU d   1     -41.095  30.752  -3.716  0.00  0.00     0.075 H 
BRANCH 210 213
ATOM    213  NZ  GLU d   1     -41.876  32.310  -4.922  0.00  0.00    -0.079 N 
ATOM    214  H66 GLU d   1     -42.730  32.373  -4.391  0.00  0.00     0.274 HD
ATOM    215  H67 GLU d   1     -42.019  31.706  -5.717  0.00  0.00     0.274 HD
ATOM    216  H68 GLU d   1     -41.610  33.228  -5.241  0.00  0.00     0.274 HD
ENDBRANCH 210 213
ENDBRANCH 207 210
ENDBRANCH 204 207
ENDBRANCH 201 204
ENDBRANCH   1 201
TORSDOF 61
