REMARK  13 active torsions:
REMARK  status: ('A' for Active; 'I' for Inactive)
REMARK    1  A    between atoms: C6_4  and  C7_6 
REMARK    2  A    between atoms: C8_7  and  N1_5 
REMARK    3  A    between atoms: N1_5  and  C9_9 
REMARK    4  A    between atoms: C7_6  and  C8_7 
REMARK    5  A    between atoms: C8_7  and  C22_16 
REMARK    6  A    between atoms: C10_10  and  C15_15 
REMARK    7  A    between atoms: C15_15  and  C16_18 
REMARK    8  A    between atoms: O_28  and  C3_27 
REMARK    9  A    between atoms: C2_29  and  O_28 
REMARK   10  A    between atoms: C1_30  and  C2_29 
REMARK   11  A    between atoms: N_31  and  C1_30 
REMARK   12  A    between atoms: N_31  and  C_32 
REMARK   13  A    between atoms: N_31  and  C25_33 
ROOT
ATOM      1  C7  EDK d   1      -4.667 113.083  26.913  0.00  0.00    -0.013 C 
ATOM      2  H4  EDK d   1      -4.162 113.658  27.704  0.00  0.00     0.043 H 
ATOM      3  H5  EDK d   1      -4.587 112.008  27.133  0.00  0.00     0.043 H 
ENDROOT
BRANCH   1   4
ATOM      4  C6  EDK d   1      -3.976 113.359  25.600  0.00  0.00    -0.056 A 
ATOM      5  C5  EDK d   1      -3.274 114.539  25.403  0.00  0.00    -0.074 A 
ATOM      6  C4  EDK d   1      -2.652 114.807  24.199  0.00  0.00    -0.050 A 
ATOM      7  H2  EDK d   1      -3.212 115.263  26.207  0.00  0.00     0.084 H 
ATOM      8  C3  EDK d   1      -2.740 113.891  23.163  0.00  0.00     0.068 A 
ATOM      9  H1  EDK d   1      -2.098 115.729  24.065  0.00  0.00     0.087 H 
ATOM     10  C24 EDK d   1      -3.430 112.704  23.343  0.00  0.00    -0.050 A 
ATOM     11  C23 EDK d   1      -4.037 112.444  24.559  0.00  0.00    -0.074 A 
ATOM     12  H17 EDK d   1      -3.494 111.983  22.536  0.00  0.00     0.087 H 
ATOM     13  H16 EDK d   1      -4.569 111.510  24.701  0.00  0.00     0.084 H 
BRANCH   8  14
ATOM     14  O   EDK d   1      -2.165 114.219  21.959  0.00  0.00    -0.350 OA
BRANCH  14  15
ATOM     15  C2  EDK d   1      -2.295 113.293  20.864  0.00  0.00     0.041 C 
ATOM     16  H18 EDK d   1      -3.357 113.132  20.629  0.00  0.00     0.077 H 
ATOM     17  H19 EDK d   1      -1.827 112.332  21.124  0.00  0.00     0.077 H 
BRANCH  15  18
ATOM     18  C1  EDK d   1      -1.592 113.908  19.685  0.00  0.00     0.016 C 
ATOM     19  H20 EDK d   1      -1.638 113.213  18.834  0.00  0.00     0.067 H 
ATOM     20  H21 EDK d   1      -0.541 114.096  19.948  0.00  0.00     0.067 H 
BRANCH  18  21
ATOM     21  N   EDK d   1      -2.227 115.173  19.309  0.00  0.00    -0.368 N 
BRANCH  21  22
ATOM     22  C   EDK d   1      -1.461 116.405  19.450  0.00  0.00    -0.017 C 
ATOM     23  H22 EDK d   1      -2.076 117.258  19.128  0.00  0.00     0.056 H 
ATOM     24  H23 EDK d   1      -0.557 116.348  18.826  0.00  0.00     0.056 H 
ATOM     25  H24 EDK d   1      -1.172 116.538  20.503  0.00  0.00     0.056 H 
ENDBRANCH  21  22
BRANCH  21  26
ATOM     26  C25 EDK d   1      -3.313 115.217  18.344  0.00  0.00     0.124 A 
ATOM     27  N2  EDK d   1      -3.823 114.048  17.940  0.00  0.00    -0.244 NA
ATOM     28  C26 EDK d   1      -4.868 114.093  17.099  0.00  0.00     0.004 A 
ATOM     29  C27 EDK d   1      -5.420 115.266  16.632  0.00  0.00    -0.066 A 
ATOM     30  H28 EDK d   1      -5.301 113.156  16.769  0.00  0.00     0.114 H 
ATOM     31  C28 EDK d   1      -4.866 116.458  17.053  0.00  0.00    -0.078 A 
ATOM     32  H27 EDK d   1      -6.265 115.253  15.953  0.00  0.00     0.085 H 
ATOM     33  C29 EDK d   1      -3.792 116.453  17.925  0.00  0.00    -0.039 A 
ATOM     34  H26 EDK d   1      -5.273 117.399  16.700  0.00  0.00     0.083 H 
ATOM     35  H25 EDK d   1      -3.341 117.377  18.268  0.00  0.00     0.089 H 
ENDBRANCH  21  26
ENDBRANCH  18  21
ENDBRANCH  15  18
ENDBRANCH  14  15
ENDBRANCH   8  14
ENDBRANCH   1   4
BRANCH   1  36
ATOM     36  C8  EDK d   1      -6.153 113.472  26.895  0.00  0.00     0.098 C 
ATOM     37  H6  EDK d   1      -6.665 112.804  26.187  0.00  0.00     0.090 H 
BRANCH  36  38
ATOM     38  N1  EDK d   1      -6.336 114.831  26.408  0.00  0.00    -0.375 N 
ATOM     39  H3  EDK d   1      -5.510 115.433  26.280  0.00  0.00     0.160 HD
BRANCH  38  40
ATOM     40  C9  EDK d   1      -7.597 115.338  26.111  0.00  0.00     0.043 A 
ATOM     41  C10 EDK d   1      -7.686 116.607  25.502  0.00  0.00     0.041 A 
ATOM     42  C11 EDK d   1      -8.943 117.106  25.160  0.00  0.00    -0.067 A 
ATOM     43  C12 EDK d   1     -10.086 116.367  25.412  0.00  0.00    -0.082 A 
ATOM     44  H7  EDK d   1      -9.025 118.081  24.693  0.00  0.00     0.085 H 
ATOM     45  C13 EDK d   1      -9.994 115.124  25.993  0.00  0.00    -0.081 A 
ATOM     46  H8  EDK d   1     -11.058 116.770  25.150  0.00  0.00     0.083 H 
ATOM     47  C14 EDK d   1      -8.759 114.606  26.344  0.00  0.00    -0.057 A 
ATOM     48  H9  EDK d   1     -10.893 114.547  26.177  0.00  0.00     0.083 H 
ATOM     49  H10 EDK d   1      -8.696 113.626  26.802  0.00  0.00     0.086 H 
BRANCH  41  50
ATOM     50  C15 EDK d   1      -6.474 117.407  25.176  0.00  0.00     0.194 C 
ATOM     51  O1  EDK d   1      -5.368 116.903  25.320  0.00  0.00    -0.287 OA
BRANCH  50  52
ATOM     52  C16 EDK d   1      -6.591 118.799  24.655  0.00  0.00     0.015 A 
ATOM     53  C21 EDK d   1      -7.369 119.760  25.296  0.00  0.00    -0.069 A 
ATOM     54  C20 EDK d   1      -7.401 121.063  24.827  0.00  0.00    -0.082 A 
ATOM     55  H11 EDK d   1      -7.953 119.487  26.167  0.00  0.00     0.085 H 
ATOM     56  C19 EDK d   1      -6.660 121.423  23.721  0.00  0.00    -0.083 A 
ATOM     57  H12 EDK d   1      -8.011 121.803  25.332  0.00  0.00     0.083 H 
ATOM     58  C18 EDK d   1      -5.888 120.480  23.078  0.00  0.00    -0.082 A 
ATOM     59  H13 EDK d   1      -6.685 122.444  23.359  0.00  0.00     0.083 H 
ATOM     60  C17 EDK d   1      -5.855 119.173  23.536  0.00  0.00    -0.069 A 
ATOM     61  H14 EDK d   1      -5.304 120.762  22.210  0.00  0.00     0.083 H 
ATOM     62  H15 EDK d   1      -5.251 118.436  23.018  0.00  0.00     0.085 H 
ENDBRANCH  50  52
ENDBRANCH  41  50
ENDBRANCH  38  40
ENDBRANCH  36  38
BRANCH  36  63
ATOM     63  C22 EDK d   1      -6.768 113.235  28.267  0.00  0.00     0.197 C 
ATOM     64  O3  EDK d   1      -6.819 114.082  29.146  0.00  0.00    -0.646 OA
ATOM     65  O2  EDK d   1      -7.244 112.020  28.379  0.00  0.00    -0.646 OA
ENDBRANCH  36  63
ENDBRANCH   1  36
TORSDOF 13
