REMARK WARNING: 32 MAX_TORS EXCEEDED!!!
REMARK  53 active torsions:
REMARK  status: ('A' for Active; 'I' for Inactive)
REMARK    1  A    between atoms: CA_2  and  C_3 
REMARK       I    between atoms: C_3  and  N_8 
REMARK    2  A    between atoms: N_8  and  CA_9 
REMARK    3  A    between atoms: CA_9  and  C_10 
REMARK    4  A    between atoms: CA_9  and  CB_12 
REMARK       I    between atoms: C_10  and  N_14 
REMARK    5  A    between atoms: CB_12  and  OG_13 
REMARK    6  A    between atoms: N_14  and  CA_15 
REMARK    7  A    between atoms: CA_15  and  C_16 
REMARK    8  A    between atoms: CA_15  and  CB_18 
REMARK       I    between atoms: C_16  and  N_22 
REMARK    9  A    between atoms: CB_18  and  CG_19 
REMARK   10  A    between atoms: CG_19  and  CD1_20 
REMARK   11  A    between atoms: CG_19  and  CD2_21 
REMARK   12  A    between atoms: N_22  and  CA_23 
REMARK   13  A    between atoms: CA_23  and  C_24 
REMARK   14  A    between atoms: CA_23  and  CB_26 
REMARK       I    between atoms: C_24  and  N_30 
REMARK   15  A    between atoms: CB_26  and  CG_27 
REMARK   16  A    between atoms: CG_27  and  CD1_28 
REMARK   17  A    between atoms: CG_27  and  CD2_29 
REMARK   18  A    between atoms: N_30  and  CA_31 
REMARK   19  A    between atoms: CA_31  and  C_32 
REMARK   20  A    between atoms: CA_31  and  CB_34 
REMARK       I    between atoms: C_32  and  N_39 
REMARK   21  A    between atoms: CB_34  and  CG_35 
REMARK   22  A    between atoms: CG_35  and  CD_36 
REMARK   23  A    between atoms: CD_36  and  CE_37 
REMARK   24  A    between atoms: CE_37  and  NZ_38 
REMARK   25  A    between atoms: N_39  and  CA_40 
REMARK   26  A    between atoms: CA_40  and  C_41 
REMARK   27  A    between atoms: CA_40  and  CB_43 
REMARK       I    between atoms: C_41  and  N_48 
REMARK   28  A    between atoms: CB_43  and  CG_44 
REMARK   29  A    between atoms: CG_44  and  CD_45 
REMARK   30  A    between atoms: CD_45  and  CE_46 
REMARK   31  A    between atoms: CE_46  and  NZ_47 
REMARK   32  A    between atoms: N_48  and  CA_49 
REMARK   33  A    between atoms: CA_49  and  C_50 
REMARK   34  A    between atoms: CA_49  and  CB_52 
REMARK       I    between atoms: C_50  and  N_56 
REMARK   35  A    between atoms: CB_52  and  CG_53 
REMARK   36  A    between atoms: CG_53  and  CD1_54 
REMARK   37  A    between atoms: CG_53  and  CD2_55 
REMARK   38  A    between atoms: N_56  and  CA_57 
REMARK   39  A    between atoms: CA_57  and  C_58 
REMARK   40  A    between atoms: CA_57  and  CB_60 
REMARK       I    between atoms: C_58  and  N_64 
REMARK   41  A    between atoms: CB_60  and  CG_61 
REMARK   42  A    between atoms: CG_61  and  CD1_62 
REMARK   43  A    between atoms: CG_61  and  CD2_63 
REMARK   44  A    between atoms: N_64  and  CA_65 
REMARK   45  A    between atoms: CA_65  and  C_66 
REMARK   46  A    between atoms: CA_65  and  CB_68 
REMARK       I    between atoms: C_66  and  N_72 
REMARK   47  A    between atoms: CB_68  and  CG_69 
REMARK   48  A    between atoms: CG_69  and  CD1_70 
REMARK   49  A    between atoms: CG_69  and  CD2_71 
REMARK   50  A    between atoms: N_72  and  CA_73 
REMARK   51  A    between atoms: CA_73  and  C_74 
REMARK   52  A    between atoms: CA_73  and  CB_76 
REMARK       I    between atoms: C_74  and  N_77 
REMARK   53  A    between atoms: CA_78  and  C_79 
REMARK       I    between atoms: C_79  and  N_84 
ROOT
ATOM      1  CA  PRO d   1     -37.584  30.174  -8.278  0.00  0.00     0.089 C 
ATOM      2  H51 PRO d   1     -38.572  30.343  -8.731  0.00  0.00     0.087 H 
ENDROOT
BRANCH   1   3
ATOM      3  N   PRO d   1     -37.422  28.739  -8.067  0.00  0.00    -0.346 N 
ATOM      4  C   PRO d   1     -37.467  27.889  -9.101  0.00  0.00     0.241 C 
ATOM      5  O   PRO d   1     -37.672  28.269 -10.258  0.00  0.00    -0.271 OA
ATOM      6  H50 PRO d   1     -37.276  28.387  -7.142  0.00  0.00     0.163 HD
BRANCH   4   7
ATOM      7  CA  PRO d   1     -37.241  26.411  -8.809  0.00  0.00     0.089 C 
ATOM      8  H38 PRO d   1     -36.954  25.919  -9.750  0.00  0.00     0.087 H 
BRANCH   7   9
ATOM      9  N   PRO d   1     -36.159  26.218  -7.850  0.00  0.00    -0.346 N 
ATOM     10  C   PRO d   1     -34.916  26.604  -8.154  0.00  0.00     0.241 C 
ATOM     11  O   PRO d   1     -34.617  27.043  -9.272  0.00  0.00    -0.271 OA
ATOM     12  H37 PRO d   1     -36.348  25.796  -6.963  0.00  0.00     0.163 HD
BRANCH  10  13
ATOM     13  CA  PRO d   1     -33.860  26.483  -7.065  0.00  0.00     0.089 C 
ATOM     14  H27 PRO d   1     -33.037  27.171  -7.308  0.00  0.00     0.087 H 
BRANCH  13  15
ATOM     15  N   PRO d   1     -34.398  26.858  -5.763  0.00  0.00    -0.346 N 
ATOM     16  C   PRO d   1     -34.827  28.105  -5.538  0.00  0.00     0.241 C 
ATOM     17  O   PRO d   1     -34.672  29.013  -6.359  0.00  0.00    -0.271 OA
ATOM     18  H26 PRO d   1     -34.447  26.177  -5.032  0.00  0.00     0.163 HD
BRANCH  16  19
ATOM     19  CA  PRO d   1     -35.515  28.402  -4.207  0.00  0.00     0.089 C 
ATOM     20  H16 PRO d   1     -36.243  29.210  -4.373  0.00  0.00     0.087 H 
BRANCH  19  21
ATOM     21  N   PRO d   1     -36.236  27.246  -3.690  0.00  0.00    -0.346 N 
ATOM     22  C   PRO d   1     -37.371  26.828  -4.240  0.00  0.00     0.243 C 
ATOM     23  O   PRO d   1     -37.888  27.379  -5.212  0.00  0.00    -0.271 OA
ATOM     24  H15 PRO d   1     -35.867  26.755  -2.901  0.00  0.00     0.163 HD
BRANCH  22  25
ATOM     25  CA  PRO d   1     -38.021  25.606  -3.599  0.00  0.00     0.109 C 
ATOM     26  H11 PRO d   1     -37.422  25.318  -2.722  0.00  0.00     0.090 H 
BRANCH  25  27
ATOM     27  N   PRO d   1     -39.376  25.902  -3.147  0.00  0.00    -0.344 N 
ATOM     28  C   PRO d   1     -39.613  26.438  -1.954  0.00  0.00     0.249 C 
ATOM     29  O   PRO d   1     -38.724  26.722  -1.152  0.00  0.00    -0.271 OA
ATOM     30  H10 PRO d   1     -40.147  25.696  -3.750  0.00  0.00     0.163 HD
BRANCH  28  31
ATOM     31  CA  PRO d   1     -41.073  26.700  -1.600  0.00  0.00     0.178 C 
ATOM     32  N   PRO d   1     -41.456  26.038  -0.348  0.00  0.00    -0.062 N 
ATOM     33  CD  PRO d   1     -42.117  26.962   0.589  0.00  0.00     0.083 C 
ATOM     34  H1  PRO d   1     -40.627  25.668   0.091  0.00  0.00     0.278 HD
ATOM     35  H2  PRO d   1     -42.089  25.283  -0.560  0.00  0.00     0.278 HD
ATOM     36  CG  PRO d   1     -42.347  28.192  -0.243  0.00  0.00    -0.040 C 
ATOM     37  H8  PRO d   1     -41.467  27.183   1.448  0.00  0.00     0.075 H 
ATOM     38  H9  PRO d   1     -43.070  26.545   0.948  0.00  0.00     0.075 H 
ATOM     39  CB  PRO d   1     -41.281  28.182  -1.284  0.00  0.00    -0.028 C 
ATOM     40  H6  PRO d   1     -43.341  28.157  -0.712  0.00  0.00     0.035 H 
ATOM     41  H7  PRO d   1     -42.267  29.096   0.379  0.00  0.00     0.035 H 
ATOM     42  H4  PRO d   1     -41.607  28.729  -2.181  0.00  0.00     0.036 H 
ATOM     43  H5  PRO d   1     -40.355  28.631  -0.897  0.00  0.00     0.036 H 
ATOM     44  H3  PRO d   1     -41.717  26.375  -2.430  0.00  0.00     0.099 H 
ENDBRANCH  28  31
ENDBRANCH  25  27
BRANCH  25  45
ATOM     45  CB  PRO d   1     -38.029  24.436  -4.584  0.00  0.00     0.044 C 
ATOM     46  H12 PRO d   1     -38.949  24.479  -5.185  0.00  0.00     0.077 H 
ATOM     47  H13 PRO d   1     -38.003  23.492  -4.021  0.00  0.00     0.077 H 
BRANCH  45  48
ATOM     48  OG  PRO d   1     -36.908  24.490  -5.449  0.00  0.00    -0.398 OA
ATOM     49  H14 PRO d   1     -36.110  24.450  -4.935  0.00  0.00     0.209 HD
ENDBRANCH  45  48
ENDBRANCH  25  45
ENDBRANCH  22  25
ENDBRANCH  19  21
BRANCH  19  50
ATOM     50  CB  PRO d   1     -34.484  28.882  -3.184  0.00  0.00    -0.035 C 
ATOM     51  H17 PRO d   1     -33.926  29.711  -3.643  0.00  0.00     0.037 H 
ATOM     52  H18 PRO d   1     -33.800  28.043  -2.988  0.00  0.00     0.037 H 
BRANCH  50  53
ATOM     53  CG  PRO d   1     -35.005  29.375  -1.830  0.00  0.00    -0.059 C 
ATOM     54  H19 PRO d   1     -35.569  28.556  -1.360  0.00  0.00     0.038 H 
BRANCH  53  55
ATOM     55  CD1 PRO d   1     -33.834  29.724  -0.934  0.00  0.00    -0.073 C 
ATOM     56  H20 PRO d   1     -34.209  30.078   0.038  0.00  0.00     0.028 H 
ATOM     57  H21 PRO d   1     -33.234  30.516  -1.406  0.00  0.00     0.028 H 
ATOM     58  H22 PRO d   1     -33.209  28.831  -0.783  0.00  0.00     0.028 H 
ENDBRANCH  53  55
BRANCH  53  59
ATOM     59  CD2 PRO d   1     -35.947  30.566  -1.986  0.00  0.00    -0.073 C 
ATOM     60  H23 PRO d   1     -36.786  30.286  -2.640  0.00  0.00     0.028 H 
ATOM     61  H24 PRO d   1     -35.400  31.410  -2.432  0.00  0.00     0.028 H 
ATOM     62  H25 PRO d   1     -36.333  30.860  -0.999  0.00  0.00     0.028 H 
ENDBRANCH  53  59
ENDBRANCH  50  53
ENDBRANCH  19  50
ENDBRANCH  16  19
ENDBRANCH  13  15
BRANCH  13  63
ATOM     63  CB  PRO d   1     -33.301  25.060  -7.018  0.00  0.00    -0.035 C 
ATOM     64  H28 PRO d   1     -33.110  24.733  -8.051  0.00  0.00     0.037 H 
ATOM     65  H29 PRO d   1     -34.061  24.408  -6.562  0.00  0.00     0.037 H 
BRANCH  63  66
ATOM     66  CG  PRO d   1     -32.000  24.909  -6.220  0.00  0.00    -0.059 C 
ATOM     67  H30 PRO d   1     -32.183  25.276  -5.199  0.00  0.00     0.038 H 
BRANCH  66  68
ATOM     68  CD1 PRO d   1     -31.584  23.451  -6.125  0.00  0.00    -0.073 C 
ATOM     69  H31 PRO d   1     -30.650  23.373  -5.549  0.00  0.00     0.028 H 
ATOM     70  H32 PRO d   1     -31.425  23.048  -7.136  0.00  0.00     0.028 H 
ATOM     71  H33 PRO d   1     -32.375  22.876  -5.621  0.00  0.00     0.028 H 
ENDBRANCH  66  68
BRANCH  66  72
ATOM     72  CD2 PRO d   1     -30.892  25.756  -6.834  0.00  0.00    -0.073 C 
ATOM     73  H34 PRO d   1     -31.220  26.804  -6.890  0.00  0.00     0.028 H 
ATOM     74  H35 PRO d   1     -30.667  25.388  -7.846  0.00  0.00     0.028 H 
ATOM     75  H36 PRO d   1     -29.989  25.688  -6.209  0.00  0.00     0.028 H 
ENDBRANCH  66  72
ENDBRANCH  63  66
ENDBRANCH  13  63
ENDBRANCH  10  13
ENDBRANCH   7   9
BRANCH   7  76
ATOM     76  CB  PRO d   1     -38.522  25.759  -8.303  0.00  0.00    -0.038 C 
ATOM     77  H39 PRO d   1     -39.372  26.406  -8.566  0.00  0.00     0.036 H 
ATOM     78  H40 PRO d   1     -38.458  25.664  -7.209  0.00  0.00     0.036 H 
BRANCH  76  79
ATOM     79  CG  PRO d   1     -38.759  24.397  -8.888  0.00  0.00    -0.061 C 
ATOM     80  H41 PRO d   1     -37.835  23.807  -8.796  0.00  0.00     0.033 H 
ATOM     81  H42 PRO d   1     -39.018  24.509  -9.951  0.00  0.00     0.033 H 
BRANCH  79  82
ATOM     82  CD  PRO d   1     -39.866  23.667  -8.198  0.00  0.00    -0.043 C 
ATOM     83  H43 PRO d   1     -40.832  24.083  -8.520  0.00  0.00     0.035 H 
ATOM     84  H44 PRO d   1     -39.759  23.788  -7.110  0.00  0.00     0.035 H 
BRANCH  82  85
ATOM     85  CE  PRO d   1     -39.813  22.192  -8.547  0.00  0.00     0.080 C 
ATOM     86  H45 PRO d   1     -38.947  21.741  -8.041  0.00  0.00     0.075 H 
ATOM     87  H46 PRO d   1     -39.694  22.092  -9.636  0.00  0.00     0.075 H 
BRANCH  85  88
ATOM     88  NZ  PRO d   1     -41.039  21.461  -8.133  0.00  0.00    -0.079 N 
ATOM     89  H47 PRO d   1     -40.953  20.489  -8.387  0.00  0.00     0.274 HD
ATOM     90  H48 PRO d   1     -41.840  21.860  -8.597  0.00  0.00     0.274 HD
ATOM     91  H49 PRO d   1     -41.155  21.538  -7.135  0.00  0.00     0.274 HD
ENDBRANCH  85  88
ENDBRANCH  82  85
ENDBRANCH  79  82
ENDBRANCH  76  79
ENDBRANCH   7  76
ENDBRANCH   4   7
ENDBRANCH   1   3
BRANCH   1  92
ATOM     92  C   PRO d   1     -36.526  30.718  -9.228  0.00  0.00     0.241 C 
ATOM     93  O   PRO d   1     -36.849  31.454 -10.165  0.00  0.00    -0.271 OA
ATOM     94  N   PRO d   1     -35.250  30.387  -8.988  0.00  0.00    -0.346 N 
ATOM     95  H63 PRO d   1     -35.016  29.864  -8.168  0.00  0.00     0.163 HD
BRANCH  94  96
ATOM     96  CA  PRO d   1     -34.201  30.788  -9.921  0.00  0.00     0.089 C 
ATOM     97  H64 PRO d   1     -34.205  31.886  -9.990  0.00  0.00     0.087 H 
BRANCH  96  98
ATOM     98  C   PRO d   1     -34.454  30.219 -11.318  0.00  0.00     0.241 C 
ATOM     99  O   PRO d   1     -34.240  30.905 -12.323  0.00  0.00    -0.271 OA
ATOM    100  N   PRO d   1     -34.918  28.968 -11.398  0.00  0.00    -0.346 N 
ATOM    101  H74 PRO d   1     -35.158  28.474 -10.562  0.00  0.00     0.163 HD
BRANCH 100 102
ATOM    102  CA  PRO d   1     -35.077  28.316 -12.696  0.00  0.00     0.089 C 
ATOM    103  H75 PRO d   1     -34.156  28.480 -13.274  0.00  0.00     0.087 H 
BRANCH 102 104
ATOM    104  C   PRO d   1     -36.238  28.907 -13.487  0.00  0.00     0.241 C 
ATOM    105  O   PRO d   1     -36.169  29.006 -14.715  0.00  0.00    -0.271 OA
ATOM    106  N   PRO d   1     -37.309  29.301 -12.813  0.00  0.00    -0.346 N 
ATOM    107  H85 PRO d   1     -37.322  29.225 -11.816  0.00  0.00     0.163 HD
BRANCH 106 108
ATOM    108  CA  PRO d   1     -38.467  29.843 -13.509  0.00  0.00     0.089 C 
ATOM    109  H86 PRO d   1     -38.490  29.396 -14.514  0.00  0.00     0.087 H 
BRANCH 108 110
ATOM    110  C   PRO d   1     -38.404  31.354 -13.674  0.00  0.00     0.241 C 
ATOM    111  O   PRO d   1     -39.307  31.929 -14.285  0.00  0.00    -0.271 OA
ATOM    112  N   PRO d   1     -37.367  32.007 -13.158  0.00  0.00    -0.346 N 
ATOM    113  H96 PRO d   1     -36.644  31.500 -12.689  0.00  0.00     0.163 HD
BRANCH 112 114
ATOM    114  CA  PRO d   1     -37.278  33.454 -13.271  0.00  0.00     0.086 C 
ATOM    115  H97 PRO d   1     -38.229  33.891 -12.931  0.00  0.00     0.086 H 
BRANCH 114 116
ATOM    116  C   PRO d   1     -37.047  33.860 -14.729  0.00  0.00     0.243 C 
ATOM    117  O   PRO d   1     -36.408  33.131 -15.493  0.00  0.00    -0.271 OA
ATOM    118  N   PRO d   1     -37.567  35.027 -15.147  0.00  0.00    -0.337 N 
ATOM    119  CA  PRO d   1     -37.393  35.486 -16.532  0.00  0.00     0.091 C 
ATOM    120  CD  PRO d   1     -38.372  35.972 -14.352  0.00  0.00    -0.001 C 
ATOM    121  CB  PRO d   1     -38.342  36.682 -16.621  0.00  0.00    -0.036 C 
ATOM    122 1H10 PRO d   1     -37.697  34.695 -17.233  0.00  0.00     0.087 H 
ATOM    123  CG  PRO d   1     -38.411  37.197 -15.221  0.00  0.00    -0.048 C 
ATOM    124 2H10 PRO d   1     -39.336  36.367 -16.970  0.00  0.00     0.036 H 
ATOM    125 3H10 PRO d   1     -37.941  37.449 -17.300  0.00  0.00     0.036 H 
ATOM    126 4H10 PRO d   1     -39.345  37.755 -15.060  0.00  0.00     0.035 H 
ATOM    127 5H10 PRO d   1     -37.552  37.850 -15.007  0.00  0.00     0.035 H 
ATOM    128 6H10 PRO d   1     -37.890  36.187 -13.387  0.00  0.00     0.064 H 
ATOM    129 7H10 PRO d   1     -39.384  35.579 -14.177  0.00  0.00     0.064 H 
BRANCH 119 130
ATOM    130  C   PRO d   1     -35.958  35.911 -16.864  0.00  0.00     0.238 C 
ATOM    131  O   PRO d   1     -35.662  36.183 -18.029  0.00  0.00    -0.271 OA
ATOM    132  N   PRO d   1     -35.086  35.966 -15.860  0.00  0.00    -0.368 N 
ATOM    133 8H10 PRO d   1     -34.140  36.239 -16.034  0.00  0.00     0.159 HD
ATOM    134 9H10 PRO d   1     -35.377  35.735 -14.932  0.00  0.00     0.159 HD
ENDBRANCH 119 130
ENDBRANCH 114 116
BRANCH 114 135
ATOM    135  CB  PRO d   1     -36.153  33.991 -12.389  0.00  0.00    -0.049 C 
ATOM    136  H98 PRO d   1     -36.101  35.085 -12.487  0.00  0.00     0.030 H 
ATOM    137  H99 PRO d   1     -35.197  33.548 -12.704  0.00  0.00     0.030 H 
ATOM    138 0H10 PRO d   1     -36.351  33.726 -11.340  0.00  0.00     0.030 H 
ENDBRANCH 114 135
ENDBRANCH 112 114
ENDBRANCH 108 110
BRANCH 108 139
ATOM    139  CB  PRO d   1     -39.763  29.457 -12.781  0.00  0.00    -0.035 C 
ATOM    140  H87 PRO d   1     -40.600  29.885 -13.352  0.00  0.00     0.037 H 
ATOM    141  H88 PRO d   1     -39.728  29.916 -11.782  0.00  0.00     0.037 H 
BRANCH 139 142
ATOM    142  CG  PRO d   1     -40.055  27.960 -12.589  0.00  0.00    -0.059 C 
ATOM    143  H89 PRO d   1     -39.180  27.516 -12.092  0.00  0.00     0.038 H 
BRANCH 142 144
ATOM    144  CD1 PRO d   1     -41.259  27.773 -11.672  0.00  0.00    -0.073 C 
ATOM    145  H90 PRO d   1     -41.458  26.699 -11.542  0.00  0.00     0.028 H 
ATOM    146  H91 PRO d   1     -42.139  28.258 -12.119  0.00  0.00     0.028 H 
ATOM    147  H92 PRO d   1     -41.048  28.228 -10.693  0.00  0.00     0.028 H 
ENDBRANCH 142 144
BRANCH 142 148
ATOM    148  CD2 PRO d   1     -40.257  27.204 -13.924  0.00  0.00    -0.073 C 
ATOM    149  H93 PRO d   1     -39.377  27.354 -14.567  0.00  0.00     0.028 H 
ATOM    150  H94 PRO d   1     -41.153  27.590 -14.432  0.00  0.00     0.028 H 
ATOM    151  H95 PRO d   1     -40.385  26.130 -13.722  0.00  0.00     0.028 H 
ENDBRANCH 142 148
ENDBRANCH 139 142
ENDBRANCH 108 139
ENDBRANCH 106 108
ENDBRANCH 102 104
BRANCH 102 152
ATOM    152  CB  PRO d   1     -35.263  26.808 -12.511  0.00  0.00    -0.035 C 
ATOM    153  H76 PRO d   1     -35.799  26.419 -13.389  0.00  0.00     0.037 H 
ATOM    154  H77 PRO d   1     -35.871  26.646 -11.609  0.00  0.00     0.037 H 
BRANCH 152 155
ATOM    155  CG  PRO d   1     -33.969  26.021 -12.358  0.00  0.00    -0.059 C 
ATOM    156  H78 PRO d   1     -33.338  26.532 -11.616  0.00  0.00     0.038 H 
BRANCH 155 157
ATOM    157  CD1 PRO d   1     -34.237  24.607 -11.858  0.00  0.00    -0.073 C 
ATOM    158  H79 PRO d   1     -33.284  24.067 -11.758  0.00  0.00     0.028 H 
ATOM    159  H80 PRO d   1     -34.884  24.081 -12.575  0.00  0.00     0.028 H 
ATOM    160  H81 PRO d   1     -34.736  24.653 -10.879  0.00  0.00     0.028 H 
ENDBRANCH 155 157
BRANCH 155 161
ATOM    161  CD2 PRO d   1     -33.226  25.994 -13.687  0.00  0.00    -0.073 C 
ATOM    162  H82 PRO d   1     -33.044  27.024 -14.027  0.00  0.00     0.028 H 
ATOM    163  H83 PRO d   1     -33.832  25.463 -14.435  0.00  0.00     0.028 H 
ATOM    164  H84 PRO d   1     -32.264  25.475 -13.559  0.00  0.00     0.028 H 
ENDBRANCH 155 161
ENDBRANCH 152 155
ENDBRANCH 102 152
ENDBRANCH 100 102
ENDBRANCH  96  98
BRANCH  96 165
ATOM    165  CB  PRO d   1     -32.829  30.342  -9.412  0.00  0.00    -0.035 C 
ATOM    166  H65 PRO d   1     -32.100  30.532 -10.213  0.00  0.00     0.037 H 
ATOM    167  H66 PRO d   1     -32.884  29.261  -9.214  0.00  0.00     0.037 H 
BRANCH 165 168
ATOM    168  CG  PRO d   1     -32.305  31.018  -8.141  0.00  0.00    -0.059 C 
ATOM    169  H67 PRO d   1     -33.019  30.836  -7.324  0.00  0.00     0.038 H 
BRANCH 168 170
ATOM    170  CD1 PRO d   1     -30.940  30.444  -7.726  0.00  0.00    -0.073 C 
ATOM    171  H68 PRO d   1     -30.592  30.949  -6.813  0.00  0.00     0.028 H 
ATOM    172  H69 PRO d   1     -30.212  30.607  -8.535  0.00  0.00     0.028 H 
ATOM    173  H70 PRO d   1     -31.039  29.366  -7.534  0.00  0.00     0.028 H 
ENDBRANCH 168 170
BRANCH 168 174
ATOM    174  CD2 PRO d   1     -32.212  32.511  -8.385  0.00  0.00    -0.073 C 
ATOM    175  H71 PRO d   1     -33.199  32.897  -8.680  0.00  0.00     0.028 H 
ATOM    176  H72 PRO d   1     -31.487  32.707  -9.189  0.00  0.00     0.028 H 
ATOM    177  H73 PRO d   1     -31.883  33.013  -7.463  0.00  0.00     0.028 H 
ENDBRANCH 168 174
ENDBRANCH 165 168
ENDBRANCH  96 165
ENDBRANCH  94  96
ENDBRANCH   1  92
BRANCH   1 178
ATOM    178  CB  PRO d   1     -37.530  30.926  -6.944  0.00  0.00    -0.038 C 
ATOM    179  H52 PRO d   1     -37.551  32.005  -7.156  0.00  0.00     0.036 H 
ATOM    180  H53 PRO d   1     -36.585  30.669  -6.442  0.00  0.00     0.036 H 
BRANCH 178 181
ATOM    181  CG  PRO d   1     -38.664  30.608  -6.005  0.00  0.00    -0.061 C 
ATOM    182  H54 PRO d   1     -38.599  29.550  -5.710  0.00  0.00     0.033 H 
ATOM    183  H55 PRO d   1     -39.618  30.786  -6.522  0.00  0.00     0.033 H 
BRANCH 181 184
ATOM    184  CD  PRO d   1     -38.608  31.476  -4.756  0.00  0.00    -0.043 C 
ATOM    185  H56 PRO d   1     -37.575  31.825  -4.610  0.00  0.00     0.035 H 
ATOM    186  H57 PRO d   1     -38.917  30.874  -3.889  0.00  0.00     0.035 H 
BRANCH 184 187
ATOM    187  CE  PRO d   1     -39.529  32.690  -4.869  0.00  0.00     0.080 C 
ATOM    188  H58 PRO d   1     -39.569  33.191  -3.891  0.00  0.00     0.075 H 
ATOM    189  H59 PRO d   1     -40.535  32.342  -5.144  0.00  0.00     0.075 H 
BRANCH 187 190
ATOM    190  NZ  PRO d   1     -39.075  33.674  -5.887  0.00  0.00    -0.079 N 
ATOM    191  H60 PRO d   1     -39.719  34.449  -5.916  0.00  0.00     0.274 HD
ATOM    192  H61 PRO d   1     -39.042  33.231  -6.792  0.00  0.00     0.274 HD
ATOM    193  H62 PRO d   1     -38.156  34.010  -5.644  0.00  0.00     0.274 HD
ENDBRANCH 187 190
ENDBRANCH 184 187
ENDBRANCH 181 184
ENDBRANCH 178 181
ENDBRANCH   1 178
TORSDOF 53
