REMARK  8 active torsions:
REMARK  status: ('A' for Active; 'I' for Inactive)
REMARK    1  A    between atoms: CAB_1  and  CAC_2 
REMARK    2  A    between atoms: CAC_2  and  CAD_3 
REMARK    3  A    between atoms: CAD_3  and  CAE_4 
REMARK    4  A    between atoms: CAQ_5  and  CAY_6 
REMARK    5  A    between atoms: CAK_15  and  CAL_16 
REMARK    6  A    between atoms: CAL_16  and  SAM_17 
REMARK    7  A    between atoms: SAM_17  and  CAN_18 
REMARK    8  A    between atoms: CAV_21  and  CAW_22 
ROOT
ATOM      1  CAE EE5 d   1     -13.875 -13.737  -0.249  0.00  0.00     0.026 A 
ATOM      2  CAQ EE5 d   1     -13.375 -15.066  -0.489  0.00  0.00    -0.013 A 
ATOM      3  CAR EE5 d   1     -12.323 -15.330  -1.436  0.00  0.00     0.082 A 
ATOM      4  NAS EE5 d   1     -11.904 -16.624  -1.580  0.00  0.00    -0.233 NA
ATOM      5  CAF EE5 d   1     -13.264 -12.662  -1.026  0.00  0.00    -0.063 A 
ATOM      6  CAG EE5 d   1     -12.214 -12.922  -1.999  0.00  0.00    -0.064 A 
ATOM      7  CAH EE5 d   1     -11.725 -14.261  -2.200  0.00  0.00     0.061 A 
ATOM      8  CAI EE5 d   1     -10.672 -14.626  -3.101  0.00  0.00     0.259 A 
ATOM      9  OAA EE5 d   1     -10.054 -13.849  -3.799  0.00  0.00    -0.267 OA
ATOM     10  NAJ EE5 d   1     -10.270 -15.968  -3.198  0.00  0.00    -0.310 N 
ATOM     11  CAK EE5 d   1     -10.912 -16.963  -2.415  0.00  0.00     0.117 A 
ATOM     12  H7  EE5 d   1     -13.602 -11.643  -0.874  0.00  0.00     0.085 H 
ATOM     13  H8  EE5 d   1     -11.798 -12.104  -2.575  0.00  0.00     0.085 H 
ATOM     14  H9  EE5 d   1      -9.530 -16.223  -3.820  0.00  0.00     0.170 HD
ENDROOT
BRANCH  11  15
ATOM     15  CAL EE5 d   1     -10.534 -18.298  -2.462  0.00  0.00     0.036 C 
ATOM     16  H10 EE5 d   1     -10.284 -18.571  -3.498  0.00  0.00     0.061 H 
ATOM     17  H11 EE5 d   1     -11.365 -18.926  -2.107  0.00  0.00     0.061 H 
BRANCH  15  18
ATOM     18  SAM EE5 d   1      -9.061 -18.567  -1.386  0.00  0.00    -0.122 SA
BRANCH  18  19
ATOM     19  CAN EE5 d   1      -9.583 -18.761   0.302  0.00  0.00     0.001 A 
ATOM     20  CAO EE5 d   1     -10.890 -18.456   0.761  0.00  0.00    -0.066 A 
ATOM     21  CAP EE5 d   1     -11.268 -18.620   2.117  0.00  0.00    -0.065 A 
ATOM     22  H12 EE5 d   1     -11.622 -18.086   0.053  0.00  0.00     0.085 H 
ATOM     23  CAV EE5 d   1     -10.316 -19.106   3.040  0.00  0.00     0.040 A 
ATOM     24  H13 EE5 d   1     -12.273 -18.376   2.441  0.00  0.00     0.085 H 
ATOM     25  CAU EE5 d   1      -9.006 -19.418   2.591  0.00  0.00    -0.065 A 
ATOM     26  CAT EE5 d   1      -8.645 -19.240   1.238  0.00  0.00    -0.066 A 
ATOM     27  H14 EE5 d   1      -8.274 -19.797   3.295  0.00  0.00     0.085 H 
ATOM     28  H15 EE5 d   1      -7.637 -19.474   0.916  0.00  0.00     0.085 H 
BRANCH  23  29
ATOM     29  CAW EE5 d   1     -10.649 -19.277   4.382  0.00  0.00     0.209 C 
ATOM     30  OAZ EE5 d   1     -11.811 -18.990   4.769  0.00  0.00    -0.644 OA
ATOM     31  OAX EE5 d   1      -9.772 -19.714   5.189  0.00  0.00    -0.644 OA
ENDBRANCH  23  29
ENDBRANCH  18  19
ENDBRANCH  15  18
ENDBRANCH  11  15
BRANCH   2  32
ATOM     32  CAY EE5 d   1     -13.887 -16.151   0.252  0.00  0.00    -0.048 C 
ATOM     33  H4  EE5 d   1     -14.678 -15.793   0.927  0.00  0.00     0.033 H 
ATOM     34  H5  EE5 d   1     -13.078 -16.605   0.843  0.00  0.00     0.033 H 
ATOM     35  H6  EE5 d   1     -14.304 -16.901  -0.436  0.00  0.00     0.033 H 
ENDBRANCH   2  32
BRANCH   1  36
ATOM     36  CAD EE5 d   1     -14.973 -13.615   0.798  0.00  0.00    -0.067 C 
BRANCH  36  37
ATOM     37  CAC EE5 d   1     -15.901 -13.514   1.683  0.00  0.00    -0.105 C 
BRANCH  37  38
ATOM     38  CAB EE5 d   1     -16.967 -13.503   2.754  0.00  0.00    -0.021 C 
ATOM     39  H1  EE5 d   1     -17.472 -12.526   2.758  0.00  0.00     0.044 H 
ATOM     40  H2  EE5 d   1     -16.503 -13.680   3.735  0.00  0.00     0.044 H 
ATOM     41  H3  EE5 d   1     -17.702 -14.295   2.548  0.00  0.00     0.044 H 
ENDBRANCH  37  38
ENDBRANCH  36  37
ENDBRANCH   1  36
TORSDOF 8
