REMARK WARNING: 32 MAX_TORS EXCEEDED!!!
REMARK  51 active torsions:
REMARK  status: ('A' for Active; 'I' for Inactive)
REMARK    1  A    between atoms: N_1  and  CA_2 
REMARK    2  A    between atoms: CA_2  and  C_3 
REMARK    3  A    between atoms: CA_2  and  CB_5 
REMARK       I    between atoms: C_3  and  N_7 
REMARK    4  A    between atoms: CB_5  and  OG_6 
REMARK    5  A    between atoms: N_7  and  CA_8 
REMARK    6  A    between atoms: CA_8  and  C_9 
REMARK    7  A    between atoms: CA_8  and  CB_11 
REMARK       I    between atoms: C_9  and  N_15 
REMARK    8  A    between atoms: CB_11  and  CG_12 
REMARK    9  A    between atoms: CG_12  and  CD1_13 
REMARK   10  A    between atoms: CG_12  and  CD2_14 
REMARK   11  A    between atoms: N_15  and  CA_16 
REMARK   12  A    between atoms: CA_16  and  C_17 
REMARK   13  A    between atoms: CA_16  and  CB_19 
REMARK       I    between atoms: C_17  and  N_23 
REMARK   14  A    between atoms: CB_19  and  CG_20 
REMARK   15  A    between atoms: CG_20  and  CD1_21 
REMARK   16  A    between atoms: CG_20  and  CD2_22 
REMARK   17  A    between atoms: N_23  and  CA_24 
REMARK   18  A    between atoms: CA_24  and  C_25 
REMARK   19  A    between atoms: CA_24  and  CB_27 
REMARK       I    between atoms: C_25  and  N_32 
REMARK   20  A    between atoms: CB_27  and  CG_28 
REMARK   21  A    between atoms: CG_28  and  CD_29 
REMARK   22  A    between atoms: CD_29  and  CE_30 
REMARK   23  A    between atoms: CE_30  and  NZ_31 
REMARK   24  A    between atoms: N_32  and  CA_33 
REMARK   25  A    between atoms: CA_33  and  C_34 
REMARK   26  A    between atoms: CA_33  and  CB_36 
REMARK       I    between atoms: C_34  and  N_41 
REMARK   27  A    between atoms: CB_36  and  CG_37 
REMARK   28  A    between atoms: CG_37  and  CD_38 
REMARK   29  A    between atoms: CD_38  and  CE_39 
REMARK   30  A    between atoms: CE_39  and  NZ_40 
REMARK   31  A    between atoms: N_41  and  CA_42 
REMARK   32  A    between atoms: CA_42  and  C_43 
REMARK   33  A    between atoms: CA_42  and  CB_45 
REMARK       I    between atoms: C_43  and  N_49 
REMARK   34  A    between atoms: CB_45  and  CG_46 
REMARK   35  A    between atoms: CG_46  and  CD1_47 
REMARK   36  A    between atoms: CG_46  and  CD2_48 
REMARK   37  A    between atoms: N_49  and  CA_50 
REMARK   38  A    between atoms: CA_50  and  C_51 
REMARK   39  A    between atoms: CA_50  and  CB_53 
REMARK       I    between atoms: C_51  and  N_57 
REMARK   40  A    between atoms: CB_53  and  CG_54 
REMARK   41  A    between atoms: CG_54  and  CD1_55 
REMARK   42  A    between atoms: CG_54  and  CD2_56 
REMARK   43  A    between atoms: N_57  and  CA_58 
REMARK   44  A    between atoms: CA_58  and  C_59 
REMARK   45  A    between atoms: CA_58  and  CB_61 
REMARK       I    between atoms: C_59  and  N_65 
REMARK   46  A    between atoms: CB_61  and  CG_62 
REMARK   47  A    between atoms: CG_62  and  CD1_63 
REMARK   48  A    between atoms: CG_62  and  CD2_64 
REMARK   49  A    between atoms: N_65  and  CA_66 
REMARK   50  A    between atoms: CA_66  and  C_67 
REMARK   51  A    between atoms: CA_66  and  CB_69 
ROOT
ATOM      1  CA  SER d   1      -1.768 -11.468  10.731  0.00  0.00     0.089 C 
ATOM      2  H44 SER d   1      -0.820 -10.916  10.648  0.00  0.00     0.087 H 
ENDROOT
BRANCH   1   3
ATOM      3  N   SER d   1      -1.986 -11.788  12.137  0.00  0.00    -0.346 N 
ATOM      4  C   SER d   1      -1.868 -10.840  13.071  0.00  0.00     0.241 C 
ATOM      5  O   SER d   1      -1.548  -9.678  12.795  0.00  0.00    -0.271 OA
ATOM      6  H43 SER d   1      -2.225 -12.722  12.403  0.00  0.00     0.163 HD
BRANCH   4   7
ATOM      7  CA  SER d   1      -2.141 -11.236  14.517  0.00  0.00     0.089 C 
ATOM      8  H31 SER d   1      -2.474 -10.339  15.059  0.00  0.00     0.087 H 
BRANCH   7   9
ATOM      9  N   SER d   1      -3.193 -12.243  14.616  0.00  0.00    -0.346 N 
ATOM     10  C   SER d   1      -4.428 -11.985  14.175  0.00  0.00     0.241 C 
ATOM     11  O   SER d   1      -4.739 -10.891  13.692  0.00  0.00    -0.271 OA
ATOM     12  H30 SER d   1      -2.987 -13.135  15.018  0.00  0.00     0.163 HD
BRANCH  10  13
ATOM     13  CA  SER d   1      -5.461 -13.099  14.290  0.00  0.00     0.089 C 
ATOM     14  H20 SER d   1      -6.267 -12.895  13.570  0.00  0.00     0.087 H 
BRANCH  13  15
ATOM     15  N   SER d   1      -4.881 -14.399  13.968  0.00  0.00    -0.346 N 
ATOM     16  C   SER d   1      -4.444 -14.657  12.732  0.00  0.00     0.241 C 
ATOM     17  O   SER d   1      -4.519 -13.827  11.819  0.00  0.00    -0.271 OA
ATOM     18  H19 SER d   1      -4.810 -15.101  14.677  0.00  0.00     0.163 HD
BRANCH  16  19
ATOM     19  CA  SER d   1      -3.836 -16.028  12.465  0.00  0.00     0.089 C 
ATOM     20  H9  SER d   1      -3.102 -15.921  11.653  0.00  0.00     0.087 H 
BRANCH  19  21
ATOM     21  N   SER d   1      -3.141 -16.550  13.637  0.00  0.00    -0.346 N 
ATOM     22  C   SER d   1      -1.985 -16.012  14.030  0.00  0.00     0.251 C 
ATOM     23  O   SER d   1      -1.466 -15.055  13.458  0.00  0.00    -0.271 OA
ATOM     24  H8  SER d   1      -3.533 -17.315  14.148  0.00  0.00     0.163 HD
BRANCH  22  25
ATOM     25  CA  SER d   1      -1.331 -16.642  15.255  0.00  0.00     0.195 C 
ATOM     26  H4  SER d   1      -1.968 -17.471  15.597  0.00  0.00     0.102 H 
BRANCH  25  27
ATOM     27  N   SER d   1      -0.013 -17.182  14.940  0.00  0.00    -0.064 N 
ATOM     28  H1  SER d   1       0.390 -17.590  15.769  0.00  0.00     0.275 HD
ATOM     29  H2  SER d   1       0.583 -16.441  14.606  0.00  0.00     0.275 HD
ATOM     30  H3  SER d   1      -0.101 -17.889  14.227  0.00  0.00     0.275 HD
ENDBRANCH  25  27
BRANCH  25  31
ATOM     31  CB  SER d   1      -1.233 -15.611  16.380  0.00  0.00     0.051 C 
ATOM     32  H5  SER d   1      -0.569 -14.793  16.062  0.00  0.00     0.077 H 
ATOM     33  H6  SER d   1      -0.816 -16.094  17.276  0.00  0.00     0.077 H 
BRANCH  31  34
ATOM     34  OG  SER d   1      -2.509 -15.078  16.692  0.00  0.00    -0.398 OA
ATOM     35  H7  SER d   1      -3.085 -15.780  16.971  0.00  0.00     0.209 HD
ENDBRANCH  31  34
ENDBRANCH  25  31
ENDBRANCH  22  25
ENDBRANCH  19  21
BRANCH  19  36
ATOM     36  CB  SER d   1      -4.916 -17.012  12.010  0.00  0.00    -0.035 C 
ATOM     37  H10 SER d   1      -5.648 -16.448  11.413  0.00  0.00     0.037 H 
ATOM     38  H11 SER d   1      -5.405 -17.407  12.912  0.00  0.00     0.037 H 
BRANCH  36  39
ATOM     39  CG  SER d   1      -4.462 -18.210  11.170  0.00  0.00    -0.059 C 
ATOM     40  H12 SER d   1      -3.840 -17.827  10.348  0.00  0.00     0.038 H 
BRANCH  39  41
ATOM     41  CD1 SER d   1      -3.608 -19.179  11.987  0.00  0.00    -0.073 C 
ATOM     42  H13 SER d   1      -3.302 -20.023  11.352  0.00  0.00     0.028 H 
ATOM     43  H14 SER d   1      -4.193 -19.555  12.839  0.00  0.00     0.028 H 
ATOM     44  H15 SER d   1      -2.714 -18.657  12.358  0.00  0.00     0.028 H 
ENDBRANCH  39  41
BRANCH  39  45
ATOM     45  CD2 SER d   1      -5.662 -18.922  10.556  0.00  0.00    -0.073 C 
ATOM     46  H16 SER d   1      -6.258 -18.202   9.975  0.00  0.00     0.028 H 
ATOM     47  H17 SER d   1      -6.283 -19.350  11.356  0.00  0.00     0.028 H 
ATOM     48  H18 SER d   1      -5.311 -19.727   9.893  0.00  0.00     0.028 H 
ENDBRANCH  39  45
ENDBRANCH  36  39
ENDBRANCH  19  36
ENDBRANCH  16  19
ENDBRANCH  13  15
BRANCH  13  49
ATOM     49  CB  SER d   1      -6.064 -13.124  15.695  0.00  0.00    -0.035 C 
ATOM     50  H21 SER d   1      -6.206 -12.081  16.013  0.00  0.00     0.037 H 
ATOM     51  H22 SER d   1      -5.336 -13.614  16.359  0.00  0.00     0.037 H 
BRANCH  49  52
ATOM     52  CG  SER d   1      -7.402 -13.844  15.868  0.00  0.00    -0.059 C 
ATOM     53  H23 SER d   1      -7.282 -14.886  15.537  0.00  0.00     0.038 H 
BRANCH  52  54
ATOM     54  CD1 SER d   1      -7.809 -13.847  17.332  0.00  0.00    -0.073 C 
ATOM     55  H24 SER d   1      -8.772 -14.367  17.444  0.00  0.00     0.028 H 
ATOM     56  H25 SER d   1      -7.909 -12.811  17.687  0.00  0.00     0.028 H 
ATOM     57  H26 SER d   1      -7.041 -14.366  17.925  0.00  0.00     0.028 H 
ENDBRANCH  52  54
BRANCH  52  58
ATOM     58  CD2 SER d   1      -8.479 -13.190  15.014  0.00  0.00    -0.073 C 
ATOM     59  H27 SER d   1      -8.166 -13.198  13.960  0.00  0.00     0.028 H 
ATOM     60  H28 SER d   1      -8.629 -12.152  15.344  0.00  0.00     0.028 H 
ATOM     61  H29 SER d   1      -9.421 -13.748  15.121  0.00  0.00     0.028 H 
ENDBRANCH  52  58
ENDBRANCH  49  52
ENDBRANCH  13  49
ENDBRANCH  10  13
ENDBRANCH   7   9
BRANCH   7  62
ATOM     62  CB  SER d   1      -0.858 -11.750  15.174  0.00  0.00    -0.038 C 
ATOM     63  H32 SER d   1      -0.022 -11.570  14.482  0.00  0.00     0.036 H 
ATOM     64  H33 SER d   1      -0.968 -12.831  15.344  0.00  0.00     0.036 H 
BRANCH  62  65
ATOM     65  CG  SER d   1      -0.524 -11.092  16.504  0.00  0.00    -0.061 C 
ATOM     66  H34 SER d   1      -1.347 -11.274  17.211  0.00  0.00     0.033 H 
ATOM     67  H35 SER d   1      -0.407 -10.009  16.349  0.00  0.00     0.033 H 
BRANCH  65  68
ATOM     68  CD  SER d   1       0.766 -11.653  17.087  0.00  0.00    -0.043 C 
ATOM     69  H36 SER d   1       1.588 -11.470  16.379  0.00  0.00     0.035 H 
ATOM     70  H37 SER d   1       0.648 -12.736  17.240  0.00  0.00     0.035 H 
BRANCH  68  71
ATOM     71  CE  SER d   1       1.105 -10.999  18.418  0.00  0.00     0.080 C 
ATOM     72  H38 SER d   1       0.259 -11.139  19.106  0.00  0.00     0.075 H 
ATOM     73  H39 SER d   1       1.268  -9.924  18.252  0.00  0.00     0.075 H 
BRANCH  71  74
ATOM     74  NZ  SER d   1       2.329 -11.579  19.040  0.00  0.00    -0.079 N 
ATOM     75  H40 SER d   1       2.513 -11.116  19.916  0.00  0.00     0.274 HD
ATOM     76  H41 SER d   1       3.114 -11.450  18.421  0.00  0.00     0.274 HD
ATOM     77  H42 SER d   1       2.188 -12.564  19.204  0.00  0.00     0.274 HD
ENDBRANCH  71  74
ENDBRANCH  68  71
ENDBRANCH  65  68
ENDBRANCH  62  65
ENDBRANCH   7  62
ENDBRANCH   4   7
ENDBRANCH   1   3
BRANCH   1  78
ATOM     78  C   SER d   1      -2.877 -10.583  10.180  0.00  0.00     0.241 C 
ATOM     79  O   SER d   1      -2.622  -9.738   9.314  0.00  0.00    -0.271 OA
ATOM     80  N   SER d   1      -4.109 -10.756  10.667  0.00  0.00    -0.346 N 
ATOM     81  H56 SER d   1      -4.284 -11.476  11.338  0.00  0.00     0.163 HD
BRANCH  80  82
ATOM     82  CA  SER d   1      -5.199  -9.895  10.221  0.00  0.00     0.089 C 
ATOM     83  H57 SER d   1      -5.131  -9.797   9.127  0.00  0.00     0.087 H 
BRANCH  82  84
ATOM     84  C   SER d   1      -5.095  -8.501  10.826  0.00  0.00     0.241 C 
ATOM     85  O   SER d   1      -5.549  -7.527  10.214  0.00  0.00    -0.271 OA
ATOM     86  N   SER d   1      -4.505  -8.382  12.019  0.00  0.00    -0.346 N 
ATOM     87  H67 SER d   1      -4.202  -9.201  12.506  0.00  0.00     0.163 HD
BRANCH  86  88
ATOM     88  CA  SER d   1      -4.300  -7.067  12.616  0.00  0.00     0.089 C 
ATOM     89  H68 SER d   1      -5.201  -6.465  12.428  0.00  0.00     0.087 H 
BRANCH  88  90
ATOM     90  C   SER d   1      -3.108  -6.342  12.005  0.00  0.00     0.241 C 
ATOM     91  O   SER d   1      -3.105  -5.107  11.946  0.00  0.00    -0.271 OA
ATOM     92  N   SER d   1      -2.096  -7.080  11.556  0.00  0.00    -0.346 N 
ATOM     93  H78 SER d   1      -2.160  -8.076  11.617  0.00  0.00     0.163 HD
BRANCH  92  94
ATOM     94  CA  SER d   1      -0.897  -6.487  10.978  0.00  0.00     0.089 C 
ATOM     95  H79 SER d   1      -0.730  -5.520  11.475  0.00  0.00     0.087 H 
BRANCH  94  96
ATOM     96  C   SER d   1      -1.019  -6.228   9.482  0.00  0.00     0.241 C 
ATOM     97  O   SER d   1      -0.081  -5.688   8.886  0.00  0.00    -0.271 OA
ATOM     98  N   SER d   1      -2.138  -6.594   8.866  0.00  0.00    -0.345 N 
ATOM     99  H89 SER d   1      -2.868  -7.023   9.398  0.00  0.00     0.163 HD
BRANCH  98 100
ATOM    100  CA  SER d   1      -2.332  -6.387   7.435  0.00  0.00     0.093 C 
ATOM    101  H90 SER d   1      -1.468  -6.814   6.905  0.00  0.00     0.089 H 
BRANCH 100 102
ATOM    102  C   SER d   1      -2.411  -4.901   7.098  0.00  0.00     0.196 C 
ATOM    103  O   SER d   1      -2.888  -4.098   7.900  0.00  0.00    -0.646 OA
ATOM    104  OXT SER d   1      -1.999  -4.478   6.018  0.00  0.00    -0.646 OA
ENDBRANCH 100 102
BRANCH 100 105
ATOM    105  CB  SER d   1      -3.587  -7.105   6.962  0.00  0.00    -0.048 C 
ATOM    106  H91 SER d   1      -3.719  -6.940   5.883  0.00  0.00     0.030 H 
ATOM    107  H92 SER d   1      -4.460  -6.712   7.503  0.00  0.00     0.030 H 
ATOM    108  H93 SER d   1      -3.489  -8.183   7.158  0.00  0.00     0.030 H 
ENDBRANCH 100 105
ENDBRANCH  98 100
ENDBRANCH  94  96
BRANCH  94 109
ATOM    109  CB  SER d   1       0.318  -7.384  11.242  0.00  0.00    -0.035 C 
ATOM    110  H80 SER d   1       1.125  -7.057  10.570  0.00  0.00     0.037 H 
ATOM    111  H81 SER d   1       0.030  -8.416  10.994  0.00  0.00     0.037 H 
BRANCH 109 112
ATOM    112  CG  SER d   1       0.875  -7.389  12.667  0.00  0.00    -0.059 C 
ATOM    113  H82 SER d   1       0.084  -7.738  13.347  0.00  0.00     0.038 H 
BRANCH 112 114
ATOM    114  CD1 SER d   1       2.055  -8.343  12.777  0.00  0.00    -0.073 C 
ATOM    115  H83 SER d   1       2.440  -8.332  13.807  0.00  0.00     0.028 H 
ATOM    116  H84 SER d   1       2.849  -8.025  12.085  0.00  0.00     0.028 H 
ATOM    117  H85 SER d   1       1.729  -9.361  12.518  0.00  0.00     0.028 H 
ENDBRANCH 112 114
BRANCH 112 118
ATOM    118  CD2 SER d   1       1.280  -5.985  13.087  0.00  0.00    -0.073 C 
ATOM    119  H86 SER d   1       0.414  -5.312  13.000  0.00  0.00     0.028 H 
ATOM    120  H87 SER d   1       2.090  -5.626  12.435  0.00  0.00     0.028 H 
ATOM    121  H88 SER d   1       1.629  -6.001  14.130  0.00  0.00     0.028 H 
ENDBRANCH 112 118
ENDBRANCH 109 112
ENDBRANCH  94 109
ENDBRANCH  92  94
ENDBRANCH  88  90
BRANCH  88 122
ATOM    122  CB  SER d   1      -4.105  -7.187  14.130  0.00  0.00    -0.035 C 
ATOM    123  H69 SER d   1      -3.453  -6.357  14.439  0.00  0.00     0.037 H 
ATOM    124  H70 SER d   1      -3.594  -8.143  14.315  0.00  0.00     0.037 H 
BRANCH 122 125
ATOM    125  CG  SER d   1      -5.339  -7.152  15.039  0.00  0.00    -0.059 C 
ATOM    126  H71 SER d   1      -4.986  -7.034  16.074  0.00  0.00     0.038 H 
BRANCH 125 127
ATOM    127  CD1 SER d   1      -6.232  -5.962  14.714  0.00  0.00    -0.073 C 
ATOM    128  H72 SER d   1      -7.106  -5.966  15.382  0.00  0.00     0.028 H 
ATOM    129  H73 SER d   1      -6.569  -6.031  13.669  0.00  0.00     0.028 H 
ATOM    130  H74 SER d   1      -5.666  -5.029  14.856  0.00  0.00     0.028 H 
ENDBRANCH 125 127
BRANCH 125 131
ATOM    131  CD2 SER d   1      -6.124  -8.447  14.965  0.00  0.00    -0.073 C 
ATOM    132  H75 SER d   1      -5.461  -9.292  15.203  0.00  0.00     0.028 H 
ATOM    133  H76 SER d   1      -6.529  -8.573  13.950  0.00  0.00     0.028 H 
ATOM    134  H77 SER d   1      -6.952  -8.416  15.689  0.00  0.00     0.028 H 
ENDBRANCH 125 131
ENDBRANCH 122 125
ENDBRANCH  88 122
ENDBRANCH  86  88
ENDBRANCH  82  84
BRANCH  82 135
ATOM    135  CB  SER d   1      -6.546 -10.531  10.563  0.00  0.00    -0.035 C 
ATOM    136  H58 SER d   1      -7.336  -9.825  10.267  0.00  0.00     0.037 H 
ATOM    137  H59 SER d   1      -6.579 -10.683  11.652  0.00  0.00     0.037 H 
BRANCH 135 138
ATOM    138  CG  SER d   1      -6.846 -11.873   9.895  0.00  0.00    -0.059 C 
ATOM    139  H60 SER d   1      -6.065 -12.588  10.193  0.00  0.00     0.038 H 
BRANCH 138 140
ATOM    140  CD1 SER d   1      -8.185 -12.411  10.363  0.00  0.00    -0.073 C 
ATOM    141  H61 SER d   1      -8.384 -13.376   9.873  0.00  0.00     0.028 H 
ATOM    142  H62 SER d   1      -8.979 -11.696  10.102  0.00  0.00     0.028 H 
ATOM    143  H63 SER d   1      -8.163 -12.552  11.454  0.00  0.00     0.028 H 
ENDBRANCH 138 140
BRANCH 138 144
ATOM    144  CD2 SER d   1      -6.817 -11.742   8.378  0.00  0.00    -0.073 C 
ATOM    145  H64 SER d   1      -5.838 -11.351   8.062  0.00  0.00     0.028 H 
ATOM    146  H65 SER d   1      -7.610 -11.051   8.054  0.00  0.00     0.028 H 
ATOM    147  H66 SER d   1      -6.982 -12.729   7.921  0.00  0.00     0.028 H 
ENDBRANCH 138 144
ENDBRANCH 135 138
ENDBRANCH  82 135
ENDBRANCH  80  82
ENDBRANCH   1  78
BRANCH   1 148
ATOM    148  CB  SER d   1      -1.648 -12.756   9.917  0.00  0.00    -0.038 C 
ATOM    149  H45 SER d   1      -1.532 -12.488   8.857  0.00  0.00     0.036 H 
ATOM    150  H46 SER d   1      -2.572 -13.338  10.049  0.00  0.00     0.036 H 
BRANCH 148 151
ATOM    151  CG  SER d   1      -0.470 -13.625  10.325  0.00  0.00    -0.061 C 
ATOM    152  H47 SER d   1      -0.177 -13.369  11.354  0.00  0.00     0.033 H 
ATOM    153  H48 SER d   1       0.372 -13.428   9.645  0.00  0.00     0.033 H 
BRANCH 151 154
ATOM    154  CD  SER d   1      -0.819 -15.102  10.264  0.00  0.00    -0.043 C 
ATOM    155  H49 SER d   1      -0.961 -15.395   9.213  0.00  0.00     0.035 H 
ATOM    156  H50 SER d   1      -1.751 -15.275  10.822  0.00  0.00     0.035 H 
BRANCH 154 157
ATOM    157  CE  SER d   1       0.288 -15.949  10.871  0.00  0.00     0.080 C 
ATOM    158  H51 SER d   1       0.616 -15.482  11.811  0.00  0.00     0.075 H 
ATOM    159  H52 SER d   1       1.132 -15.987  10.166  0.00  0.00     0.075 H 
BRANCH 157 160
ATOM    160  NZ  SER d   1      -0.161 -17.339  11.157  0.00  0.00    -0.079 N 
ATOM    161  H53 SER d   1       0.602 -17.863  11.557  0.00  0.00     0.274 HD
ATOM    162  H54 SER d   1      -0.458 -17.779  10.300  0.00  0.00     0.274 HD
ATOM    163  H55 SER d   1      -0.931 -17.316  11.808  0.00  0.00     0.274 HD
ENDBRANCH 157 160
ENDBRANCH 154 157
ENDBRANCH 151 154
ENDBRANCH 148 151
ENDBRANCH   1 148
TORSDOF 51
