REMARK  5 active torsions:
REMARK  status: ('A' for Active; 'I' for Inactive)
REMARK    1  A    between atoms: C1_1  and  N4_6 
REMARK    2  A    between atoms: C13_4  and  C14_5 
REMARK    3  A    between atoms: O12_14  and  C13_4 
REMARK       I    between atoms: N4_6  and  C7_9 
REMARK    4  A    between atoms: C7_9  and  C10_12 
REMARK    5  A    between atoms: C8_10  and  O12_14 
ROOT
ATOM      1  C1  EE8 d   1     -17.212  -1.234  24.357  0.00  0.00     0.036 A 
ATOM      2  C2  EE8 d   1     -17.756  -0.029  23.887  0.00  0.00    -0.033 A 
ATOM      3  C3  EE8 d   1     -15.819  -1.387  24.381  0.00  0.00    -0.054 A 
ATOM      4  C5  EE8 d   1     -16.914   1.003  23.457  0.00  0.00     0.069 A 
ATOM      5  C6  EE8 d   1     -14.971  -0.359  23.947  0.00  0.00    -0.047 A 
ATOM      6  C8  EE8 d   1     -15.517   0.853  23.482  0.00  0.00     0.090 A 
ATOM      7 CL9  EE8 d   1     -17.639   2.496  22.885  0.00  0.00    -0.081 Cl
ATOM      8  H1  EE8 d   1     -18.831   0.103  23.857  0.00  0.00     0.089 H 
ATOM      9  H2  EE8 d   1     -15.391  -2.315  24.741  0.00  0.00     0.087 H 
ATOM     10  H9  EE8 d   1     -13.896  -0.497  23.969  0.00  0.00     0.087 H 
ENDROOT
BRANCH   1  11
ATOM     11  N4  EE8 d   1     -18.018  -2.324  24.801  0.00  0.00    -0.327 N 
ATOM     12  C7  EE8 d   1     -19.309  -2.274  25.229  0.00  0.00     0.218 C 
ATOM     13  O11 EE8 d   1     -19.995  -1.258  25.295  0.00  0.00    -0.274 OA
ATOM     14  H8  EE8 d   1     -17.586  -3.226  24.797  0.00  0.00     0.169 HD
BRANCH  12  15
ATOM     15  C10 EE8 d   1     -19.962  -3.570  25.660  0.00  0.00    -0.003 C 
ATOM     16  H10 EE8 d   1     -20.996  -3.372  25.977  0.00  0.00     0.040 H 
ATOM     17  H11 EE8 d   1     -19.398  -4.003  26.499  0.00  0.00     0.040 H 
ATOM     18  H12 EE8 d   1     -19.966  -4.277  24.817  0.00  0.00     0.040 H 
ENDBRANCH  12  15
ENDBRANCH   1  11
BRANCH   6  19
ATOM     19  O12 EE8 d   1     -14.713   1.914  23.045  0.00  0.00    -0.350 OA
BRANCH  19  20
ATOM     20  C13 EE8 d   1     -13.589   2.378  23.817  0.00  0.00     0.023 C 
ATOM     21  H3  EE8 d   1     -13.778   3.402  24.170  0.00  0.00     0.074 H 
ATOM     22  H4  EE8 d   1     -13.432   1.716  24.681  0.00  0.00     0.074 H 
BRANCH  20  23
ATOM     23  C14 EE8 d   1     -12.335   2.360  22.910  0.00  0.00    -0.056 C 
ATOM     24  H5  EE8 d   1     -11.464   2.712  23.482  0.00  0.00     0.030 H 
ATOM     25  H6  EE8 d   1     -12.498   3.021  22.046  0.00  0.00     0.030 H 
ATOM     26  H7  EE8 d   1     -12.152   1.334  22.557  0.00  0.00     0.030 H 
ENDBRANCH  20  23
ENDBRANCH  19  20
ENDBRANCH   6  19
TORSDOF 5
