REMARK  12 active torsions:
REMARK  status: ('A' for Active; 'I' for Inactive)
REMARK    1  A    between atoms: C4_1  and  N4_20 
REMARK    2  A    between atoms: N5_21  and  C5_2 
REMARK    3  A    between atoms: C6_3  and  O7_13 
REMARK    4  A    between atoms: C10_8  and  C11_4 
REMARK    5  A    between atoms: C8_6  and  C9_7 
REMARK    6  A    between atoms: C8_6  and  C81_11 
REMARK    7  A    between atoms: O7_13  and  C8_6 
REMARK    8  A    between atoms: C9_7  and  C91_10 
REMARK       I    between atoms: C10_8  and  N5_21 
REMARK    9  A    between atoms: C81_11  and  C82_12 
REMARK   10  A    between atoms: C2_14  and  P_15 
REMARK   11  A    between atoms: P_15  and  OP3_18 
REMARK   12  A    between atoms: OP3_18  and  CP1_19 
ROOT
ATOM      1  C4  EEW d   1       7.812  14.591  -1.353  0.00  0.00     0.126 C 
ATOM      2  C5  EEW d   1       9.049  14.598  -0.387  0.00  0.00     0.068 C 
ATOM      3  C6  EEW d   1       8.526  14.750   1.019  0.00  0.00     0.077 C 
ATOM      4  C7  EEW d   1       7.454  13.840   1.297  0.00  0.00    -0.059 C 
ATOM      5  C3  EEW d   1       6.956  13.340  -1.034  0.00  0.00    -0.004 C 
ATOM      6  C2  EEW d   1       6.672  13.211   0.329  0.00  0.00     0.037 C 
ATOM      7  H1  EEW d   1       7.207  15.494  -1.183  0.00  0.00     0.087 H 
ATOM      8  H2  EEW d   1       9.591  13.646  -0.481  0.00  0.00     0.080 H 
ATOM      9  H3  EEW d   1       8.140  15.774   1.127  0.00  0.00     0.093 H 
ATOM     10  H7  EEW d   1       7.234  13.624   2.341  0.00  0.00     0.082 H 
ATOM     11  H11 EEW d   1       7.504  12.445  -1.365  0.00  0.00     0.043 H 
ATOM     12  H12 EEW d   1       6.007  13.414  -1.585  0.00  0.00     0.043 H 
ENDROOT
BRANCH   3  13
ATOM     13  O7  EEW d   1       9.589  14.562   1.977  0.00  0.00    -0.375 OA
BRANCH  13  14
ATOM     14  C8  EEW d   1       9.991  15.792   2.682  0.00  0.00     0.039 C 
ATOM     15  H8  EEW d   1      10.205  16.572   1.937  0.00  0.00     0.083 H 
BRANCH  14  16
ATOM     16  C9  EEW d   1       8.860  16.372   3.635  0.00  0.00    -0.044 C 
ATOM     17  H9  EEW d   1       7.910  16.406   3.081  0.00  0.00     0.036 H 
ATOM     18  H10 EEW d   1       9.142  17.390   3.943  0.00  0.00     0.036 H 
BRANCH  16  19
ATOM     19  C91 EEW d   1       8.676  15.530   4.859  0.00  0.00    -0.074 C 
ATOM     20  H13 EEW d   1       7.886  15.966   5.489  0.00  0.00     0.027 H 
ATOM     21  H14 EEW d   1       9.619  15.495   5.425  0.00  0.00     0.027 H 
ATOM     22  H15 EEW d   1       8.388  14.511   4.563  0.00  0.00     0.027 H 
ENDBRANCH  16  19
ENDBRANCH  14  16
BRANCH  14  23
ATOM     23  C81 EEW d   1      11.303  15.419   3.380  0.00  0.00    -0.044 C 
ATOM     24  H16 EEW d   1      11.137  14.525   4.000  0.00  0.00     0.036 H 
ATOM     25  H17 EEW d   1      11.619  16.256   4.020  0.00  0.00     0.036 H 
BRANCH  23  26
ATOM     26  C82 EEW d   1      12.406  15.124   2.368  0.00  0.00    -0.074 C 
ATOM     27  H18 EEW d   1      13.332  14.860   2.901  0.00  0.00     0.027 H 
ATOM     28  H19 EEW d   1      12.582  16.015   1.747  0.00  0.00     0.027 H 
ATOM     29  H20 EEW d   1      12.100  14.284   1.727  0.00  0.00     0.027 H 
ENDBRANCH  23  26
ENDBRANCH  14  23
ENDBRANCH  13  14
ENDBRANCH   3  13
BRANCH   2  30
ATOM     30  N5  EEW d   1       9.972  15.708  -0.699  0.00  0.00    -0.352 N 
ATOM     31  C10 EEW d   1      11.208  15.508  -1.206  0.00  0.00     0.214 C 
ATOM     32  O10 EEW d   1      11.699  14.396  -1.415  0.00  0.00    -0.274 OA
ATOM     33  H27 EEW d   1       9.670  16.646  -0.528  0.00  0.00     0.163 HD
BRANCH  31  34
ATOM     34  C11 EEW d   1      11.998  16.761  -1.468  0.00  0.00    -0.003 C 
ATOM     35  H4  EEW d   1      12.984  16.494  -1.877  0.00  0.00     0.040 H 
ATOM     36  H5  EEW d   1      12.130  17.315  -0.527  0.00  0.00     0.040 H 
ATOM     37  H6  EEW d   1      11.459  17.390  -2.192  0.00  0.00     0.040 H 
ENDBRANCH  31  34
ENDBRANCH   2  30
BRANCH   1  38
ATOM     38  N4  EEW d   1       8.283  14.588  -2.751  0.00  0.00    -0.073 N 
ATOM     39  H24 EEW d   1       8.835  15.414  -2.921  0.00  0.00     0.274 HD
ATOM     40  H25 EEW d   1       7.490  14.580  -3.373  0.00  0.00     0.274 HD
ATOM     41  H26 EEW d   1       8.846  13.768  -2.914  0.00  0.00     0.274 HD
ENDBRANCH   1  38
BRANCH   6  42
ATOM     42  P   EEW d   1       5.382  12.103   0.773  0.00  0.00     0.280 P 
ATOM     43  OP1 EEW d   1       4.185  12.245  -0.136  0.00  0.00    -0.643 OA
ATOM     44  OP2 EEW d   1       5.022  12.189   2.244  0.00  0.00    -0.643 OA
BRANCH  42  45
ATOM     45  OP3 EEW d   1       6.049  10.655   0.493  0.00  0.00    -0.314 OA
BRANCH  45  46
ATOM     46  CP1 EEW d   1       5.168   9.547   0.341  0.00  0.00     0.014 C 
ATOM     47  H21 EEW d   1       5.755   8.635   0.157  0.00  0.00     0.067 H 
ATOM     48  H22 EEW d   1       4.495   9.728  -0.510  0.00  0.00     0.067 H 
ATOM     49  H23 EEW d   1       4.574   9.422   1.258  0.00  0.00     0.067 H 
ENDBRANCH  45  46
ENDBRANCH  42  45
ENDBRANCH   6  42
TORSDOF 12
