REMARK  18 active torsions:
REMARK  status: ('A' for Active; 'I' for Inactive)
REMARK    1  A    between atoms: C4_1  and  N4_24 
REMARK    2  A    between atoms: C5_2  and  N5_25 
REMARK    3  A    between atoms: C6_3  and  O7_27 
REMARK    4  A    between atoms: C10_8  and  C11_4 
REMARK    5  A    between atoms: C8_6  and  C9_7 
REMARK    6  A    between atoms: O7_27  and  C8_6 
REMARK    7  A    between atoms: C8_6  and  C81_28 
REMARK    8  A    between atoms: C9_7  and  C91_30 
REMARK       I    between atoms: N5_25  and  C10_8 
REMARK    9  A    between atoms: C25_13  and  N6_12 
REMARK   10  A    between atoms: C24_14  and  C25_13 
REMARK   11  A    between atoms: C23_15  and  C24_14 
REMARK   12  A    between atoms: C22_16  and  C23_15 
REMARK   13  A    between atoms: C21_17  and  C22_16 
REMARK   14  A    between atoms: C20_18  and  C21_17 
REMARK   15  A    between atoms: OP3_19  and  C20_18 
REMARK   16  A    between atoms: P1_20  and  OP3_19 
REMARK   17  A    between atoms: P1_20  and  C2_23 
REMARK   18  A    between atoms: C81_28  and  C82_29 
ROOT
ATOM      1  N8  EF8 d   1      20.722  20.497  21.094  0.00  0.00     0.068 N 
ATOM      2  N7  EF8 d   1      20.161  21.767  20.891  0.00  0.00    -0.168 NA
ATOM      3  N6  EF8 d   1      19.580  23.028  20.718  0.00  0.00    -0.116 NA
ENDROOT
BRANCH   3   4
ATOM      4  C25 EF8 d   1      20.129  23.918  19.633  0.00  0.00     0.047 C 
ATOM      5  H13 EF8 d   1      21.080  23.514  19.256  0.00  0.00     0.071 H 
ATOM      6  H14 EF8 d   1      20.291  24.934  20.021  0.00  0.00     0.071 H 
BRANCH   4   7
ATOM      7  C24 EF8 d   1      19.069  23.940  18.499  0.00  0.00    -0.046 C 
ATOM      8  H15 EF8 d   1      18.372  24.770  18.688  0.00  0.00     0.035 H 
ATOM      9  H16 EF8 d   1      18.519  22.988  18.515  0.00  0.00     0.035 H 
BRANCH   7  10
ATOM     10  C23 EF8 d   1      19.674  24.123  17.123  0.00  0.00    -0.063 C 
ATOM     11  H17 EF8 d   1      20.368  23.294  16.919  0.00  0.00     0.033 H 
ATOM     12  H18 EF8 d   1      20.222  25.076  17.092  0.00  0.00     0.033 H 
BRANCH  10  13
ATOM     13  C22 EF8 d   1      18.557  24.137  16.036  0.00  0.00    -0.063 C 
ATOM     14  H19 EF8 d   1      17.896  25.005  16.177  0.00  0.00     0.033 H 
ATOM     15  H20 EF8 d   1      17.963  23.212  16.085  0.00  0.00     0.033 H 
BRANCH  13  16
ATOM     16  C21 EF8 d   1      19.276  24.232  14.708  0.00  0.00    -0.045 C 
ATOM     17  H21 EF8 d   1      19.887  23.328  14.573  0.00  0.00     0.036 H 
ATOM     18  H22 EF8 d   1      19.929  25.117  14.724  0.00  0.00     0.036 H 
BRANCH  16  19
ATOM     19  C20 EF8 d   1      18.314  24.354  13.523  0.00  0.00     0.030 C 
ATOM     20  H23 EF8 d   1      17.860  25.356  13.508  0.00  0.00     0.075 H 
ATOM     21  H24 EF8 d   1      17.523  23.593  13.600  0.00  0.00     0.075 H 
BRANCH  19  22
ATOM     22  OP3 EF8 d   1      19.076  24.147  12.341  0.00  0.00    -0.309 OA
BRANCH  22  23
ATOM     23  P1  EF8 d   1      18.608  24.632  10.900  0.00  0.00     0.281 P 
ATOM     24  OP2 EF8 d   1      18.874  26.144  10.814  0.00  0.00    -0.643 OA
ATOM     25  OP1 EF8 d   1      17.098  24.388  10.736  0.00  0.00    -0.643 OA
BRANCH  23  26
ATOM     26  C2  EF8 d   1      19.535  23.620   9.693  0.00  0.00     0.037 C 
ATOM     27  C7  EF8 d   1      20.664  24.103   9.118  0.00  0.00    -0.059 C 
ATOM     28  C6  EF8 d   1      21.462  23.354   8.219  0.00  0.00     0.077 C 
ATOM     29  H7  EF8 d   1      20.973  25.119   9.360  0.00  0.00     0.082 H 
ATOM     30  C5  EF8 d   1      21.326  21.891   8.423  0.00  0.00     0.068 C 
ATOM     31  H3  EF8 d   1      21.164  23.590   7.187  0.00  0.00     0.093 H 
ATOM     32  C4  EF8 d   1      19.858  21.567   8.390  0.00  0.00     0.126 C 
ATOM     33  H2  EF8 d   1      21.765  21.588   9.385  0.00  0.00     0.080 H 
ATOM     34  C3  EF8 d   1      19.102  22.289   9.535  0.00  0.00    -0.004 C 
ATOM     35  H1  EF8 d   1      19.464  21.956   7.440  0.00  0.00     0.087 H 
ATOM     36  H11 EF8 d   1      19.276  21.744  10.475  0.00  0.00     0.043 H 
ATOM     37  H12 EF8 d   1      18.026  22.290   9.306  0.00  0.00     0.043 H 
BRANCH  28  38
ATOM     38  O7  EF8 d   1      22.848  23.782   8.441  0.00  0.00    -0.375 OA
BRANCH  38  39
ATOM     39  C8  EF8 d   1      23.566  24.041   7.254  0.00  0.00     0.039 C 
ATOM     40  H8  EF8 d   1      23.490  23.146   6.619  0.00  0.00     0.083 H 
BRANCH  39  41
ATOM     41  C9  EF8 d   1      23.054  25.245   6.410  0.00  0.00    -0.044 C 
ATOM     42  H9  EF8 d   1      22.002  25.066   6.142  0.00  0.00     0.036 H 
ATOM     43  H10 EF8 d   1      23.659  25.316   5.494  0.00  0.00     0.036 H 
BRANCH  41  44
ATOM     44  C91 EF8 d   1      23.148  26.550   7.153  0.00  0.00    -0.074 C 
ATOM     45  H34 EF8 d   1      22.775  27.364   6.514  0.00  0.00     0.027 H 
ATOM     46  H35 EF8 d   1      24.197  26.745   7.420  0.00  0.00     0.027 H 
ATOM     47  H36 EF8 d   1      22.541  26.495   8.069  0.00  0.00     0.027 H 
ENDBRANCH  41  44
ENDBRANCH  39  41
BRANCH  39  48
ATOM     48  C81 EF8 d   1      25.021  24.244   7.630  0.00  0.00    -0.044 C 
ATOM     49  H29 EF8 d   1      25.096  24.971   8.453  0.00  0.00     0.036 H 
ATOM     50  H30 EF8 d   1      25.582  24.616   6.760  0.00  0.00     0.036 H 
BRANCH  48  51
ATOM     51  C82 EF8 d   1      25.590  22.897   8.076  0.00  0.00    -0.074 C 
ATOM     52  H31 EF8 d   1      26.647  23.020   8.354  0.00  0.00     0.027 H 
ATOM     53  H32 EF8 d   1      25.510  22.174   7.251  0.00  0.00     0.027 H 
ATOM     54  H33 EF8 d   1      25.023  22.528   8.943  0.00  0.00     0.027 H 
ENDBRANCH  48  51
ENDBRANCH  39  48
ENDBRANCH  38  39
ENDBRANCH  28  38
BRANCH  30  55
ATOM     55  N5  EF8 d   1      22.020  21.208   7.301  0.00  0.00    -0.352 N 
ATOM     56  C10 EF8 d   1      22.832  20.218   7.505  0.00  0.00     0.214 C 
ATOM     57  O10 EF8 d   1      23.141  19.798   8.619  0.00  0.00    -0.274 OA
ATOM     58  H28 EF8 d   1      21.857  21.520   6.365  0.00  0.00     0.163 HD
BRANCH  56  59
ATOM     59  C11 EF8 d   1      23.399  19.638   6.231  0.00  0.00    -0.003 C 
ATOM     60  H4  EF8 d   1      24.076  18.806   6.476  0.00  0.00     0.040 H 
ATOM     61  H5  EF8 d   1      23.956  20.417   5.690  0.00  0.00     0.040 H 
ATOM     62  H6  EF8 d   1      22.578  19.268   5.599  0.00  0.00     0.040 H 
ENDBRANCH  56  59
ENDBRANCH  30  55
BRANCH  32  63
ATOM     63  N4  EF8 d   1      19.590  20.116   8.406  0.00  0.00    -0.073 N 
ATOM     64  H25 EF8 d   1      20.093  19.673   7.653  0.00  0.00     0.274 HD
ATOM     65  H26 EF8 d   1      18.602  19.956   8.290  0.00  0.00     0.274 HD
ATOM     66  H27 EF8 d   1      19.892  19.728   9.286  0.00  0.00     0.274 HD
ENDBRANCH  32  63
ENDBRANCH  23  26
ENDBRANCH  22  23
ENDBRANCH  19  22
ENDBRANCH  16  19
ENDBRANCH  13  16
ENDBRANCH  10  13
ENDBRANCH   7  10
ENDBRANCH   4   7
ENDBRANCH   3   4
TORSDOF 18
