REMARK  10 active torsions:
REMARK  status: ('A' for Active; 'I' for Inactive)
REMARK    1  A    between atoms: O7_24  and  C3_3 
REMARK    2  A    between atoms: C10_27  and  C11_4 
REMARK    3  A    between atoms: C10_27  and  C17_10 
REMARK    4  A    between atoms: C18_11  and  C20_12 
REMARK       I    between atoms: N9_26  and  C18_11 
REMARK    5  A    between atoms: C20_12  and  C21_13 
REMARK    6  A    between atoms: C24_16  and  S27_29 
REMARK    7  A    between atoms: C28_19  and  C29_20 
REMARK    8  A    between atoms: S27_29  and  C28_19 
REMARK    9  A    between atoms: C6_23  and  N9_26 
REMARK   10  A    between atoms: O7_24  and  C10_27 
ROOT
ATOM      1  C1  EEZ d   1     -16.898   5.034  79.569  0.00  0.00    -0.030 A 
ATOM      2  C2  EEZ d   1     -16.908   4.884  80.955  0.00  0.00     0.089 A 
ATOM      3  C3  EEZ d   1     -17.444   3.720  81.513  0.00  0.00     0.187 A 
ATOM      4  N4  EEZ d   1     -17.943   2.747  80.720  0.00  0.00    -0.233 NA
ATOM      5  C5  EEZ d   1     -17.950   2.864  79.381  0.00  0.00     0.031 A 
ATOM      6  C6  EEZ d   1     -17.422   4.004  78.773  0.00  0.00     0.054 A 
ATOM      7 CL8  EEZ d   1     -16.248   6.138  81.986  0.00  0.00    -0.080 Cl
ATOM      8  H1  EEZ d   1     -16.493   5.931  79.114  0.00  0.00     0.089 H 
ATOM      9  H21 EEZ d   1     -18.367   2.071  78.772  0.00  0.00     0.118 H 
ENDROOT
BRANCH   6  10
ATOM     10  N9  EEZ d   1     -17.479   4.046  77.359  0.00  0.00    -0.326 N 
ATOM     11  C18 EEZ d   1     -17.435   5.153  76.595  0.00  0.00     0.226 C 
ATOM     12  O19 EEZ d   1     -17.340   6.290  77.028  0.00  0.00    -0.273 OA
ATOM     13  H22 EEZ d   1     -17.560   3.170  76.883  0.00  0.00     0.169 HD
BRANCH  11  14
ATOM     14  C20 EEZ d   1     -17.561   4.918  75.110  0.00  0.00     0.033 C 
ATOM     15  H10 EEZ d   1     -17.349   3.868  74.859  0.00  0.00     0.054 H 
ATOM     16  H11 EEZ d   1     -16.879   5.574  74.549  0.00  0.00     0.054 H 
BRANCH  14  17
ATOM     17  C21 EEZ d   1     -19.019   5.266  74.814  0.00  0.00    -0.049 A 
ATOM     18  C22 EEZ d   1     -19.324   6.524  74.282  0.00  0.00    -0.075 A 
ATOM     19  C23 EEZ d   1     -20.657   6.864  74.028  0.00  0.00    -0.062 A 
ATOM     20  H12 EEZ d   1     -18.531   7.231  74.068  0.00  0.00     0.084 H 
ATOM     21  C24 EEZ d   1     -21.676   5.948  74.322  0.00  0.00     0.059 A 
ATOM     22  H13 EEZ d   1     -20.901   7.832  73.606  0.00  0.00     0.085 H 
ATOM     23  C25 EEZ d   1     -21.379   4.687  74.853  0.00  0.00    -0.062 A 
ATOM     24  C26 EEZ d   1     -20.043   4.347  75.107  0.00  0.00    -0.075 A 
ATOM     25  H14 EEZ d   1     -22.174   3.981  75.065  0.00  0.00     0.085 H 
ATOM     26  H15 EEZ d   1     -19.799   3.378  75.528  0.00  0.00     0.084 H 
BRANCH  21  27
ATOM     27  S27 EEZ d   1     -23.356   6.377  73.992  0.00  0.00     0.175 S 
ATOM     28  O30 EEZ d   1     -23.399   6.826  72.613  0.00  0.00    -0.223 OA
ATOM     29  O31 EEZ d   1     -24.234   5.284  74.360  0.00  0.00    -0.223 OA
BRANCH  27  30
ATOM     30  C28 EEZ d   1     -23.634   7.813  75.047  0.00  0.00     0.030 C 
ATOM     31  H16 EEZ d   1     -22.896   8.591  74.801  0.00  0.00     0.056 H 
ATOM     32  H17 EEZ d   1     -24.648   8.201  74.871  0.00  0.00     0.056 H 
BRANCH  30  33
ATOM     33  C29 EEZ d   1     -23.488   7.425  76.537  0.00  0.00    -0.064 C 
ATOM     34  H18 EEZ d   1     -23.660   8.311  77.165  0.00  0.00     0.028 H 
ATOM     35  H19 EEZ d   1     -22.474   7.039  76.718  0.00  0.00     0.028 H 
ATOM     36  H20 EEZ d   1     -24.226   6.649  76.788  0.00  0.00     0.028 H 
ENDBRANCH  30  33
ENDBRANCH  27  30
ENDBRANCH  21  27
ENDBRANCH  14  17
ENDBRANCH  11  14
ENDBRANCH   6  10
BRANCH   3  37
ATOM     37  O7  EEZ d   1     -17.459   3.568  82.894  0.00  0.00    -0.323 OA
BRANCH  37  38
ATOM     38  C10 EEZ d   1     -18.206   2.445  83.410  0.00  0.00     0.068 C 
ATOM     39  H23 EEZ d   1     -17.874   1.537  82.885  0.00  0.00     0.091 H 
BRANCH  38  40
ATOM     40  C11 EEZ d   1     -19.714   2.640  83.152  0.00  0.00    -0.029 A 
ATOM     41  C12 EEZ d   1     -20.325   3.898  83.315  0.00  0.00    -0.074 A 
ATOM     42  C13 EEZ d   1     -21.699   4.056  83.074  0.00  0.00    -0.082 A 
ATOM     43  H2  EEZ d   1     -19.731   4.749  83.628  0.00  0.00     0.084 H 
ATOM     44  C14 EEZ d   1     -22.458   2.951  82.668  0.00  0.00    -0.083 A 
ATOM     45  H3  EEZ d   1     -22.169   5.025  83.201  0.00  0.00     0.083 H 
ATOM     46  C15 EEZ d   1     -21.860   1.697  82.491  0.00  0.00    -0.082 A 
ATOM     47  H4  EEZ d   1     -23.521   3.068  82.489  0.00  0.00     0.083 H 
ATOM     48  C16 EEZ d   1     -20.489   1.541  82.736  0.00  0.00    -0.074 A 
ATOM     49  H5  EEZ d   1     -22.455   0.851  82.166  0.00  0.00     0.083 H 
ATOM     50  H6  EEZ d   1     -20.024   0.571  82.605  0.00  0.00     0.084 H 
ENDBRANCH  38  40
BRANCH  38  51
ATOM     51  C17 EEZ d   1     -17.954   2.256  84.925  0.00  0.00    -0.048 C 
ATOM     52  H7  EEZ d   1     -16.877   2.117  85.103  0.00  0.00     0.031 H 
ATOM     53  H8  EEZ d   1     -18.501   1.370  85.280  0.00  0.00     0.031 H 
ATOM     54  H9  EEZ d   1     -18.304   3.146  85.469  0.00  0.00     0.031 H 
ENDBRANCH  38  51
ENDBRANCH  37  38
ENDBRANCH   3  37
TORSDOF 10
