REMARK WARNING: 32 MAX_TORS EXCEEDED!!!
REMARK  51 active torsions:
REMARK  status: ('A' for Active; 'I' for Inactive)
REMARK    1  A    between atoms: CA_2  and  N_1 
REMARK    2  A    between atoms: C_3  and  CA_2 
REMARK    3  A    between atoms: CA_2  and  CB_5 
REMARK       I    between atoms: N_7  and  C_3 
REMARK    4  A    between atoms: CB_5  and  OG_6 
REMARK    5  A    between atoms: CA_8  and  N_7 
REMARK    6  A    between atoms: C_9  and  CA_8 
REMARK       I    between atoms: N_20  and  C_9 
REMARK    7  A    between atoms: CH_12  and  CH3_13 
REMARK       I    between atoms: NZ_14  and  CH_12 
REMARK    8  A    between atoms: CE_15  and  NZ_14 
REMARK    9  A    between atoms: CD_16  and  CE_15 
REMARK   10  A    between atoms: CG_17  and  CD_16 
REMARK   11  A    between atoms: CB_18  and  CG_17 
REMARK   12  A    between atoms: CA_19  and  CB_18 
REMARK   13  A    between atoms: CA_19  and  N_20 
REMARK   14  A    between atoms: C_21  and  CA_19 
REMARK       I    between atoms: N_23  and  C_21 
REMARK   15  A    between atoms: CA_24  and  N_23 
REMARK   16  A    between atoms: C_25  and  CA_24 
REMARK       I    between atoms: N_27  and  C_25 
REMARK   17  A    between atoms: CA_28  and  N_27 
REMARK   18  A    between atoms: C_29  and  CA_28 
REMARK   19  A    between atoms: CA_28  and  CB_31 
REMARK       I    between atoms: N_45  and  C_29 
REMARK   20  A    between atoms: CB_31  and  CG_32 
REMARK   21  A    between atoms: CG_32  and  CD_33 
REMARK   22  A    between atoms: CD_33  and  CE_34 
REMARK   23  A    between atoms: CE_34  and  NZ_35 
REMARK   24  A    between atoms: CH_37  and  CH3_38 
REMARK       I    between atoms: NZ_39  and  CH_37 
REMARK   25  A    between atoms: CE_40  and  NZ_39 
REMARK   26  A    between atoms: CD_41  and  CE_40 
REMARK   27  A    between atoms: CG_42  and  CD_41 
REMARK   28  A    between atoms: CB_43  and  CG_42 
REMARK   29  A    between atoms: CA_44  and  CB_43 
REMARK   30  A    between atoms: CA_44  and  N_45 
REMARK   31  A    between atoms: CA_44  and  C_46 
REMARK       I    between atoms: C_46  and  N_48 
REMARK   32  A    between atoms: N_48  and  CA_49 
REMARK   33  A    between atoms: CA_49  and  C_50 
REMARK   34  A    between atoms: CA_49  and  CB_52 
REMARK       I    between atoms: C_50  and  N_57 
REMARK   35  A    between atoms: CB_52  and  CG_53 
REMARK   36  A    between atoms: CG_53  and  CD_54 
REMARK   37  A    between atoms: CD_54  and  CE_55 
REMARK   38  A    between atoms: CE_55  and  NZ_56 
REMARK   39  A    between atoms: N_57  and  CA_58 
REMARK   40  A    between atoms: CA_58  and  C_59 
REMARK   41  A    between atoms: CA_58  and  CB_61 
REMARK       I    between atoms: C_59  and  N_68 
REMARK   42  A    between atoms: CB_61  and  CG_62 
REMARK   43  A    between atoms: CG_62  and  CD_63 
REMARK   44  A    between atoms: CD_63  and  NE_64 
REMARK       I    between atoms: NE_64  and  CZ_65 
REMARK       I    between atoms: CZ_65  and  NH1_66 
REMARK   45  A    between atoms: N_68  and  CA_69 
REMARK   46  A    between atoms: CA_69  and  C_70 
REMARK       I    between atoms: C_70  and  N_72 
REMARK   47  A    between atoms: N_72  and  CA_73 
REMARK   48  A    between atoms: CA_73  and  C_74 
REMARK   49  A    between atoms: CA_73  and  CB_76 
REMARK   50  A    between atoms: CB_76  and  CG_77 
REMARK   51  A    between atoms: CZ_82  and  OH_83 
ROOT
ATOM      1  CA  ALY d   1      35.296   9.795  19.536  0.00  0.00     0.089 C 
ATOM      2  H53 ALY d   1      34.304   9.796  19.060  0.00  0.00     0.087 H 
ENDROOT
BRANCH   1   3
ATOM      3  CB  ALY d   1      36.199  10.859  18.881  0.00  0.00    -0.038 C 
ATOM      4  H51 ALY d   1      37.155  10.873  19.425  0.00  0.00     0.036 H 
ATOM      5  H52 ALY d   1      36.375  10.558  17.838  0.00  0.00     0.036 H 
BRANCH   3   6
ATOM      6  CG  ALY d   1      35.644  12.276  18.873  0.00  0.00    -0.061 C 
ATOM      7  H49 ALY d   1      35.264  12.521  19.876  0.00  0.00     0.033 H 
ATOM      8  H50 ALY d   1      36.447  12.978  18.603  0.00  0.00     0.033 H 
BRANCH   6   9
ATOM      9  CD  ALY d   1      34.508  12.400  17.861  0.00  0.00    -0.050 C 
ATOM     10  H47 ALY d   1      34.928  12.320  16.847  0.00  0.00     0.035 H 
ATOM     11  H48 ALY d   1      33.795  11.579  18.028  0.00  0.00     0.035 H 
BRANCH   9  12
ATOM     12  CE  ALY d   1      33.763  13.728  17.980  0.00  0.00    -0.005 C 
ATOM     13  H45 ALY d   1      33.340  13.831  18.990  0.00  0.00     0.064 H 
ATOM     14  H46 ALY d   1      34.452  14.563  17.784  0.00  0.00     0.064 H 
BRANCH  12  15
ATOM     15  NZ  ALY d   1      32.712  13.725  17.009  0.00  0.00    -0.361 N 
ATOM     16  CH  ALY d   1      32.689  14.449  15.906  0.00  0.00     0.213 C 
ATOM     17  OH  ALY d   1      33.550  15.274  15.660  0.00  0.00    -0.274 OA
ATOM     18  H44 ALY d   1      31.931  13.125  17.180  0.00  0.00     0.162 HD
BRANCH  16  19
ATOM     19  CH3 ALY d   1      31.529  14.221  15.016  0.00  0.00    -0.003 C 
ATOM     20  H41 ALY d   1      30.890  13.433  15.441  0.00  0.00     0.040 H 
ATOM     21  H42 ALY d   1      31.884  13.909  14.023  0.00  0.00     0.040 H 
ATOM     22  H43 ALY d   1      30.950  15.152  14.922  0.00  0.00     0.040 H 
ENDBRANCH  16  19
ENDBRANCH  12  15
ENDBRANCH   9  12
ENDBRANCH   6   9
ENDBRANCH   3   6
ENDBRANCH   1   3
BRANCH   1  23
ATOM     23  N   ALY d   1      35.155  10.124  20.949  0.00  0.00    -0.346 N 
ATOM     24  C   LYS d   1      33.983  10.399  21.498  0.00  0.00     0.241 C 
ATOM     25  O   LYS d   1      32.909  10.326  20.864  0.00  0.00    -0.271 OA
ATOM     26  H54 ALY d   1      35.973  10.143  21.524  0.00  0.00     0.163 HD
BRANCH  24  27
ATOM     27  CA  LYS d   1      34.033  10.847  22.944  0.00  0.00     0.089 C 
ATOM     28  H29 LYS d   1      34.973  11.393  23.111  0.00  0.00     0.087 H 
BRANCH  27  29
ATOM     29  N   LYS d   1      32.924  11.738  23.197  0.00  0.00    -0.346 N 
ATOM     30  C   GLY d   1      32.861  12.958  22.691  0.00  0.00     0.236 C 
ATOM     31  O   GLY d   1      33.754  13.398  21.991  0.00  0.00    -0.272 OA
ATOM     32  H28 LYS d   1      32.175  11.419  23.778  0.00  0.00     0.163 HD
BRANCH  30  33
ATOM     33  CA  GLY d   1      31.621  13.734  23.046  0.00  0.00     0.069 C 
ATOM     34  H26 GLY d   1      30.741  13.169  22.704  0.00  0.00     0.078 H 
ATOM     35  H27 GLY d   1      31.579  13.852  24.139  0.00  0.00     0.078 H 
BRANCH  33  36
ATOM     36  N   GLY d   1      31.597  15.059  22.430  0.00  0.00    -0.351 N 
ATOM     37  C   ALY d   1      31.142  15.234  21.187  0.00  0.00     0.240 C 
ATOM     38  O   ALY d   1      30.784  14.312  20.477  0.00  0.00    -0.271 OA
ATOM     39  H25 GLY d   1      31.927  15.848  22.948  0.00  0.00     0.163 HD
BRANCH  37  40
ATOM     40  CA  ALY d   1      31.107  16.656  20.648  0.00  0.00     0.089 C 
ATOM     41  H23 ALY d   1      30.109  16.843  20.225  0.00  0.00     0.087 H 
BRANCH  40  42
ATOM     42  CB  ALY d   1      32.154  16.736  19.522  0.00  0.00    -0.038 C 
ATOM     43  H21 ALY d   1      33.157  16.618  19.957  0.00  0.00     0.036 H 
ATOM     44  H22 ALY d   1      31.968  15.925  18.803  0.00  0.00     0.036 H 
BRANCH  42  45
ATOM     45  CG  ALY d   1      32.084  18.082  18.786  0.00  0.00    -0.061 C 
ATOM     46  H19 ALY d   1      31.088  18.205  18.336  0.00  0.00     0.033 H 
ATOM     47  H20 ALY d   1      32.269  18.901  19.497  0.00  0.00     0.033 H 
BRANCH  45  48
ATOM     48  CD  ALY d   1      33.148  18.106  17.689  0.00  0.00    -0.050 C 
ATOM     49  H17 ALY d   1      34.142  18.091  18.160  0.00  0.00     0.035 H 
ATOM     50  H18 ALY d   1      33.027  17.212  17.059  0.00  0.00     0.035 H 
BRANCH  48  51
ATOM     51  CE  ALY d   1      33.041  19.342  16.810  0.00  0.00    -0.005 C 
ATOM     52  H15 ALY d   1      32.031  19.398  16.378  0.00  0.00     0.064 H 
ATOM     53  H16 ALY d   1      33.231  20.240  17.416  0.00  0.00     0.064 H 
BRANCH  51  54
ATOM     54  NZ  ALY d   1      34.034  19.262  15.726  0.00  0.00    -0.361 N 
ATOM     55  CH  ALY d   1      35.110  20.042  15.666  0.00  0.00     0.213 C 
ATOM     56  OH  ALY d   1      35.346  20.937  16.487  0.00  0.00    -0.274 OA
ATOM     57  H14 ALY d   1      33.893  18.589  15.000  0.00  0.00     0.162 HD
BRANCH  55  58
ATOM     58  CH3 ALY d   1      35.982  19.791  14.491  0.00  0.00    -0.003 C 
ATOM     59  H11 ALY d   1      35.577  18.952  13.906  0.00  0.00     0.040 H 
ATOM     60  H12 ALY d   1      36.997  19.543  14.834  0.00  0.00     0.040 H 
ATOM     61  H13 ALY d   1      36.018  20.693  13.862  0.00  0.00     0.040 H 
ENDBRANCH  55  58
ENDBRANCH  51  54
ENDBRANCH  48  51
ENDBRANCH  45  48
ENDBRANCH  42  45
ENDBRANCH  40  42
BRANCH  40  62
ATOM     62  N   ALY d   1      31.359  17.679  21.660  0.00  0.00    -0.346 N 
ATOM     63  C   GLY d   1      30.384  18.246  22.354  0.00  0.00     0.236 C 
ATOM     64  O   GLY d   1      29.219  17.914  22.262  0.00  0.00    -0.272 OA
ATOM     65  H24 ALY d   1      32.302  17.961  21.835  0.00  0.00     0.163 HD
BRANCH  63  66
ATOM     66  CA  GLY d   1      30.866  19.359  23.248  0.00  0.00     0.069 C 
ATOM     67  H9  GLY d   1      31.553  18.935  23.995  0.00  0.00     0.078 H 
ATOM     68  H10 GLY d   1      31.403  20.095  22.632  0.00  0.00     0.078 H 
BRANCH  66  69
ATOM     69  N   GLY d   1      29.789  20.039  23.945  0.00  0.00    -0.350 N 
ATOM     70  C   SER d   1      29.785  21.358  24.101  0.00  0.00     0.250 C 
ATOM     71  O   SER d   1      30.766  22.037  23.882  0.00  0.00    -0.271 OA
ATOM     72  H8  GLY d   1      29.032  19.501  24.317  0.00  0.00     0.163 HD
BRANCH  70  73
ATOM     73  CA  SER d   1      28.532  22.036  24.610  0.00  0.00     0.195 C 
ATOM     74  H4  SER d   1      28.288  22.851  23.913  0.00  0.00     0.102 H 
BRANCH  73  75
ATOM     75  N   SER d   1      27.331  21.142  24.689  0.00  0.00    -0.064 N 
ATOM     76  H1  SER d   1      26.543  21.667  25.035  0.00  0.00     0.275 HD
ATOM     77  H2  SER d   1      27.524  20.375  25.314  0.00  0.00     0.275 HD
ATOM     78  H3  SER d   1      27.118  20.783  23.771  0.00  0.00     0.275 HD
ENDBRANCH  73  75
BRANCH  73  79
ATOM     79  CB  SER d   1      28.826  22.640  25.974  0.00  0.00     0.051 C 
ATOM     80  H5  SER d   1      27.981  23.276  26.276  0.00  0.00     0.077 H 
ATOM     81  H6  SER d   1      29.739  23.250  25.909  0.00  0.00     0.077 H 
BRANCH  79  82
ATOM     82  OG  SER d   1      29.014  21.627  26.945  0.00  0.00    -0.398 OA
ATOM     83  H7  SER d   1      29.196  22.027  27.787  0.00  0.00     0.209 HD
ENDBRANCH  79  82
ENDBRANCH  73  79
ENDBRANCH  70  73
ENDBRANCH  66  69
ENDBRANCH  63  66
ENDBRANCH  40  62
ENDBRANCH  37  40
ENDBRANCH  33  36
ENDBRANCH  30  33
ENDBRANCH  27  29
BRANCH  27  84
ATOM     84  CB  LYS d   1      33.992   9.660  23.895  0.00  0.00    -0.038 C 
ATOM     85  H30 LYS d   1      34.769   8.944  23.588  0.00  0.00     0.036 H 
ATOM     86  H31 LYS d   1      33.003   9.185  23.814  0.00  0.00     0.036 H 
BRANCH  84  87
ATOM     87  CG  LYS d   1      34.231  10.032  25.372  0.00  0.00    -0.061 C 
ATOM     88  H32 LYS d   1      33.904   9.186  25.994  0.00  0.00     0.033 H 
ATOM     89  H33 LYS d   1      33.620  10.916  25.605  0.00  0.00     0.033 H 
BRANCH  87  90
ATOM     90  CD  LYS d   1      35.673  10.349  25.728  0.00  0.00    -0.043 C 
ATOM     91  H34 LYS d   1      35.963  11.287  25.233  0.00  0.00     0.035 H 
ATOM     92  H35 LYS d   1      36.316   9.531  25.370  0.00  0.00     0.035 H 
BRANCH  90  93
ATOM     93  CE  LYS d   1      35.869  10.507  27.245  0.00  0.00     0.080 C 
ATOM     94  H36 LYS d   1      35.488   9.614  27.762  0.00  0.00     0.075 H 
ATOM     95  H37 LYS d   1      35.324  11.395  27.598  0.00  0.00     0.075 H 
BRANCH  93  96
ATOM     96  NZ  LYS d   1      37.328  10.667  27.529  0.00  0.00    -0.079 N 
ATOM     97  H38 LYS d   1      37.468  10.771  28.522  0.00  0.00     0.274 HD
ATOM     98  H39 LYS d   1      37.675  11.485  27.053  0.00  0.00     0.274 HD
ATOM     99  H40 LYS d   1      37.825   9.853  27.204  0.00  0.00     0.274 HD
ENDBRANCH  93  96
ENDBRANCH  90  93
ENDBRANCH  87  90
ENDBRANCH  84  87
ENDBRANCH  27  84
ENDBRANCH  24  27
ENDBRANCH   1  23
BRANCH   1 100
ATOM    100  C   ALY d   1      35.938   8.457  19.343  0.00  0.00     0.241 C 
ATOM    101  O   ALY d   1      36.871   8.109  20.047  0.00  0.00    -0.271 OA
ATOM    102  N   LYS d   1      35.466   7.729  18.335  0.00  0.00    -0.346 N 
ATOM    103  H55 LYS d   1      34.623   8.021  17.884  0.00  0.00     0.163 HD
BRANCH 102 104
ATOM    104  CA  LYS d   1      36.131   6.522  17.864  0.00  0.00     0.089 C 
ATOM    105  H56 LYS d   1      36.679   6.070  18.704  0.00  0.00     0.087 H 
BRANCH 104 106
ATOM    106  C   LYS d   1      37.116   6.874  16.771  0.00  0.00     0.241 C 
ATOM    107  O   LYS d   1      36.877   7.792  16.003  0.00  0.00    -0.271 OA
ATOM    108  N   ARG d   1      38.224   6.163  16.696  0.00  0.00    -0.346 N 
ATOM    109  H68 ARG d   1      38.449   5.508  17.417  0.00  0.00     0.163 HD
BRANCH 108 110
ATOM    110  CA  ARG d   1      39.115   6.333  15.566  0.00  0.00     0.089 C 
ATOM    111  H69 ARG d   1      39.194   7.412  15.364  0.00  0.00     0.087 H 
BRANCH 110 112
ATOM    112  C   ARG d   1      38.566   5.662  14.314  0.00  0.00     0.240 C 
ATOM    113  O   ARG d   1      37.735   4.753  14.393  0.00  0.00    -0.271 OA
ATOM    114  N   GLY d   1      39.073   6.098  13.168  0.00  0.00    -0.351 N 
ATOM    115  H81 GLY d   1      39.648   6.916  13.171  0.00  0.00     0.163 HD
BRANCH 114 116
ATOM    116  CA  GLY d   1      38.814   5.415  11.900  0.00  0.00     0.069 C 
ATOM    117  H82 GLY d   1      38.950   6.129  11.074  0.00  0.00     0.078 H 
ATOM    118  H83 GLY d   1      37.778   5.044  11.898  0.00  0.00     0.078 H 
BRANCH 116 119
ATOM    119  C   GLY d   1      39.762   4.240  11.701  0.00  0.00     0.236 C 
ATOM    120  O   GLY d   1      40.635   3.927  12.512  0.00  0.00    -0.272 OA
ATOM    121  N   TYR d   1      39.611   3.602  10.550  0.00  0.00    -0.345 N 
ATOM    122  H84 TYR d   1      38.848   3.841   9.949  0.00  0.00     0.163 HD
BRANCH 121 123
ATOM    123  CA  TYR d   1      40.531   2.568  10.153  0.00  0.00     0.100 C 
ATOM    124  H85 TYR d   1      40.642   1.866  10.992  0.00  0.00     0.090 H 
BRANCH 123 125
ATOM    125  C   TYR d   1      41.914   3.131   9.839  0.00  0.00     0.197 C 
ATOM    126  O   TYR d   1      42.003   4.259   9.368  0.00  0.00    -0.646 OA
ATOM    127  OXT TYR d   1      42.914   2.465  10.183  0.00  0.00    -0.646 OA
ENDBRANCH 123 125
BRANCH 123 128
ATOM    128  CB  TYR d   1      39.934   1.802   8.967  0.00  0.00    -0.013 C 
ATOM    129  H86 TYR d   1      40.700   1.122   8.566  0.00  0.00     0.043 H 
ATOM    130  H87 TYR d   1      39.644   2.526   8.191  0.00  0.00     0.043 H 
BRANCH 128 131
ATOM    131  CG  TYR d   1      38.709   0.983   9.351  0.00  0.00    -0.056 A 
ATOM    132  CD1 TYR d   1      38.823  -0.300   9.889  0.00  0.00    -0.074 A 
ATOM    133  CE1 TYR d   1      37.699  -1.015  10.266  0.00  0.00    -0.051 A 
ATOM    134  H88 TYR d   1      39.805  -0.742  10.013  0.00  0.00     0.084 H 
ATOM    135  CZ  TYR d   1      36.450  -0.419  10.151  0.00  0.00     0.065 A 
ATOM    136  H90 TYR d   1      37.793  -2.026  10.646  0.00  0.00     0.087 H 
ATOM    137  CE2 TYR d   1      36.320   0.835   9.615  0.00  0.00    -0.051 A 
ATOM    138  CD2 TYR d   1      37.445   1.519   9.227  0.00  0.00    -0.074 A 
ATOM    139  H91 TYR d   1      35.339   1.282   9.499  0.00  0.00     0.087 H 
ATOM    140  H89 TYR d   1      37.336   2.513   8.809  0.00  0.00     0.084 H 
BRANCH 135 141
ATOM    141  OH  TYR d   1      35.321  -1.101  10.512  0.00  0.00    -0.361 OA
ATOM    142  H92 TYR d   1      35.564  -1.949  10.865  0.00  0.00     0.217 HD
ENDBRANCH 135 141
ENDBRANCH 128 131
ENDBRANCH 123 128
ENDBRANCH 121 123
ENDBRANCH 116 119
ENDBRANCH 114 116
ENDBRANCH 110 112
BRANCH 110 143
ATOM    143  CB  ARG d   1      40.507   5.814  15.868  0.00  0.00    -0.036 C 
ATOM    144  H70 ARG d   1      40.907   6.383  16.720  0.00  0.00     0.036 H 
ATOM    145  H71 ARG d   1      41.137   5.988  14.983  0.00  0.00     0.036 H 
BRANCH 143 146
ATOM    146  CG  ARG d   1      40.574   4.339  16.212  0.00  0.00    -0.048 C 
ATOM    147  H72 ARG d   1      39.956   3.781  15.493  0.00  0.00     0.035 H 
ATOM    148  H73 ARG d   1      40.175   4.195  17.227  0.00  0.00     0.035 H 
BRANCH 146 149
ATOM    149  CD  ARG d   1      41.993   3.791  16.164  0.00  0.00     0.009 C 
ATOM    150  H74 ARG d   1      42.053   2.861  16.748  0.00  0.00     0.064 H 
ATOM    151  H75 ARG d   1      42.692   4.531  16.581  0.00  0.00     0.064 H 
BRANCH 149 152
ATOM    152  NE  ARG d   1      42.336   3.519  14.760  0.00  0.00    -0.227 N 
ATOM    153  CZ  ARG d   1      43.427   2.907  14.390  0.00  0.00     0.665 C 
ATOM    154  NH1 ARG d   1      43.619   2.688  13.100  0.00  0.00    -0.235 N 
ATOM    155  NH2 ARG d   1      44.322   2.540  15.276  0.00  0.00    -0.235 N 
ATOM    156  H77 ARG d   1      44.472   2.207  12.781  0.00  0.00     0.174 HD
ATOM    157  H78 ARG d   1      42.916   2.999  12.415  0.00  0.00     0.174 HD
ATOM    158  H79 ARG d   1      44.158   2.717  16.277  0.00  0.00     0.174 HD
ATOM    159  H80 ARG d   1      45.188   2.074  14.970  0.00  0.00     0.174 HD
ATOM    160  H76 ARG d   1      41.679   3.829  14.029  0.00  0.00     0.177 HD
ENDBRANCH 149 152
ENDBRANCH 146 149
ENDBRANCH 143 146
ENDBRANCH 110 143
ENDBRANCH 108 110
ENDBRANCH 104 106
BRANCH 104 161
ATOM    161  CB  LYS d   1      35.120   5.521  17.351  0.00  0.00    -0.038 C 
ATOM    162  H57 LYS d   1      35.654   4.609  17.046  0.00  0.00     0.036 H 
ATOM    163  H58 LYS d   1      34.609   5.956  16.480  0.00  0.00     0.036 H 
BRANCH 161 164
ATOM    164  CG  LYS d   1      34.078   5.145  18.382  0.00  0.00    -0.061 C 
ATOM    165  H59 LYS d   1      33.438   6.023  18.554  0.00  0.00     0.033 H 
ATOM    166  H60 LYS d   1      34.601   4.884  19.314  0.00  0.00     0.033 H 
BRANCH 164 167
ATOM    167  CD  LYS d   1      33.194   3.995  18.010  0.00  0.00    -0.043 C 
ATOM    168  H61 LYS d   1      33.816   3.102  17.848  0.00  0.00     0.035 H 
ATOM    169  H62 LYS d   1      32.657   4.241  17.082  0.00  0.00     0.035 H 
BRANCH 167 170
ATOM    170  CE  LYS d   1      32.178   3.701  19.109  0.00  0.00     0.080 C 
ATOM    171  H63 LYS d   1      31.474   4.544  19.170  0.00  0.00     0.075 H 
ATOM    172  H64 LYS d   1      32.714   3.602  20.064  0.00  0.00     0.075 H 
BRANCH 170 173
ATOM    173  NZ  LYS d   1      31.403   2.452  18.868  0.00  0.00    -0.079 N 
ATOM    174  H65 LYS d   1      30.751   2.310  19.623  0.00  0.00     0.274 HD
ATOM    175  H66 LYS d   1      32.035   1.669  18.819  0.00  0.00     0.274 HD
ATOM    176  H67 LYS d   1      30.899   2.532  17.999  0.00  0.00     0.274 HD
ENDBRANCH 170 173
ENDBRANCH 167 170
ENDBRANCH 164 167
ENDBRANCH 161 164
ENDBRANCH 104 161
ENDBRANCH 102 104
ENDBRANCH   1 100
TORSDOF 51
