REMARK  11 active torsions:
REMARK  status: ('A' for Active; 'I' for Inactive)
REMARK    1  A    between atoms: C02_2  and  C31_18 
REMARK    2  A    between atoms: O19_24  and  C12_8 
REMARK    3  A    between atoms: C13_9  and  O18_23 
REMARK    4  A    between atoms: C14_10  and  C16_11 
REMARK    5  A    between atoms: C16_11  and  O17_22 
REMARK    6  A    between atoms: C20_12  and  O19_24 
REMARK    7  A    between atoms: C21_13  and  O30_29 
REMARK    8  A    between atoms: C22_14  and  O29_28 
REMARK    9  A    between atoms: C23_15  and  O28_27 
REMARK   10  A    between atoms: C24_16  and  C26_17 
REMARK   11  A    between atoms: C26_17  and  O27_26 
ROOT
ATOM      1  C01 EGZ d   1     -23.974  12.249  -4.683  0.00  0.00    -0.008 C 
ATOM      2  C02 EGZ d   1     -23.089  11.807  -5.904  0.00  0.00     0.099 C 
ATOM      3  C04 EGZ d   1     -20.988  12.726  -4.646  0.00  0.00     0.257 C 
ATOM      4  C06 EGZ d   1     -21.748  12.604  -3.358  0.00  0.00     0.075 C 
ATOM      5  C07 EGZ d   1     -23.276  12.326  -3.397  0.00  0.00     0.080 C 
ATOM      6  C09 EGZ d   1     -23.417  12.266  -0.674  0.00  0.00     0.147 C 
ATOM      7  C10 EGZ d   1     -22.067  11.852  -0.753  0.00  0.00     0.071 C 
ATOM      8  C12 EGZ d   1     -21.803  10.302  -1.149  0.00  0.00     0.085 C 
ATOM      9  C13 EGZ d   1     -22.776   9.413  -0.549  0.00  0.00     0.089 C 
ATOM     10  C14 EGZ d   1     -24.092   9.876  -0.855  0.00  0.00     0.089 C 
ATOM     11  N03 EGZ d   1     -21.625  12.333  -5.977  0.00  0.00    -0.342 N 
ATOM     12  O05 EGZ d   1     -19.874  13.133  -4.631  0.00  0.00    -0.267 OA
ATOM     13  O15 EGZ d   1     -24.362  11.269  -0.180  0.00  0.00    -0.350 OA
ATOM     14  S11 EGZ d   1     -21.138  12.799  -1.960  0.00  0.00    -0.114 SA
ATOM     15  O08 EGZ d   1     -24.083  12.794  -2.116  0.00  0.00    -0.349 OA
ATOM     16  H1  EGZ d   1     -24.796  11.526  -4.580  0.00  0.00     0.041 H 
ATOM     17  H2  EGZ d   1     -24.387  13.244  -4.905  0.00  0.00     0.041 H 
ATOM     18  H3  EGZ d   1     -23.041  10.708  -5.899  0.00  0.00     0.089 H 
ATOM     19  H4  EGZ d   1     -23.245  11.247  -3.184  0.00  0.00     0.092 H 
ATOM     20  H5  EGZ d   1     -23.426  13.111   0.030  0.00  0.00     0.131 H 
ATOM     21  H6  EGZ d   1     -21.631  12.024   0.242  0.00  0.00     0.068 H 
ATOM     22  H7  EGZ d   1     -21.882  10.193  -2.241  0.00  0.00     0.089 H 
ATOM     23  H8  EGZ d   1     -22.642   8.401  -0.959  0.00  0.00     0.091 H 
ATOM     24  H9  EGZ d   1     -24.181   9.982  -1.946  0.00  0.00     0.090 H 
ATOM     25  H19 EGZ d   1     -21.132  12.409  -6.843  0.00  0.00     0.163 HD
ENDROOT
BRANCH   8  26
ATOM     26  O19 EGZ d   1     -20.463  10.019  -0.755  0.00  0.00    -0.349 OA
BRANCH  26  27
ATOM     27  C20 EGZ d   1     -19.883   8.943  -1.398  0.00  0.00     0.159 C 
ATOM     28  C21 EGZ d   1     -18.369   9.151  -1.374  0.00  0.00     0.110 C 
ATOM     29  C22 EGZ d   1     -17.625   7.893  -1.690  0.00  0.00     0.092 C 
ATOM     30  H13 EGZ d   1     -18.080   9.475  -0.363  0.00  0.00     0.094 H 
ATOM     31  C23 EGZ d   1     -18.092   6.744  -0.888  0.00  0.00     0.090 C 
ATOM     32  H14 EGZ d   1     -17.776   7.660  -2.754  0.00  0.00     0.091 H 
ATOM     33  C24 EGZ d   1     -19.582   6.533  -1.077  0.00  0.00     0.089 C 
ATOM     34  H15 EGZ d   1     -17.552   5.837  -1.196  0.00  0.00     0.091 H 
ATOM     35  O25 EGZ d   1     -20.283   7.761  -0.651  0.00  0.00    -0.348 OA
ATOM     36  H16 EGZ d   1     -19.792   6.317  -2.135  0.00  0.00     0.090 H 
ATOM     37  H12 EGZ d   1     -20.233   8.870  -2.438  0.00  0.00     0.133 H 
BRANCH  28  38
ATOM     38  O30 EGZ d   1     -18.019  10.187  -2.306  0.00  0.00    -0.388 OA
ATOM     39  H25 EGZ d   1     -18.242   9.908  -3.186  0.00  0.00     0.210 HD
ENDBRANCH  28  38
BRANCH  29  40
ATOM     40  O29 EGZ d   1     -16.195   8.094  -1.442  0.00  0.00    -0.390 OA
ATOM     41  H24 EGZ d   1     -16.056   8.268  -0.518  0.00  0.00     0.210 HD
ENDBRANCH  29  40
BRANCH  31  42
ATOM     42  O28 EGZ d   1     -17.831   7.020   0.496  0.00  0.00    -0.390 OA
ATOM     43  H23 EGZ d   1     -16.899   7.153   0.621  0.00  0.00     0.210 HD
ENDBRANCH  31  42
BRANCH  33  44
ATOM     44  C26 EGZ d   1     -20.092   5.428  -0.228  0.00  0.00     0.043 C 
ATOM     45  H17 EGZ d   1     -19.900   5.655   0.831  0.00  0.00     0.078 H 
ATOM     46  H18 EGZ d   1     -19.588   4.489  -0.499  0.00  0.00     0.078 H 
BRANCH  44  47
ATOM     47  O27 EGZ d   1     -21.473   5.303  -0.443  0.00  0.00    -0.398 OA
ATOM     48  H22 EGZ d   1     -21.904   6.117  -0.210  0.00  0.00     0.209 HD
ENDBRANCH  44  47
ENDBRANCH  33  44
ENDBRANCH  26  27
ENDBRANCH   8  26
BRANCH   9  49
ATOM     49  O18 EGZ d   1     -22.592   9.367   0.949  0.00  0.00    -0.390 OA
ATOM     50  H21 EGZ d   1     -23.232   8.775   1.327  0.00  0.00     0.210 HD
ENDBRANCH   9  49
BRANCH  10  51
ATOM     51  C16 EGZ d   1     -25.127   8.910  -0.373  0.00  0.00     0.043 C 
ATOM     52  H10 EGZ d   1     -24.961   8.686   0.691  0.00  0.00     0.078 H 
ATOM     53  H11 EGZ d   1     -25.069   7.979  -0.957  0.00  0.00     0.078 H 
BRANCH  51  54
ATOM     54  O17 EGZ d   1     -26.389   9.501  -0.544  0.00  0.00    -0.398 OA
ATOM     55  H20 EGZ d   1     -26.432  10.305  -0.040  0.00  0.00     0.209 HD
ENDBRANCH  51  54
ENDBRANCH  10  51
BRANCH   2  56
ATOM     56  C31 EGZ d   1     -23.820  12.284  -7.158  0.00  0.00     0.196 C 
ATOM     57  O32 EGZ d   1     -23.344  13.227  -7.845  0.00  0.00    -0.646 OA
ATOM     58  O33 EGZ d   1     -24.900  11.735  -7.509  0.00  0.00    -0.646 OA
ENDBRANCH   2  56
TORSDOF 11
