REMARK  5 active torsions:
REMARK  status: ('A' for Active; 'I' for Inactive)
REMARK    1  A    between atoms: C1_4  and  C_1 
REMARK       I    between atoms: C_1  and  N_5 
REMARK    2  A    between atoms: C4_23  and  O1_3 
REMARK    3  A    between atoms: O1_3  and  C5_24 
REMARK    4  A    between atoms: C9_28  and  C11_7 
REMARK       I    between atoms: C11_7  and  N1_30 
REMARK    5  A    between atoms: C14_10  and  C17_13 
ROOT
ATOM      1  C11 EGW d   1      16.643  -9.826 -21.270  0.00  0.00     0.253 C 
ATOM      2  C12 EGW d   1      18.211 -11.629 -20.752  0.00  0.00    -0.002 C 
ATOM      3  C13 EGW d   1      19.719 -11.677 -20.707  0.00  0.00    -0.043 C 
ATOM      4  C14 EGW d   1      20.255 -11.856 -22.114  0.00  0.00    -0.026 C 
ATOM      5  C15 EGW d   1      19.869 -10.622 -22.928  0.00  0.00    -0.043 C 
ATOM      6  C16 EGW d   1      18.355 -10.390 -22.937  0.00  0.00    -0.002 C 
ATOM      7  N1  EGW d   1      17.726 -10.543 -21.614  0.00  0.00    -0.348 N 
ATOM      8  O2  EGW d   1      16.236  -8.907 -21.958  0.00  0.00    -0.267 OA
ATOM      9  H4  EGW d   1      17.829 -11.472 -19.733  0.00  0.00     0.064 H 
ATOM     10  H5  EGW d   1      17.836 -12.587 -21.141  0.00  0.00     0.064 H 
ATOM     11  H6  EGW d   1      20.042 -12.522 -20.080  0.00  0.00     0.036 H 
ATOM     12  H7  EGW d   1      20.104 -10.738 -20.283  0.00  0.00     0.036 H 
ATOM     13  H8  EGW d   1      21.353 -11.879 -22.058  0.00  0.00     0.047 H 
ATOM     14  H9  EGW d   1      20.213 -10.758 -23.964  0.00  0.00     0.036 H 
ATOM     15  H10 EGW d   1      20.361  -9.740 -22.491  0.00  0.00     0.036 H 
ATOM     16  H11 EGW d   1      17.896 -11.115 -23.626  0.00  0.00     0.064 H 
ATOM     17  H12 EGW d   1      18.162  -9.369 -23.297  0.00  0.00     0.064 H 
ENDROOT
BRANCH   1  18
ATOM     18  C9  EGW d   1      15.868 -10.268 -20.071  0.00  0.00     0.034 A 
ATOM     19  C10 EGW d   1      14.958 -11.312 -20.212  0.00  0.00    -0.035 A 
ATOM     20  C5  EGW d   1      14.308 -11.809 -19.097  0.00  0.00     0.077 A 
ATOM     21  H3  EGW d   1      14.760 -11.733 -21.191  0.00  0.00     0.089 H 
ATOM     22  C6  EGW d   1      14.501 -11.250 -17.848  0.00  0.00    -0.050 A 
ATOM     23  C7  EGW d   1      15.398 -10.203 -17.714  0.00  0.00    -0.079 A 
ATOM     24  H21 EGW d   1      13.959 -11.625 -16.987  0.00  0.00     0.087 H 
ATOM     25  C8  EGW d   1      16.082  -9.718 -18.814  0.00  0.00    -0.068 A 
ATOM     26  H22 EGW d   1      15.565  -9.760 -16.739  0.00  0.00     0.083 H 
ATOM     27  H23 EGW d   1      16.788  -8.905 -18.694  0.00  0.00     0.085 H 
BRANCH  20  28
ATOM     28  O1  EGW d   1      13.572 -12.971 -19.263  0.00  0.00    -0.311 OA
BRANCH  28  29
ATOM     29  C4  EGW d   1      12.189 -12.893 -19.321  0.00  0.00     0.076 A 
ATOM     30  C23 EGW d   1      11.557 -11.812 -19.909  0.00  0.00    -0.049 A 
ATOM     31  C24 EGW d   1      10.175 -11.766 -19.948  0.00  0.00    -0.065 A 
ATOM     32  H18 EGW d   1      12.142 -11.005 -20.337  0.00  0.00     0.087 H 
ATOM     33  C1  EGW d   1       9.418 -12.789 -19.392  0.00  0.00     0.032 A 
ATOM     34  H19 EGW d   1       9.678 -10.924 -20.417  0.00  0.00     0.085 H 
ATOM     35  C2  EGW d   1      10.070 -13.875 -18.825  0.00  0.00    -0.065 A 
ATOM     36  C3  EGW d   1      11.447 -13.928 -18.784  0.00  0.00    -0.049 A 
ATOM     37  H15 EGW d   1       9.490 -14.691 -18.410  0.00  0.00     0.085 H 
ATOM     38  H20 EGW d   1      11.946 -14.778 -18.332  0.00  0.00     0.087 H 
BRANCH  33  39
ATOM     39  C   EGW d   1       7.940 -12.734 -19.296  0.00  0.00     0.249 C 
ATOM     40  O   EGW d   1       7.395 -13.106 -18.263  0.00  0.00    -0.268 OA
ATOM     41  N   EGW d   1       7.263 -12.307 -20.355  0.00  0.00    -0.366 N 
ATOM     42  H1  EGW d   1       7.752 -12.013 -21.176  0.00  0.00     0.159 HD
ATOM     43  H2  EGW d   1       6.264 -12.279 -20.332  0.00  0.00     0.159 HD
ENDBRANCH  33  39
ENDBRANCH  28  29
ENDBRANCH  20  28
ENDBRANCH   1  18
BRANCH   4  44
ATOM     44  C17 EGW d   1      19.825 -13.186 -22.709  0.00  0.00    -0.054 A 
ATOM     45  C18 EGW d   1      20.229 -14.370 -22.112  0.00  0.00    -0.074 A 
ATOM     46  C19 EGW d   1      19.867 -15.597 -22.638  0.00  0.00    -0.045 A 
ATOM     47  H13 EGW d   1      20.840 -14.334 -21.217  0.00  0.00     0.084 H 
ATOM     48  C20 EGW d   1      19.095 -15.616 -23.764  0.00  0.00     0.116 A 
ATOM     49  H14 EGW d   1      20.188 -16.520 -22.168  0.00  0.00     0.088 H 
ATOM     50  C21 EGW d   1      18.649 -14.483 -24.375  0.00  0.00    -0.045 A 
ATOM     51  F   EGW d   1      18.815 -16.816 -24.336  0.00  0.00    -0.206 F 
ATOM     52  C22 EGW d   1      19.027 -13.263 -23.845  0.00  0.00    -0.074 A 
ATOM     53  H16 EGW d   1      18.015 -14.536 -25.253  0.00  0.00     0.088 H 
ATOM     54  H17 EGW d   1      18.695 -12.349 -24.324  0.00  0.00     0.084 H 
ENDBRANCH   4  44
TORSDOF 5
