REMARK  15 active torsions:
REMARK  status: ('A' for Active; 'I' for Inactive)
REMARK    1  A    between atoms: O3C_40  and  PD_1 
REMARK    2  A    between atoms: O3B_12  and  PG_5 
REMARK    3  A    between atoms: PB_9  and  O3B_12 
REMARK    4  A    between atoms: O3A_13  and  PB_9 
REMARK    5  A    between atoms: PA_14  and  O3A_13 
REMARK    6  A    between atoms: O5'_17  and  PA_14 
REMARK    7  A    between atoms: C5'_18  and  O5'_17 
REMARK    8  A    between atoms: C4'_19  and  C5'_18 
REMARK    9  A    between atoms: O3'_22  and  C3'_21 
REMARK   10  A    between atoms: PC_37  and  O3'_22 
REMARK   11  A    between atoms: C2'_23  and  O2'_24 
REMARK   12  A    between atoms: C1'_25  and  N9_26 
REMARK   13  A    between atoms: C6_30  and  O6_31 
REMARK   14  A    between atoms: C2_33  and  N2_34 
REMARK   15  A    between atoms: PC_37  and  O3C_40 
ROOT
ATOM      1  C4' C1Z d   1      10.232   3.125 -25.494  0.00  0.00     0.090 C 
ATOM      2  O4' C1Z d   1      10.609   3.155 -24.013  0.00  0.00    -0.353 OA
ATOM      3  C3' C1Z d   1      10.943   4.267 -26.087  0.00  0.00     0.106 C 
ATOM      4  C2' C1Z d   1      12.064   4.579 -25.234  0.00  0.00     0.106 C 
ATOM      5  C1' C1Z d   1      11.599   4.309 -23.866  0.00  0.00     0.139 C 
ATOM      6  H3  C1Z d   1       9.148   3.278 -25.599  0.00  0.00     0.090 H 
ATOM      7  H4  C1Z d   1      11.276   4.048 -27.112  0.00  0.00     0.092 H 
ATOM      8  H5  C1Z d   1      12.927   3.944 -25.484  0.00  0.00     0.093 H 
ATOM      9  H7  C1Z d   1      11.100   5.210 -23.480  0.00  0.00     0.122 H 
ENDROOT
BRANCH   5  10
ATOM     10  N9  C1Z d   1      12.546   3.894 -22.926  0.00  0.00    -0.295 N 
ATOM     11  C8  C1Z d   1      13.294   2.981 -23.237  0.00  0.00     0.070 A 
ATOM     12  N7  C1Z d   1      14.110   2.681 -22.200  0.00  0.00    -0.240 NA
ATOM     13  H8  C1Z d   1      13.303   2.482 -24.205  0.00  0.00     0.144 H 
ATOM     14  C5  C1Z d   1      13.595   3.705 -21.149  0.00  0.00     0.129 A 
ATOM     15  C6  C1Z d   1      13.959   3.988 -19.780  0.00  0.00     0.163 A 
ATOM     16  C4  C1Z d   1      12.566   4.401 -21.787  0.00  0.00     0.155 A 
ATOM     17  N1  C1Z d   1      13.294   5.001 -19.041  0.00  0.00    -0.194 N 
ATOM     18  H9  C1Z d   1      14.698   4.722 -20.135  0.00  0.00     0.129 H 
ATOM     19  C2  C1Z d   1      12.290   5.696 -19.643  0.00  0.00     0.675 A 
ATOM     20  H11 C1Z d   1      13.566   5.206 -18.069  0.00  0.00     0.180 HD
ATOM     21  N3  C1Z d   1      11.901   5.399 -21.039  0.00  0.00    -0.175 N 
ATOM     22  H14 C1Z d   1      11.132   5.929 -21.474  0.00  0.00     0.186 HD
BRANCH  15  23
ATOM     23  O6  C1Z d   1      14.956   3.279 -19.145  0.00  0.00    -0.370 OA
ATOM     24  H10 C1Z d   1      15.317   2.637 -19.744  0.00  0.00     0.212 HD
ENDBRANCH  15  23
BRANCH  19  25
ATOM     25  N2  C1Z d   1      11.635   6.697 -18.886  0.00  0.00    -0.235 N 
ATOM     26  H12 C1Z d   1      10.871   7.244 -19.307  0.00  0.00     0.174 HD
ATOM     27  H13 C1Z d   1      11.923   6.878 -17.914  0.00  0.00     0.174 HD
ENDBRANCH  19  25
ENDBRANCH   5  10
BRANCH   4  28
ATOM     28  O2' C1Z d   1      12.438   5.989 -25.363  0.00  0.00    -0.388 OA
ATOM     29  H6  C1Z d   1      11.701   6.535 -25.114  0.00  0.00     0.210 HD
ENDBRANCH   4  28
BRANCH   1  30
ATOM     30  C5' C1Z d   1      10.572   1.835 -26.133  0.00  0.00     0.058 C 
ATOM     31  H1  C1Z d   1      10.232   1.008 -25.492  0.00  0.00     0.079 H 
ATOM     32  H2  C1Z d   1      10.073   1.769 -27.111  0.00  0.00     0.079 H 
BRANCH  30  33
ATOM     33  O5' C1Z d   1      11.982   1.746 -26.313  0.00  0.00    -0.287 OA
BRANCH  33  34
ATOM     34  PA  C1Z d   1      12.633   0.817 -27.424  0.00  0.00     0.417 P 
ATOM     35  O1A C1Z d   1      14.102   0.964 -27.357  0.00  0.00    -0.624 OA
ATOM     36  O2A C1Z d   1      12.290   1.246 -28.810  0.00  0.00    -0.624 OA
BRANCH  34  37
ATOM     37  O3A C1Z d   1      12.160  -0.666 -27.155  0.00  0.00    -0.180 OA
BRANCH  37  38
ATOM     38  PB  C1Z d   1      12.431  -1.976 -27.991  0.00  0.00     0.428 P 
ATOM     39  O1B C1Z d   1      12.648  -3.116 -27.071  0.00  0.00    -0.624 OA
ATOM     40  O2B C1Z d   1      13.644  -1.903 -28.844  0.00  0.00    -0.624 OA
BRANCH  38  41
ATOM     41  O3B C1Z d   1      11.139  -2.292 -28.853  0.00  0.00    -0.173 OA
BRANCH  41  42
ATOM     42  PG  C1Z d   1      10.973  -3.214 -30.146  0.00  0.00     0.431 P 
ATOM     43  O1G C1Z d   1       9.537  -3.415 -30.482  0.00  0.00    -0.616 OA
ATOM     44  O2G C1Z d   1      11.524  -4.598 -30.093  0.00  0.00    -0.616 OA
ATOM     45  O3G C1Z d   1      11.543  -2.638 -31.396  0.00  0.00    -0.616 OA
ENDBRANCH  41  42
ENDBRANCH  38  41
ENDBRANCH  37  38
ENDBRANCH  34  37
ENDBRANCH  33  34
ENDBRANCH  30  33
ENDBRANCH   1  30
BRANCH   3  46
ATOM     46  O3' C1Z d   1      10.001   5.393 -26.060  0.00  0.00    -0.279 OA
BRANCH  46  47
ATOM     47  PC  C1Z d   1       9.356   5.951 -27.397  0.00  0.00     0.419 P 
ATOM     48  O1C C1Z d   1       9.550   5.059 -28.567  0.00  0.00    -0.624 OA
ATOM     49  O2C C1Z d   1       7.877   5.986 -27.285  0.00  0.00    -0.624 OA
BRANCH  47  50
ATOM     50  O3C C1Z d   1       9.974   7.385 -27.644  0.00  0.00    -0.173 OA
BRANCH  50  51
ATOM     51  PD  C1Z d   1      10.045   8.450 -26.474  0.00  0.00     0.431 P 
ATOM     52  O1D C1Z d   1      10.782   7.986 -25.269  0.00  0.00    -0.616 OA
ATOM     53  O2D C1Z d   1      10.721   9.720 -26.845  0.00  0.00    -0.616 OA
ATOM     54  O3D C1Z d   1       8.701   8.828 -25.962  0.00  0.00    -0.616 OA
ENDBRANCH  50  51
ENDBRANCH  47  50
ENDBRANCH  46  47
ENDBRANCH   3  46
TORSDOF 15
