REMARK  2 active torsions:
REMARK  status: ('A' for Active; 'I' for Inactive)
REMARK    1  A    between atoms: CAL_11  and  NAO_16 
REMARK    2  A    between atoms: NAE_15  and  CAP_14 
ROOT
ATOM      1  CAA E1K d   1       6.796  -7.137  21.778  0.00  0.00    -0.082 C 
ATOM      2  CAB E1K d   1       6.992  -6.681  20.357  0.00  0.00    -0.081 C 
ATOM      3  CAC E1K d   1       6.137  -5.457  20.165  0.00  0.00    -0.056 C 
ATOM      4  CAD E1K d   1       4.813  -5.703  20.541  0.00  0.00     0.047 A 
ATOM      5  CAF E1K d   1       2.553  -5.037  20.397  0.00  0.00     0.048 A 
ATOM      6  CAG E1K d   1       1.585  -4.167  19.900  0.00  0.00    -0.035 A 
ATOM      7  CAH E1K d   1       0.248  -4.352  20.240  0.00  0.00     0.036 A 
ATOM      8  CAI E1K d   1      -0.132  -5.397  21.070  0.00  0.00    -0.061 A 
ATOM      9  CAJ E1K d   1       0.828  -6.267  21.567  0.00  0.00    -0.067 A 
ATOM     10  CAK E1K d   1       2.163  -6.081  21.227  0.00  0.00     0.018 A 
ATOM     11  CAL E1K d   1       3.141  -6.930  21.709  0.00  0.00     0.051 A 
ATOM     12  CAM E1K d   1       4.473  -6.763  21.391  0.00  0.00     0.018 A 
ATOM     13  CAN E1K d   1       5.394  -7.670  21.904  0.00  0.00    -0.069 C 
ATOM     14  NAE E1K d   1       3.854  -4.871  20.078  0.00  0.00    -0.350 N 
ATOM     15 CLA  E1K d   1      -0.950  -3.298  19.641  0.00  0.00    -0.084 Cl
ATOM     16  H1  E1K d   1       7.534  -7.090  22.570  0.00  0.00     0.083 H 
ATOM     17  H2  E1K d   1       7.628  -7.146  19.613  0.00  0.00     0.083 H 
ATOM     18  H3  E1K d   1       6.500  -4.509  19.785  0.00  0.00     0.087 H 
ATOM     19  H4  E1K d   1       1.872  -3.348  19.250  0.00  0.00     0.089 H 
ATOM     20  H5  E1K d   1      -1.176  -5.533  21.329  0.00  0.00     0.086 H 
ATOM     21  H6  E1K d   1       0.539  -7.086  22.216  0.00  0.00     0.085 H 
ATOM     22  H7  E1K d   1       5.137  -8.630  22.336  0.00  0.00     0.085 H 
ENDROOT
BRANCH  14  23
ATOM     23  CAP E1K d   1       4.245  -3.747  19.191  0.00  0.00    -0.013 C 
ATOM     24  H8  E1K d   1       5.334  -3.763  19.038  0.00  0.00     0.057 H 
ATOM     25  H9  E1K d   1       3.954  -2.794  19.657  0.00  0.00     0.057 H 
ATOM     26  H10 E1K d   1       3.737  -3.851  18.221  0.00  0.00     0.057 H 
ENDBRANCH  14  23
BRANCH  11  27
ATOM     27  NAO E1K d   1       2.798  -7.936  22.504  0.00  0.00    -0.398 N 
ATOM     28  H11 E1K d   1       1.810  -8.080  22.755  0.00  0.00     0.156 HD
ATOM     29  H12 E1K d   1       3.520  -8.572  22.870  0.00  0.00     0.156 HD
ENDBRANCH  11  27
TORSDOF 2
