REMARK  4 active torsions:
REMARK  status: ('A' for Active; 'I' for Inactive)
REMARK    1  A    between atoms: CAI_9  and  NAO_20 
REMARK    2  A    between atoms: NAQ_21  and  CAN_14 
REMARK    3  A    between atoms: CAT_17  and  CAU_18 
REMARK    4  A    between atoms: CAU_18  and  CAV_19 
ROOT
ATOM      1  CAA E1N d   1       6.413  -5.623  20.312  0.00  0.00    -0.067 A 
ATOM      2  CAB E1N d   1       5.032  -5.450  20.419  0.00  0.00     0.018 A 
ATOM      3  CAC E1N d   1       4.315  -6.217  21.324  0.00  0.00     0.048 A 
ATOM      4  CAD E1N d   1       4.954  -7.160  22.125  0.00  0.00    -0.035 A 
ATOM      5  CAE E1N d   1       6.327  -7.334  22.028  0.00  0.00     0.036 A 
ATOM      6  CAF E1N d   1       7.073  -6.561  21.124  0.00  0.00    -0.061 A 
ATOM      7  CAG E1N d   1       2.279  -5.198  20.725  0.00  0.00     0.021 A 
ATOM      8  CAH E1N d   1       2.924  -4.394  19.788  0.00  0.00    -0.004 A 
ATOM      9  CAI E1N d   1       4.311  -4.531  19.650  0.00  0.00     0.047 A 
ATOM     10  CAJ E1N d   1       2.217  -3.437  19.051  0.00  0.00    -0.020 C 
ATOM     11  CAK E1N d   1       0.730  -3.727  18.987  0.00  0.00    -0.051 C 
ATOM     12  CAL E1N d   1       0.215  -3.946  20.420  0.00  0.00    -0.032 C 
ATOM     13  CAM E1N d   1       0.883  -5.190  20.961  0.00  0.00    -0.020 C 
ATOM     14  CAR E1N d   1       2.371  -2.086  19.811  0.00  0.00    -0.037 C 
ATOM     15  CAS E1N d   1       0.489  -2.861  21.242  0.00  0.00    -0.096 C 
ATOM     16  CAT E1N d   1       1.542  -1.991  20.982  0.00  0.00    -0.083 C 
ATOM     17  NAQ E1N d   1       2.989  -6.079  21.422  0.00  0.00    -0.353 N 
ATOM     18 CLA  E1N d   1       7.094  -8.507  23.097  0.00  0.00    -0.084 Cl
ATOM     19  H1  E1N d   1       6.978  -5.032  19.600  0.00  0.00     0.085 H 
ATOM     20  H2  E1N d   1       4.379  -7.757  22.823  0.00  0.00     0.089 H 
ATOM     21  H3  E1N d   1       8.147  -6.686  21.053  0.00  0.00     0.086 H 
ATOM     22  H4  E1N d   1       2.629  -3.369  18.034  0.00  0.00     0.048 H 
ATOM     23  H5  E1N d   1       0.554  -4.632  18.387  0.00  0.00     0.035 H 
ATOM     24  H6  E1N d   1       0.205  -2.875  18.530  0.00  0.00     0.035 H 
ATOM     25  H7  E1N d   1      -0.874  -4.098  20.391  0.00  0.00     0.046 H 
ATOM     26  H8  E1N d   1       0.708  -5.242  22.046  0.00  0.00     0.043 H 
ATOM     27  H9  E1N d   1       0.437  -6.070  20.475  0.00  0.00     0.043 H 
ATOM     28  H13 E1N d   1       2.102  -1.268  19.126  0.00  0.00     0.040 H 
ATOM     29  H14 E1N d   1       3.422  -1.977  20.118  0.00  0.00     0.040 H 
ATOM     30  H15 E1N d   1      -0.138  -2.687  22.115  0.00  0.00     0.077 H 
ENDROOT
BRANCH  16  31
ATOM     31  CAU E1N d   1       1.629  -0.928  21.882  0.00  0.00    -0.048 C 
ATOM     32  H16 E1N d   1       1.115  -1.210  22.813  0.00  0.00     0.039 H 
ATOM     33  H17 E1N d   1       1.134  -0.050  21.441  0.00  0.00     0.039 H 
BRANCH  31  34
ATOM     34  CAV E1N d   1       3.058  -0.567  22.207  0.00  0.00    -0.073 C 
ATOM     35  H18 E1N d   1       3.071   0.273  22.917  0.00  0.00     0.028 H 
ATOM     36  H19 E1N d   1       3.582  -0.275  21.285  0.00  0.00     0.028 H 
ATOM     37  H20 E1N d   1       3.562  -1.435  22.656  0.00  0.00     0.028 H 
ENDBRANCH  31  34
ENDBRANCH  16  31
BRANCH   9  38
ATOM     38  NAO E1N d   1       4.977  -3.763  18.772  0.00  0.00    -0.398 N 
ATOM     39  H21 E1N d   1       5.997  -3.863  18.670  0.00  0.00     0.156 HD
ATOM     40  H22 E1N d   1       4.468  -3.074  18.201  0.00  0.00     0.156 HD
ENDBRANCH   9  38
BRANCH  17  41
ATOM     41  CAN E1N d   1       2.276  -6.902  22.377  0.00  0.00    -0.014 C 
ATOM     42  H10 E1N d   1       2.983  -7.580  22.877  0.00  0.00     0.057 H 
ATOM     43  H11 E1N d   1       1.511  -7.493  21.852  0.00  0.00     0.057 H 
ATOM     44  H12 E1N d   1       1.792  -6.258  23.127  0.00  0.00     0.057 H 
ENDBRANCH  17  41
TORSDOF 4
