REMARK  11 active torsions:
REMARK  status: ('A' for Active; 'I' for Inactive)
REMARK    1  A    between atoms: C17_3  and  C16_17 
REMARK    2  A    between atoms: N20_29  and  C17_3 
REMARK    3  A    between atoms: C23_20  and  C24_4 
REMARK       I    between atoms: C24_4  and  N26_32 
REMARK    4  A    between atoms: C28_5  and  C29_21 
REMARK    5  A    between atoms: N26_32  and  C28_5 
REMARK    6  A    between atoms: N27_33  and  C12_15 
REMARK    7  A    between atoms: C16_17  and  N27_33 
REMARK    8  A    between atoms: C19_19  and  C23_20 
REMARK    9  A    between atoms: C31_23  and  O36_36 
REMARK   10  A    between atoms: C32_24  and  O35_35 
REMARK   11  A    between atoms: O36_36  and  C37_27 
ROOT
ATOM      1  C18 E0Z d   1      -5.601  -1.056  54.860  0.00  0.00     0.020 A 
ATOM      2  C19 E0Z d   1      -6.270  -0.650  53.655  0.00  0.00     0.077 A 
ATOM      3  N20 E0Z d   1      -6.524  -1.692  55.573  0.00  0.00    -0.282 N 
ATOM      4  N21 E0Z d   1      -7.675  -1.728  54.902  0.00  0.00     0.004 NA
ATOM      5  N22 E0Z d   1      -7.551  -1.087  53.740  0.00  0.00    -0.163 NA
ATOM      6  H14 E0Z d   1      -4.561  -0.880  55.131  0.00  0.00     0.116 H 
ENDROOT
BRANCH   3   7
ATOM      7  C17 E0Z d   1      -6.175  -2.265  56.854  0.00  0.00     0.028 C 
ATOM      8  H2  E0Z d   1      -6.253  -1.516  57.656  0.00  0.00     0.069 H 
ATOM      9  H3  E0Z d   1      -6.819  -3.124  57.091  0.00  0.00     0.069 H 
BRANCH   7  10
ATOM     10  C16 E0Z d   1      -4.718  -2.707  56.651  0.00  0.00     0.009 C 
ATOM     11  H12 E0Z d   1      -4.088  -2.159  57.367  0.00  0.00     0.066 H 
ATOM     12  H13 E0Z d   1      -4.418  -2.447  55.625  0.00  0.00     0.066 H 
BRANCH  10  13
ATOM     13  N27 E0Z d   1      -4.495  -4.130  56.844  0.00  0.00    -0.387 N 
ATOM     14  H24 E0Z d   1      -4.856  -4.610  57.681  0.00  0.00     0.159 HD
BRANCH  13  15
ATOM     15  C12 E0Z d   1      -3.750  -4.863  55.829  0.00  0.00     0.053 A 
ATOM     16  C13 E0Z d   1      -2.330  -4.689  55.599  0.00  0.00     0.020 A 
ATOM     17  C04 E0Z d   1      -1.727  -5.432  54.607  0.00  0.00     0.070 A 
ATOM     18  C14 E0Z d   1      -1.545  -3.782  56.385  0.00  0.00    -0.069 A 
ATOM     19  C03 E0Z d   1      -0.319  -5.297  54.338  0.00  0.00    -0.054 A 
ATOM     20  N05 E0Z d   1      -2.461  -6.314  53.869  0.00  0.00    -0.247 NA
ATOM     21  C02 E0Z d   1       0.432  -4.395  55.093  0.00  0.00    -0.081 A 
ATOM     22  H8  E0Z d   1       0.151  -5.888  53.560  0.00  0.00     0.087 H 
ATOM     23  C01 E0Z d   1      -0.167  -3.648  56.132  0.00  0.00    -0.082 A 
ATOM     24  H7  E0Z d   1       1.487  -4.266  54.880  0.00  0.00     0.083 H 
ATOM     25  H6  E0Z d   1       0.433  -2.974  56.732  0.00  0.00     0.083 H 
ATOM     26  C06 E0Z d   1      -3.803  -6.501  54.049  0.00  0.00     0.071 A 
ATOM     27  C07 E0Z d   1      -4.508  -7.430  53.243  0.00  0.00    -0.033 A 
ATOM     28  C11 E0Z d   1      -4.466  -5.800  55.016  0.00  0.00     0.020 A 
ATOM     29  C08 E0Z d   1      -5.869  -7.608  53.447  0.00  0.00     0.036 A 
ATOM     30  H9  E0Z d   1      -3.990  -7.995  52.476  0.00  0.00     0.089 H 
ATOM     31  C09 E0Z d   1      -6.566  -6.892  54.437  0.00  0.00    -0.061 A 
ATOM     32 CL1  E0Z d   1      -6.738  -8.765  52.421  0.00  0.00    -0.084 Cl
ATOM     33  C10 E0Z d   1      -5.865  -5.986  55.234  0.00  0.00    -0.067 A 
ATOM     34  H10 E0Z d   1      -7.630  -7.042  54.578  0.00  0.00     0.086 H 
ATOM     35  H1  E0Z d   1      -6.377  -5.429  56.011  0.00  0.00     0.085 H 
ATOM     36  H11 E0Z d   1      -2.012  -3.201  57.172  0.00  0.00     0.085 H 
ENDBRANCH  13  15
ENDBRANCH  10  13
ENDBRANCH   7  10
ENDBRANCH   3   7
BRANCH   2  37
ATOM     37  C23 E0Z d   1      -5.533   0.143  52.560  0.00  0.00     0.052 C 
ATOM     38  H15 E0Z d   1      -5.381   1.167  52.931  0.00  0.00     0.056 H 
ATOM     39  H16 E0Z d   1      -4.557  -0.337  52.396  0.00  0.00     0.056 H 
BRANCH  37  40
ATOM     40  C24 E0Z d   1      -6.238   0.235  51.215  0.00  0.00     0.223 C 
ATOM     41  N26 E0Z d   1      -5.956   1.413  50.397  0.00  0.00    -0.357 N 
ATOM     42  H23 E0Z d   1      -5.329   2.114  50.738  0.00  0.00     0.162 HD
ATOM     43  O25 E0Z d   1      -6.977  -0.629  50.862  0.00  0.00    -0.273 OA
BRANCH  41  44
ATOM     44  C28 E0Z d   1      -6.578   1.577  49.091  0.00  0.00     0.019 C 
ATOM     45  H4  E0Z d   1      -5.800   1.814  48.350  0.00  0.00     0.071 H 
ATOM     46  H5  E0Z d   1      -7.077   0.638  48.811  0.00  0.00     0.071 H 
BRANCH  44  47
ATOM     47  C29 E0Z d   1      -7.610   2.704  49.109  0.00  0.00    -0.038 A 
ATOM     48  C30 E0Z d   1      -7.149   3.984  48.930  0.00  0.00    -0.040 A 
ATOM     49  C31 E0Z d   1      -8.043   5.036  48.953  0.00  0.00     0.101 A 
ATOM     50  H17 E0Z d   1      -6.092   4.168  48.772  0.00  0.00     0.088 H 
ATOM     51  C32 E0Z d   1      -9.407   4.840  49.126  0.00  0.00     0.099 A 
ATOM     52  C33 E0Z d   1      -9.878   3.546  49.308  0.00  0.00    -0.048 A 
ATOM     53  C34 E0Z d   1      -8.973   2.487  49.304  0.00  0.00    -0.072 A 
ATOM     54  H18 E0Z d   1     -10.937   3.362  49.451  0.00  0.00     0.087 H 
ATOM     55  H19 E0Z d   1      -9.335   1.476  49.455  0.00  0.00     0.084 H 
BRANCH  49  56
ATOM     56  O36 E0Z d   1      -7.504   6.295  48.745  0.00  0.00    -0.353 OA
BRANCH  56  57
ATOM     57  C37 E0Z d   1      -6.772   6.195  47.572  0.00  0.00     0.010 C 
ATOM     58  H20 E0Z d   1      -6.311   7.167  47.343  0.00  0.00     0.066 H 
ATOM     59  H21 E0Z d   1      -7.439   5.902  46.748  0.00  0.00     0.066 H 
ATOM     60  H22 E0Z d   1      -5.985   5.436  47.694  0.00  0.00     0.066 H 
ENDBRANCH  56  57
ENDBRANCH  49  56
BRANCH  51  61
ATOM     61  O35 E0Z d   1     -10.282   5.942  49.124  0.00  0.00    -0.358 OA
ATOM     62  H25 E0Z d   1     -10.733   5.988  49.959  0.00  0.00     0.217 HD
ENDBRANCH  51  61
ENDBRANCH  44  47
ENDBRANCH  41  44
ENDBRANCH  37  40
ENDBRANCH   2  37
TORSDOF 11
