REMARK  6 active torsions:
REMARK  status: ('A' for Active; 'I' for Inactive)
REMARK    1  A    between atoms: CAU_6  and  CAB_7 
REMARK    2  A    between atoms: CAB_7  and  PAA_8 
REMARK    3  A    between atoms: CAJ_19  and  N1_20 
REMARK    4  A    between atoms: C5_27  and  CAR_28 
REMARK    5  A    between atoms: CAR_28  and  CAS_29 
REMARK    6  A    between atoms: CAS_29  and  PBD_30 
ROOT
ATOM      1  CAB 2O2 d   1      -4.494  24.710  30.603  0.00  0.00     0.312 C 
ATOM      2  OAH 2O2 d   1      -4.944  25.437  29.434  0.00  0.00    -0.332 OA
ATOM      3  OAD 2O2 d   1      -3.301  25.390  30.978  0.00  0.00    -0.338 OA
ATOM      4  CAC 2O2 d   1      -3.458  26.844  31.387  0.00  0.00     0.050 C 
ATOM      5  CAE 2O2 d   1      -4.007  27.568  30.216  0.00  0.00     0.087 C 
ATOM      6  OAF 2O2 d   1      -3.017  27.574  29.186  0.00  0.00    -0.356 OA
ATOM      7  CAG 2O2 d   1      -5.165  26.828  29.555  0.00  0.00     0.074 C 
ATOM      8  CAI 2O2 d   1      -5.203  27.385  28.138  0.00  0.00     0.003 C 
ATOM      9  CAJ 2O2 d   1      -3.696  27.754  27.918  0.00  0.00     0.116 C 
ATOM     10  H6  2O2 d   1      -2.481  27.265  31.667  0.00  0.00     0.078 H 
ATOM     11  H7  2O2 d   1      -4.150  26.924  32.239  0.00  0.00     0.078 H 
ATOM     12  H8  2O2 d   1      -4.303  28.586  30.509  0.00  0.00     0.090 H 
ATOM     13  H9  2O2 d   1      -6.104  27.016  30.097  0.00  0.00     0.087 H 
ATOM     14  H10 2O2 d   1      -5.850  28.272  28.070  0.00  0.00     0.043 H 
ATOM     15  H11 2O2 d   1      -5.543  26.628  27.416  0.00  0.00     0.043 H 
ATOM     16  H12 2O2 d   1      -3.643  28.815  27.631  0.00  0.00     0.118 H 
ENDROOT
BRANCH   9  17
ATOM     17  N1  2O2 d   1      -3.022  26.981  26.873  0.00  0.00    -0.282 N 
ATOM     18  C6  2O2 d   1      -3.492  25.747  26.368  0.00  0.00    -0.002 A 
ATOM     19  C5  2O2 d   1      -2.804  25.002  25.407  0.00  0.00     0.026 A 
ATOM     20  H13 2O2 d   1      -4.436  25.358  26.747  0.00  0.00     0.113 H 
ATOM     21  C4  2O2 d   1      -1.621  25.601  24.926  0.00  0.00     0.257 A 
ATOM     22  N3  2O2 d   1      -1.178  26.815  25.481  0.00  0.00    -0.275 N 
ATOM     23  O4  2O2 d   1      -0.913  25.096  24.039  0.00  0.00    -0.267 OA
ATOM     24  C2  2O2 d   1      -1.872  27.507  26.432  0.00  0.00     0.331 A 
ATOM     25  H14 2O2 d   1      -0.308  27.192  25.162  0.00  0.00     0.173 HD
ATOM     26  O2  2O2 d   1      -1.426  28.573  26.894  0.00  0.00    -0.246 OA
BRANCH  19  27
ATOM     27  CAR 2O2 d   1      -3.356  23.732  24.897  0.00  0.00    -0.023 C 
ATOM     28  H15 2O2 d   1      -3.302  23.720  23.798  0.00  0.00     0.041 H 
ATOM     29  H16 2O2 d   1      -4.405  23.631  25.213  0.00  0.00     0.041 H 
BRANCH  27  30
ATOM     30  CAS 2O2 d   1      -2.550  22.599  25.454  0.00  0.00     0.043 C 
ATOM     31  H17 2O2 d   1      -2.784  22.484  26.523  0.00  0.00     0.054 H 
ATOM     32  H18 2O2 d   1      -1.480  22.827  25.335  0.00  0.00     0.054 H 
BRANCH  30  33
ATOM     33  PBD 2O2 d   1      -2.925  21.031  24.589  0.00  0.00     0.259 P 
ATOM     34  OBF 2O2 d   1      -1.965  20.094  25.147  0.00  0.00    -0.640 OA
ATOM     35  OBG 2O2 d   1      -2.742  21.348  23.165  0.00  0.00    -0.640 OA
ATOM     36  OBE 2O2 d   1      -4.385  20.815  24.981  0.00  0.00    -0.640 OA
ENDBRANCH  30  33
ENDBRANCH  27  30
ENDBRANCH  19  27
ENDBRANCH   9  17
BRANCH   1  37
ATOM     37  CAU 2O2 d   1      -4.217  23.336  30.160  0.00  0.00     0.018 A 
ATOM     38  CAV 2O2 d   1      -3.229  22.531  30.805  0.00  0.00    -0.071 A 
ATOM     39  CAW 2O2 d   1      -2.990  21.238  30.338  0.00  0.00    -0.082 A 
ATOM     40  H1  2O2 d   1      -2.671  22.921  31.649  0.00  0.00     0.084 H 
ATOM     41  CAX 2O2 d   1      -3.751  20.733  29.266  0.00  0.00    -0.083 A 
ATOM     42  H2  2O2 d   1      -2.223  20.626  30.798  0.00  0.00     0.083 H 
ATOM     43  CAY 2O2 d   1      -4.729  21.552  28.622  0.00  0.00    -0.082 A 
ATOM     44  H3  2O2 d   1      -3.594  19.715  28.927  0.00  0.00     0.083 H 
ATOM     45  CAZ 2O2 d   1      -4.925  22.808  29.071  0.00  0.00    -0.071 A 
ATOM     46  H4  2O2 d   1      -5.304  21.170  27.786  0.00  0.00     0.083 H 
ATOM     47  H5  2O2 d   1      -5.657  23.433  28.572  0.00  0.00     0.084 H 
ENDBRANCH   1  37
BRANCH   1  48
ATOM     48  PAA 2O2 d   1      -5.737  24.637  32.027  0.00  0.00     0.330 P 
ATOM     49  OBB 2O2 d   1      -6.214  25.991  32.308  0.00  0.00    -0.636 OA
ATOM     50  OBC 2O2 d   1      -6.793  23.710  31.574  0.00  0.00    -0.636 OA
ATOM     51  OBA 2O2 d   1      -4.837  23.958  33.076  0.00  0.00    -0.636 OA
ENDBRANCH   1  48
TORSDOF 6
