REMARK  15 active torsions:
REMARK  status: ('A' for Active; 'I' for Inactive)
REMARK    1  A    between atoms: C6_6  and  N6_7 
REMARK    2  A    between atoms: C1'_13  and  N9_10 
REMARK    3  A    between atoms: O3A_26  and  PA_11 
REMARK    4  A    between atoms: PA_11  and  O5'_34 
REMARK    5  A    between atoms: PB_12  and  O3A_26 
REMARK    6  A    between atoms: O5D_36  and  PB_12 
REMARK    7  A    between atoms: C1D_16  and  O1D_17 
REMARK    8  A    between atoms: C2'_18  and  O2'_19 
REMARK    9  A    between atoms: C2D_22  and  O2D_23 
REMARK   10  A    between atoms: C3'_24  and  O3'_25 
REMARK   11  A    between atoms: C3D_27  and  O3D_28 
REMARK   12  A    between atoms: C5'_33  and  C4'_29 
REMARK   13  A    between atoms: C5D_35  and  C4D_31 
REMARK   14  A    between atoms: O5'_34  and  C5'_33 
REMARK   15  A    between atoms: C5D_35  and  O5D_36 
ROOT
ATOM      1  C5' AR6 d   1      11.478   5.967 -24.774  0.00  0.00     0.058 C 
ATOM      2  H18 AR6 d   1      10.708   5.897 -25.557  0.00  0.00     0.079 H 
ATOM      3  H19 AR6 d   1      11.979   6.944 -24.838  0.00  0.00     0.079 H 
ENDROOT
BRANCH   1   4
ATOM      4  C4' AR6 d   1      12.465   4.877 -24.931  0.00  0.00     0.089 C 
ATOM      5  C3' AR6 d   1      12.918   5.080 -26.349  0.00  0.00     0.091 C 
ATOM      6  C2' AR6 d   1      13.216   3.697 -26.843  0.00  0.00     0.105 C 
ATOM      7  H12 AR6 d   1      12.081   5.470 -26.947  0.00  0.00     0.091 H 
ATOM      8  C1' AR6 d   1      12.479   2.764 -25.941  0.00  0.00     0.139 C 
ATOM      9  H8  AR6 d   1      12.905   3.580 -27.892  0.00  0.00     0.093 H 
ATOM     10  O4' AR6 d   1      11.833   3.590 -25.003  0.00  0.00    -0.353 OA
ATOM     11  H5  AR6 d   1      13.193   2.089 -25.446  0.00  0.00     0.122 H 
ATOM     12  H16 AR6 d   1      13.266   4.916 -24.178  0.00  0.00     0.090 H 
BRANCH   5  13
ATOM     13  O3' AR6 d   1      13.922   6.054 -26.393  0.00  0.00    -0.390 OA
ATOM     14  H13 AR6 d   1      14.661   5.769 -25.868  0.00  0.00     0.210 HD
ENDBRANCH   5  13
BRANCH   6  15
ATOM     15  O2' AR6 d   1      14.621   3.395 -26.686  0.00  0.00    -0.388 OA
ATOM     16  H9  AR6 d   1      15.132   3.969 -27.245  0.00  0.00     0.210 HD
ENDBRANCH   6  15
BRANCH   8  17
ATOM     17  N9  AR6 d   1      11.443   1.963 -26.612  0.00  0.00    -0.294 N 
ATOM     18  C4  AR6 d   1      11.630   0.685 -26.820  0.00  0.00     0.167 A 
ATOM     19  N3  AR6 d   1      12.613  -0.143 -26.520  0.00  0.00    -0.222 NA
ATOM     20  C5  AR6 d   1      10.441   0.280 -27.505  0.00  0.00     0.149 A 
ATOM     21  C2  AR6 d   1      12.506  -1.405 -26.871  0.00  0.00     0.091 A 
ATOM     22  N1  AR6 d   1      11.440  -1.908 -27.530  0.00  0.00    -0.222 NA
ATOM     23  H1  AR6 d   1      13.317  -2.078 -26.618  0.00  0.00     0.146 H 
ATOM     24  C6  AR6 d   1      10.417  -1.117 -27.842  0.00  0.00     0.155 A 
ATOM     25  N7  AR6 d   1       9.584   1.301 -27.677  0.00  0.00    -0.236 NA
ATOM     26  C8  AR6 d   1      10.248   2.363 -27.105  0.00  0.00     0.071 A 
ATOM     27  H4  AR6 d   1       9.865   3.381 -27.056  0.00  0.00     0.144 H 
BRANCH  24  28
ATOM     28  N6  AR6 d   1       9.351  -1.627 -28.505  0.00  0.00    -0.382 N 
ATOM     29  H2  AR6 d   1       8.557  -1.018 -28.749  0.00  0.00     0.157 HD
ATOM     30  H3  AR6 d   1       9.335  -2.623 -28.765  0.00  0.00     0.157 HD
ENDBRANCH  24  28
ENDBRANCH   8  17
ENDBRANCH   1   4
BRANCH   1  31
ATOM     31  O5' AR6 d   1      10.896   5.803 -23.506  0.00  0.00    -0.287 OA
BRANCH  31  32
ATOM     32  PA  AR6 d   1       9.640   6.858 -23.166  0.00  0.00     0.417 P 
ATOM     33  O1A AR6 d   1      10.086   8.198 -23.601  0.00  0.00    -0.624 OA
ATOM     34  O2A AR6 d   1       8.389   6.406 -23.640  0.00  0.00    -0.624 OA
BRANCH  32  35
ATOM     35  O3A AR6 d   1       9.694   6.860 -21.594  0.00  0.00    -0.180 OA
BRANCH  35  36
ATOM     36  PB  AR6 d   1       8.918   6.021 -20.498  0.00  0.00     0.417 P 
ATOM     37  O1B AR6 d   1       9.288   4.577 -20.633  0.00  0.00    -0.624 OA
ATOM     38  O2B AR6 d   1       7.492   6.422 -20.523  0.00  0.00    -0.624 OA
BRANCH  36  39
ATOM     39  O5D AR6 d   1       9.480   6.676 -19.175  0.00  0.00    -0.287 OA
BRANCH  39  40
ATOM     40  C5D AR6 d   1      10.707   6.284 -18.517  0.00  0.00     0.058 C 
ATOM     41  H20 AR6 d   1      10.550   6.296 -17.428  0.00  0.00     0.079 H 
ATOM     42  H21 AR6 d   1      10.977   5.267 -18.837  0.00  0.00     0.079 H 
BRANCH  40  43
ATOM     43  C4D AR6 d   1      11.852   7.238 -18.867  0.00  0.00     0.090 C 
ATOM     44  C3D AR6 d   1      12.969   7.098 -17.868  0.00  0.00     0.092 C 
ATOM     45  C2D AR6 d   1      12.701   8.228 -16.879  0.00  0.00     0.110 C 
ATOM     46  H14 AR6 d   1      12.934   6.112 -17.382  0.00  0.00     0.091 H 
ATOM     47  C1D AR6 d   1      12.107   9.324 -17.777  0.00  0.00     0.156 C 
ATOM     48  H10 AR6 d   1      11.983   7.914 -16.107  0.00  0.00     0.094 H 
ATOM     49  O4D AR6 d   1      11.390   8.598 -18.778  0.00  0.00    -0.349 OA
ATOM     50  H6  AR6 d   1      11.406   9.948 -17.204  0.00  0.00     0.133 H 
ATOM     51  H17 AR6 d   1      12.218   7.022 -19.882  0.00  0.00     0.090 H 
BRANCH  44  52
ATOM     52  O3D AR6 d   1      14.260   7.315 -18.431  0.00  0.00    -0.390 OA
ATOM     53  H15 AR6 d   1      14.911   7.311 -17.739  0.00  0.00     0.210 HD
ENDBRANCH  44  52
BRANCH  45  54
ATOM     54  O2D AR6 d   1      13.899   8.680 -16.254  0.00  0.00    -0.388 OA
ATOM     55  H11 AR6 d   1      14.536   8.909 -16.921  0.00  0.00     0.210 HD
ENDBRANCH  45  54
BRANCH  47  56
ATOM     56  O1D AR6 d   1      13.147  10.173 -18.291  0.00  0.00    -0.369 OA
ATOM     57  H7  AR6 d   1      13.575  10.619 -17.570  0.00  0.00     0.212 HD
ENDBRANCH  47  56
ENDBRANCH  40  43
ENDBRANCH  39  40
ENDBRANCH  36  39
ENDBRANCH  35  36
ENDBRANCH  32  35
ENDBRANCH  31  32
ENDBRANCH   1  31
TORSDOF 15
