REMARK  13 active torsions:
REMARK  status: ('A' for Active; 'I' for Inactive)
REMARK    1  A    between atoms: C2N_2  and  O2N_3 
REMARK    2  A    between atoms: C4N_6  and  C5N_7 
REMARK    3  A    between atoms: C5N_7  and  O5N_8 
REMARK    4  A    between atoms: O5N_8  and  PB_9 
REMARK    5  A    between atoms: PB_9  and  O3A_12 
REMARK    6  A    between atoms: O3A_12  and  PA_13 
REMARK    7  A    between atoms: PA_13  and  O5'_16 
REMARK    8  A    between atoms: O5'_16  and  C5'_17 
REMARK    9  A    between atoms: C5'_17  and  C4'_18 
REMARK   10  A    between atoms: C3'_20  and  O3'_21 
REMARK   11  A    between atoms: C2'_22  and  O2'_23 
REMARK   12  A    between atoms: C1'_24  and  N9_25 
REMARK   13  A    between atoms: C6_33  and  N6_34 
ROOT
ATOM      1  C5' A3R d   1     -15.546   0.483  20.443  0.00  0.00     0.058 C 
ATOM      2  H12 A3R d   1     -15.475   1.573  20.313  0.00  0.00     0.079 H 
ATOM      3  H13 A3R d   1     -16.377   0.249  21.124  0.00  0.00     0.079 H 
ENDROOT
BRANCH   1   4
ATOM      4  O5' A3R d   1     -14.329  -0.017  20.981  0.00  0.00    -0.287 OA
BRANCH   4   5
ATOM      5  PA  A3R d   1     -14.074  -0.222  22.537  0.00  0.00     0.417 P 
ATOM      6  O1A A3R d   1     -12.610  -0.577  22.676  0.00  0.00    -0.624 OA
ATOM      7  O2A A3R d   1     -15.108  -1.038  23.086  0.00  0.00    -0.624 OA
BRANCH   5   8
ATOM      8  O3A A3R d   1     -14.359   1.271  23.116  0.00  0.00    -0.180 OA
BRANCH   8   9
ATOM      9  PB  A3R d   1     -13.415   2.517  23.171  0.00  0.00     0.417 P 
ATOM     10  O2B A3R d   1     -12.448   2.397  24.273  0.00  0.00    -0.624 OA
ATOM     11  O1B A3R d   1     -12.863   2.862  21.808  0.00  0.00    -0.624 OA
BRANCH   9  12
ATOM     12  O5N A3R d   1     -14.438   3.582  23.644  0.00  0.00    -0.287 OA
BRANCH  12  13
ATOM     13  C5N A3R d   1     -15.533   3.911  22.757  0.00  0.00     0.058 C 
ATOM     14  H10 A3R d   1     -15.138   4.381  21.844  0.00  0.00     0.078 H 
ATOM     15  H11 A3R d   1     -16.078   2.994  22.491  0.00  0.00     0.078 H 
BRANCH  13  16
ATOM     16  C4N A3R d   1     -16.482   4.883  23.462  0.00  0.00     0.125 C 
ATOM     17  C3N A3R d   1     -17.133   4.215  24.652  0.00  0.00    -0.011 C 
ATOM     18  C2N A3R d   1     -18.432   4.999  24.751  0.00  0.00     0.060 C 
ATOM     19  H1  A3R d   1     -17.319   3.147  24.464  0.00  0.00     0.040 H 
ATOM     20  H2  A3R d   1     -16.524   4.327  25.561  0.00  0.00     0.040 H 
ATOM     21  C1N A3R d   1     -18.874   5.060  23.310  0.00  0.00     0.105 C 
ATOM     22  H3  A3R d   1     -19.162   4.487  25.395  0.00  0.00     0.085 H 
ATOM     23  N4N A3R d   1     -17.601   5.336  22.574  0.00  0.00    -0.066 N 
ATOM     24  H5  A3R d   1     -19.603   5.869  23.155  0.00  0.00     0.079 H 
ATOM     25  H6  A3R d   1     -19.314   4.104  22.992  0.00  0.00     0.079 H 
ATOM     26  H7  A3R d   1     -17.516   6.322  22.384  0.00  0.00     0.277 HD
ATOM     27  H8  A3R d   1     -17.584   4.824  21.706  0.00  0.00     0.277 HD
ATOM     28  H9  A3R d   1     -15.903   5.757  23.795  0.00  0.00     0.087 H 
BRANCH  18  29
ATOM     29  O2N A3R d   1     -18.219   6.432  25.225  0.00  0.00    -0.394 OA
ATOM     30  H4  A3R d   1     -17.817   6.423  26.086  0.00  0.00     0.210 HD
ENDBRANCH  18  29
ENDBRANCH  13  16
ENDBRANCH  12  13
ENDBRANCH   9  12
ENDBRANCH   8   9
ENDBRANCH   5   8
ENDBRANCH   4   5
ENDBRANCH   1   4
BRANCH   1  31
ATOM     31  C4' A3R d   1     -15.789  -0.191  19.072  0.00  0.00     0.089 C 
ATOM     32  O4' A3R d   1     -14.596  -0.037  18.283  0.00  0.00    -0.353 OA
ATOM     33  C1' A3R d   1     -14.641  -1.046  17.320  0.00  0.00     0.139 C 
ATOM     34  C2' A3R d   1     -15.440  -2.228  17.978  0.00  0.00     0.105 C 
ATOM     35  H19 A3R d   1     -15.177  -0.676  16.433  0.00  0.00     0.122 H 
ATOM     36  C3' A3R d   1     -15.958  -1.692  19.251  0.00  0.00     0.091 C 
ATOM     37  H17 A3R d   1     -14.778  -3.091  18.144  0.00  0.00     0.093 H 
ATOM     38  H15 A3R d   1     -15.400  -2.063  20.123  0.00  0.00     0.091 H 
ATOM     39  H14 A3R d   1     -16.664   0.251  18.573  0.00  0.00     0.090 H 
BRANCH  33  40
ATOM     40  N9  A3R d   1     -13.286  -1.530  16.889  0.00  0.00    -0.294 N 
ATOM     41  C8  A3R d   1     -12.399  -2.340  17.487  0.00  0.00     0.071 A 
ATOM     42  N7  A3R d   1     -11.370  -2.537  16.683  0.00  0.00    -0.236 NA
ATOM     43  H20 A3R d   1     -12.510  -2.769  18.482  0.00  0.00     0.144 H 
ATOM     44  C5  A3R d   1     -11.585  -1.847  15.563  0.00  0.00     0.149 A 
ATOM     45  C4  A3R d   1     -12.787  -1.239  15.688  0.00  0.00     0.167 A 
ATOM     46  C6  A3R d   1     -10.852  -1.719  14.425  0.00  0.00     0.155 A 
ATOM     47  N3  A3R d   1     -13.312  -0.464  14.723  0.00  0.00    -0.222 NA
ATOM     48  C2  A3R d   1     -12.575  -0.325  13.544  0.00  0.00     0.091 A 
ATOM     49  N1  A3R d   1     -11.316  -0.969  13.412  0.00  0.00    -0.222 NA
ATOM     50  H21 A3R d   1     -12.964   0.275  12.729  0.00  0.00     0.146 H 
BRANCH  46  51
ATOM     51  N6  A3R d   1      -9.663  -2.355  14.346  0.00  0.00    -0.382 N 
ATOM     52  H22 A3R d   1      -9.091  -2.272  13.494  0.00  0.00     0.157 HD
ATOM     53  H23 A3R d   1      -9.329  -2.922  15.138  0.00  0.00     0.157 HD
ENDBRANCH  46  51
ENDBRANCH  33  40
BRANCH  34  54
ATOM     54  O2' A3R d   1     -16.568  -2.621  17.207  0.00  0.00    -0.388 OA
ATOM     55  H18 A3R d   1     -17.057  -3.285  17.679  0.00  0.00     0.210 HD
ENDBRANCH  34  54
BRANCH  36  56
ATOM     56  O3' A3R d   1     -17.334  -2.059  19.338  0.00  0.00    -0.390 OA
ATOM     57  H16 A3R d   1     -17.781  -1.799  18.541  0.00  0.00     0.210 HD
ENDBRANCH  36  56
ENDBRANCH   1  31
TORSDOF 13
