REMARK  6 active torsions:
REMARK  status: ('A' for Active; 'I' for Inactive)
REMARK    1  A    between atoms: P_2  and  CAB_5 
REMARK    2  A    between atoms: CAB_5  and  C2_6 
REMARK    3  A    between atoms: C1'_19  and  N9_20 
REMARK    4  A    between atoms: C5_27  and  C17_28 
REMARK    5  A    between atoms: C18_29  and  C19_30 
REMARK    6  A    between atoms: C19_30  and  P2_31 
ROOT
ATOM      1  CAB O84 d   1      10.243   2.612   7.255  0.00  0.00     0.312 C 
ATOM      2  O3' O84 d   1       9.572   3.716   6.598  0.00  0.00    -0.332 OA
ATOM      3  O7  O84 d   1      11.357   2.352   6.447  0.00  0.00    -0.338 OA
ATOM      4  C5' O84 d   1      12.269   3.279   6.003  0.00  0.00     0.050 C 
ATOM      5  C4' O84 d   1      11.550   4.532   5.480  0.00  0.00     0.087 C 
ATOM      6  O4' O84 d   1      11.206   4.188   4.146  0.00  0.00    -0.356 OA
ATOM      7  C3' O84 d   1      10.267   4.905   6.225  0.00  0.00     0.074 C 
ATOM      8  C2' O84 d   1       9.476   5.664   5.112  0.00  0.00     0.003 C 
ATOM      9  C1' O84 d   1      10.087   4.967   3.839  0.00  0.00     0.116 C 
ATOM     10  H6  O84 d   1      12.867   2.839   5.191  0.00  0.00     0.078 H 
ATOM     11  H7  O84 d   1      12.932   3.562   6.834  0.00  0.00     0.078 H 
ATOM     12  H8  O84 d   1      12.237   5.391   5.504  0.00  0.00     0.090 H 
ATOM     13  H9  O84 d   1      10.460   5.536   7.105  0.00  0.00     0.087 H 
ATOM     14  H10 O84 d   1       9.681   6.745   5.127  0.00  0.00     0.043 H 
ATOM     15  H11 O84 d   1       8.392   5.496   5.191  0.00  0.00     0.043 H 
ATOM     16  H12 O84 d   1      10.440   5.779   3.186  0.00  0.00     0.118 H 
ENDROOT
BRANCH   9  17
ATOM     17  N9  O84 d   1       9.116   4.220   3.069  0.00  0.00    -0.281 N 
ATOM     18  C4  O84 d   1       8.162   3.450   3.716  0.00  0.00     0.002 C 
ATOM     19  C5  O84 d   1       7.114   2.841   3.091  0.00  0.00     0.048 C 
ATOM     20  H13 O84 d   1       8.255   3.323   4.793  0.00  0.00     0.113 H 
ATOM     21  C6  O84 d   1       7.096   2.876   1.636  0.00  0.00     0.261 C 
ATOM     22  N1  O84 d   1       8.162   3.582   1.004  0.00  0.00    -0.275 N 
ATOM     23  O6  O84 d   1       6.182   2.431   0.881  0.00  0.00    -0.267 OA
ATOM     24  C8  O84 d   1       9.171   4.285   1.676  0.00  0.00     0.331 C 
ATOM     25  H14 O84 d   1       8.192   3.575   0.004  0.00  0.00     0.173 HD
ATOM     26  O2  O84 d   1      10.083   4.900   1.063  0.00  0.00    -0.246 OA
BRANCH  19  27
ATOM     27  C17 O84 d   1       6.145   2.081   3.934  0.00  0.00    -0.069 C 
ATOM     28  C18 O84 d   1       5.063   1.462   3.596  0.00  0.00    -0.090 C 
ATOM     29  H16 O84 d   1       4.775   1.477   2.546  0.00  0.00     0.077 H 
ATOM     30  H15 O84 d   1       6.387   2.042   4.995  0.00  0.00     0.084 H 
BRANCH  28  31
ATOM     31  C19 O84 d   1       4.183   0.728   4.549  0.00  0.00     0.054 C 
ATOM     32  H17 O84 d   1       3.327   1.371   4.801  0.00  0.00     0.059 H 
ATOM     33  H18 O84 d   1       4.759   0.511   5.460  0.00  0.00     0.059 H 
BRANCH  31  34
ATOM     34  P2  O84 d   1       3.572  -0.786   3.900  0.00  0.00     0.263 P 
ATOM     35  O11 O84 d   1       2.805  -0.412   2.576  0.00  0.00    -0.639 OA
ATOM     36  O9  O84 d   1       2.502  -1.301   4.861  0.00  0.00    -0.639 OA
ATOM     37  O10 O84 d   1       4.693  -1.838   3.633  0.00  0.00    -0.639 OA
ENDBRANCH  31  34
ENDBRANCH  28  31
ENDBRANCH  19  27
ENDBRANCH   9  17
BRANCH   1  38
ATOM     38  P   O84 d   1      10.709   3.006   8.940  0.00  0.00     0.330 P 
ATOM     39  OP2 O84 d   1      11.563   4.268   9.005  0.00  0.00    -0.636 OA
ATOM     40  OP1 O84 d   1       9.450   3.111   9.751  0.00  0.00    -0.636 OA
ATOM     41  OP3 O84 d   1      11.458   1.730   9.329  0.00  0.00    -0.636 OA
ENDBRANCH   1  38
BRANCH   1  42
ATOM     42  C2  O84 d   1       9.260   1.518   7.222  0.00  0.00     0.018 A 
ATOM     43  CAA O84 d   1       7.877   1.788   7.388  0.00  0.00    -0.071 A 
ATOM     44  C9  O84 d   1       7.014   0.700   7.429  0.00  0.00    -0.082 A 
ATOM     45  H1  O84 d   1       7.508   2.803   7.479  0.00  0.00     0.084 H 
ATOM     46  C10 O84 d   1       7.432  -0.615   7.339  0.00  0.00    -0.083 A 
ATOM     47  H2  O84 d   1       5.953   0.893   7.538  0.00  0.00     0.083 H 
ATOM     48  C11 O84 d   1       8.798  -0.886   7.227  0.00  0.00    -0.082 A 
ATOM     49  H3  O84 d   1       6.710  -1.424   7.355  0.00  0.00     0.083 H 
ATOM     50  C12 O84 d   1       9.694   0.176   7.182  0.00  0.00    -0.071 A 
ATOM     51  H4  O84 d   1       9.154  -1.909   7.176  0.00  0.00     0.083 H 
ATOM     52  H5  O84 d   1      10.756  -0.033   7.114  0.00  0.00     0.084 H 
ENDBRANCH   1  42
TORSDOF 6
