REMARK  6 active torsions:
REMARK  status: ('A' for Active; 'I' for Inactive)
REMARK    1  A    between atoms: O5'_1  and  C5'_2 
REMARK    2  A    between atoms: C5'_2  and  C4'_3 
REMARK    3  A    between atoms: C1'_5  and  N9_6 
REMARK    4  A    between atoms: C6_10  and  N6_15 
REMARK    5  A    between atoms: C2'_16  and  O2'_17 
REMARK    6  A    between atoms: C3'_18  and  O3'_19 
ROOT
ATOM      1  C4' 5ID d   1      36.532  48.465  78.404  0.00  0.00     0.088 C 
ATOM      2  O4' 5ID d   1      37.315  47.332  78.001  0.00  0.00    -0.353 OA
ATOM      3  C1' 5ID d   1      36.565  46.514  77.132  0.00  0.00     0.138 C 
ATOM      4  C2' 5ID d   1      35.224  47.216  76.915  0.00  0.00     0.105 C 
ATOM      5  C3' 5ID d   1      35.104  48.019  78.199  0.00  0.00     0.091 C 
ATOM      6  H4  5ID d   1      36.739  49.322  77.746  0.00  0.00     0.090 H 
ATOM      7  H5  5ID d   1      37.078  46.410  76.164  0.00  0.00     0.122 H 
ATOM      8  H10 5ID d   1      34.398  46.499  76.801  0.00  0.00     0.093 H 
ATOM      9  H12 5ID d   1      34.763  47.371  79.020  0.00  0.00     0.091 H 
ENDROOT
BRANCH   3  10
ATOM     10  N9  5ID d   1      36.455  45.203  77.750  0.00  0.00    -0.310 N 
ATOM     11  C8  5ID d   1      36.449  44.976  79.080  0.00  0.00     0.001 A 
ATOM     12  C7  5ID d   1      36.360  43.648  79.318  0.00  0.00     0.040 A 
ATOM     13  H6  5ID d   1      36.507  45.747  79.847  0.00  0.00     0.113 H 
ATOM     14  C5  5ID d   1      36.269  42.989  78.078  0.00  0.00     0.073 A 
ATOM     15  IAE 5ID d   1      36.474  42.690  81.157  0.00  0.00    -0.042 I 
ATOM     16  C6  5ID d   1      36.153  41.659  77.620  0.00  0.00     0.138 A 
ATOM     17  C4  5ID d   1      36.343  43.994  77.114  0.00  0.00     0.148 A 
ATOM     18  N1  5ID d   1      36.150  41.447  76.292  0.00  0.00    -0.224 NA
ATOM     19  C2  5ID d   1      36.231  42.497  75.487  0.00  0.00     0.091 A 
ATOM     20  N3  5ID d   1      36.323  43.781  75.802  0.00  0.00    -0.223 NA
ATOM     21  H7  5ID d   1      36.221  42.275  74.426  0.00  0.00     0.146 H 
BRANCH  16  22
ATOM     22  N6  5ID d   1      36.022  40.626  78.432  0.00  0.00    -0.383 N 
ATOM     23  H8  5ID d   1      35.941  39.675  78.046  0.00  0.00     0.157 HD
ATOM     24  H9  5ID d   1      36.001  40.772  79.451  0.00  0.00     0.157 HD
ENDBRANCH  16  22
ENDBRANCH   3  10
BRANCH   4  25
ATOM     25  O2' 5ID d   1      35.284  48.066  75.792  0.00  0.00    -0.388 OA
ATOM     26  H11 5ID d   1      34.443  48.492  75.674  0.00  0.00     0.210 HD
ENDBRANCH   4  25
BRANCH   1  27
ATOM     27  C5' 5ID d   1      36.883  48.863  79.806  0.00  0.00     0.043 C 
ATOM     28  H2  5ID d   1      37.927  49.208  79.832  0.00  0.00     0.078 H 
ATOM     29  H3  5ID d   1      36.219  49.680  80.126  0.00  0.00     0.078 H 
BRANCH  27  30
ATOM     30  O5' 5ID d   1      36.736  47.791  80.674  0.00  0.00    -0.398 OA
ATOM     31  H1  5ID d   1      36.963  48.065  81.555  0.00  0.00     0.209 HD
ENDBRANCH  27  30
ENDBRANCH   1  27
BRANCH   5  32
ATOM     32  O3' 5ID d   1      34.262  49.144  78.137  0.00  0.00    -0.390 OA
ATOM     33  H13 5ID d   1      33.382  48.867  77.912  0.00  0.00     0.210 HD
ENDBRANCH   5  32
TORSDOF 6
