REMARK  11 active torsions:
REMARK  status: ('A' for Active; 'I' for Inactive)
REMARK    1  A    between atoms: C2_1  and  N25_27 
REMARK    2  A    between atoms: C10_23  and  C11_2 
REMARK    3  A    between atoms: C10_23  and  C12_3 
REMARK    4  A    between atoms: C13_4  and  C16_6 
REMARK    5  A    between atoms: C13_4  and  C29_14 
REMARK    6  A    between atoms: C20_9  and  O24_26 
REMARK    7  A    between atoms: N25_27  and  C23_12 
REMARK    8  A    between atoms: N14_24  and  C28_13 
REMARK    9  A    between atoms: C8_21  and  N7_20 
REMARK   10  A    between atoms: C9_22  and  C8_21 
REMARK   11  A    between atoms: C9_22  and  C10_23 
ROOT
ATOM      1  C2  EKT d   1     -11.814  12.630  20.448  0.00  0.00     0.728 C 
ATOM      2  C13 EKT d   1      -7.328  11.337  19.183  0.00  0.00     0.108 C 
ATOM      3  C15 EKT d   1      -7.085  12.800  18.751  0.00  0.00     0.252 C 
ATOM      4  N1  EKT d   1     -11.733  13.735  19.681  0.00  0.00    -0.073 NA
ATOM      5  N3  EKT d   1     -10.760  11.775  20.481  0.00  0.00    -0.043 NA
ATOM      6  C4  EKT d   1      -9.551  12.087  19.934  0.00  0.00     0.174 C 
ATOM      7  C5  EKT d   1      -9.428  13.282  19.172  0.00  0.00     0.102 C 
ATOM      8  C6  EKT d   1     -10.571  14.111  19.103  0.00  0.00     0.051 C 
ATOM      9  N7  EKT d   1      -8.556  11.162  19.994  0.00  0.00    -0.346 N 
ATOM     10  N14 EKT d   1      -8.134  13.683  18.682  0.00  0.00    -0.316 N 
ATOM     11  O17 EKT d   1      -5.925  13.115  18.490  0.00  0.00    -0.270 OA
ATOM     12  H18 EKT d   1     -10.515  15.059  18.581  0.00  0.00     0.119 H 
ENDROOT
BRANCH   9  13
ATOM     13  C8  EKT d   1      -8.802   9.926  20.791  0.00  0.00    -0.002 C 
ATOM     14  H19 EKT d   1      -8.172   9.115  20.397  0.00  0.00     0.064 H 
ATOM     15  H20 EKT d   1      -9.861   9.645  20.698  0.00  0.00     0.064 H 
BRANCH  13  16
ATOM     16  C9  EKT d   1      -8.468  10.142  22.287  0.00  0.00    -0.047 C 
ATOM     17  H21 EKT d   1      -9.122  10.924  22.701  0.00  0.00     0.035 H 
ATOM     18  H22 EKT d   1      -7.417  10.452  22.388  0.00  0.00     0.035 H 
BRANCH  16  19
ATOM     19  C10 EKT d   1      -8.693   8.821  23.055  0.00  0.00    -0.060 C 
ATOM     20  H23 EKT d   1      -9.719   8.473  22.865  0.00  0.00     0.038 H 
BRANCH  19  21
ATOM     21  C11 EKT d   1      -7.697   7.728  22.556  0.00  0.00    -0.073 C 
ATOM     22  H1  EKT d   1      -7.869   6.794  23.111  0.00  0.00     0.028 H 
ATOM     23  H2  EKT d   1      -6.665   8.069  22.723  0.00  0.00     0.028 H 
ATOM     24  H3  EKT d   1      -7.855   7.550  21.482  0.00  0.00     0.028 H 
ENDBRANCH  19  21
BRANCH  19  25
ATOM     25  C12 EKT d   1      -8.524   9.056  24.579  0.00  0.00    -0.073 C 
ATOM     26  H4  EKT d   1      -9.233   9.828  24.912  0.00  0.00     0.028 H 
ATOM     27  H5  EKT d   1      -7.496   9.388  24.787  0.00  0.00     0.028 H 
ATOM     28  H6  EKT d   1      -8.723   8.118  25.119  0.00  0.00     0.028 H 
ENDBRANCH  19  25
ENDBRANCH  16  19
ENDBRANCH  13  16
ENDBRANCH   9  13
BRANCH   2  29
ATOM     29  C16 EKT d   1      -6.052  10.807  19.905  0.00  0.00    -0.045 C 
ATOM     30  H7  EKT d   1      -5.175  10.962  19.260  0.00  0.00     0.031 H 
ATOM     31  H8  EKT d   1      -6.168   9.733  20.114  0.00  0.00     0.031 H 
ATOM     32  H9  EKT d   1      -5.913  11.352  20.850  0.00  0.00     0.031 H 
ENDBRANCH   2  29
BRANCH   2  33
ATOM     33  C29 EKT d   1      -7.541  10.571  17.823  0.00  0.00    -0.045 C 
ATOM     34  H15 EKT d   1      -8.444  10.954  17.324  0.00  0.00     0.031 H 
ATOM     35  H16 EKT d   1      -7.661   9.496  18.023  0.00  0.00     0.031 H 
ATOM     36  H17 EKT d   1      -6.668  10.728  17.173  0.00  0.00     0.031 H 
ENDBRANCH   2  33
BRANCH  10  37
ATOM     37  C28 EKT d   1      -7.907  15.113  18.294  0.00  0.00    -0.011 C 
ATOM     38  H12 EKT d   1      -6.871  15.238  17.945  0.00  0.00     0.057 H 
ATOM     39  H13 EKT d   1      -8.082  15.761  19.165  0.00  0.00     0.057 H 
ATOM     40  H14 EKT d   1      -8.601  15.389  17.487  0.00  0.00     0.057 H 
ENDBRANCH  10  37
BRANCH   1  41
ATOM     41  N25 EKT d   1     -13.017  12.319  20.988  0.00  0.00    -0.188 N 
ATOM     42  H25 EKT d   1     -13.823  12.807  20.572  0.00  0.00     0.184 HD
BRANCH  41  43
ATOM     43  C23 EKT d   1     -13.319  11.460  21.996  0.00  0.00     0.055 A 
ATOM     44  C18 EKT d   1     -12.412  10.527  22.540  0.00  0.00    -0.016 A 
ATOM     45  C19 EKT d   1     -12.845   9.607  23.506  0.00  0.00     0.154 A 
ATOM     46  H10 EKT d   1     -11.379  10.521  22.211  0.00  0.00     0.091 H 
ATOM     47  C20 EKT d   1     -14.205   9.541  23.854  0.00  0.00     0.143 A 
ATOM     48  F27 EKT d   1     -11.985   8.784  24.080  0.00  0.00    -0.203 F 
ATOM     49  C21 EKT d   1     -15.119  10.395  23.245  0.00  0.00     0.154 A 
ATOM     50  C22 EKT d   1     -14.688  11.365  22.331  0.00  0.00    -0.016 A 
ATOM     51  F26 EKT d   1     -16.403  10.349  23.583  0.00  0.00    -0.203 F 
ATOM     52  H11 EKT d   1     -15.405  12.042  21.881  0.00  0.00     0.091 H 
BRANCH  47  53
ATOM     53  O24 EKT d   1     -14.617   8.605  24.810  0.00  0.00    -0.355 OA
ATOM     54  H24 EKT d   1     -13.864   8.113  25.115  0.00  0.00     0.218 HD
ENDBRANCH  47  53
ENDBRANCH  41  43
ENDBRANCH   1  41
TORSDOF 11
