REMARK  13 active torsions:
REMARK  status: ('A' for Active; 'I' for Inactive)
REMARK    1  A    between atoms: C8_2  and  C9_3 
REMARK    2  A    between atoms: N7_13  and  C8_2 
REMARK    3  A    between atoms: C8_2  and  C17_17 
REMARK    4  A    between atoms: C9_3  and  C10_5 
REMARK    5  A    between atoms: C10_5  and  C11_7 
REMARK    6  A    between atoms: C11_7  and  C12_8 
REMARK    7  A    between atoms: C12_8  and  C13_9 
REMARK       I    between atoms: C13_9  and  N14_14 
REMARK    8  A    between atoms: C2_11  and  N18_18 
REMARK    9  A    between atoms: C3_12  and  N7_13 
REMARK   10  A    between atoms: N14_14  and  O16_16 
REMARK   11  A    between atoms: N18_18  and  C19_19 
REMARK   12  A    between atoms: C22_22  and  O25_25 
REMARK   13  A    between atoms: O25_25  and  C26_26 
ROOT
ATOM      1  N7  EL8 d   1     -27.583 -15.466  -0.820  0.00  0.00    -0.380 N 
ATOM      2  H10 EL8 d   1     -27.665 -15.991  -1.702  0.00  0.00     0.160 HD
ENDROOT
BRANCH   1   3
ATOM      3  C8  EL8 d   1     -27.634 -16.252   0.455  0.00  0.00     0.006 C 
ATOM      4  H1  EL8 d   1     -27.854 -17.299   0.197  0.00  0.00     0.071 H 
BRANCH   3   5
ATOM      5  C9  EL8 d   1     -26.241 -16.237   1.196  0.00  0.00    -0.046 C 
ATOM      6  H2  EL8 d   1     -26.322 -16.792   2.142  0.00  0.00     0.035 H 
ATOM      7  H3  EL8 d   1     -25.947 -15.198   1.405  0.00  0.00     0.035 H 
BRANCH   5   8
ATOM      8  C10 EL8 d   1     -25.171 -16.906   0.293  0.00  0.00    -0.063 C 
ATOM      9  H4  EL8 d   1     -25.087 -16.330  -0.640  0.00  0.00     0.033 H 
ATOM     10  H5  EL8 d   1     -25.495 -17.932   0.063  0.00  0.00     0.033 H 
BRANCH   8  11
ATOM     11  C11 EL8 d   1     -23.806 -16.964   0.954  0.00  0.00    -0.057 C 
ATOM     12  H6  EL8 d   1     -23.913 -17.285   2.001  0.00  0.00     0.033 H 
ATOM     13  H7  EL8 d   1     -23.335 -15.971   0.921  0.00  0.00     0.033 H 
BRANCH  11  14
ATOM     14  C12 EL8 d   1     -22.943 -17.970   0.192  0.00  0.00     0.011 C 
ATOM     15  H8  EL8 d   1     -22.929 -17.700  -0.874  0.00  0.00     0.047 H 
ATOM     16  H9  EL8 d   1     -23.372 -18.976   0.310  0.00  0.00     0.047 H 
BRANCH  14  17
ATOM     17  C13 EL8 d   1     -21.540 -17.968   0.719  0.00  0.00     0.240 C 
ATOM     18  N14 EL8 d   1     -21.049 -19.252   1.077  0.00  0.00    -0.237 N 
ATOM     19  H11 EL8 d   1     -21.427 -20.101   0.708  0.00  0.00     0.197 HD
ATOM     20  O15 EL8 d   1     -20.825 -16.989   0.854  0.00  0.00    -0.271 OA
BRANCH  18  21
ATOM     21  O16 EL8 d   1     -20.031 -19.227   1.956  0.00  0.00    -0.287 OA
ATOM     22  H12 EL8 d   1     -19.757 -20.116   2.147  0.00  0.00     0.244 HD
ENDBRANCH  18  21
ENDBRANCH  14  17
ENDBRANCH  11  14
ENDBRANCH   8  11
ENDBRANCH   5   8
ENDBRANCH   3   5
BRANCH   3  23
ATOM     23  C17 EL8 d   1     -28.794 -15.737   1.337  0.00  0.00    -0.057 C 
ATOM     24  H13 EL8 d   1     -29.733 -15.773   0.765  0.00  0.00     0.030 H 
ATOM     25  H14 EL8 d   1     -28.590 -14.700   1.643  0.00  0.00     0.030 H 
ATOM     26  H15 EL8 d   1     -28.885 -16.372   2.231  0.00  0.00     0.030 H 
ENDBRANCH   3  23
ENDBRANCH   1   3
BRANCH   1  27
ATOM     27  C3  EL8 d   1     -27.437 -14.108  -0.909  0.00  0.00     0.114 A 
ATOM     28  C4  EL8 d   1     -26.998 -13.011   0.021  0.00  0.00     0.252 A 
ATOM     29  O6  EL8 d   1     -26.727 -12.954   1.145  0.00  0.00    -0.281 OA
ATOM     30  C1  EL8 d   1     -27.097 -12.056  -1.154  0.00  0.00     0.253 A 
ATOM     31  O5  EL8 d   1     -26.831 -10.904  -1.307  0.00  0.00    -0.281 OA
ATOM     32  C2  EL8 d   1     -27.539 -13.228  -1.953  0.00  0.00     0.118 A 
BRANCH  32  33
ATOM     33  N18 EL8 d   1     -27.900 -13.474  -3.250  0.00  0.00    -0.351 N 
ATOM     34  H16 EL8 d   1     -28.054 -14.466  -3.482  0.00  0.00     0.166 HD
BRANCH  33  35
ATOM     35  C19 EL8 d   1     -28.089 -12.585  -4.298  0.00  0.00     0.032 A 
ATOM     36  C20 EL8 d   1     -28.004 -11.162  -4.189  0.00  0.00    -0.055 A 
ATOM     37  C21 EL8 d   1     -28.054 -10.377  -5.342  0.00  0.00    -0.048 A 
ATOM     38  H17 EL8 d   1     -27.901 -10.695  -3.216  0.00  0.00     0.087 H 
ATOM     39  C22 EL8 d   1     -28.179 -11.039  -6.572  0.00  0.00     0.078 A 
ATOM     40  H18 EL8 d   1     -27.998  -9.296  -5.289  0.00  0.00     0.087 H 
ATOM     41  C23 EL8 d   1     -28.277 -12.443  -6.692  0.00  0.00    -0.048 A 
ATOM     42  C24 EL8 d   1     -28.249 -13.210  -5.555  0.00  0.00    -0.055 A 
ATOM     43  H19 EL8 d   1     -28.373 -12.907  -7.667  0.00  0.00     0.087 H 
ATOM     44  H20 EL8 d   1     -28.349 -14.287  -5.620  0.00  0.00     0.087 H 
BRANCH  39  45
ATOM     45  O25 EL8 d   1     -28.191 -10.191  -7.650  0.00  0.00    -0.255 OA
BRANCH  45  46
ATOM     46  C26 EL8 d   1     -29.322 -10.130  -8.462  0.00  0.00     0.530 C 
ATOM     47  F27 EL8 d   1     -29.312  -9.123  -9.352  0.00  0.00    -0.144 F 
ATOM     48  F28 EL8 d   1     -30.370  -9.998  -7.633  0.00  0.00    -0.144 F 
ATOM     49  F29 EL8 d   1     -29.461 -11.270  -9.157  0.00  0.00    -0.144 F 
ENDBRANCH  45  46
ENDBRANCH  39  45
ENDBRANCH  33  35
ENDBRANCH  32  33
ENDBRANCH   1  27
TORSDOF 13
