REMARK  3 active torsions:
REMARK  status: ('A' for Active; 'I' for Inactive)
REMARK    1  A    between atoms: N16_21  and  C17_3 
REMARK    2  A    between atoms: C02_9  and  N01_8 
REMARK    3  A    between atoms: C08_15  and  N07_14 
REMARK       I    between atoms: C14_19  and  N11_17 
REMARK       I    between atoms: C14_19  and  N16_21 
ROOT
ATOM      1  C10 ELB d   1       4.740  14.462  29.308  0.00  0.00     0.001 C 
ATOM      2  C13 ELB d   1       3.878  13.574  26.673  0.00  0.00    -0.030 C 
ATOM      3  C08 ELB d   1       5.303  14.121  26.894  0.00  0.00     0.024 C 
ATOM      4  C09 ELB d   1       5.831  14.070  28.314  0.00  0.00    -0.030 C 
ATOM      5  N11 ELB d   1       3.781  13.424  29.003  0.00  0.00    -0.334 N 
ATOM      6  C12 ELB d   1       2.936  13.777  27.879  0.00  0.00     0.001 C 
ATOM      7  C14 ELB d   1       3.857  12.123  29.598  0.00  0.00     0.322 C 
ATOM      8  O15 ELB d   1       3.075  11.268  29.231  0.00  0.00    -0.247 OA
ATOM      9  N16 ELB d   1       4.805  11.892  30.668  0.00  0.00    -0.309 N 
ATOM     10  H1  ELB d   1       4.340  15.467  29.108  0.00  0.00     0.064 H 
ATOM     11  H2  ELB d   1       5.090  14.408  30.349  0.00  0.00     0.064 H 
ATOM     12  H3  ELB d   1       3.949  12.496  26.467  0.00  0.00     0.038 H 
ATOM     13  H4  ELB d   1       3.442  14.086  25.803  0.00  0.00     0.038 H 
ATOM     14  H10 ELB d   1       5.308  15.203  26.697  0.00  0.00     0.073 H 
ATOM     15  H11 ELB d   1       6.172  13.048  28.536  0.00  0.00     0.038 H 
ATOM     16  H12 ELB d   1       6.676  14.768  28.411  0.00  0.00     0.038 H 
ATOM     17  H13 ELB d   1       2.061  13.113  27.816  0.00  0.00     0.064 H 
ATOM     18  H14 ELB d   1       2.599  14.822  27.948  0.00  0.00     0.064 H 
ATOM     19  H15 ELB d   1       5.373  12.646  30.998  0.00  0.00     0.170 HD
ENDROOT
BRANCH   3  20
ATOM     20  N07 ELB d   1       5.784  13.481  25.645  0.00  0.00    -0.292 N 
ATOM     21  C24 ELB d   1       6.140  12.083  25.394  0.00  0.00     0.068 A 
ATOM     22  C03 ELB d   1       6.578  11.968  24.067  0.00  0.00     0.089 A 
ATOM     23  C25 ELB d   1       6.088  10.911  26.213  0.00  0.00    -0.054 A 
ATOM     24  C02 ELB d   1       6.981  10.706  23.534  0.00  0.00     0.055 A 
ATOM     25  N04 ELB d   1       6.536  13.276  23.469  0.00  0.00    -0.304 N 
ATOM     26  C27 ELB d   1       6.929   9.562  24.345  0.00  0.00    -0.055 A 
ATOM     27  C26 ELB d   1       6.483   9.672  25.680  0.00  0.00    -0.079 A 
ATOM     28  H20 ELB d   1       7.230   8.599  23.949  0.00  0.00     0.087 H 
ATOM     29  H6  ELB d   1       6.445   8.787  26.304  0.00  0.00     0.083 H 
ATOM     30  C05 ELB d   1       6.060  14.182  24.439  0.00  0.00     0.328 A 
ATOM     31  H9  ELB d   1       6.798  13.503  22.531  0.00  0.00     0.171 HD
ATOM     32  O06 ELB d   1       5.908  15.369  24.242  0.00  0.00    -0.246 OA
ATOM     33  H19 ELB d   1       5.746  10.978  27.239  0.00  0.00     0.087 H 
BRANCH  24  34
ATOM     34  N01 ELB d   1       7.431  10.594  22.179  0.00  0.00    -0.397 N 
ATOM     35  H7  ELB d   1       7.719   9.678  21.806  0.00  0.00     0.156 HD
ATOM     36  H8  ELB d   1       7.467  11.429  21.577  0.00  0.00     0.156 HD
ENDBRANCH  24  34
ENDBRANCH   3  20
BRANCH   9  37
ATOM     37  C17 ELB d   1       4.936  10.607  31.253  0.00  0.00     0.036 A 
ATOM     38  C18 ELB d   1       3.887   9.713  31.485  0.00  0.00    -0.056 A 
ATOM     39  C19 ELB d   1       4.195   8.460  31.991  0.00  0.00    -0.065 A 
ATOM     40  H16 ELB d   1       2.861   9.992  31.275  0.00  0.00     0.087 H 
ATOM     41  C20 ELB d   1       5.524   8.108  32.233  0.00  0.00     0.006 A 
ATOM     42  H17 ELB d   1       3.402   7.751  32.199  0.00  0.00     0.085 H 
ATOM     43  C22 ELB d   1       6.575   8.983  31.979  0.00  0.00    -0.065 A 
ATOM     44  I21 ELB d   1       5.960   6.202  32.979  0.00  0.00    -0.045 I 
ATOM     45  C23 ELB d   1       6.272  10.233  31.466  0.00  0.00    -0.056 A 
ATOM     46  H5  ELB d   1       7.601   8.695  32.177  0.00  0.00     0.085 H 
ATOM     47  H18 ELB d   1       7.071  10.926  31.228  0.00  0.00     0.087 H 
ENDBRANCH   9  37
TORSDOF 3
