REMARK  2 active torsions:
REMARK  status: ('A' for Active; 'I' for Inactive)
REMARK    1  A    between atoms: CAN_10  and  CAM_9 
REMARK    2  A    between atoms: CAO_11  and  CAP_12 
ROOT
ATOM      1  CAC ELH d   1     -67.549  35.775 -45.146  0.00  0.00    -0.082 A 
ATOM      2  CAD ELH d   1     -67.607  35.320 -43.837  0.00  0.00    -0.082 A 
ATOM      3  CAE ELH d   1     -72.057  34.325 -45.858  0.00  0.00    -0.081 A 
ATOM      4  CAF ELH d   1     -72.097  33.896 -44.571  0.00  0.00    -0.069 A 
ATOM      5  CAG ELH d   1     -68.639  35.632 -45.984  0.00  0.00    -0.072 A 
ATOM      6  CAH ELH d   1     -70.903  34.906 -46.323  0.00  0.00    -0.072 A 
ATOM      7  CAI ELH d   1     -68.764  34.743 -43.378  0.00  0.00    -0.071 A 
ATOM      8  CAP ELH d   1     -71.021  34.040 -43.753  0.00  0.00     0.011 A 
ATOM      9  CAQ ELH d   1     -69.801  35.042 -45.500  0.00  0.00    -0.025 A 
ATOM     10  CAR ELH d   1     -69.858  34.599 -44.207  0.00  0.00    -0.013 A 
ATOM     11  H1  ELH d   1     -66.644  36.245 -45.514  0.00  0.00     0.083 H 
ATOM     12  H2  ELH d   1     -66.748  35.419 -43.184  0.00  0.00     0.083 H 
ATOM     13  H3  ELH d   1     -72.919  34.211 -46.506  0.00  0.00     0.083 H 
ATOM     14  H4  ELH d   1     -73.000  33.432 -44.190  0.00  0.00     0.085 H 
ATOM     15  H5  ELH d   1     -68.588  35.977 -47.010  0.00  0.00     0.084 H 
ATOM     16  H6  ELH d   1     -70.856  35.262 -47.346  0.00  0.00     0.084 H 
ATOM     17  H7  ELH d   1     -68.820  34.396 -42.352  0.00  0.00     0.084 H 
ENDROOT
BRANCH   8  18
ATOM     18  CAO ELH d   1     -71.063  33.622 -42.519  0.00  0.00     0.109 A 
ATOM     19  NAK ELH d   1     -70.169  32.828 -42.055  0.00  0.00    -0.233 NA
ATOM     20  CAN ELH d   1     -70.316  32.509 -40.782  0.00  0.00     0.141 A 
ATOM     21  CAJ ELH d   1     -71.378  33.119 -40.302  0.00  0.00    -0.008 A 
ATOM     22  SAL ELH d   1     -71.967  33.935 -41.523  0.00  0.00    -0.079 SA
ATOM     23  H8  ELH d   1     -71.767  33.072 -39.286  0.00  0.00     0.099 H 
BRANCH  20  24
ATOM     24  CAM ELH d   1     -69.530  31.737 -40.123  0.00  0.00     0.229 C 
ATOM     25  OAA ELH d   1     -69.813  31.391 -38.974  0.00  0.00    -0.643 OA
ATOM     26  OAB ELH d   1     -68.451  31.440 -40.605  0.00  0.00    -0.643 OA
ENDBRANCH  20  24
ENDBRANCH   8  18
TORSDOF 2
