REMARK  22 active torsions:
REMARK  status: ('A' for Active; 'I' for Inactive)
REMARK    1  A    between atoms: C2_2  and  C1_1 
REMARK    2  A    between atoms: O8_39  and  C2_2 
REMARK    3  A    between atoms: C4_4  and  O4_15 
REMARK    4  A    between atoms: C5_5  and  N5_12 
REMARK    5  A    between atoms: C6_6  and  C7_7 
REMARK    6  A    between atoms: C7_7  and  C8_8 
REMARK    7  A    between atoms: C7_7  and  O7_17 
REMARK    8  A    between atoms: C8_8  and  C9_9 
REMARK    9  A    between atoms: C8_8  and  O8_18 
REMARK   10  A    between atoms: C9_9  and  O9_19 
REMARK   11  A    between atoms: C10_10  and  C11_11 
REMARK       I    between atoms: N5_12  and  C10_10 
REMARK   12  A    between atoms: C2_22  and  C1_21 
REMARK   13  A    between atoms: C2_22  and  O2_35 
REMARK   14  A    between atoms: C4_24  and  O4_36 
REMARK   15  A    between atoms: N5_32  and  C5_25 
REMARK   16  A    between atoms: C6_26  and  C7_27 
REMARK   17  A    between atoms: C7_27  and  C8_28 
REMARK   18  A    between atoms: C7_27  and  O7_38 
REMARK   19  A    between atoms: C8_28  and  C9_29 
REMARK   20  A    between atoms: C8_28  and  O8_39 
REMARK   21  A    between atoms: C9_29  and  O9_40 
REMARK   22  A    between atoms: C10_30  and  C11_31 
REMARK       I    between atoms: C10_30  and  N5_32 
ROOT
ATOM      1  O8  SIA d   1      11.773 -21.347 -31.888  0.00  0.00    -0.336 OA
ENDROOT
BRANCH   1   2
ATOM      2  C2  SIA d   1      11.946 -20.489 -30.739  0.00  0.00     0.259 C 
ATOM      3  C3  SIA d   1      10.599 -20.516 -30.021  0.00  0.00     0.024 C 
ATOM      4  C4  SIA d   1      10.411 -19.345 -29.056  0.00  0.00     0.063 C 
ATOM      5  H1  SIA d   1      10.524 -21.454 -29.452  0.00  0.00     0.045 H 
ATOM      6  H2  SIA d   1       9.799 -20.480 -30.775  0.00  0.00     0.045 H 
ATOM      7  C5  SIA d   1      10.803 -18.027 -29.710  0.00  0.00     0.064 C 
ATOM      8  H3  SIA d   1      11.072 -19.498 -28.190  0.00  0.00     0.086 H 
ATOM      9  C6  SIA d   1      12.231 -18.184 -30.195  0.00  0.00     0.091 C 
ATOM     10  H4  SIA d   1      10.141 -17.830 -30.566  0.00  0.00     0.080 H 
ATOM     11  O6  SIA d   1      12.246 -19.183 -31.200  0.00  0.00    -0.336 OA
ATOM     12  H5  SIA d   1      12.860 -18.496 -29.348  0.00  0.00     0.090 H 
BRANCH   2  13
ATOM     13  C1  SIA d   1      13.059 -20.971 -29.818  0.00  0.00     0.239 C 
ATOM     14  O1A SIA d   1      14.179 -20.433 -29.908  0.00  0.00    -0.644 OA
ATOM     15  O1B SIA d   1      12.834 -21.915 -29.064  0.00  0.00    -0.644 OA
ENDBRANCH   2  13
BRANCH   4  16
ATOM     16  O4  SIA d   1       9.069 -19.348 -28.593  0.00  0.00    -0.393 OA
ATOM     17  H14 SIA d   1       8.874 -20.188 -28.195  0.00  0.00     0.210 HD
ENDBRANCH   4  16
BRANCH   7  18
ATOM     18  N5  SIA d   1      10.699 -16.921 -28.775  0.00  0.00    -0.352 N 
ATOM     19  C10 SIA d   1       9.867 -15.896 -28.935  0.00  0.00     0.214 C 
ATOM     20  O10 SIA d   1       9.081 -15.818 -29.832  0.00  0.00    -0.274 OA
ATOM     21  H13 SIA d   1      11.286 -16.931 -27.965  0.00  0.00     0.163 HD
BRANCH  19  22
ATOM     22  C11 SIA d   1       9.943 -14.799 -27.918  0.00  0.00    -0.003 C 
ATOM     23  H10 SIA d   1       9.208 -14.019 -28.165  0.00  0.00     0.040 H 
ATOM     24  H11 SIA d   1      10.954 -14.365 -27.922  0.00  0.00     0.040 H 
ATOM     25  H12 SIA d   1       9.723 -15.208 -26.921  0.00  0.00     0.040 H 
ENDBRANCH  19  22
ENDBRANCH   7  18
BRANCH   9  26
ATOM     26  C7  SIA d   1      12.806 -16.920 -30.787  0.00  0.00     0.089 C 
ATOM     27  H6  SIA d   1      12.968 -16.191 -29.980  0.00  0.00     0.091 H 
BRANCH  26  28
ATOM     28  C8  SIA d   1      14.118 -17.177 -31.501  0.00  0.00     0.083 C 
ATOM     29  H7  SIA d   1      13.932 -17.674 -32.464  0.00  0.00     0.090 H 
BRANCH  28  30
ATOM     30  C9  SIA d   1      14.788 -15.842 -31.717  0.00  0.00     0.043 C 
ATOM     31  H8  SIA d   1      15.112 -15.427 -30.751  0.00  0.00     0.078 H 
ATOM     32  H9  SIA d   1      14.085 -15.146 -32.198  0.00  0.00     0.078 H 
BRANCH  30  33
ATOM     33  O9  SIA d   1      15.917 -16.046 -32.558  0.00  0.00    -0.398 OA
ATOM     34  H17 SIA d   1      16.518 -16.651 -32.139  0.00  0.00     0.209 HD
ENDBRANCH  30  33
ENDBRANCH  28  30
BRANCH  28  35
ATOM     35  O8  SIA d   1      14.966 -17.980 -30.700  0.00  0.00    -0.391 OA
ATOM     36  H16 SIA d   1      14.556 -18.825 -30.555  0.00  0.00     0.210 HD
ENDBRANCH  28  35
ENDBRANCH  26  28
BRANCH  26  37
ATOM     37  O7  SIA d   1      11.904 -16.388 -31.737  0.00  0.00    -0.390 OA
ATOM     38  H15 SIA d   1      12.256 -15.579 -32.088  0.00  0.00     0.210 HD
ENDBRANCH  26  37
ENDBRANCH   9  26
ENDBRANCH   1   2
BRANCH   1  39
ATOM     39  C8  SIA d   1      12.998 -21.613 -32.585  0.00  0.00     0.090 C 
ATOM     40  H24 SIA d   1      13.826 -21.202 -31.990  0.00  0.00     0.090 H 
BRANCH  39  41
ATOM     41  C7  SIA d   1      13.131 -23.125 -32.608  0.00  0.00     0.089 C 
ATOM     42  H23 SIA d   1      13.255 -23.496 -31.580  0.00  0.00     0.091 H 
BRANCH  41  43
ATOM     43  C6  SIA d   1      14.361 -23.472 -33.406  0.00  0.00     0.091 C 
ATOM     44  C5  SIA d   1      14.803 -24.872 -33.074  0.00  0.00     0.064 C 
ATOM     45  C4  SIA d   1      16.037 -25.207 -33.884  0.00  0.00     0.063 C 
ATOM     46  H21 SIA d   1      14.004 -25.596 -33.290  0.00  0.00     0.080 H 
ATOM     47  C3  SIA d   1      15.730 -25.032 -35.366  0.00  0.00     0.023 C 
ATOM     48  H20 SIA d   1      16.849 -24.517 -33.611  0.00  0.00     0.086 H 
ATOM     49  C2  SIA d   1      15.195 -23.631 -35.617  0.00  0.00     0.256 C 
ATOM     50  H18 SIA d   1      16.650 -25.182 -35.950  0.00  0.00     0.045 H 
ATOM     51  H19 SIA d   1      14.976 -25.772 -35.673  0.00  0.00     0.045 H 
ATOM     52  O6  SIA d   1      14.078 -23.355 -34.781  0.00  0.00    -0.336 OA
ATOM     53  H22 SIA d   1      15.169 -22.772 -33.147  0.00  0.00     0.090 H 
BRANCH  44  54
ATOM     54  N5  SIA d   1      15.113 -24.867 -31.673  0.00  0.00    -0.352 N 
ATOM     55  C10 SIA d   1      14.643 -25.755 -30.816  0.00  0.00     0.214 C 
ATOM     56  O10 SIA d   1      13.462 -26.059 -30.731  0.00  0.00    -0.274 OA
ATOM     57  H30 SIA d   1      15.719 -24.151 -31.326  0.00  0.00     0.163 HD
BRANCH  55  58
ATOM     58  C11 SIA d   1      15.714 -26.325 -29.936  0.00  0.00    -0.003 C 
ATOM     59  H27 SIA d   1      15.270 -27.056 -29.244  0.00  0.00     0.040 H 
ATOM     60  H28 SIA d   1      16.185 -25.515 -29.360  0.00  0.00     0.040 H 
ATOM     61  H29 SIA d   1      16.473 -26.823 -30.558  0.00  0.00     0.040 H 
ENDBRANCH  55  58
ENDBRANCH  44  54
BRANCH  45  62
ATOM     62  O4  SIA d   1      16.445 -26.541 -33.570  0.00  0.00    -0.393 OA
ATOM     63  H32 SIA d   1      17.220 -26.761 -34.074  0.00  0.00     0.210 HD
ENDBRANCH  45  62
BRANCH  49  64
ATOM     64  C1  SIA d   1      16.261 -22.612 -35.353  0.00  0.00     0.238 C 
ATOM     65  O1A SIA d   1      16.076 -21.484 -35.854  0.00  0.00    -0.644 OA
ATOM     66  O1B SIA d   1      17.255 -22.918 -34.652  0.00  0.00    -0.644 OA
ENDBRANCH  49  64
BRANCH  49  67
ATOM     67  O2  SIA d   1      14.777 -23.485 -36.976  0.00  0.00    -0.357 OA
ATOM     68  H31 SIA d   1      14.472 -22.597 -37.118  0.00  0.00     0.213 HD
ENDBRANCH  49  67
ENDBRANCH  41  43
BRANCH  41  69
ATOM     69  O7  SIA d   1      11.959 -23.708 -33.162  0.00  0.00    -0.390 OA
ATOM     70  H33 SIA d   1      11.207 -23.468 -32.633  0.00  0.00     0.210 HD
ENDBRANCH  41  69
ENDBRANCH  39  41
BRANCH  39  71
ATOM     71  C9  SIA d   1      13.094 -20.974 -33.961  0.00  0.00     0.043 C 
ATOM     72  H25 SIA d   1      13.129 -21.760 -34.729  0.00  0.00     0.078 H 
ATOM     73  H26 SIA d   1      14.007 -20.363 -34.019  0.00  0.00     0.078 H 
BRANCH  71  74
ATOM     74  O9  SIA d   1      11.961 -20.152 -34.177  0.00  0.00    -0.398 OA
ATOM     75  H34 SIA d   1      11.932 -19.474 -33.513  0.00  0.00     0.209 HD
ENDBRANCH  71  74
ENDBRANCH  39  71
ENDBRANCH   1  39
TORSDOF 22
