REMARK  10 active torsions:
REMARK  status: ('A' for Active; 'I' for Inactive)
REMARK    1  A    between atoms: C02_1  and  C03_2 
REMARK    2  A    between atoms: N01_24  and  C02_1 
REMARK    3  A    between atoms: C03_2  and  C04_3 
REMARK    4  A    between atoms: C04_3  and  C05_4 
REMARK    5  A    between atoms: C05_4  and  C06_5 
REMARK    6  A    between atoms: C09_8  and  O10_28 
REMARK    7  A    between atoms: C11_9  and  C12_10 
REMARK    8  A    between atoms: C12_10  and  N13_25 
REMARK    9  A    between atoms: C16_11  and  N01_24 
REMARK   10  A    between atoms: N13_25  and  O14_29 
ROOT
ATOM      1  C02 DQ5 d   1     -13.275   5.508  54.932  0.00  0.00    -0.007 C 
ATOM      2  H1  DQ5 d   1     -13.303   6.528  55.344  0.00  0.00     0.063 H 
ATOM      3  H2  DQ5 d   1     -13.747   5.501  53.938  0.00  0.00     0.063 H 
ENDROOT
BRANCH   1   4
ATOM      4  C03 DQ5 d   1     -14.083   4.566  55.876  0.00  0.00    -0.050 C 
ATOM      5  H3  DQ5 d   1     -14.585   5.184  56.635  0.00  0.00     0.035 H 
ATOM      6  H4  DQ5 d   1     -13.377   3.881  56.369  0.00  0.00     0.035 H 
BRANCH   4   7
ATOM      7  C04 DQ5 d   1     -15.170   3.708  55.139  0.00  0.00    -0.059 C 
ATOM      8  H5  DQ5 d   1     -15.895   4.392  54.674  0.00  0.00     0.033 H 
ATOM      9  H6  DQ5 d   1     -15.682   3.082  55.885  0.00  0.00     0.033 H 
BRANCH   7  10
ATOM     10  C05 DQ5 d   1     -14.592   2.780  54.033  0.00  0.00    -0.025 C 
ATOM     11  H7  DQ5 d   1     -15.240   1.898  53.922  0.00  0.00     0.042 H 
ATOM     12  H8  DQ5 d   1     -13.580   2.457  54.321  0.00  0.00     0.042 H 
BRANCH  10  13
ATOM     13  C06 DQ5 d   1     -14.524   3.538  52.686  0.00  0.00     0.035 A 
ATOM     14  C07 DQ5 d   1     -15.233   4.724  52.544  0.00  0.00    -0.057 A 
ATOM     15  C08 DQ5 d   1     -15.186   5.436  51.371  0.00  0.00    -0.047 A 
ATOM     16  H9  DQ5 d   1     -15.831   5.092  53.370  0.00  0.00     0.086 H 
ATOM     17  C09 DQ5 d   1     -14.447   4.971  50.319  0.00  0.00     0.092 A 
ATOM     18  H10 DQ5 d   1     -15.735   6.366  51.279  0.00  0.00     0.087 H 
ATOM     19  C11 DQ5 d   1     -13.722   3.770  50.453  0.00  0.00     0.100 A 
ATOM     20  N15 DQ5 d   1     -13.770   3.066  51.634  0.00  0.00    -0.253 NA
BRANCH  17  21
ATOM     21  O10 DQ5 d   1     -14.440   5.731  49.116  0.00  0.00    -0.359 OA
ATOM     22  H24 DQ5 d   1     -14.986   6.501  49.226  0.00  0.00     0.217 HD
ENDBRANCH  17  21
BRANCH  19  23
ATOM     23  C12 DQ5 d   1     -12.903   3.219  49.277  0.00  0.00     0.159 C 
ATOM     24  H11 DQ5 d   1     -13.236   3.779  48.391  0.00  0.00     0.097 H 
ATOM     25  H12 DQ5 d   1     -13.195   2.163  49.176  0.00  0.00     0.097 H 
BRANCH  23  26
ATOM     26  N13 DQ5 d   1     -11.583   3.233  49.237  0.00  0.00    -0.063 N 
ATOM     27  H22 DQ5 d   1     -11.278   3.885  49.943  0.00  0.00     0.342 HD
ATOM     28  H23 DQ5 d   1     -11.323   3.578  48.326  0.00  0.00     0.342 HD
BRANCH  26  29
ATOM     29  O14 DQ5 d   1     -10.877   2.075  49.437  0.00  0.00    -0.198 OA
ATOM     30  H25 DQ5 d   1      -9.947   2.258  49.376  0.00  0.00     0.257 HD
ENDBRANCH  26  29
ENDBRANCH  23  26
ENDBRANCH  19  23
ENDBRANCH  10  13
ENDBRANCH   7  10
ENDBRANCH   4   7
ENDBRANCH   1   4
BRANCH   1  31
ATOM     31  N01 DQ5 d   1     -11.879   5.098  54.790  0.00  0.00    -0.388 N 
ATOM     32  H21 DQ5 d   1     -11.336   5.011  55.661  0.00  0.00     0.159 HD
BRANCH  31  33
ATOM     33  C16 DQ5 d   1     -11.162   4.796  53.538  0.00  0.00     0.053 A 
ATOM     34  C17 DQ5 d   1     -11.062   5.721  52.407  0.00  0.00     0.020 A 
ATOM     35  C18 DQ5 d   1     -11.730   7.073  52.403  0.00  0.00    -0.069 C 
ATOM     36  C22 DQ5 d   1     -10.336   5.323  51.292  0.00  0.00     0.070 A 
ATOM     37  C19 DQ5 d   1     -11.646   7.906  51.113  0.00  0.00    -0.082 C 
ATOM     38  H13 DQ5 d   1     -12.251   7.444  53.278  0.00  0.00     0.085 H 
ATOM     39  C20 DQ5 d   1     -11.250   7.177  49.840  0.00  0.00    -0.081 C 
ATOM     40  H14 DQ5 d   1     -11.860   8.969  51.112  0.00  0.00     0.083 H 
ATOM     41  C21 DQ5 d   1     -10.144   6.163  50.038  0.00  0.00    -0.054 C 
ATOM     42  H15 DQ5 d   1     -11.716   7.366  48.880  0.00  0.00     0.083 H 
ATOM     43  H16 DQ5 d   1      -9.306   6.048  49.360  0.00  0.00     0.087 H 
ATOM     44  N23 DQ5 d   1      -9.705   4.082  51.244  0.00  0.00    -0.247 NA
ATOM     45  C24 DQ5 d   1      -9.783   3.186  52.309  0.00  0.00     0.070 A 
ATOM     46  C25 DQ5 d   1      -9.136   1.949  52.218  0.00  0.00    -0.054 A 
ATOM     47  C29 DQ5 d   1     -10.492   3.527  53.449  0.00  0.00     0.020 A 
ATOM     48  C26 DQ5 d   1      -9.197   1.041  53.261  0.00  0.00    -0.081 A 
ATOM     49  H17 DQ5 d   1      -8.581   1.699  51.321  0.00  0.00     0.087 H 
ATOM     50  C27 DQ5 d   1      -9.894   1.373  54.402  0.00  0.00    -0.082 A 
ATOM     51  H18 DQ5 d   1      -8.702   0.080  53.181  0.00  0.00     0.083 H 
ATOM     52  C28 DQ5 d   1     -10.542   2.611  54.494  0.00  0.00    -0.069 A 
ATOM     53  H19 DQ5 d   1      -9.941   0.675  55.230  0.00  0.00     0.083 H 
ATOM     54  H20 DQ5 d   1     -11.092   2.859  55.395  0.00  0.00     0.085 H 
ENDBRANCH  31  33
ENDBRANCH   1  31
TORSDOF 10
