REMARK  9 active torsions:
REMARK  status: ('A' for Active; 'I' for Inactive)
REMARK    1  A    between atoms: C23_16  and  C10_2 
REMARK    2  A    between atoms: C15_7  and  C16_8 
REMARK    3  A    between atoms: N11_25  and  C15_7 
REMARK    4  A    between atoms: C16_8  and  C17_9 
REMARK    5  A    between atoms: C17_9  and  C18_10 
REMARK    6  A    between atoms: C18_10  and  C19_11 
REMARK    7  A    between atoms: C22_15  and  O26_29 
REMARK    8  A    between atoms: C7_21  and  N11_25 
REMARK    9  A    between atoms: N25_27  and  O25_28 
ROOT
ATOM      1  C15 E2W d   1     -14.067   5.732  55.329  0.00  0.00    -0.007 C 
ATOM      2  H7  E2W d   1     -14.542   6.640  55.729  0.00  0.00     0.063 H 
ATOM      3  H8  E2W d   1     -14.590   5.417  54.414  0.00  0.00     0.063 H 
ENDROOT
BRANCH   1   4
ATOM      4  C16 E2W d   1     -14.233   4.592  56.395  0.00  0.00    -0.050 C 
ATOM      5  H9  E2W d   1     -14.614   5.053  57.319  0.00  0.00     0.035 H 
ATOM      6  H10 E2W d   1     -13.237   4.163  56.582  0.00  0.00     0.035 H 
BRANCH   4   7
ATOM      7  C17 E2W d   1     -15.190   3.418  56.024  0.00  0.00    -0.059 C 
ATOM      8  H11 E2W d   1     -15.991   3.399  56.778  0.00  0.00     0.033 H 
ATOM      9  H12 E2W d   1     -14.605   2.488  56.086  0.00  0.00     0.033 H 
BRANCH   7  10
ATOM     10  C18 E2W d   1     -15.865   3.441  54.642  0.00  0.00    -0.025 C 
ATOM     11  H13 E2W d   1     -16.363   4.415  54.527  0.00  0.00     0.042 H 
ATOM     12  H14 E2W d   1     -16.618   2.640  54.622  0.00  0.00     0.042 H 
BRANCH  10  13
ATOM     13  C19 E2W d   1     -14.966   3.249  53.471  0.00  0.00     0.035 A 
ATOM     14  C20 E2W d   1     -14.112   2.127  53.450  0.00  0.00    -0.056 A 
ATOM     15  C21 E2W d   1     -13.261   1.951  52.373  0.00  0.00    -0.047 A 
ATOM     16  H15 E2W d   1     -14.122   1.413  54.266  0.00  0.00     0.086 H 
ATOM     17  C22 E2W d   1     -13.267   2.896  51.350  0.00  0.00     0.096 A 
ATOM     18  H16 E2W d   1     -12.601   1.092  52.326  0.00  0.00     0.087 H 
ATOM     19  C23 E2W d   1     -14.149   4.016  51.430  0.00  0.00     0.109 A 
ATOM     20  N24 E2W d   1     -14.972   4.187  52.477  0.00  0.00    -0.249 NA
BRANCH  17  21
ATOM     21  O26 E2W d   1     -12.454   2.789  50.253  0.00  0.00    -0.358 OA
ATOM     22  H21 E2W d   1     -12.988   2.738  49.469  0.00  0.00     0.217 HD
ENDBRANCH  17  21
BRANCH  19  23
ATOM     23  C10 E2W d   1     -14.189   5.031  50.368  0.00  0.00     0.059 C 
ATOM     24  N25 E2W d   1     -13.779   5.047  49.138  0.00  0.00    -0.146 NA
ATOM     25  H2  E2W d   1     -14.661   5.962  50.678  0.00  0.00     0.122 H 
BRANCH  24  26
ATOM     26  O25 E2W d   1     -13.162   3.966  48.657  0.00  0.00    -0.266 OA
ATOM     27  H20 E2W d   1     -12.382   3.793  49.171  0.00  0.00     0.247 HD
ENDBRANCH  24  26
ENDBRANCH  19  23
ENDBRANCH  10  13
ENDBRANCH   7  10
ENDBRANCH   4   7
ENDBRANCH   1   4
BRANCH   1  28
ATOM     28  N11 E2W d   1     -12.649   6.078  54.956  0.00  0.00    -0.388 N 
ATOM     29  H19 E2W d   1     -11.977   6.094  55.736  0.00  0.00     0.159 HD
BRANCH  28  30
ATOM     30  C7  E2W d   1     -12.108   6.386  53.673  0.00  0.00     0.053 A 
ATOM     31  C4  E2W d   1     -11.224   5.423  53.095  0.00  0.00     0.022 A 
ATOM     32  C3  E2W d   1     -10.817   4.292  53.826  0.00  0.00    -0.048 A 
ATOM     33  C5  E2W d   1     -10.764   5.615  51.784  0.00  0.00     0.070 A 
ATOM     34  C2  E2W d   1      -9.975   3.379  53.255  0.00  0.00     0.035 A 
ATOM     35  H17 E2W d   1     -11.170   4.145  54.840  0.00  0.00     0.087 H 
ATOM     36  C1  E2W d   1      -9.497   3.533  51.951  0.00  0.00    -0.060 A 
ATOM     37 CL2  E2W d   1      -9.493   2.011  54.168  0.00  0.00    -0.084 Cl
ATOM     38  C6  E2W d   1      -9.882   4.636  51.228  0.00  0.00    -0.053 A 
ATOM     39  H1  E2W d   1      -8.833   2.794  51.517  0.00  0.00     0.086 H 
ATOM     40  H18 E2W d   1      -9.511   4.767  50.218  0.00  0.00     0.087 H 
ATOM     41  N10 E2W d   1     -11.135   6.713  51.010  0.00  0.00    -0.247 NA
ATOM     42  C9  E2W d   1     -12.009   7.599  51.539  0.00  0.00     0.070 A 
ATOM     43  C14 E2W d   1     -12.128   8.948  50.821  0.00  0.00    -0.054 C 
ATOM     44  C8  E2W d   1     -12.526   7.456  52.876  0.00  0.00     0.020 A 
ATOM     45  C13 E2W d   1     -12.917  10.068  51.544  0.00  0.00    -0.081 C 
ATOM     46  H6  E2W d   1     -11.679   9.111  49.848  0.00  0.00     0.087 H 
ATOM     47  C12 E2W d   1     -14.012   9.507  52.433  0.00  0.00    -0.082 C 
ATOM     48  H5  E2W d   1     -12.712  11.126  51.429  0.00  0.00     0.083 H 
ATOM     49  C11 E2W d   1     -13.460   8.507  53.381  0.00  0.00    -0.069 C 
ATOM     50  H4  E2W d   1     -15.055   9.797  52.382  0.00  0.00     0.083 H 
ATOM     51  H3  E2W d   1     -13.732   8.539  54.430  0.00  0.00     0.085 H 
ENDBRANCH  28  30
ENDBRANCH   1  28
TORSDOF 9
