REMARK  7 active torsions:
REMARK  status: ('A' for Active; 'I' for Inactive)
REMARK    1  A    between atoms: C7_5  and  C5_3 
REMARK    2  A    between atoms: C5_3  and  O6_13 
REMARK    3  A    between atoms: C9_7  and  C8_6 
REMARK    4  A    between atoms: N2_10  and  C1_12 
REMARK    5  A    between atoms: C19_19  and  C20_20 
REMARK       I    between atoms: C20_20  and  N21_21 
REMARK    6  A    between atoms: C23_23  and  C24_24 
REMARK       I    between atoms: C24_24  and  N26_26 
REMARK    7  A    between atoms: N26_26  and  C27_27 
ROOT
ATOM      1  C14 ELZ d   1     188.291  15.077  -1.698  0.00  0.00     0.041 C 
ATOM      2  C11 ELZ d   1     186.955  16.372   1.260  0.00  0.00    -0.048 A 
ATOM      3  C9  ELZ d   1     186.159  18.608   1.081  0.00  0.00     0.018 A 
ATOM      4  C10 ELZ d   1     186.527  17.537   1.855  0.00  0.00    -0.062 A 
ATOM      5  C12 ELZ d   1     187.016  16.269  -0.115  0.00  0.00     0.083 A 
ATOM      6  O13 ELZ d   1     187.457  15.024  -0.549  0.00  0.00    -0.349 OA
ATOM      7  C15 ELZ d   1     187.374  15.025  -2.894  0.00  0.00     0.022 C 
ATOM      8  N16 ELZ d   1     186.886  16.347  -3.260  0.00  0.00    -0.322 N 
ATOM      9  C17 ELZ d   1     186.587  17.353  -2.371  0.00  0.00     0.144 A 
ATOM     10  N18 ELZ d   1     186.169  18.404  -3.036  0.00  0.00    -0.222 NA
ATOM     11  C19 ELZ d   1     186.204  18.087  -4.359  0.00  0.00     0.159 A 
ATOM     12  C23 ELZ d   1     186.642  16.789  -4.540  0.00  0.00     0.139 A 
ATOM     13  C33 ELZ d   1     186.634  17.339  -0.917  0.00  0.00     0.045 A 
ATOM     14  C34 ELZ d   1     186.209  18.498  -0.288  0.00  0.00    -0.049 A 
ATOM     15  H3  ELZ d   1     188.979  14.219  -1.709  0.00  0.00     0.077 H 
ATOM     16  H4  ELZ d   1     188.871  16.012  -1.704  0.00  0.00     0.077 H 
ATOM     17  H5  ELZ d   1     187.246  15.529   1.876  0.00  0.00     0.087 H 
ATOM     18  H6  ELZ d   1     186.481  17.608   2.936  0.00  0.00     0.085 H 
ATOM     19  H13 ELZ d   1     186.514  14.382  -2.656  0.00  0.00     0.068 H 
ATOM     20  H14 ELZ d   1     187.924  14.600  -3.746  0.00  0.00     0.068 H 
ATOM     21  H27 ELZ d   1     185.907  19.344  -0.894  0.00  0.00     0.087 H 
ENDROOT
BRANCH  12  22
ATOM     22  C24 ELZ d   1     186.831  16.054  -5.767  0.00  0.00     0.271 C 
ATOM     23  O25 ELZ d   1     187.880  15.469  -5.990  0.00  0.00    -0.266 OA
ATOM     24  N26 ELZ d   1     185.773  16.175  -6.656  0.00  0.00    -0.351 N 
ATOM     25  H17 ELZ d   1     184.937  16.595  -6.301  0.00  0.00     0.163 HD
BRANCH  24  26
ATOM     26  C27 ELZ d   1     185.749  15.755  -8.055  0.00  0.00     0.016 C 
ATOM     27  C28 ELZ d   1     186.913  14.929  -8.575  0.00  0.00    -0.026 C 
ATOM     28  C29 ELZ d   1     186.706  14.583 -10.035  0.00  0.00     0.021 C 
ATOM     29  H19 ELZ d   1     186.988  14.001  -7.990  0.00  0.00     0.039 H 
ATOM     30  H20 ELZ d   1     187.843  15.506  -8.468  0.00  0.00     0.039 H 
ATOM     31  O30 ELZ d   1     185.478  13.878 -10.201  0.00  0.00    -0.391 OA
ATOM     32  H21 ELZ d   1     187.538  13.952 -10.381  0.00  0.00     0.074 H 
ATOM     33  H22 ELZ d   1     186.677  15.509 -10.628  0.00  0.00     0.074 H 
ATOM     34  C31 ELZ d   1     184.380  14.704  -9.823  0.00  0.00     0.021 C 
ATOM     35  C32 ELZ d   1     184.462  15.011  -8.346  0.00  0.00    -0.026 C 
ATOM     36  H23 ELZ d   1     183.437  14.180 -10.036  0.00  0.00     0.074 H 
ATOM     37  H24 ELZ d   1     184.415  15.643 -10.395  0.00  0.00     0.074 H 
ATOM     38  H25 ELZ d   1     183.604  15.634  -8.053  0.00  0.00     0.039 H 
ATOM     39  H26 ELZ d   1     184.445  14.071  -7.775  0.00  0.00     0.039 H 
ATOM     40  H18 ELZ d   1     185.743  16.682  -8.648  0.00  0.00     0.072 H 
ENDBRANCH  24  26
ENDBRANCH  12  22
BRANCH  11  41
ATOM     41  C20 ELZ d   1     185.794  19.072  -5.325  0.00  0.00     0.270 C 
ATOM     42  N21 ELZ d   1     185.515  20.285  -4.751  0.00  0.00    -0.365 N 
ATOM     43  H15 ELZ d   1     185.219  21.052  -5.321  0.00  0.00     0.159 HD
ATOM     44  H16 ELZ d   1     185.607  20.403  -3.762  0.00  0.00     0.159 HD
ATOM     45  O22 ELZ d   1     185.712  18.856  -6.523  0.00  0.00    -0.266 OA
ENDBRANCH  11  41
BRANCH   3  46
ATOM     46  C8  ELZ d   1     185.708  19.826   1.685  0.00  0.00    -0.063 C 
ATOM     47  C7  ELZ d   1     185.388  20.917   2.100  0.00  0.00    -0.053 C 
BRANCH  47  48
ATOM     48  C5  ELZ d   1     185.182  22.257   2.669  0.00  0.00     0.204 C 
ATOM     49  C4  ELZ d   1     183.799  22.812   2.405  0.00  0.00    -0.002 C 
ATOM     50  C3  ELZ d   1     183.995  24.221   1.890  0.00  0.00     0.001 C 
ATOM     51  H1  ELZ d   1     183.211  22.825   3.334  0.00  0.00     0.042 H 
ATOM     52  H2  ELZ d   1     183.281  22.200   1.652  0.00  0.00     0.042 H 
ATOM     53  N2  ELZ d   1     185.402  24.341   1.666  0.00  0.00    -0.353 N 
ATOM     54  H7  ELZ d   1     183.658  24.956   2.636  0.00  0.00     0.064 H 
ATOM     55  H8  ELZ d   1     183.440  24.370   0.952  0.00  0.00     0.064 H 
ATOM     56  C35 ELZ d   1     186.125  23.268   2.080  0.00  0.00     0.266 C 
ATOM     57  O36 ELZ d   1     187.335  23.133   1.995  0.00  0.00    -0.269 OA
BRANCH  53  58
ATOM     58  C1  ELZ d   1     185.984  25.501   1.049  0.00  0.00    -0.016 C 
ATOM     59  H9  ELZ d   1     187.074  25.372   0.980  0.00  0.00     0.056 H 
ATOM     60  H10 ELZ d   1     185.758  26.391   1.655  0.00  0.00     0.056 H 
ATOM     61  H11 ELZ d   1     185.566  25.628   0.040  0.00  0.00     0.056 H 
ENDBRANCH  53  58
BRANCH  48  62
ATOM     62  O6  ELZ d   1     185.413  22.275   4.075  0.00  0.00    -0.369 OA
ATOM     63  H12 ELZ d   1     184.814  21.674   4.501  0.00  0.00     0.212 HD
ENDBRANCH  48  62
ENDBRANCH  47  48
ENDBRANCH   3  46
TORSDOF 7
