REMARK  6 active torsions:
REMARK  status: ('A' for Active; 'I' for Inactive)
REMARK    1  A    between atoms: C7_5  and  C5_3 
REMARK    2  A    between atoms: C5_3  and  O6_13 
REMARK    3  A    between atoms: C9_7  and  C8_6 
REMARK    4  A    between atoms: C13_9  and  N15_15 
REMARK    5  A    between atoms: N2_10  and  C1_12 
REMARK    6  A    between atoms: C17_17  and  C18_18 
REMARK       I    between atoms: C18_18  and  N19_19 
ROOT
ATOM      1  C14 ELW d   1      29.798  54.121  -0.562  0.00  0.00    -0.019 A 
ATOM      2  C11 ELW d   1      29.292  56.327   0.896  0.00  0.00     0.006 A 
ATOM      3  C9  ELW d   1      29.880  54.044   0.807  0.00  0.00     0.022 A 
ATOM      4  C10 ELW d   1      29.629  55.168   1.557  0.00  0.00    -0.048 A 
ATOM      5  C13 ELW d   1      29.457  55.329  -1.128  0.00  0.00     0.152 A 
ATOM      6  N12 ELW d   1      29.200  56.440  -0.432  0.00  0.00    -0.241 NA
ATOM      7  H3  ELW d   1      29.997  53.253  -1.181  0.00  0.00     0.091 H 
ATOM      8  H4  ELW d   1      29.087  57.208   1.493  0.00  0.00     0.114 H 
ATOM      9  H5  ELW d   1      29.695  55.142   2.639  0.00  0.00     0.087 H 
ENDROOT
BRANCH   3  10
ATOM     10  C8  ELW d   1      30.243  52.796   1.390  0.00  0.00    -0.063 C 
ATOM     11  C7  ELW d   1      30.561  51.698   1.773  0.00  0.00    -0.053 C 
BRANCH  11  12
ATOM     12  C5  ELW d   1      30.848  50.373   2.314  0.00  0.00     0.204 A 
ATOM     13  C4  ELW d   1      32.306  49.992   2.189  0.00  0.00    -0.002 A 
ATOM     14  C3  ELW d   1      32.336  48.727   1.360  0.00  0.00     0.001 A 
ATOM     15  H1  ELW d   1      32.740  49.808   3.183  0.00  0.00     0.042 H 
ATOM     16  H2  ELW d   1      32.868  50.792   1.686  0.00  0.00     0.042 H 
ATOM     17  N2  ELW d   1      30.976  48.472   1.012  0.00  0.00    -0.353 N 
ATOM     18  H6  ELW d   1      32.747  47.892   1.946  0.00  0.00     0.064 H 
ATOM     19  H7  ELW d   1      32.944  48.874   0.455  0.00  0.00     0.064 H 
ATOM     20  C28 ELW d   1      30.087  49.364   1.527  0.00  0.00     0.266 A 
ATOM     21  O29 ELW d   1      28.878  49.385   1.380  0.00  0.00    -0.269 OA
BRANCH  17  22
ATOM     22  C1  ELW d   1      30.609  47.357   0.188  0.00  0.00    -0.016 C 
ATOM     23  H8  ELW d   1      29.518  47.349   0.046  0.00  0.00     0.056 H 
ATOM     24  H9  ELW d   1      30.922  46.422   0.676  0.00  0.00     0.056 H 
ATOM     25  H10 ELW d   1      31.105  47.445  -0.790  0.00  0.00     0.056 H 
ENDBRANCH  17  22
BRANCH  12  26
ATOM     26  O6  ELW d   1      30.422  50.228   3.660  0.00  0.00    -0.369 OA
ATOM     27  H11 ELW d   1      30.868  50.868   4.203  0.00  0.00     0.212 HD
ENDBRANCH  12  26
ENDBRANCH  11  12
ENDBRANCH   3  10
BRANCH   5  28
ATOM     28  N15 ELW d   1      29.426  55.365  -2.523  0.00  0.00    -0.214 N 
ATOM     29  N16 ELW d   1      30.020  54.371  -3.202  0.00  0.00    -0.159 NA
ATOM     30  C17 ELW d   1      29.821  54.670  -4.485  0.00  0.00     0.157 A 
ATOM     31  C21 ELW d   1      29.097  55.875  -4.623  0.00  0.00     0.032 A 
ATOM     32  C22 ELW d   1      28.856  56.309  -3.336  0.00  0.00     0.073 A 
ATOM     33  C27 ELW d   1      28.645  56.598  -5.707  0.00  0.00    -0.031 A 
ATOM     34  C23 ELW d   1      28.166  57.466  -3.055  0.00  0.00    -0.051 A 
ATOM     35  C24 ELW d   1      27.721  58.181  -4.143  0.00  0.00    -0.043 A 
ATOM     36  H14 ELW d   1      27.984  57.794  -2.038  0.00  0.00     0.087 H 
ATOM     37  C25 ELW d   1      27.958  57.749  -5.423  0.00  0.00     0.117 A 
ATOM     38  H15 ELW d   1      27.173  59.103  -3.986  0.00  0.00     0.088 H 
ATOM     39  F26 ELW d   1      27.504  58.472  -6.446  0.00  0.00    -0.206 F 
ATOM     40  H16 ELW d   1      28.823  56.274  -6.726  0.00  0.00     0.089 H 
BRANCH  30  41
ATOM     41  C18 ELW d   1      30.316  53.824  -5.534  0.00  0.00     0.270 C 
ATOM     42  N19 ELW d   1      30.571  52.540  -5.120  0.00  0.00    -0.365 N 
ATOM     43  H12 ELW d   1      30.920  51.865  -5.770  0.00  0.00     0.159 HD
ATOM     44  H13 ELW d   1      30.408  52.280  -4.168  0.00  0.00     0.159 HD
ATOM     45  O20 ELW d   1      30.480  54.245  -6.669  0.00  0.00    -0.266 OA
ENDBRANCH  30  41
ENDBRANCH   5  28
TORSDOF 6
