REMARK  11 active torsions:
REMARK  status: ('A' for Active; 'I' for Inactive)
REMARK    1  A    between atoms: S2_18  and  C1_1 
REMARK    2  A    between atoms: C6_2  and  N5_21 
REMARK    3  A    between atoms: C13_25  and  C8_4 
REMARK    4  A    between atoms: C22_32  and  C24_8 
REMARK    5  A    between atoms: C30_9  and  C31_10 
REMARK    6  A    between atoms: N35_39  and  C36_13 
REMARK    7  A    between atoms: N5_21  and  S2_18 
REMARK    8  A    between atoms: C10_23  and  O11_24 
REMARK    9  A    between atoms: N21_31  and  C20_30 
REMARK   10  A    between atoms: C22_32  and  N21_31 
REMARK   11  A    between atoms: C25_33  and  C22_32 
ROOT
ATOM      1  N21 EO5 d   1      36.185  13.023  33.393  0.00  0.00    -0.363 N 
ATOM      2  H22 EO5 d   1      35.422  12.363  33.184  0.00  0.00     0.162 HD
ENDROOT
BRANCH   1   3
ATOM      3  C20 EO5 d   1      35.968  14.366  33.153  0.00  0.00     0.140 A 
ATOM      4  N19 EO5 d   1      36.862  15.241  33.599  0.00  0.00    -0.224 NA
ATOM      5  C18 EO5 d   1      36.712  16.542  33.455  0.00  0.00     0.091 A 
ATOM      6  N17 EO5 d   1      35.650  17.057  32.884  0.00  0.00    -0.223 NA
ATOM      7  H6  EO5 d   1      37.488  17.205  33.819  0.00  0.00     0.146 H 
ATOM      8  C16 EO5 d   1      34.694  16.269  32.400  0.00  0.00     0.143 A 
ATOM      9  N15 EO5 d   1      33.531  16.554  31.760  0.00  0.00    -0.349 N 
ATOM     10  C42 EO5 d   1      34.805  14.870  32.513  0.00  0.00     0.068 A 
ATOM     11  C14 EO5 d   1      32.870  15.412  31.444  0.00  0.00    -0.009 A 
ATOM     12  H21 EO5 d   1      33.197  17.504  31.544  0.00  0.00     0.167 HD
ATOM     13  C13 EO5 d   1      33.581  14.347  31.865  0.00  0.00     0.007 A 
ATOM     14  H20 EO5 d   1      31.912  15.363  30.929  0.00  0.00     0.112 H 
BRANCH  13  15
ATOM     15  C8  EO5 d   1      33.168  12.950  31.642  0.00  0.00    -0.019 A 
ATOM     16  C7  EO5 d   1      34.158  12.051  31.371  0.00  0.00    -0.046 A 
ATOM     17  C6  EO5 d   1      33.874  10.743  31.119  0.00  0.00     0.045 A 
ATOM     18  H4  EO5 d   1      35.190  12.384  31.356  0.00  0.00     0.088 H 
ATOM     19  C12 EO5 d   1      32.556  10.282  31.110  0.00  0.00    -0.025 A 
ATOM     20  C10 EO5 d   1      31.525  11.201  31.365  0.00  0.00     0.068 A 
ATOM     21  H5  EO5 d   1      32.334   9.240  30.911  0.00  0.00     0.091 H 
ATOM     22  C9  EO5 d   1      31.841  12.528  31.617  0.00  0.00    -0.040 A 
ATOM     23  H18 EO5 d   1      31.047  13.244  31.796  0.00  0.00     0.089 H 
BRANCH  17  24
ATOM     24  N5  EO5 d   1      35.045  10.018  30.977  0.00  0.00    -0.285 N 
ATOM     25  H17 EO5 d   1      35.681  10.020  31.749  0.00  0.00     0.178 HD
BRANCH  24  26
ATOM     26  S2  EO5 d   1      35.470   9.173  29.677  0.00  0.00     0.227 S 
ATOM     27  O3  EO5 d   1      34.398   8.233  29.610  0.00  0.00    -0.206 OA
ATOM     28  O4  EO5 d   1      36.801   8.811  30.002  0.00  0.00    -0.206 OA
BRANCH  26  29
ATOM     29  C1  EO5 d   1      35.426  10.489  28.443  0.00  0.00     0.033 C 
ATOM     30  H1  EO5 d   1      34.380  10.744  28.216  0.00  0.00     0.051 H 
ATOM     31  H2  EO5 d   1      35.928  10.148  27.526  0.00  0.00     0.051 H 
ATOM     32  H3  EO5 d   1      35.943  11.377  28.836  0.00  0.00     0.051 H 
ENDBRANCH  26  29
ENDBRANCH  24  26
ENDBRANCH  17  24
BRANCH  20  33
ATOM     33  O11 EO5 d   1      30.199  10.840  31.364  0.00  0.00    -0.361 OA
ATOM     34  H19 EO5 d   1      29.738  11.334  30.696  0.00  0.00     0.217 HD
ENDBRANCH  20  33
ENDBRANCH  13  15
ENDBRANCH   1   3
BRANCH   1  35
ATOM     35  C22 EO5 d   1      37.427  12.487  33.923  0.00  0.00     0.067 C 
ATOM     36  H23 EO5 d   1      37.737  13.062  34.808  0.00  0.00     0.084 H 
BRANCH  35  37
ATOM     37  C24 EO5 d   1      37.177  11.017  34.288  0.00  0.00    -0.051 C 
ATOM     38  H7  EO5 d   1      38.100  10.578  34.694  0.00  0.00     0.030 H 
ATOM     39  H8  EO5 d   1      36.872  10.463  33.388  0.00  0.00     0.030 H 
ATOM     40  H9  EO5 d   1      36.380  10.957  35.043  0.00  0.00     0.030 H 
ENDBRANCH  35  37
BRANCH  35  41
ATOM     41  C25 EO5 d   1      38.513  12.508  32.892  0.00  0.00     0.157 A 
ATOM     42  N26 EO5 d   1      38.200  12.015  31.735  0.00  0.00    -0.151 NA
ATOM     43  N27 EO5 d   1      39.146  11.932  30.707  0.00  0.00    -0.237 N 
ATOM     44  C32 EO5 d   1      40.449  12.347  30.933  0.00  0.00     0.132 A 
ATOM     45  C28 EO5 d   1      39.066  11.464  29.452  0.00  0.00     0.005 A 
ATOM     46  C30 EO5 d   1      41.168  12.148  29.780  0.00  0.00    -0.026 A 
ATOM     47  C33 EO5 d   1      40.781  12.896  32.248  0.00  0.00     0.283 A 
ATOM     48  C29 EO5 d   1      40.279  11.588  28.861  0.00  0.00    -0.058 A 
ATOM     49  H25 EO5 d   1      40.520  11.299  27.839  0.00  0.00     0.086 H 
ATOM     50  O34 EO5 d   1      41.912  13.285  32.488  0.00  0.00    -0.265 OA
ATOM     51  N35 EO5 d   1      39.790  12.966  33.177  0.00  0.00    -0.261 N 
ATOM     52  H24 EO5 d   1      38.173  11.052  28.985  0.00  0.00     0.114 H 
BRANCH  46  53
ATOM     53  C31 EO5 d   1      42.626  12.463  29.552  0.00  0.00    -0.049 C 
ATOM     54  H10 EO5 d   1      42.904  12.188  28.524  0.00  0.00     0.033 H 
ATOM     55  H11 EO5 d   1      43.240  11.892  30.263  0.00  0.00     0.033 H 
ATOM     56  H12 EO5 d   1      42.797  13.539  29.702  0.00  0.00     0.033 H 
ENDBRANCH  46  53
BRANCH  51  57
ATOM     57  C36 EO5 d   1      40.117  13.493  34.427  0.00  0.00     0.044 A 
ATOM     58  C37 EO5 d   1      40.651  12.660  35.413  0.00  0.00    -0.057 A 
ATOM     59  C38 EO5 d   1      40.967  13.196  36.646  0.00  0.00    -0.081 A 
ATOM     60  H13 EO5 d   1      40.815  11.607  35.213  0.00  0.00     0.086 H 
ATOM     61  C39 EO5 d   1      40.754  14.551  36.893  0.00  0.00    -0.083 A 
ATOM     62  H14 EO5 d   1      41.381  12.562  37.422  0.00  0.00     0.083 H 
ATOM     63  C40 EO5 d   1      40.225  15.380  35.912  0.00  0.00    -0.081 A 
ATOM     64  H15 EO5 d   1      41.005  14.963  37.864  0.00  0.00     0.083 H 
ATOM     65  C41 EO5 d   1      39.908  14.850  34.675  0.00  0.00    -0.057 A 
ATOM     66  H16 EO5 d   1      40.062  16.432  36.114  0.00  0.00     0.083 H 
ATOM     67  H26 EO5 d   1      39.498  15.487  33.900  0.00  0.00     0.086 H 
ENDBRANCH  51  57
ENDBRANCH  35  41
ENDBRANCH   1  35
TORSDOF 11
