REMARK WARNING: 32 MAX_TORS EXCEEDED!!!
REMARK  36 active torsions:
REMARK  status: ('A' for Active; 'I' for Inactive)
REMARK    1  A    between atoms: CA_2  and  N_1 
REMARK    2  A    between atoms: C_3  and  CA_2 
REMARK    3  A    between atoms: CA_2  and  CB_5 
REMARK       I    between atoms: N_6  and  C_3 
REMARK    4  A    between atoms: CA_7  and  N_6 
REMARK    5  A    between atoms: C_8  and  CA_7 
REMARK    6  A    between atoms: CA_7  and  CB_10 
REMARK       I    between atoms: N_16  and  C_8 
REMARK    7  A    between atoms: CB_10  and  CG_11 
REMARK    8  A    between atoms: CA_17  and  N_16 
REMARK    9  A    between atoms: CA_17  and  CB_18 
REMARK   10  A    between atoms: C_20  and  CA_17 
REMARK   11  A    between atoms: CB_18  and  OG_19 
REMARK   12  A    between atoms: OG_19  and  P_22 
REMARK       I    between atoms: N_26  and  C_20 
REMARK   13  A    between atoms: CA_27  and  N_26 
REMARK   14  A    between atoms: C_28  and  CA_27 
REMARK   15  A    between atoms: CA_27  and  CB_30 
REMARK       I    between atoms: N08_38  and  C_28 
REMARK   16  A    between atoms: CB_30  and  OG_31 
REMARK   17  A    between atoms: C03_33  and  C02_32 
REMARK       I    between atoms: C02_32  and  N_40 
REMARK   18  A    between atoms: C04_34  and  C03_33 
REMARK   19  A    between atoms: N_40  and  CA_41 
REMARK   20  A    between atoms: CA_41  and  C_42 
REMARK   21  A    between atoms: CA_41  and  CB_44 
REMARK       I    between atoms: C_42  and  N_45 
REMARK   22  A    between atoms: N_45  and  CA_46 
REMARK   23  A    between atoms: CA_46  and  C_47 
REMARK   24  A    between atoms: CA_46  and  CB_49 
REMARK       I    between atoms: C_47  and  N_51 
REMARK   25  A    between atoms: CB_49  and  OG_50 
REMARK   26  A    between atoms: N_51  and  CA_52 
REMARK   27  A    between atoms: CA_52  and  C_53 
REMARK   28  A    between atoms: CA_52  and  CB_55 
REMARK       I    between atoms: C_53  and  N_59 
REMARK   29  A    between atoms: CB_55  and  CG_56 
REMARK   30  A    between atoms: CG_56  and  CD1_57 
REMARK   31  A    between atoms: CG_56  and  CD2_58 
REMARK   32  A    between atoms: N_59  and  CA_60 
REMARK   33  A    between atoms: CA_60  and  C_61 
REMARK   34  A    between atoms: CA_60  and  CB_63 
REMARK   35  A    between atoms: CB_63  and  CG_64 
REMARK   36  A    between atoms: CG_64  and  CD_65 
REMARK       I    between atoms: CD_65  and  NE2_67 
ROOT
ATOM      1  C   ALA d   1      17.034 -16.606  -5.384  0.00  0.00     0.245 C 
ATOM      2  O   ALA d   1      17.954 -15.842  -5.603  0.00  0.00    -0.271 OA
ATOM      3  C04 ALA d   1      16.431 -15.745  -3.185  0.00  0.00     0.022 C 
ATOM      4  C05 ALA d   1      15.049 -15.481  -2.584  0.00  0.00    -0.044 C 
ATOM      5  C06 ALA d   1      14.233 -16.741  -2.826  0.00  0.00    -0.048 C 
ATOM      6  C07 ALA d   1      14.981 -17.505  -3.913  0.00  0.00    -0.002 C 
ATOM      7  N08 ALA d   1      16.171 -16.691  -4.254  0.00  0.00    -0.345 N 
ATOM      8  H26 ALA d   1      16.885 -14.817  -3.562  0.00  0.00     0.073 H 
ATOM      9  H27 ALA d   1      14.576 -14.620  -3.079  0.00  0.00     0.036 H 
ATOM     10  H28 ALA d   1      15.134 -15.283  -1.505  0.00  0.00     0.036 H 
ATOM     11  H29 ALA d   1      13.219 -16.483  -3.165  0.00  0.00     0.035 H 
ATOM     12  H30 ALA d   1      14.171 -17.342  -1.907  0.00  0.00     0.035 H 
ATOM     13  H31 ALA d   1      14.341 -17.632  -4.798  0.00  0.00     0.064 H 
ATOM     14  H32 ALA d   1      15.290 -18.492  -3.540  0.00  0.00     0.064 H 
ENDROOT
BRANCH   3  15
ATOM     15  C03 ALA d   1      17.362 -16.417  -2.161  0.00  0.00     0.028 C 
ATOM     16  H24 ALA d   1      16.989 -17.427  -1.937  0.00  0.00     0.050 H 
ATOM     17  H25 ALA d   1      18.376 -16.485  -2.581  0.00  0.00     0.050 H 
BRANCH  15  18
ATOM     18  C02 ALA d   1      17.401 -15.605  -0.889  0.00  0.00     0.220 C 
ATOM     19  O01 ALA d   1      17.973 -14.539  -0.843  0.00  0.00    -0.274 OA
ATOM     20  N   ALA d   1      16.806 -16.486   0.068  0.00  0.00    -0.348 N 
ATOM     21  H33 ALA d   1      16.582 -17.447  -0.095  0.00  0.00     0.163 HD
BRANCH  20  22
ATOM     22  CA  ALA d   1      16.576 -15.771   1.317  0.00  0.00     0.086 C 
ATOM     23  H34 ALA d   1      16.743 -14.698   1.140  0.00  0.00     0.086 H 
BRANCH  22  24
ATOM     24  C   ALA d   1      17.547 -16.236   2.402  0.00  0.00     0.240 C 
ATOM     25  O   ALA d   1      18.199 -17.277   2.278  0.00  0.00    -0.271 OA
ATOM     26  N   ALA d   1      17.635 -15.456   3.472  0.00  0.00    -0.344 N 
ATOM     27  H38 ALA d   1      17.075 -14.629   3.517  0.00  0.00     0.163 HD
BRANCH  26  28
ATOM     28  CA  ALA d   1      18.522 -15.770   4.581  0.00  0.00     0.109 C 
ATOM     29  H39 ALA d   1      19.420 -16.271   4.189  0.00  0.00     0.090 H 
BRANCH  28  30
ATOM     30  C   ALA d   1      17.830 -16.694   5.574  0.00  0.00     0.243 C 
ATOM     31  O   ALA d   1      16.641 -16.537   5.865  0.00  0.00    -0.271 OA
ATOM     32  N   ALA d   1      18.588 -17.665   6.090  0.00  0.00    -0.346 N 
ATOM     33  H43 ALA d   1      19.500 -17.830   5.716  0.00  0.00     0.163 HD
BRANCH  32  34
ATOM     34  CA  ALA d   1      18.102 -18.487   7.192  0.00  0.00     0.089 C 
ATOM     35  H44 ALA d   1      17.080 -18.817   6.953  0.00  0.00     0.087 H 
BRANCH  34  36
ATOM     36  C   ALA d   1      18.070 -17.716   8.503  0.00  0.00     0.241 C 
ATOM     37  O   ALA d   1      17.424 -18.165   9.457  0.00  0.00    -0.271 OA
ATOM     38  N   ALA d   1      18.751 -16.575   8.572  0.00  0.00    -0.345 N 
ATOM     39  H54 ALA d   1      19.225 -16.245   7.756  0.00  0.00     0.163 HD
BRANCH  38  40
ATOM     40  CA  ALA d   1      18.829 -15.791   9.798  0.00  0.00     0.096 C 
ATOM     41  H55 ALA d   1      18.905 -16.480  10.652  0.00  0.00     0.089 H 
BRANCH  40  42
ATOM     42  C   ALA d   1      17.581 -14.934   9.972  0.00  0.00     0.196 C 
ATOM     43  O   ALA d   1      16.764 -14.814   9.058  0.00  0.00    -0.646 OA
ATOM     44  OXT ALA d   1      17.362 -14.343  11.032  0.00  0.00    -0.646 OA
ENDBRANCH  40  42
BRANCH  40  45
ATOM     45  CB  ALA d   1      20.071 -14.898   9.771  0.00  0.00    -0.029 C 
ATOM     46  H56 ALA d   1      20.156 -14.393  10.744  0.00  0.00     0.037 H 
ATOM     47  H57 ALA d   1      19.941 -14.147   8.978  0.00  0.00     0.037 H 
BRANCH  45  48
ATOM     48  CG  ALA d   1      21.362 -15.650   9.509  0.00  0.00     0.011 C 
ATOM     49  H58 ALA d   1      22.188 -14.925   9.464  0.00  0.00     0.047 H 
ATOM     50  H59 ALA d   1      21.277 -16.169   8.543  0.00  0.00     0.047 H 
BRANCH  48  51
ATOM     51  CD  ALA d   1      21.674 -16.675  10.585  0.00  0.00     0.215 C 
ATOM     52  OE1 ALA d   1      21.494 -16.419  11.779  0.00  0.00    -0.274 OA
ATOM     53  NE2 ALA d   1      22.147 -17.841  10.167  0.00  0.00    -0.370 N 
ATOM     54  H60 ALA d   1      22.371 -18.556  10.829  0.00  0.00     0.159 HD
ATOM     55  H61 ALA d   1      22.280 -18.005   9.190  0.00  0.00     0.159 HD
ENDBRANCH  48  51
ENDBRANCH  45  48
ENDBRANCH  40  45
ENDBRANCH  38  40
ENDBRANCH  34  36
BRANCH  34  56
ATOM     56  CB  ALA d   1      18.994 -19.718   7.366  0.00  0.00    -0.035 C 
ATOM     57  H45 ALA d   1      18.668 -20.233   8.281  0.00  0.00     0.037 H 
ATOM     58  H46 ALA d   1      20.026 -19.360   7.495  0.00  0.00     0.037 H 
BRANCH  56  59
ATOM     59  CG  ALA d   1      19.006 -20.752   6.239  0.00  0.00    -0.059 C 
ATOM     60  H47 ALA d   1      19.277 -20.243   5.302  0.00  0.00     0.038 H 
BRANCH  59  61
ATOM     61  CD1 ALA d   1      20.052 -21.820   6.528  0.00  0.00    -0.073 C 
ATOM     62  H48 ALA d   1      20.055 -22.560   5.714  0.00  0.00     0.028 H 
ATOM     63  H49 ALA d   1      19.812 -22.321   7.478  0.00  0.00     0.028 H 
ATOM     64  H50 ALA d   1      21.044 -21.351   6.601  0.00  0.00     0.028 H 
ENDBRANCH  59  61
BRANCH  59  65
ATOM     65  CD2 ALA d   1      17.630 -21.378   6.062  0.00  0.00    -0.073 C 
ATOM     66  H51 ALA d   1      16.892 -20.589   5.855  0.00  0.00     0.028 H 
ATOM     67  H52 ALA d   1      17.348 -21.911   6.982  0.00  0.00     0.028 H 
ATOM     68  H53 ALA d   1      17.655 -22.087   5.221  0.00  0.00     0.028 H 
ENDBRANCH  59  65
ENDBRANCH  56  59
ENDBRANCH  34  56
ENDBRANCH  32  34
ENDBRANCH  28  30
BRANCH  28  69
ATOM     69  CB  ALA d   1      18.935 -14.486   5.297  0.00  0.00     0.044 C 
ATOM     70  H40 ALA d   1      18.034 -13.965   5.652  0.00  0.00     0.077 H 
ATOM     71  H41 ALA d   1      19.479 -13.839   4.593  0.00  0.00     0.077 H 
BRANCH  69  72
ATOM     72  OG  ALA d   1      19.771 -14.774   6.404  0.00  0.00    -0.398 OA
ATOM     73  H42 ALA d   1      20.016 -13.963   6.834  0.00  0.00     0.209 HD
ENDBRANCH  69  72
ENDBRANCH  28  69
ENDBRANCH  26  28
ENDBRANCH  22  24
BRANCH  22  74
ATOM     74  CB  ALA d   1      15.139 -15.969   1.771  0.00  0.00    -0.049 C 
ATOM     75  H35 ALA d   1      14.974 -15.426   2.714  0.00  0.00     0.030 H 
ATOM     76  H36 ALA d   1      14.948 -17.041   1.927  0.00  0.00     0.030 H 
ATOM     77  H37 ALA d   1      14.455 -15.583   1.001  0.00  0.00     0.030 H 
ENDBRANCH  22  74
ENDBRANCH  20  22
ENDBRANCH  15  18
ENDBRANCH   3  15
BRANCH   1  78
ATOM     78  CA  ALA d   1      16.603 -17.645  -6.397  0.00  0.00     0.109 C 
ATOM     79  H20 ALA d   1      15.534 -17.859  -6.247  0.00  0.00     0.090 H 
BRANCH  78  80
ATOM     80  N   ALA d   1      16.786 -17.133  -7.742  0.00  0.00    -0.344 N 
ATOM     81  C   ALA d   1      16.041 -16.126  -8.168  0.00  0.00     0.243 C 
ATOM     82  O   ALA d   1      15.254 -15.519  -7.434  0.00  0.00    -0.271 OA
ATOM     83  H19 ALA d   1      17.473 -17.540  -8.345  0.00  0.00     0.163 HD
BRANCH  81  84
ATOM     84  CA  ALA d   1      16.143 -15.798  -9.645  0.00  0.00     0.110 C 
ATOM     85  H16 ALA d   1      15.823 -16.691 -10.202  0.00  0.00     0.090 H 
BRANCH  84  86
ATOM     86  N   ALA d   1      15.218 -14.728  -9.956  0.00  0.00    -0.344 N 
ATOM     87  C   ALA d   1      14.159 -14.947 -10.718  0.00  0.00     0.241 C 
ATOM     88  O   ALA d   1      13.996 -15.997 -11.319  0.00  0.00    -0.271 OA
ATOM     89  H15 ALA d   1      15.382 -13.812  -9.590  0.00  0.00     0.163 HD
BRANCH  87  90
ATOM     90  CA  ALA d   1      13.134 -13.841 -10.809  0.00  0.00     0.094 C 
ATOM     91  H9  ALA d   1      13.545 -12.924 -10.362  0.00  0.00     0.088 H 
BRANCH  90  92
ATOM     92  N   ALA d   1      12.777 -13.587 -12.189  0.00  0.00    -0.346 N 
ATOM     93  C   ALA d   1      13.501 -12.811 -12.978  0.00  0.00     0.248 C 
ATOM     94  O   ALA d   1      14.478 -12.168 -12.586  0.00  0.00    -0.271 OA
ATOM     95  H8  ALA d   1      11.952 -14.014 -12.559  0.00  0.00     0.163 HD
BRANCH  93  96
ATOM     96  CA  ALA d   1      13.027 -12.742 -14.428  0.00  0.00     0.172 C 
ATOM     97  H4  ALA d   1      11.927 -12.762 -14.439  0.00  0.00     0.098 H 
BRANCH  96  98
ATOM     98  N   ALA d   1      13.481 -11.511 -15.046  0.00  0.00    -0.067 N 
ATOM     99  H1  ALA d   1      13.162 -11.477 -16.002  0.00  0.00     0.275 HD
ATOM    100  H2  ALA d   1      14.488 -11.477 -15.027  0.00  0.00     0.275 HD
ATOM    101  H3  ALA d   1      13.108 -10.723 -14.540  0.00  0.00     0.275 HD
ENDBRANCH  96  98
BRANCH  96 102
ATOM    102  CB  ALA d   1      13.541 -13.917 -15.218  0.00  0.00    -0.042 C 
ATOM    103  H5  ALA d   1      13.197 -14.852 -14.751  0.00  0.00     0.030 H 
ATOM    104  H6  ALA d   1      14.641 -13.897 -15.232  0.00  0.00     0.030 H 
ATOM    105  H7  ALA d   1      13.160 -13.861 -16.248  0.00  0.00     0.030 H 
ENDBRANCH  96 102
ENDBRANCH  93  96
ENDBRANCH  90  92
BRANCH  90 106
ATOM    106  CB  ALA d   1      11.889 -14.268 -10.054  0.00  0.00     0.002 C 
ATOM    107  H10 ALA d   1      12.152 -14.409  -8.995  0.00  0.00     0.046 H 
ATOM    108  H11 ALA d   1      11.534 -15.221 -10.474  0.00  0.00     0.046 H 
BRANCH 106 109
ATOM    109  CG  ALA d   1      10.782 -13.267 -10.141  0.00  0.00     0.030 A 
ATOM    110  ND1 ALA d   1      10.748 -12.138  -9.351  0.00  0.00    -0.353 N 
ATOM    111  CE1 ALA d   1       9.673 -11.427  -9.648  0.00  0.00     0.063 A 
ATOM    112  H12 ALA d   1      11.450 -11.887  -8.640  0.00  0.00     0.166 HD
ATOM    113  NE2 ALA d   1       9.028 -12.038 -10.624  0.00  0.00    -0.254 NA
ATOM    114  H14 ALA d   1       9.372 -10.496  -9.169  0.00  0.00     0.143 H 
ATOM    115  CD2 ALA d   1       9.702 -13.189 -10.956  0.00  0.00     0.025 A 
ATOM    116  H13 ALA d   1       9.421 -13.903 -11.728  0.00  0.00     0.117 H 
ENDBRANCH 106 109
ENDBRANCH  90 106
ENDBRANCH  87  90
ENDBRANCH  84  86
BRANCH  84 117
ATOM    117  CB  ALA d   1      17.566 -15.474 -10.108  0.00  0.00     0.059 C 
ATOM    118  H17 ALA d   1      17.584 -15.357 -11.202  0.00  0.00     0.079 H 
ATOM    119  H18 ALA d   1      18.247 -16.287  -9.815  0.00  0.00     0.079 H 
BRANCH 117 120
ATOM    120  OG  ALA d   1      17.971 -14.260  -9.487  0.00  0.00    -0.280 OA
BRANCH 120 121
ATOM    121  P   ALA d   1      19.430 -13.700  -9.872  0.00  0.00     0.422 P 
ATOM    122  O1P ALA d   1      19.455 -13.347 -11.374  0.00  0.00    -0.617 OA
ATOM    123  O2P ALA d   1      19.592 -12.470  -8.967  0.00  0.00    -0.617 OA
ATOM    124  O3P ALA d   1      20.478 -14.828  -9.584  0.00  0.00    -0.617 OA
ENDBRANCH 120 121
ENDBRANCH 117 120
ENDBRANCH  84 117
ENDBRANCH  81  84
ENDBRANCH  78  80
BRANCH  78 125
ATOM    125  CB  ALA d   1      17.386 -18.940  -6.201  0.00  0.00     0.044 C 
ATOM    126  H21 ALA d   1      17.232 -19.590  -7.075  0.00  0.00     0.077 H 
ATOM    127  H22 ALA d   1      17.020 -19.449  -5.297  0.00  0.00     0.077 H 
BRANCH 125 128
ATOM    128  OG  ALA d   1      18.768 -18.679  -6.057  0.00  0.00    -0.398 OA
ATOM    129  H23 ALA d   1      18.907 -18.121  -5.301  0.00  0.00     0.209 HD
ENDBRANCH 125 128
ENDBRANCH  78 125
ENDBRANCH   1  78
TORSDOF 36
