REMARK  5 active torsions:
REMARK  status: ('A' for Active; 'I' for Inactive)
REMARK    1  A    between atoms: N11_14  and  C10_1 
REMARK    2  A    between atoms: C12_12  and  C13_2 
REMARK    3  A    between atoms: C17_3  and  C18_13 
REMARK       I    between atoms: N16_16  and  C17_3 
REMARK    4  A    between atoms: C02_5  and  C01_4 
REMARK    5  A    between atoms: C02_5  and  C03_6 
REMARK       I    between atoms: C12_12  and  N11_14 
ROOT
ATOM      1  C10 EOK d   1      10.073  17.940  -0.502  0.00  0.00     0.238 C 
ATOM      2  C17 EOK d   1       9.197  16.621   2.970  0.00  0.00     0.241 C 
ATOM      3  C02 EOK d   1      11.453  17.022   1.455  0.00  0.00     0.138 C 
ATOM      4  N15 EOK d   1       9.138  17.390   0.515  0.00  0.00     0.041 N 
ATOM      5  N16 EOK d   1       9.910  16.996   1.777  0.00  0.00    -0.153 N 
ATOM      6  O19 EOK d   1       9.745  16.298   3.971  0.00  0.00    -0.272 OA
ATOM      7  S09 EOK d   1      11.660  17.917   0.109  0.00  0.00    -0.075 SA
ATOM      8  H1  EOK d   1       9.967  18.980  -0.159  0.00  0.00     0.140 H 
ATOM      9  H17 EOK d   1       8.676  16.577   0.139  0.00  0.00     0.310 HD
ATOM     10  H18 EOK d   1       8.450  18.089   0.749  0.00  0.00     0.310 HD
ENDROOT
BRANCH   3  11
ATOM     11  C01 EOK d   1      11.910  15.577   1.276  0.00  0.00    -0.038 C 
ATOM     12  H5  EOK d   1      12.986  15.558   1.049  0.00  0.00     0.032 H 
ATOM     13  H6  EOK d   1      11.353  15.116   0.447  0.00  0.00     0.032 H 
ATOM     14  H7  EOK d   1      11.721  15.015   2.203  0.00  0.00     0.032 H 
ENDBRANCH   3  11
BRANCH   3  15
ATOM     15  C03 EOK d   1      12.234  17.639   2.663  0.00  0.00    -0.018 A 
ATOM     16  C04 EOK d   1      11.832  18.850   3.177  0.00  0.00    -0.074 A 
ATOM     17  C05 EOK d   1      12.543  19.396   4.233  0.00  0.00    -0.082 A 
ATOM     18  H8  EOK d   1      10.974  19.368   2.763  0.00  0.00     0.084 H 
ATOM     19  C06 EOK d   1      13.672  18.789   4.758  0.00  0.00    -0.083 A 
ATOM     20  H9  EOK d   1      12.204  20.331   4.664  0.00  0.00     0.083 H 
ATOM     21  C07 EOK d   1      14.057  17.545   4.229  0.00  0.00    -0.082 A 
ATOM     22  H10 EOK d   1      14.241  19.259   5.552  0.00  0.00     0.083 H 
ATOM     23  C08 EOK d   1      13.354  17.003   3.177  0.00  0.00    -0.074 A 
ATOM     24  H11 EOK d   1      14.904  17.014   4.648  0.00  0.00     0.083 H 
ATOM     25  H12 EOK d   1      13.681  16.065   2.744  0.00  0.00     0.084 H 
ENDBRANCH   3  15
BRANCH   2  26
ATOM     26  C18 EOK d   1       7.668  16.701   2.886  0.00  0.00    -0.001 C 
ATOM     27  H13 EOK d   1       7.231  16.394   3.848  0.00  0.00     0.040 H 
ATOM     28  H14 EOK d   1       7.309  16.032   2.090  0.00  0.00     0.040 H 
ATOM     29  H15 EOK d   1       7.367  17.735   2.660  0.00  0.00     0.040 H 
ENDBRANCH   2  26
BRANCH   1  30
ATOM     30  N11 EOK d   1       9.430  18.316  -1.738  0.00  0.00    -0.324 N 
ATOM     31  C12 EOK d   1      10.155  18.860  -2.838  0.00  0.00     0.215 C 
ATOM     32  O14 EOK d   1      11.325  19.010  -2.720  0.00  0.00    -0.274 OA
ATOM     33  H16 EOK d   1       8.442  18.191  -1.826  0.00  0.00     0.165 HD
BRANCH  31  34
ATOM     34  C13 EOK d   1       9.375  19.232  -4.100  0.00  0.00    -0.003 C 
ATOM     35  H2  EOK d   1      10.068  19.635  -4.854  0.00  0.00     0.040 H 
ATOM     36  H3  EOK d   1       8.619  19.992  -3.853  0.00  0.00     0.040 H 
ATOM     37  H4  EOK d   1       8.878  18.337  -4.501  0.00  0.00     0.040 H 
ENDBRANCH  31  34
ENDBRANCH   1  30
TORSDOF 5
