REMARK  5 active torsions:
REMARK  status: ('A' for Active; 'I' for Inactive)
REMARK    1  A    between atoms: N11_14  and  C10_1 
REMARK    2  A    between atoms: C12_12  and  C13_2 
REMARK    3  A    between atoms: C17_3  and  C18_13 
REMARK       I    between atoms: N16_16  and  C17_3 
REMARK    4  A    between atoms: C02_5  and  C01_4 
REMARK    5  A    between atoms: C02_5  and  C03_6 
REMARK       I    between atoms: C12_12  and  N11_14 
ROOT
ATOM      1  C10 EOK d   1     -16.751 -24.140   6.222  0.00  0.00     0.238 C 
ATOM      2  C17 EOK d   1     -18.905 -21.401   8.098  0.00  0.00     0.241 C 
ATOM      3  C02 EOK d   1     -19.245 -23.884   6.981  0.00  0.00     0.138 C 
ATOM      4  N15 EOK d   1     -16.976 -22.734   6.803  0.00  0.00     0.041 N 
ATOM      5  N16 EOK d   1     -18.423 -22.579   7.378  0.00  0.00    -0.153 N 
ATOM      6  O19 EOK d   1     -20.025 -21.339   8.481  0.00  0.00    -0.272 OA
ATOM      7  S09 EOK d   1     -18.186 -25.006   6.471  0.00  0.00    -0.075 SA
ATOM      8  H1  EOK d   1     -16.344 -24.519   7.171  0.00  0.00     0.140 H 
ATOM      9  H17 EOK d   1     -16.838 -22.052   6.074  0.00  0.00     0.310 HD
ATOM     10  H18 EOK d   1     -16.310 -22.574   7.543  0.00  0.00     0.310 HD
ENDROOT
BRANCH   3  11
ATOM     11  C01 EOK d   1     -20.197 -23.501   5.851  0.00  0.00    -0.038 C 
ATOM     12  H5  EOK d   1     -20.783 -24.382   5.551  0.00  0.00     0.032 H 
ATOM     13  H6  EOK d   1     -19.617 -23.136   4.991  0.00  0.00     0.032 H 
ATOM     14  H7  EOK d   1     -20.877 -22.709   6.197  0.00  0.00     0.032 H 
ENDBRANCH   3  11
BRANCH   3  15
ATOM     15  C03 EOK d   1     -20.141 -24.330   8.214  0.00  0.00    -0.018 A 
ATOM     16  C04 EOK d   1     -19.599 -24.478   9.482  0.00  0.00    -0.074 A 
ATOM     17  C05 EOK d   1     -20.375 -24.842  10.562  0.00  0.00    -0.082 A 
ATOM     18  H8  EOK d   1     -18.539 -24.303   9.628  0.00  0.00     0.084 H 
ATOM     19  C06 EOK d   1     -21.716 -25.076  10.370  0.00  0.00    -0.083 A 
ATOM     20  H9  EOK d   1     -19.934 -24.942  11.547  0.00  0.00     0.083 H 
ATOM     21  C07 EOK d   1     -22.276 -24.912   9.117  0.00  0.00    -0.082 A 
ATOM     22  H10 EOK d   1     -22.335 -25.390  11.203  0.00  0.00     0.083 H 
ATOM     23  C08 EOK d   1     -21.490 -24.546   8.036  0.00  0.00    -0.074 A 
ATOM     24  H11 EOK d   1     -23.339 -25.071   8.979  0.00  0.00     0.083 H 
ATOM     25  H12 EOK d   1     -21.935 -24.430   7.054  0.00  0.00     0.084 H 
ENDBRANCH   3  15
BRANCH   2  26
ATOM     26  C18 EOK d   1     -17.986 -20.211   8.391  0.00  0.00    -0.001 C 
ATOM     27  H13 EOK d   1     -18.548 -19.440   8.938  0.00  0.00     0.040 H 
ATOM     28  H14 EOK d   1     -17.616 -19.792   7.444  0.00  0.00     0.040 H 
ATOM     29  H15 EOK d   1     -17.135 -20.547   9.001  0.00  0.00     0.040 H 
ENDBRANCH   2  26
BRANCH   1  30
ATOM     30  N11 EOK d   1     -15.469 -24.541   5.583  0.00  0.00    -0.324 N 
ATOM     31  C12 EOK d   1     -15.238 -25.870   5.044  0.00  0.00     0.215 C 
ATOM     32  O14 EOK d   1     -16.105 -26.667   5.110  0.00  0.00    -0.274 OA
ATOM     33  H16 EOK d   1     -14.734 -23.866   5.522  0.00  0.00     0.165 HD
BRANCH  31  34
ATOM     34  C13 EOK d   1     -13.907 -26.261   4.393  0.00  0.00    -0.003 C 
ATOM     35  H2  EOK d   1     -13.956 -27.308   4.059  0.00  0.00     0.040 H 
ATOM     36  H3  EOK d   1     -13.094 -26.148   5.125  0.00  0.00     0.040 H 
ATOM     37  H4  EOK d   1     -13.716 -25.608   3.528  0.00  0.00     0.040 H 
ENDBRANCH  31  34
ENDBRANCH   1  30
TORSDOF 5
