REMARK  17 active torsions:
REMARK  status: ('A' for Active; 'I' for Inactive)
REMARK    1  A    between atoms: C4_1  and  C5_2 
REMARK    2  A    between atoms: C4_1  and  C1_10 
REMARK    3  A    between atoms: C9_12  and  C4_1 
REMARK    4  A    between atoms: C5_2  and  C6_3 
REMARK    5  A    between atoms: C5_2  and  C7_4 
REMARK    6  A    between atoms: C15_5  and  C17_6 
REMARK    7  A    between atoms: C14_17  and  C15_5 
REMARK    8  A    between atoms: C15_5  and  C16_18 
REMARK    9  A    between atoms: C21_7  and  C22_8 
REMARK   10  A    between atoms: N20_21  and  C21_7 
REMARK   11  A    between atoms: C21_7  and  C25_22 
REMARK   12  A    between atoms: C22_8  and  C24_9 
REMARK   13  A    between atoms: C22_8  and  C23_25 
REMARK   14  A    between atoms: C9_12  and  O10_13 
REMARK   15  A    between atoms: C11_14  and  C9_12 
REMARK       I    between atoms: N13_16  and  C11_14 
REMARK   16  A    between atoms: C14_17  and  N13_16 
REMARK   17  A    between atoms: C18_19  and  C14_17 
REMARK       I    between atoms: C18_19  and  N20_21 
ROOT
ATOM      1  C14 EPW d   1      60.671-140.318  42.063  0.00  0.00     0.092 C 
ATOM      2  H22 EPW d   1      59.888-140.122  41.316  0.00  0.00     0.088 H 
ENDROOT
BRANCH   1   3
ATOM      3  C15 EPW d   1      61.201-141.714  41.946  0.00  0.00    -0.033 C 
ATOM      4  H9  EPW d   1      61.922-141.909  42.753  0.00  0.00     0.042 H 
BRANCH   3   5
ATOM      5  C17 EPW d   1      61.890-141.868  40.608  0.00  0.00    -0.071 C 
ATOM      6  H10 EPW d   1      62.283-142.891  40.513  0.00  0.00     0.028 H 
ATOM      7  H11 EPW d   1      62.719-141.149  40.538  0.00  0.00     0.028 H 
ATOM      8  H12 EPW d   1      61.169-141.676  39.800  0.00  0.00     0.028 H 
ENDBRANCH   3   5
BRANCH   3   9
ATOM      9  C16 EPW d   1      60.038-142.675  42.063  0.00  0.00    -0.071 C 
ATOM     10  H23 EPW d   1      60.406-143.708  41.980  0.00  0.00     0.028 H 
ATOM     11  H24 EPW d   1      59.316-142.477  41.257  0.00  0.00     0.028 H 
ATOM     12  H25 EPW d   1      59.546-142.539  43.038  0.00  0.00     0.028 H 
ENDBRANCH   3   9
ENDBRANCH   1   3
BRANCH   1  13
ATOM     13  N13 EPW d   1      61.778-139.404  41.919  0.00  0.00    -0.345 N 
ATOM     14  C11 EPW d   1      61.650-138.370  41.124  0.00  0.00     0.247 C 
ATOM     15  O12 EPW d   1      60.621-138.139  40.510  0.00  0.00    -0.271 OA
ATOM     16  H21 EPW d   1      62.631-139.557  42.419  0.00  0.00     0.163 HD
BRANCH  14  17
ATOM     17  C9  EPW d   1      62.844-137.450  41.015  0.00  0.00     0.122 C 
ATOM     18  H19 EPW d   1      62.970-137.118  39.974  0.00  0.00     0.099 H 
BRANCH  17  19
ATOM     19  C4  EPW d   1      62.603-136.281  41.928  0.00  0.00     0.033 C 
ATOM     20  H1  EPW d   1      61.657-135.798  41.643  0.00  0.00     0.056 H 
BRANCH  19  21
ATOM     21  C5  EPW d   1      63.716-135.312  41.791  0.00  0.00    -0.049 C 
ATOM     22  H2  EPW d   1      64.651-135.660  42.254  0.00  0.00     0.040 H 
BRANCH  21  23
ATOM     23  C6  EPW d   1      63.168-134.066  42.408  0.00  0.00    -0.072 C 
ATOM     24  H3  EPW d   1      63.925-133.269  42.359  0.00  0.00     0.028 H 
ATOM     25  H4  EPW d   1      62.908-134.261  43.459  0.00  0.00     0.028 H 
ATOM     26  H5  EPW d   1      62.268-133.751  41.860  0.00  0.00     0.028 H 
ENDBRANCH  21  23
BRANCH  21  27
ATOM     27  C7  EPW d   1      63.872-134.996  40.343  0.00  0.00    -0.072 C 
ATOM     28  H6  EPW d   1      64.275-135.874  39.817  0.00  0.00     0.028 H 
ATOM     29  H7  EPW d   1      64.564-134.149  40.225  0.00  0.00     0.028 H 
ATOM     30  H8  EPW d   1      62.893-134.732  39.918  0.00  0.00     0.028 H 
ENDBRANCH  21  27
ENDBRANCH  19  21
BRANCH  19  31
ATOM     31  C1  EPW d   1      62.523-136.703  43.371  0.00  0.00     0.095 C 
ATOM     32  O3  EPW d   1      61.582-136.410  44.088  0.00  0.00    -0.306 OA
ATOM     33  H18 EPW d   1      63.337-137.293  43.790  0.00  0.00     0.144 H 
ENDBRANCH  19  31
ENDBRANCH  17  19
BRANCH  17  34
ATOM     34  O10 EPW d   1      64.008-138.073  41.469  0.00  0.00    -0.385 OA
ATOM     35  H20 EPW d   1      63.882-138.362  42.365  0.00  0.00     0.210 HD
ENDBRANCH  17  34
ENDBRANCH  14  17
ENDBRANCH   1  13
BRANCH   1  36
ATOM     36  C18 EPW d   1      60.157-140.163  43.449  0.00  0.00     0.241 C 
ATOM     37  O19 EPW d   1      60.906-140.226  44.393  0.00  0.00    -0.271 OA
ATOM     38  N20 EPW d   1      58.884-139.950  43.577  0.00  0.00    -0.344 N 
ATOM     39  H26 EPW d   1      58.287-139.894  42.777  0.00  0.00     0.163 HD
BRANCH  38  40
ATOM     40  C21 EPW d   1      58.357-139.796  44.912  0.00  0.00     0.099 C 
ATOM     41  H13 EPW d   1      59.181-139.817  45.641  0.00  0.00     0.090 H 
BRANCH  40  42
ATOM     42  C22 EPW d   1      57.579-138.526  45.053  0.00  0.00    -0.032 C 
ATOM     43  H14 EPW d   1      58.167-137.648  44.749  0.00  0.00     0.042 H 
BRANCH  42  44
ATOM     44  C24 EPW d   1      56.334-138.685  44.226  0.00  0.00    -0.071 C 
ATOM     45  H15 EPW d   1      55.726-137.771  44.299  0.00  0.00     0.028 H 
ATOM     46  H16 EPW d   1      55.753-139.542  44.598  0.00  0.00     0.028 H 
ATOM     47  H17 EPW d   1      56.611-138.858  43.176  0.00  0.00     0.028 H 
ENDBRANCH  42  44
BRANCH  42  48
ATOM     48  C23 EPW d   1      57.133-138.435  46.485  0.00  0.00    -0.071 C 
ATOM     49  H27 EPW d   1      58.012-138.317  47.136  0.00  0.00     0.028 H 
ATOM     50  H28 EPW d   1      56.594-139.353  46.760  0.00  0.00     0.028 H 
ATOM     51  H29 EPW d   1      56.467-137.568  46.607  0.00  0.00     0.028 H 
ENDBRANCH  42  48
ENDBRANCH  40  42
BRANCH  40  52
ATOM     52  C25 EPW d   1      57.394-140.912  45.167  0.00  0.00     0.197 C 
ATOM     53  O26 EPW d   1      56.752-141.353  44.202  0.00  0.00    -0.646 OA
ATOM     54  O27 EPW d   1      57.293-141.285  46.341  0.00  0.00    -0.646 OA
ENDBRANCH  40  52
ENDBRANCH  38  40
ENDBRANCH   1  36
TORSDOF 17
