REMARK  24 active torsions:
REMARK  status: ('A' for Active; 'I' for Inactive)
REMARK    1  A    between atoms: N_1  and  CA_2 
REMARK    2  A    between atoms: CA_2  and  C_3 
REMARK    3  A    between atoms: CA_2  and  CB_5 
REMARK       I    between atoms: C_3  and  N_8 
REMARK    4  A    between atoms: CB_5  and  CG1_6 
REMARK    5  A    between atoms: CB_5  and  CG2_7 
REMARK    6  A    between atoms: CA_9  and  C_10 
REMARK       I    between atoms: C_10  and  N_15 
REMARK    7  A    between atoms: N_15  and  CA_16 
REMARK    8  A    between atoms: CA_16  and  C_17 
REMARK    9  A    between atoms: CA_16  and  CB_19 
REMARK       I    between atoms: C_17  and  N_20 
REMARK   10  A    between atoms: N_20  and  CA_21 
REMARK   11  A    between atoms: CA_21  and  C_22 
REMARK   12  A    between atoms: CA_21  and  CB_24 
REMARK       I    between atoms: C_22  and  N_28 
REMARK   13  A    between atoms: CB_24  and  CG_25 
REMARK   14  A    between atoms: CG_25  and  CD1_26 
REMARK   15  A    between atoms: CG_25  and  CD2_27 
REMARK   16  A    between atoms: N_28  and  CA_29 
REMARK   17  A    between atoms: CA_29  and  C_30 
REMARK   18  A    between atoms: CA_29  and  CB_32 
REMARK       I    between atoms: C_30  and  N_33 
REMARK   19  A    between atoms: N_33  and  CA_34 
REMARK   20  A    between atoms: CA_34  and  C_35 
REMARK   21  A    between atoms: CA_34  and  CB_37 
REMARK       I    between atoms: C_35  and  N_45 
REMARK   22  A    between atoms: CB_37  and  CG_38 
REMARK   23  A    between atoms: CZ_43  and  OH_44 
REMARK   24  A    between atoms: CA_46  and  C_47 
ROOT
ATOM      1  CA  LEU d   1      17.251 -60.056  10.937  0.00  0.00     0.089 C 
ATOM      2  H25 LEU d   1      16.482 -60.642  10.412  0.00  0.00     0.087 H 
ENDROOT
BRANCH   1   3
ATOM      3  N   LEU d   1      17.846 -60.904  11.963  0.00  0.00    -0.346 N 
ATOM      4  C   ALA d   1      17.382 -62.114  12.267  0.00  0.00     0.240 C 
ATOM      5  O   ALA d   1      16.394 -62.605  11.716  0.00  0.00    -0.271 OA
ATOM      6  H24 LEU d   1      18.641 -60.560  12.463  0.00  0.00     0.163 HD
BRANCH   4   7
ATOM      7  CA  ALA d   1      18.138 -62.876  13.347  0.00  0.00     0.086 C 
ATOM      8  H20 ALA d   1      19.141 -62.436  13.454  0.00  0.00     0.086 H 
BRANCH   7   9
ATOM      9  N   ALA d   1      17.420 -62.733  14.612  0.00  0.00    -0.346 N 
ATOM     10  C   PRO d   1      17.463 -61.613  15.329  0.00  0.00     0.241 C 
ATOM     11  O   PRO d   1      18.098 -60.614  14.981  0.00  0.00    -0.271 OA
ATOM     12  H19 ALA d   1      16.878 -63.503  14.950  0.00  0.00     0.163 HD
BRANCH  10  13
ATOM     13  CA  PRO d   1      16.665 -61.642  16.623  0.00  0.00     0.091 C 
ATOM     14  N   PRO d   1      17.317 -60.861  17.678  0.00  0.00    -0.337 N 
ATOM     15  C   VAL d   1      18.498 -61.242  18.160  0.00  0.00     0.251 C 
ATOM     16  CD  PRO d   1      16.462 -59.765  18.163  0.00  0.00    -0.001 C 
ATOM     17  O   VAL d   1      19.083 -62.253  17.771  0.00  0.00    -0.271 OA
ATOM     18  CG  PRO d   1      15.097 -60.199  17.731  0.00  0.00    -0.048 C 
ATOM     19  H17 PRO d   1      16.740 -58.808  17.697  0.00  0.00     0.064 H 
ATOM     20  H18 PRO d   1      16.521 -59.670  19.257  0.00  0.00     0.064 H 
ATOM     21  CB  PRO d   1      15.307 -60.950  16.453  0.00  0.00    -0.036 C 
ATOM     22  H15 PRO d   1      14.642 -60.851  18.491  0.00  0.00     0.035 H 
ATOM     23  H16 PRO d   1      14.450 -59.325  17.563  0.00  0.00     0.035 H 
ATOM     24  H13 PRO d   1      14.509 -61.693  16.305  0.00  0.00     0.036 H 
ATOM     25  H14 PRO d   1      15.329 -60.260  15.597  0.00  0.00     0.036 H 
ATOM     26  H12 PRO d   1      16.532 -62.687  16.941  0.00  0.00     0.087 H 
BRANCH  15  27
ATOM     27  CA  VAL d   1      19.110 -60.361  19.243  0.00  0.00     0.178 C 
ATOM     28  H4  VAL d   1      18.466 -59.479  19.375  0.00  0.00     0.099 H 
BRANCH  27  29
ATOM     29  N   VAL d   1      19.162 -61.079  20.511  0.00  0.00    -0.066 N 
ATOM     30  H1  VAL d   1      18.235 -61.386  20.762  0.00  0.00     0.275 HD
ATOM     31  H2  VAL d   1      19.519 -60.468  21.229  0.00  0.00     0.275 HD
ATOM     32  H3  VAL d   1      19.768 -61.880  20.419  0.00  0.00     0.275 HD
ENDBRANCH  27  29
BRANCH  27  33
ATOM     33  CB  VAL d   1      20.507 -59.873  18.821  0.00  0.00    -0.025 C 
ATOM     34  H5  VAL d   1      21.162 -60.749  18.706  0.00  0.00     0.042 H 
BRANCH  33  35
ATOM     35  CG1 VAL d   1      20.433 -59.150  17.485  0.00  0.00    -0.071 C 
ATOM     36  H6  VAL d   1      21.438 -58.808  17.197  0.00  0.00     0.028 H 
ATOM     37  H7  VAL d   1      19.762 -58.283  17.574  0.00  0.00     0.028 H 
ATOM     38  H8  VAL d   1      20.046 -59.836  16.718  0.00  0.00     0.028 H 
ENDBRANCH  33  35
BRANCH  33  39
ATOM     39  CG2 VAL d   1      21.099 -58.969  19.892  0.00  0.00    -0.071 C 
ATOM     40  H9  VAL d   1      21.142 -59.512  20.847  0.00  0.00     0.028 H 
ATOM     41  H10 VAL d   1      20.468 -58.075  20.007  0.00  0.00     0.028 H 
ATOM     42  H11 VAL d   1      22.114 -58.666  19.596  0.00  0.00     0.028 H 
ENDBRANCH  33  39
ENDBRANCH  27  33
ENDBRANCH  15  27
ENDBRANCH  10  13
ENDBRANCH   7   9
BRANCH   7  43
ATOM     43  CB  ALA d   1      18.295 -64.348  12.982  0.00  0.00    -0.049 C 
ATOM     44  H21 ALA d   1      18.837 -64.433  12.029  0.00  0.00     0.030 H 
ATOM     45  H22 ALA d   1      17.301 -64.809  12.882  0.00  0.00     0.030 H 
ATOM     46  H23 ALA d   1      18.860 -64.864  13.773  0.00  0.00     0.030 H 
ENDBRANCH   7  43
ENDBRANCH   4   7
ENDBRANCH   1   3
BRANCH   1  47
ATOM     47  C   LEU d   1      18.301 -59.630   9.922  0.00  0.00     0.241 C 
ATOM     48  O   LEU d   1      18.303 -58.494   9.439  0.00  0.00    -0.271 OA
ATOM     49  N   ASN d   1      19.213 -60.538   9.585  0.00  0.00    -0.346 N 
ATOM     50  H35 ASN d   1      19.186 -61.444  10.007  0.00  0.00     0.163 HD
BRANCH  49  51
ATOM     51  CA  ASN d   1      20.248 -60.232   8.613  0.00  0.00     0.086 C 
ATOM     52  H36 ASN d   1      20.697 -59.263   8.876  0.00  0.00     0.086 H 
BRANCH  51  53
ATOM     53  C   ASN d   1      19.652 -60.126   7.212  0.00  0.00     0.240 C 
ATOM     54  O   ASN d   1      18.571 -60.649   6.923  0.00  0.00    -0.271 OA
ATOM     55  N   TYR d   1      20.373 -59.436   6.337  0.00  0.00    -0.346 N 
ATOM     56  H40 TYR d   1      21.253 -59.052   6.617  0.00  0.00     0.163 HD
BRANCH  55  57
ATOM     57  CA  TYR d   1      19.899 -59.231   4.973  0.00  0.00     0.093 C 
ATOM     58  H41 TYR d   1      18.833 -58.962   5.007  0.00  0.00     0.088 H 
BRANCH  57  59
ATOM     59  C   TYR d   1      20.055 -60.518   4.170  0.00  0.00     0.243 C 
ATOM     60  O   TYR d   1      21.156 -61.076   4.117  0.00  0.00    -0.271 OA
ATOM     61  N   PRO d   1      18.977 -61.028   3.550  0.00  0.00    -0.336 N 
ATOM     62  CA  PRO d   1      18.941 -62.236   2.716  0.00  0.00     0.098 C 
ATOM     63  CD  PRO d   1      17.624 -60.508   3.808  0.00  0.00    -0.001 C 
ATOM     64  CB  PRO d   1      17.651 -62.062   1.908  0.00  0.00    -0.035 C 
ATOM     65  H49 PRO d   1      18.887 -63.132   3.352  0.00  0.00     0.089 H 
ATOM     66  CG  PRO d   1      16.804 -61.092   2.692  0.00  0.00    -0.048 C 
ATOM     67  H50 PRO d   1      17.132 -63.026   1.803  0.00  0.00     0.036 H 
ATOM     68  H51 PRO d   1      17.875 -61.656   0.911  0.00  0.00     0.036 H 
ATOM     69  H52 PRO d   1      15.934 -61.619   3.112  0.00  0.00     0.035 H 
ATOM     70  H53 PRO d   1      16.459 -60.285   2.028  0.00  0.00     0.035 H 
ATOM     71  H54 PRO d   1      17.612 -59.409   3.771  0.00  0.00     0.064 H 
ATOM     72  H55 PRO d   1      17.253 -60.846   4.787  0.00  0.00     0.064 H 
BRANCH  62  73
ATOM     73  C   PRO d   1      20.137 -62.375   1.776  0.00  0.00     0.196 C 
ATOM     74  O   PRO d   1      20.352 -61.494   0.943  0.00  0.00    -0.646 OA
ATOM     75  OXT PRO d   1      20.863 -63.365   1.870  0.00  0.00    -0.646 OA
ENDBRANCH  62  73
ENDBRANCH  57  59
BRANCH  57  76
ATOM     76  CB  TYR d   1      20.666 -58.096   4.303  0.00  0.00    -0.014 C 
ATOM     77  H42 TYR d   1      21.694 -58.438   4.114  0.00  0.00     0.043 H 
ATOM     78  H43 TYR d   1      20.685 -57.238   4.991  0.00  0.00     0.043 H 
BRANCH  76  79
ATOM     79  CG  TYR d   1      20.068 -57.640   2.991  0.00  0.00    -0.056 A 
ATOM     80  CD1 TYR d   1      19.046 -56.700   2.963  0.00  0.00    -0.074 A 
ATOM     81  CE1 TYR d   1      18.495 -56.278   1.768  0.00  0.00    -0.051 A 
ATOM     82  H44 TYR d   1      18.674 -56.290   3.895  0.00  0.00     0.084 H 
ATOM     83  CZ  TYR d   1      18.965 -56.795   0.580  0.00  0.00     0.065 A 
ATOM     84  H46 TYR d   1      17.697 -55.544   1.765  0.00  0.00     0.087 H 
ATOM     85  CE2 TYR d   1      19.981 -57.729   0.579  0.00  0.00    -0.051 A 
ATOM     86  CD2 TYR d   1      20.526 -58.146   1.780  0.00  0.00    -0.074 A 
ATOM     87  H47 TYR d   1      20.349 -58.133  -0.357  0.00  0.00     0.087 H 
ATOM     88  H45 TYR d   1      21.324 -58.880   1.777  0.00  0.00     0.084 H 
BRANCH  83  89
ATOM     89  OH  TYR d   1      18.418 -56.375  -0.612  0.00  0.00    -0.361 OA
ATOM     90  H48 TYR d   1      17.736 -55.736  -0.439  0.00  0.00     0.217 HD
ENDBRANCH  83  89
ENDBRANCH  76  79
ENDBRANCH  57  76
ENDBRANCH  55  57
ENDBRANCH  51  53
BRANCH  51  91
ATOM     91  CB  ASN d   1      21.343 -61.299   8.641  0.00  0.00    -0.049 C 
ATOM     92  H37 ASN d   1      22.116 -61.050   7.899  0.00  0.00     0.030 H 
ATOM     93  H38 ASN d   1      20.906 -62.279   8.400  0.00  0.00     0.030 H 
ATOM     94  H39 ASN d   1      21.794 -61.335   9.643  0.00  0.00     0.030 H 
ENDBRANCH  51  91
ENDBRANCH  49  51
ENDBRANCH   1  47
BRANCH   1  95
ATOM     95  CB  LEU d   1      16.576 -58.836  11.559  0.00  0.00    -0.035 C 
ATOM     96  H26 LEU d   1      16.169 -58.227  10.739  0.00  0.00     0.037 H 
ATOM     97  H27 LEU d   1      17.349 -58.263  12.092  0.00  0.00     0.037 H 
BRANCH  95  98
ATOM     98  CG  LEU d   1      15.438 -59.104  12.545  0.00  0.00    -0.059 C 
ATOM     99  H28 LEU d   1      15.844 -59.673  13.394  0.00  0.00     0.038 H 
BRANCH  98 100
ATOM    100  CD1 LEU d   1      14.874 -57.795  13.075  0.00  0.00    -0.073 C 
ATOM    101  H29 LEU d   1      14.058 -58.007  13.781  0.00  0.00     0.028 H 
ATOM    102  H30 LEU d   1      14.487 -57.196  12.237  0.00  0.00     0.028 H 
ATOM    103  H31 LEU d   1      15.669 -57.235  13.590  0.00  0.00     0.028 H 
ENDBRANCH  98 100
BRANCH  98 104
ATOM    104  CD2 LEU d   1      14.347 -59.937  11.893  0.00  0.00    -0.073 C 
ATOM    105  H32 LEU d   1      14.778 -60.877  11.518  0.00  0.00     0.028 H 
ATOM    106  H33 LEU d   1      13.908 -59.375  11.055  0.00  0.00     0.028 H 
ATOM    107  H34 LEU d   1      13.565 -60.162  12.634  0.00  0.00     0.028 H 
ENDBRANCH  98 104
ENDBRANCH  95  98
ENDBRANCH   1  95
TORSDOF 24
