REMARK WARNING: 32 MAX_TORS EXCEEDED!!!
REMARK  38 active torsions:
REMARK  status: ('A' for Active; 'I' for Inactive)
REMARK    1  A    between atoms: N_1  and  CA_2 
REMARK    2  A    between atoms: CA_2  and  C_3 
REMARK    3  A    between atoms: CA_2  and  CB_5 
REMARK       I    between atoms: C_3  and  N_12 
REMARK    4  A    between atoms: CB_5  and  CG_6 
REMARK    5  A    between atoms: N_12  and  CA_13 
REMARK    6  A    between atoms: CA_13  and  C_14 
REMARK    7  A    between atoms: CA_13  and  CB_16 
REMARK       I    between atoms: C_14  and  N_19 
REMARK    8  A    between atoms: CB_16  and  OG1_17 
REMARK    9  A    between atoms: CB_16  and  CG2_18 
REMARK   10  A    between atoms: N_19  and  CA_20 
REMARK   11  A    between atoms: CA_20  and  C_21 
REMARK   12  A    between atoms: CA_20  and  CB_23 
REMARK       I    between atoms: C_21  and  N_27 
REMARK   13  A    between atoms: CB_23  and  CG_24 
REMARK   14  A    between atoms: N_27  and  CA_28 
REMARK   15  A    between atoms: CA_28  and  C_29 
REMARK   16  A    between atoms: CA_28  and  CB_31 
REMARK       I    between atoms: C_29  and  N_34 
REMARK   17  A    between atoms: CB_31  and  CG1_32 
REMARK   18  A    between atoms: CB_31  and  CG2_33 
REMARK   19  A    between atoms: CA_35  and  C_36 
REMARK       I    between atoms: C_36  and  N_41 
REMARK   20  A    between atoms: N_41  and  CA_42 
REMARK   21  A    between atoms: CA_42  and  C_43 
REMARK   22  A    between atoms: CA_42  and  CB_45 
REMARK       I    between atoms: C_43  and  N_46 
REMARK   23  A    between atoms: N_46  and  CA_47 
REMARK   24  A    between atoms: CA_47  and  C_48 
REMARK   25  A    between atoms: CA_47  and  CB_50 
REMARK       I    between atoms: C_48  and  N_54 
REMARK   26  A    between atoms: CB_50  and  CG_51 
REMARK   27  A    between atoms: CG_51  and  CD1_52 
REMARK   28  A    between atoms: CG_51  and  CD2_53 
REMARK   29  A    between atoms: N_54  and  CA_55 
REMARK   30  A    between atoms: CA_55  and  C_56 
REMARK   31  A    between atoms: CA_55  and  CB_58 
REMARK       I    between atoms: C_56  and  N_62 
REMARK   32  A    between atoms: CB_58  and  CG_59 
REMARK       I    between atoms: CG_59  and  ND2_61 
REMARK   33  A    between atoms: N_62  and  CA_63 
REMARK   34  A    between atoms: CA_63  and  C_64 
REMARK   35  A    between atoms: CA_63  and  CB_66 
REMARK       I    between atoms: C_64  and  N_74 
REMARK   36  A    between atoms: CB_66  and  CG_67 
REMARK   37  A    between atoms: CZ_72  and  OH_73 
REMARK   38  A    between atoms: CA_75  and  C_76 
ROOT
ATOM      1  C   PRO d   1      20.258  58.464  54.440  0.00  0.00     0.241 C 
ATOM      2  O   PRO d   1      20.220  57.736  53.461  0.00  0.00    -0.271 OA
ATOM      3  N   ALA d   1      20.257  59.804  54.347  0.00  0.00    -0.346 N 
ATOM      4  H39 ALA d   1      20.348  60.347  55.182  0.00  0.00     0.163 HD
ENDROOT
BRANCH   3   5
ATOM      5  CA  ALA d   1      20.127  60.500  53.057  0.00  0.00     0.086 C 
ATOM      6  H40 ALA d   1      19.435  59.934  52.417  0.00  0.00     0.086 H 
BRANCH   5   7
ATOM      7  C   ALA d   1      21.486  60.568  52.360  0.00  0.00     0.240 C 
ATOM      8  O   ALA d   1      22.250  61.512  52.545  0.00  0.00    -0.271 OA
ATOM      9  N   LEU d   1      21.799  59.559  51.504  0.00  0.00    -0.346 N 
ATOM     10  H44 LEU d   1      21.126  58.836  51.349  0.00  0.00     0.163 HD
BRANCH   9  11
ATOM     11  CA  LEU d   1      23.071  59.487  50.804  0.00  0.00     0.089 C 
ATOM     12  H45 LEU d   1      23.654  60.385  51.056  0.00  0.00     0.087 H 
BRANCH  11  13
ATOM     13  C   LEU d   1      22.859  59.456  49.291  0.00  0.00     0.241 C 
ATOM     14  O   LEU d   1      23.591  58.781  48.566  0.00  0.00    -0.271 OA
ATOM     15  N   ASN d   1      21.833  60.160  48.816  0.00  0.00    -0.346 N 
ATOM     16  H55 ASN d   1      21.259  60.684  49.445  0.00  0.00     0.163 HD
BRANCH  15  17
ATOM     17  CA  ASN d   1      21.538  60.175  47.389  0.00  0.00     0.097 C 
ATOM     18  H56 ASN d   1      21.526  59.137  47.026  0.00  0.00     0.088 H 
BRANCH  17  19
ATOM     19  C   ASN d   1      22.622  60.939  46.625  0.00  0.00     0.241 C 
ATOM     20  O   ASN d   1      23.310  61.812  47.164  0.00  0.00    -0.271 OA
ATOM     21  N   TYR d   1      22.791  60.581  45.336  0.00  0.00    -0.346 N 
ATOM     22  H61 TYR d   1      22.232  59.855  44.934  0.00  0.00     0.163 HD
BRANCH  21  23
ATOM     23  CA  TYR d   1      23.804  61.269  44.532  0.00  0.00     0.093 C 
ATOM     24  H62 TYR d   1      24.770  61.208  45.054  0.00  0.00     0.088 H 
BRANCH  23  25
ATOM     25  C   TYR d   1      23.415  62.733  44.375  0.00  0.00     0.243 C 
ATOM     26  O   TYR d   1      22.265  63.025  44.034  0.00  0.00    -0.271 OA
ATOM     27  N   PRO d   1      24.351  63.676  44.568  0.00  0.00    -0.336 N 
ATOM     28  CA  PRO d   1      24.108  65.128  44.601  0.00  0.00     0.098 C 
ATOM     29  CD  PRO d   1      25.785  63.339  44.667  0.00  0.00    -0.001 C 
ATOM     30  CB  PRO d   1      25.458  65.700  45.061  0.00  0.00    -0.035 C 
ATOM     31  H70 PRO d   1      23.319  65.361  45.331  0.00  0.00     0.089 H 
ATOM     32  CG  PRO d   1      26.484  64.674  44.703  0.00  0.00    -0.048 C 
ATOM     33  H71 PRO d   1      25.451  65.870  46.148  0.00  0.00     0.036 H 
ATOM     34  H72 PRO d   1      25.668  66.647  44.543  0.00  0.00     0.036 H 
ATOM     35  H73 PRO d   1      27.283  64.661  45.459  0.00  0.00     0.035 H 
ATOM     36  H74 PRO d   1      26.915  64.900  43.717  0.00  0.00     0.035 H 
ATOM     37  H75 PRO d   1      26.108  62.754  43.793  0.00  0.00     0.064 H 
ATOM     38  H76 PRO d   1      25.988  62.769  45.586  0.00  0.00     0.064 H 
BRANCH  28  39
ATOM     39  C   PRO d   1      23.707  65.717  43.243  0.00  0.00     0.196 C 
ATOM     40  O   PRO d   1      24.425  65.441  42.278  0.00  0.00    -0.646 OA
ATOM     41  OXT PRO d   1      22.696  66.424  43.215  0.00  0.00    -0.646 OA
ENDBRANCH  28  39
ENDBRANCH  23  25
BRANCH  23  42
ATOM     42  CB  TYR d   1      23.951  60.621  43.148  0.00  0.00    -0.014 C 
ATOM     43  H63 TYR d   1      23.118  60.960  42.515  0.00  0.00     0.043 H 
ATOM     44  H64 TYR d   1      23.900  59.529  43.268  0.00  0.00     0.043 H 
BRANCH  42  45
ATOM     45  CG  TYR d   1      25.255  60.967  42.452  0.00  0.00    -0.056 A 
ATOM     46  CD1 TYR d   1      26.426  60.271  42.762  0.00  0.00    -0.074 A 
ATOM     47  CE1 TYR d   1      27.640  60.579  42.128  0.00  0.00    -0.051 A 
ATOM     48  H65 TYR d   1      26.397  59.481  43.504  0.00  0.00     0.084 H 
ATOM     49  CZ  TYR d   1      27.669  61.560  41.157  0.00  0.00     0.065 A 
ATOM     50  H67 TYR d   1      28.547  60.051  42.399  0.00  0.00     0.087 H 
ATOM     51  CE2 TYR d   1      26.519  62.261  40.823  0.00  0.00    -0.051 A 
ATOM     52  CD2 TYR d   1      25.319  61.963  41.475  0.00  0.00    -0.074 A 
ATOM     53  H68 TYR d   1      26.551  63.033  40.063  0.00  0.00     0.087 H 
ATOM     54  H66 TYR d   1      24.422  62.515  41.218  0.00  0.00     0.084 H 
BRANCH  49  55
ATOM     55  OH  TYR d   1      28.863  61.848  40.531  0.00  0.00    -0.361 OA
ATOM     56  H69 TYR d   1      29.544  61.281  40.874  0.00  0.00     0.217 HD
ENDBRANCH  49  55
ENDBRANCH  42  45
ENDBRANCH  23  42
ENDBRANCH  21  23
ENDBRANCH  17  19
BRANCH  17  57
ATOM     57  CB  ASN d   1      20.148  60.792  47.137  0.00  0.00     0.036 C 
ATOM     58  H57 ASN d   1      20.105  61.146  46.096  0.00  0.00     0.051 H 
ATOM     59  H58 ASN d   1      20.013  61.644  47.820  0.00  0.00     0.051 H 
BRANCH  57  60
ATOM     60  CG  ASN d   1      19.000  59.795  47.364  0.00  0.00     0.217 C 
ATOM     61  OD1 ASN d   1      19.177  58.744  47.987  0.00  0.00    -0.274 OA
ATOM     62  ND2 ASN d   1      17.815  60.132  46.857  0.00  0.00    -0.370 N 
ATOM     63  H59 ASN d   1      17.030  59.523  46.973  0.00  0.00     0.159 HD
ATOM     64  H60 ASN d   1      17.710  60.994  46.361  0.00  0.00     0.159 HD
ENDBRANCH  57  60
ENDBRANCH  17  57
ENDBRANCH  15  17
ENDBRANCH  11  13
BRANCH  11  65
ATOM     65  CB  LEU d   1      23.867  58.256  51.238  0.00  0.00    -0.035 C 
ATOM     66  H46 LEU d   1      24.809  58.264  50.670  0.00  0.00     0.037 H 
ATOM     67  H47 LEU d   1      23.276  57.373  50.955  0.00  0.00     0.037 H 
BRANCH  65  68
ATOM     68  CG  LEU d   1      24.238  58.095  52.734  0.00  0.00    -0.059 C 
ATOM     69  H48 LEU d   1      23.322  58.110  53.343  0.00  0.00     0.038 H 
BRANCH  68  70
ATOM     70  CD1 LEU d   1      24.938  56.709  52.890  0.00  0.00    -0.073 C 
ATOM     71  H49 LEU d   1      25.218  56.556  53.943  0.00  0.00     0.028 H 
ATOM     72  H50 LEU d   1      25.841  56.682  52.263  0.00  0.00     0.028 H 
ATOM     73  H51 LEU d   1      24.248  55.912  52.575  0.00  0.00     0.028 H 
ENDBRANCH  68  70
BRANCH  68  74
ATOM     74  CD2 LEU d   1      25.133  59.223  53.183  0.00  0.00    -0.073 C 
ATOM     75  H52 LEU d   1      24.606  60.181  53.058  0.00  0.00     0.028 H 
ATOM     76  H53 LEU d   1      26.050  59.227  52.576  0.00  0.00     0.028 H 
ATOM     77  H54 LEU d   1      25.395  59.084  54.242  0.00  0.00     0.028 H 
ENDBRANCH  68  74
ENDBRANCH  65  68
ENDBRANCH  11  65
ENDBRANCH   9  11
ENDBRANCH   5   7
BRANCH   5  78
ATOM     78  CB  ALA d   1      19.546  61.902  53.284  0.00  0.00    -0.049 C 
ATOM     79  H41 ALA d   1      19.450  62.420  52.318  0.00  0.00     0.030 H 
ATOM     80  H42 ALA d   1      20.216  62.475  53.942  0.00  0.00     0.030 H 
ATOM     81  H43 ALA d   1      18.555  61.817  53.754  0.00  0.00     0.030 H 
ENDBRANCH   5  78
ENDBRANCH   3   5
BRANCH   1  82
ATOM     82  CA  PRO d   1      20.336  57.894  55.858  0.00  0.00     0.091 C 
ATOM     83  N   PRO d   1      19.641  56.598  55.965  0.00  0.00    -0.337 N 
ATOM     84  C   VAL d   1      18.332  56.520  55.748  0.00  0.00     0.243 C 
ATOM     85  CD  PRO d   1      20.533  55.497  56.364  0.00  0.00    -0.001 C 
ATOM     86  O   VAL d   1      17.652  57.542  55.570  0.00  0.00    -0.271 OA
ATOM     87  CG  PRO d   1      21.653  56.225  57.028  0.00  0.00    -0.048 C 
ATOM     88  H37 PRO d   1      20.887  54.933  55.488  0.00  0.00     0.064 H 
ATOM     89  H38 PRO d   1      20.032  54.812  57.064  0.00  0.00     0.064 H 
ATOM     90  CB  PRO d   1      21.783  57.550  56.236  0.00  0.00    -0.036 C 
ATOM     91  H35 PRO d   1      21.414  56.425  58.083  0.00  0.00     0.035 H 
ATOM     92  H36 PRO d   1      22.584  55.643  56.967  0.00  0.00     0.035 H 
ATOM     93  H33 PRO d   1      22.223  58.340  56.863  0.00  0.00     0.036 H 
ATOM     94  H34 PRO d   1      22.400  57.410  55.336  0.00  0.00     0.036 H 
ATOM     95  H32 PRO d   1      19.910  58.623  56.564  0.00  0.00     0.087 H 
BRANCH  84  96
ATOM     96  CA  VAL d   1      17.660  55.157  55.838  0.00  0.00     0.092 C 
ATOM     97  H24 VAL d   1      18.417  54.408  56.113  0.00  0.00     0.088 H 
BRANCH  96  98
ATOM     98  N   VAL d   1      16.660  55.238  56.912  0.00  0.00    -0.346 N 
ATOM     99  C   ASP d   1      17.000  55.258  58.202  0.00  0.00     0.241 C 
ATOM    100  O   ASP d   1      18.165  55.227  58.595  0.00  0.00    -0.271 OA
ATOM    101  H23 VAL d   1      15.691  55.280  56.667  0.00  0.00     0.163 HD
BRANCH  99 102
ATOM    102  CA  ASP d   1      15.848  55.317  59.206  0.00  0.00     0.098 C 
ATOM    103  H20 ASP d   1      15.170  56.132  58.910  0.00  0.00     0.088 H 
BRANCH 102 104
ATOM    104  N   ASP d   1      15.116  54.060  59.149  0.00  0.00    -0.345 N 
ATOM    105  C   THR d   1      13.804  54.047  58.967  0.00  0.00     0.243 C 
ATOM    106  O   THR d   1      13.161  55.095  58.828  0.00  0.00    -0.271 OA
ATOM    107  H19 ASP d   1      15.610  53.196  59.248  0.00  0.00     0.163 HD
BRANCH 105 108
ATOM    108  CA  THR d   1      13.069  52.712  58.985  0.00  0.00     0.113 C 
ATOM    109  H13 THR d   1      12.225  52.779  58.283  0.00  0.00     0.091 H 
BRANCH 108 110
ATOM    110  N   THR d   1      13.887  51.568  58.577  0.00  0.00    -0.344 N 
ATOM    111  C   PHE d   1      13.901  51.105  57.329  0.00  0.00     0.249 C 
ATOM    112  O   PHE d   1      13.228  51.612  56.428  0.00  0.00    -0.271 OA
ATOM    113  H12 THR d   1      14.458  51.117  59.263  0.00  0.00     0.163 HD
BRANCH 111 114
ATOM    114  CA  PHE d   1      14.827  49.906  57.050  0.00  0.00     0.179 C 
ATOM    115  H4  PHE d   1      15.017  49.383  57.999  0.00  0.00     0.099 H 
BRANCH 114 116
ATOM    116  N   PHE d   1      14.193  48.962  56.131  0.00  0.00    -0.066 N 
ATOM    117  H1  PHE d   1      14.815  48.187  55.963  0.00  0.00     0.275 HD
ATOM    118  H2  PHE d   1      13.991  49.426  55.259  0.00  0.00     0.275 HD
ATOM    119  H3  PHE d   1      13.335  48.622  56.537  0.00  0.00     0.275 HD
ENDBRANCH 114 116
BRANCH 114 120
ATOM    120  CB  PHE d   1      16.173  50.418  56.501  0.00  0.00    -0.006 C 
ATOM    121  H5  PHE d   1      16.809  50.689  57.356  0.00  0.00     0.043 H 
ATOM    122  H6  PHE d   1      15.975  51.313  55.893  0.00  0.00     0.043 H 
BRANCH 120 123
ATOM    123  CG  PHE d   1      16.939  49.422  55.640  0.00  0.00    -0.056 A 
ATOM    124  CD1 PHE d   1      17.813  48.502  56.216  0.00  0.00    -0.077 A 
ATOM    125  CE1 PHE d   1      18.531  47.601  55.422  0.00  0.00    -0.082 A 
ATOM    126  H7  PHE d   1      17.938  48.484  57.293  0.00  0.00     0.084 H 
ATOM    127  CZ  PHE d   1      18.388  47.632  54.028  0.00  0.00    -0.083 A 
ATOM    128  H9  PHE d   1      19.196  46.881  55.884  0.00  0.00     0.083 H 
ATOM    129  CE2 PHE d   1      17.540  48.566  53.442  0.00  0.00    -0.082 A 
ATOM    130  H11 PHE d   1      18.936  46.931  53.409  0.00  0.00     0.083 H 
ATOM    131  CD2 PHE d   1      16.827  49.455  54.249  0.00  0.00    -0.077 A 
ATOM    132  H10 PHE d   1      17.433  48.604  52.364  0.00  0.00     0.083 H 
ATOM    133  H8  PHE d   1      16.173  50.185  53.786  0.00  0.00     0.084 H 
ENDBRANCH 120 123
ENDBRANCH 114 120
ENDBRANCH 111 114
ENDBRANCH 108 110
BRANCH 108 134
ATOM    134  CB  THR d   1      12.517  52.513  60.400  0.00  0.00     0.060 C 
ATOM    135  H14 THR d   1      12.094  53.465  60.752  0.00  0.00     0.086 H 
BRANCH 134 136
ATOM    136  OG1 THR d   1      13.586  52.129  61.280  0.00  0.00    -0.393 OA
ATOM    137  H15 THR d   1      13.243  52.006  62.157  0.00  0.00     0.210 HD
ENDBRANCH 134 136
BRANCH 134 138
ATOM    138  CG2 THR d   1      11.422  51.473  60.401  0.00  0.00    -0.050 C 
ATOM    139  H16 THR d   1      11.039  51.345  61.424  0.00  0.00     0.031 H 
ATOM    140  H17 THR d   1      11.825  50.516  60.038  0.00  0.00     0.031 H 
ATOM    141  H18 THR d   1      10.604  51.801  59.742  0.00  0.00     0.031 H 
ENDBRANCH 134 138
ENDBRANCH 108 134
ENDBRANCH 105 108
ENDBRANCH 102 104
BRANCH 102 142
ATOM    142  CB  ASP d   1      16.340  55.605  60.628  0.00  0.00     0.043 C 
ATOM    143  H21 ASP d   1      17.174  54.925  60.858  0.00  0.00     0.052 H 
ATOM    144  H22 ASP d   1      15.514  55.423  61.331  0.00  0.00     0.052 H 
BRANCH 142 145
ATOM    145  CG  ASP d   1      16.818  57.039  60.795  0.00  0.00     0.175 C 
ATOM    146  OD1 ASP d   1      16.712  57.809  59.811  0.00  0.00    -0.648 OA
ATOM    147  OD2 ASP d   1      17.299  57.394  61.900  0.00  0.00    -0.648 OA
ENDBRANCH 142 145
ENDBRANCH 102 142
ENDBRANCH  99 102
ENDBRANCH  96  98
BRANCH  96 148
ATOM    148  CB  VAL d   1      17.032  54.723  54.506  0.00  0.00    -0.033 C 
ATOM    149  H25 VAL d   1      16.161  55.361  54.298  0.00  0.00     0.042 H 
BRANCH 148 150
ATOM    150  CG1 VAL d   1      18.025  54.825  53.335  0.00  0.00    -0.071 C 
ATOM    151  H26 VAL d   1      17.531  54.505  52.406  0.00  0.00     0.028 H 
ATOM    152  H27 VAL d   1      18.892  54.177  53.532  0.00  0.00     0.028 H 
ATOM    153  H28 VAL d   1      18.363  55.867  53.230  0.00  0.00     0.028 H 
ENDBRANCH 148 150
BRANCH 148 154
ATOM    154  CG2 VAL d   1      16.596  53.277  54.609  0.00  0.00    -0.071 C 
ATOM    155  H29 VAL d   1      15.883  53.167  55.439  0.00  0.00     0.028 H 
ATOM    156  H30 VAL d   1      17.474  52.641  54.794  0.00  0.00     0.028 H 
ATOM    157  H31 VAL d   1      16.114  52.971  53.669  0.00  0.00     0.028 H 
ENDBRANCH 148 154
ENDBRANCH  96 148
ENDBRANCH  84  96
ENDBRANCH   1  82
TORSDOF 38
