REMARK  31 active torsions:
REMARK  status: ('A' for Active; 'I' for Inactive)
REMARK    1  A    between atoms: N_1  and  CA_2 
REMARK    2  A    between atoms: CA_2  and  C_3 
REMARK    3  A    between atoms: CA_2  and  CB_5 
REMARK       I    between atoms: C_3  and  N_12 
REMARK    4  A    between atoms: CB_5  and  CG_6 
REMARK    5  A    between atoms: N_12  and  CA_13 
REMARK    6  A    between atoms: CA_13  and  C_14 
REMARK    7  A    between atoms: CA_13  and  CB_16 
REMARK       I    between atoms: C_14  and  N_17 
REMARK    8  A    between atoms: N_17  and  CA_18 
REMARK    9  A    between atoms: CA_18  and  C_19 
REMARK   10  A    between atoms: CA_18  and  CB_21 
REMARK       I    between atoms: C_19  and  N_22 
REMARK   11  A    between atoms: N_22  and  CA_23 
REMARK   12  A    between atoms: CA_23  and  C_24 
REMARK   13  A    between atoms: CA_23  and  CB_26 
REMARK       I    between atoms: C_24  and  N_27 
REMARK   14  A    between atoms: CA_28  and  C_29 
REMARK       I    between atoms: C_29  and  N_34 
REMARK   15  A    between atoms: N_34  and  CA_35 
REMARK   16  A    between atoms: CA_35  and  C_36 
REMARK   17  A    between atoms: CA_35  and  CB_38 
REMARK       I    between atoms: C_36  and  N_42 
REMARK   18  A    between atoms: CB_38  and  CG_39 
REMARK   19  A    between atoms: CG_39  and  CD1_40 
REMARK   20  A    between atoms: CG_39  and  CD2_41 
REMARK   21  A    between atoms: N_42  and  CA_43 
REMARK   22  A    between atoms: CA_43  and  C_44 
REMARK   23  A    between atoms: CA_43  and  CB_46 
REMARK       I    between atoms: C_44  and  N_50 
REMARK   24  A    between atoms: CB_46  and  CG_47 
REMARK   25  A    between atoms: CG_47  and  CD1_48 
REMARK   26  A    between atoms: CG_47  and  CD2_49 
REMARK   27  A    between atoms: N_50  and  CA_51 
REMARK   28  A    between atoms: CA_51  and  C_52 
REMARK   29  A    between atoms: CA_51  and  CB_54 
REMARK       I    between atoms: C_52  and  N_55 
REMARK   30  A    between atoms: CA_56  and  C_57 
REMARK       I    between atoms: C_57  and  N_62 
REMARK   31  A    between atoms: CA_63  and  C_64 
ROOT
ATOM      1  CA  LEU d   1      19.842  58.935  52.046  0.00  0.00     0.089 C 
ATOM      2  H35 LEU d   1      19.325  58.188  51.426  0.00  0.00     0.087 H 
ENDROOT
BRANCH   1   3
ATOM      3  N   LEU d   1      19.858  58.478  53.433  0.00  0.00    -0.346 N 
ATOM      4  C   PRO d   1      20.038  57.199  53.761  0.00  0.00     0.241 C 
ATOM      5  O   PRO d   1      20.128  56.296  52.927  0.00  0.00    -0.271 OA
ATOM      6  H34 LEU d   1      19.729  59.149  54.163  0.00  0.00     0.163 HD
BRANCH   4   7
ATOM      7  CA  PRO d   1      20.128  56.916  55.252  0.00  0.00     0.091 C 
ATOM      8  N   PRO d   1      19.574  55.599  55.593  0.00  0.00    -0.337 N 
ATOM      9  C   ALA d   1      18.298  55.326  55.340  0.00  0.00     0.243 C 
ATOM     10  CD  PRO d   1      20.542  54.760  56.309  0.00  0.00    -0.001 C 
ATOM     11  O   ALA d   1      17.537  56.172  54.861  0.00  0.00    -0.271 OA
ATOM     12  CG  PRO d   1      21.834  55.367  55.917  0.00  0.00    -0.048 C 
ATOM     13  H32 PRO d   1      20.479  53.711  55.983  0.00  0.00     0.064 H 
ATOM     14  H33 PRO d   1      20.390  54.815  57.397  0.00  0.00     0.064 H 
ATOM     15  CB  PRO d   1      21.588  56.817  55.711  0.00  0.00    -0.036 C 
ATOM     16  H30 PRO d   1      22.578  55.219  56.714  0.00  0.00     0.035 H 
ATOM     17  H31 PRO d   1      22.199  54.910  54.986  0.00  0.00     0.035 H 
ATOM     18  H28 PRO d   1      21.735  57.370  56.650  0.00  0.00     0.036 H 
ATOM     19  H29 PRO d   1      22.263  57.217  54.940  0.00  0.00     0.036 H 
ATOM     20  H27 PRO d   1      19.601  57.711  55.800  0.00  0.00     0.087 H 
BRANCH   9  21
ATOM     21  CA  ALA d   1      17.762  53.947  55.688  0.00  0.00     0.086 C 
ATOM     22  H23 ALA d   1      18.535  53.388  56.235  0.00  0.00     0.086 H 
BRANCH  21  23
ATOM     23  N   ALA d   1      16.589  54.088  56.545  0.00  0.00    -0.346 N 
ATOM     24  C   ASN d   1      16.716  54.073  57.882  0.00  0.00     0.240 C 
ATOM     25  O   ASN d   1      17.779  53.800  58.447  0.00  0.00    -0.271 OA
ATOM     26  H22 ALA d   1      15.684  54.197  56.134  0.00  0.00     0.163 HD
BRANCH  24  27
ATOM     27  CA  ASN d   1      15.428  54.394  58.647  0.00  0.00     0.086 C 
ATOM     28  H18 ASN d   1      14.961  55.274  58.181  0.00  0.00     0.086 H 
BRANCH  27  29
ATOM     29  N   ASN d   1      14.505  53.263  58.538  0.00  0.00    -0.346 N 
ATOM     30  C   LYS d   1      13.683  53.121  57.497  0.00  0.00     0.240 C 
ATOM     31  O   LYS d   1      13.597  53.962  56.593  0.00  0.00    -0.271 OA
ATOM     32  H17 ASN d   1      14.490  52.577  59.265  0.00  0.00     0.163 HD
BRANCH  30  33
ATOM     33  CA  LYS d   1      12.835  51.855  57.459  0.00  0.00     0.086 C 
ATOM     34  H13 LYS d   1      11.820  52.133  57.138  0.00  0.00     0.086 H 
BRANCH  33  35
ATOM     35  N   LYS d   1      13.363  50.889  56.498  0.00  0.00    -0.346 N 
ATOM     36  C   PHE d   1      14.643  50.505  56.471  0.00  0.00     0.249 C 
ATOM     37  O   PHE d   1      15.499  50.941  57.243  0.00  0.00    -0.271 OA
ATOM     38  H12 LYS d   1      12.735  50.495  55.827  0.00  0.00     0.163 HD
BRANCH  36  39
ATOM     39  CA  PHE d   1      15.016  49.468  55.413  0.00  0.00     0.179 C 
ATOM     40  H4  PHE d   1      14.899  48.467  55.854  0.00  0.00     0.099 H 
BRANCH  39  41
ATOM     41  N   PHE d   1      14.138  49.556  54.248  0.00  0.00    -0.066 N 
ATOM     42  H1  PHE d   1      14.409  48.861  53.570  0.00  0.00     0.275 HD
ATOM     43  H2  PHE d   1      14.215  50.474  53.838  0.00  0.00     0.275 HD
ATOM     44  H3  PHE d   1      13.185  49.394  54.533  0.00  0.00     0.275 HD
ENDBRANCH  39  41
BRANCH  39  45
ATOM     45  CB  PHE d   1      16.485  49.649  55.002  0.00  0.00    -0.006 C 
ATOM     46  H5  PHE d   1      17.060  49.938  55.894  0.00  0.00     0.043 H 
ATOM     47  H6  PHE d   1      16.538  50.454  54.255  0.00  0.00     0.043 H 
BRANCH  45  48
ATOM     48  CG  PHE d   1      17.115  48.413  54.412  0.00  0.00    -0.056 A 
ATOM     49  CD1 PHE d   1      17.199  48.254  53.036  0.00  0.00    -0.077 A 
ATOM     50  CE1 PHE d   1      17.776  47.122  52.489  0.00  0.00    -0.082 A 
ATOM     51  H7  PHE d   1      16.808  49.026  52.383  0.00  0.00     0.084 H 
ATOM     52  CZ  PHE d   1      18.277  46.131  53.318  0.00  0.00    -0.083 A 
ATOM     53  H9  PHE d   1      17.836  47.010  51.413  0.00  0.00     0.083 H 
ATOM     54  CE2 PHE d   1      18.203  46.278  54.692  0.00  0.00    -0.082 A 
ATOM     55  H11 PHE d   1      18.726  45.242  52.891  0.00  0.00     0.083 H 
ATOM     56  CD2 PHE d   1      17.627  47.413  55.234  0.00  0.00    -0.077 A 
ATOM     57  H10 PHE d   1      18.596  45.505  55.343  0.00  0.00     0.083 H 
ATOM     58  H8  PHE d   1      17.574  47.525  56.311  0.00  0.00     0.084 H 
ENDBRANCH  45  48
ENDBRANCH  39  45
ENDBRANCH  36  39
ENDBRANCH  33  35
BRANCH  33  59
ATOM     59  CB  LYS d   1      12.740  51.236  58.860  0.00  0.00    -0.049 C 
ATOM     60  H14 LYS d   1      12.341  51.981  59.564  0.00  0.00     0.030 H 
ATOM     61  H15 LYS d   1      13.741  50.919  59.190  0.00  0.00     0.030 H 
ATOM     62  H16 LYS d   1      12.070  50.364  58.831  0.00  0.00     0.030 H 
ENDBRANCH  33  59
ENDBRANCH  30  33
ENDBRANCH  27  29
BRANCH  27  63
ATOM     63  CB  ASN d   1      15.698  54.723  60.111  0.00  0.00    -0.049 C 
ATOM     64  H19 ASN d   1      16.392  55.574  60.173  0.00  0.00     0.030 H 
ATOM     65  H20 ASN d   1      16.144  53.849  60.607  0.00  0.00     0.030 H 
ATOM     66  H21 ASN d   1      14.752  54.984  60.609  0.00  0.00     0.030 H 
ENDBRANCH  27  63
ENDBRANCH  24  27
ENDBRANCH  21  23
BRANCH  21  67
ATOM     67  CB  ALA d   1      17.426  53.192  54.411  0.00  0.00    -0.049 C 
ATOM     68  H24 ALA d   1      18.329  53.103  53.789  0.00  0.00     0.030 H 
ATOM     69  H25 ALA d   1      16.650  53.739  53.855  0.00  0.00     0.030 H 
ATOM     70  H26 ALA d   1      17.056  52.188  54.665  0.00  0.00     0.030 H 
ENDBRANCH  21  67
ENDBRANCH   9  21
ENDBRANCH   4   7
ENDBRANCH   1   3
BRANCH   1  71
ATOM     71  C   LEU d   1      21.279  59.080  51.563  0.00  0.00     0.241 C 
ATOM     72  O   LEU d   1      22.015  59.948  52.047  0.00  0.00    -0.271 OA
ATOM     73  N   LEU d   1      21.677  58.249  50.589  0.00  0.00    -0.346 N 
ATOM     74  H45 LEU d   1      21.050  57.534  50.280  0.00  0.00     0.163 HD
BRANCH  73  75
ATOM     75  CA  LEU d   1      22.993  58.350  49.962  0.00  0.00     0.089 C 
ATOM     76  H46 LEU d   1      23.495  59.255  50.334  0.00  0.00     0.087 H 
BRANCH  75  77
ATOM     77  C   LEU d   1      22.788  58.483  48.452  0.00  0.00     0.241 C 
ATOM     78  O   LEU d   1      23.050  57.558  47.692  0.00  0.00    -0.271 OA
ATOM     79  N   ALA d   1      22.322  59.653  48.024  0.00  0.00    -0.346 N 
ATOM     80  H56 ALA d   1      22.228  60.416  48.663  0.00  0.00     0.163 HD
BRANCH  79  81
ATOM     81  CA  ALA d   1      21.949  59.826  46.629  0.00  0.00     0.086 C 
ATOM     82  H57 ALA d   1      21.327  58.973  46.321  0.00  0.00     0.086 H 
BRANCH  81  83
ATOM     83  C   ALA d   1      23.197  59.866  45.753  0.00  0.00     0.243 C 
ATOM     84  O   ALA d   1      24.258  60.306  46.203  0.00  0.00    -0.271 OA
ATOM     85  N   PRO d   1      23.093  59.420  44.500  0.00  0.00    -0.337 N 
ATOM     86  CA  PRO d   1      24.251  59.469  43.611  0.00  0.00     0.092 C 
ATOM     87  CD  PRO d   1      21.899  58.897  43.823  0.00  0.00    -0.001 C 
ATOM     88  CB  PRO d   1      23.704  58.922  42.286  0.00  0.00    -0.036 C 
ATOM     89  H61 PRO d   1      25.067  58.836  43.989  0.00  0.00     0.087 H 
ATOM     90  CG  PRO d   1      22.237  59.090  42.370  0.00  0.00    -0.048 C 
ATOM     91  H62 PRO d   1      23.964  57.859  42.171  0.00  0.00     0.036 H 
ATOM     92  H63 PRO d   1      24.109  59.492  41.437  0.00  0.00     0.036 H 
ATOM     93  H64 PRO d   1      21.727  58.336  41.752  0.00  0.00     0.035 H 
ATOM     94  H65 PRO d   1      21.945  60.097  42.037  0.00  0.00     0.035 H 
ATOM     95  H66 PRO d   1      21.002  59.469  44.102  0.00  0.00     0.064 H 
ATOM     96  H67 PRO d   1      21.743  57.834  44.057  0.00  0.00     0.064 H 
BRANCH  86  97
ATOM     97  C   PRO d   1      24.746  60.892  43.460  0.00  0.00     0.243 C 
ATOM     98  O   PRO d   1      23.962  61.854  43.567  0.00  0.00    -0.271 OA
ATOM     99  N   PRO d   1      26.054  61.081  43.224  0.00  0.00    -0.336 N 
ATOM    100  CA  PRO d   1      26.613  62.436  43.151  0.00  0.00     0.098 C 
ATOM    101  CD  PRO d   1      27.088  60.048  43.029  0.00  0.00    -0.001 C 
ATOM    102  CB  PRO d   1      28.109  62.204  43.374  0.00  0.00    -0.035 C 
ATOM    103  H68 PRO d   1      26.193  63.068  43.947  0.00  0.00     0.089 H 
ATOM    104  CG  PRO d   1      28.351  60.851  42.798  0.00  0.00    -0.048 C 
ATOM    105  H69 PRO d   1      28.352  62.222  44.447  0.00  0.00     0.036 H 
ATOM    106  H70 PRO d   1      28.706  62.965  42.850  0.00  0.00     0.036 H 
ATOM    107  H71 PRO d   1      29.203  60.371  43.302  0.00  0.00     0.035 H 
ATOM    108  H72 PRO d   1      28.559  60.929  41.721  0.00  0.00     0.035 H 
ATOM    109  H73 PRO d   1      26.857  59.420  42.156  0.00  0.00     0.064 H 
ATOM    110  H74 PRO d   1      27.183  59.414  43.922  0.00  0.00     0.064 H 
BRANCH 100 111
ATOM    111  C   PRO d   1      26.358  63.105  41.803  0.00  0.00     0.196 C 
ATOM    112  O   PRO d   1      26.674  64.284  41.613  0.00  0.00    -0.646 OA
ATOM    113  OXT PRO d   1      25.832  62.477  40.879  0.00  0.00    -0.646 OA
ENDBRANCH 100 111
ENDBRANCH  86  97
ENDBRANCH  81  83
BRANCH  81 114
ATOM    114  CB  ALA d   1      21.141  61.115  46.451  0.00  0.00    -0.049 C 
ATOM    115  H58 ALA d   1      20.866  61.232  45.392  0.00  0.00     0.030 H 
ATOM    116  H59 ALA d   1      21.748  61.975  46.770  0.00  0.00     0.030 H 
ATOM    117  H60 ALA d   1      20.228  61.063  47.063  0.00  0.00     0.030 H 
ENDBRANCH  81 114
ENDBRANCH  79  81
ENDBRANCH  75  77
BRANCH  75 118
ATOM    118  CB  LEU d   1      23.872  57.145  50.301  0.00  0.00    -0.035 C 
ATOM    119  H47 LEU d   1      24.854  57.305  49.833  0.00  0.00     0.037 H 
ATOM    120  H48 LEU d   1      23.399  56.252  49.866  0.00  0.00     0.037 H 
BRANCH 118 121
ATOM    121  CG  LEU d   1      24.104  56.871  51.787  0.00  0.00    -0.059 C 
ATOM    122  H49 LEU d   1      23.127  56.823  52.290  0.00  0.00     0.038 H 
BRANCH 121 123
ATOM    123  CD1 LEU d   1      24.806  55.523  51.963  0.00  0.00    -0.073 C 
ATOM    124  H50 LEU d   1      24.970  55.332  53.034  0.00  0.00     0.028 H 
ATOM    125  H51 LEU d   1      25.774  55.543  51.442  0.00  0.00     0.028 H 
ATOM    126  H52 LEU d   1      24.178  54.725  51.540  0.00  0.00     0.028 H 
ENDBRANCH 121 123
BRANCH 121 127
ATOM    127  CD2 LEU d   1      24.914  57.995  52.424  0.00  0.00    -0.073 C 
ATOM    128  H53 LEU d   1      24.388  58.951  52.283  0.00  0.00     0.028 H 
ATOM    129  H54 LEU d   1      25.904  58.048  51.949  0.00  0.00     0.028 H 
ATOM    130  H55 LEU d   1      25.034  57.797  53.499  0.00  0.00     0.028 H 
ENDBRANCH 121 127
ENDBRANCH 118 121
ENDBRANCH  75 118
ENDBRANCH  73  75
ENDBRANCH   1  71
BRANCH   1 131
ATOM    131  CB  LEU d   1      19.107  60.272  51.927  0.00  0.00    -0.035 C 
ATOM    132  H36 LEU d   1      19.858  61.064  52.065  0.00  0.00     0.037 H 
ATOM    133  H37 LEU d   1      18.378  60.311  52.750  0.00  0.00     0.037 H 
BRANCH 131 134
ATOM    134  CG  LEU d   1      18.340  60.603  50.632  0.00  0.00    -0.059 C 
ATOM    135  H38 LEU d   1      17.272  60.482  50.866  0.00  0.00     0.038 H 
BRANCH 134 136
ATOM    136  CD1 LEU d   1      18.542  62.072  50.216  0.00  0.00    -0.073 C 
ATOM    137  H39 LEU d   1      17.982  62.271  49.291  0.00  0.00     0.028 H 
ATOM    138  H40 LEU d   1      19.612  62.261  50.045  0.00  0.00     0.028 H 
ATOM    139  H41 LEU d   1      18.177  62.733  51.016  0.00  0.00     0.028 H 
ENDBRANCH 134 136
BRANCH 134 140
ATOM    140  CD2 LEU d   1      18.638  59.648  49.472  0.00  0.00    -0.073 C 
ATOM    141  H42 LEU d   1      18.484  58.610  49.803  0.00  0.00     0.028 H 
ATOM    142  H43 LEU d   1      19.681  59.779  49.148  0.00  0.00     0.028 H 
ATOM    143  H44 LEU d   1      17.963  59.869  48.632  0.00  0.00     0.028 H 
ENDBRANCH 134 140
ENDBRANCH 131 134
ENDBRANCH   1 131
TORSDOF 31
