REMARK WARNING: 32 MAX_TORS EXCEEDED!!!
REMARK  35 active torsions:
REMARK  status: ('A' for Active; 'I' for Inactive)
REMARK    1  A    between atoms: N_1  and  CA_2 
REMARK    2  A    between atoms: CA_2  and  C_3 
REMARK    3  A    between atoms: CA_2  and  CB_5 
REMARK       I    between atoms: C_3  and  N_6 
REMARK    4  A    between atoms: N_6  and  CA_7 
REMARK    5  A    between atoms: CA_7  and  C_8 
REMARK    6  A    between atoms: CA_7  and  CB_10 
REMARK       I    between atoms: C_8  and  N_16 
REMARK    7  A    between atoms: CB_10  and  CG_11 
REMARK    8  A    between atoms: N_16  and  CA_17 
REMARK    9  A    between atoms: CA_17  and  CB_18 
REMARK   10  A    between atoms: CA_17  and  C_20 
REMARK   11  A    between atoms: CB_18  and  OG_19 
REMARK   12  A    between atoms: OG_19  and  P_22 
REMARK       I    between atoms: C_20  and  N_26 
REMARK   13  A    between atoms: N_26  and  CA_27 
REMARK   14  A    between atoms: CA_27  and  C_28 
REMARK   15  A    between atoms: CA_27  and  CB_30 
REMARK       I    between atoms: C_28  and  N_32 
REMARK   16  A    between atoms: CB_30  and  OG_31 
REMARK   17  A    between atoms: CA_33  and  C_34 
REMARK       I    between atoms: C_34  and  N_39 
REMARK   18  A    between atoms: N_39  and  CA_40 
REMARK   19  A    between atoms: CA_40  and  C_41 
REMARK   20  A    between atoms: CA_40  and  CB_43 
REMARK       I    between atoms: C_41  and  N_44 
REMARK   21  A    between atoms: N_44  and  CA_45 
REMARK   22  A    between atoms: CA_45  and  C_46 
REMARK   23  A    between atoms: CA_45  and  CB_48 
REMARK       I    between atoms: C_46  and  N_50 
REMARK   24  A    between atoms: CB_48  and  OG_49 
REMARK   25  A    between atoms: N_50  and  CA_51 
REMARK   26  A    between atoms: CA_51  and  C_52 
REMARK   27  A    between atoms: CA_51  and  CB_54 
REMARK       I    between atoms: C_52  and  N_58 
REMARK   28  A    between atoms: CB_54  and  CG_55 
REMARK   29  A    between atoms: CG_55  and  CD1_56 
REMARK   30  A    between atoms: CG_55  and  CD2_57 
REMARK   31  A    between atoms: N_58  and  CA_59 
REMARK   32  A    between atoms: CA_59  and  C_60 
REMARK   33  A    between atoms: CA_59  and  CB_62 
REMARK   34  A    between atoms: CB_62  and  CG_63 
REMARK   35  A    between atoms: CG_63  and  CD_64 
REMARK       I    between atoms: CD_64  and  NE2_66 
ROOT
ATOM      1  C   ALA d   1      16.901 -16.935  -5.458  0.00  0.00     0.245 C 
ATOM      2  O   ALA d   1      17.802 -16.129  -5.646  0.00  0.00    -0.271 OA
ATOM      3  N   ALA d   1      16.247 -17.033  -4.306  0.00  0.00    -0.337 N 
ATOM      4  CA  ALA d   1      16.817 -16.406  -3.107  0.00  0.00     0.091 C 
ATOM      5  CB  ALA d   1      15.845 -16.783  -1.974  0.00  0.00    -0.036 C 
ATOM      6  CG  ALA d   1      14.623 -17.342  -2.642  0.00  0.00    -0.048 C 
ATOM      7  CD  ALA d   1      15.072 -17.871  -3.995  0.00  0.00    -0.001 C 
ATOM      8  H24 ALA d   1      16.886 -15.314  -3.220  0.00  0.00     0.087 H 
ATOM      9  H25 ALA d   1      15.584 -15.893  -1.383  0.00  0.00     0.036 H 
ATOM     10  H26 ALA d   1      16.300 -17.538  -1.317  0.00  0.00     0.036 H 
ATOM     11  H27 ALA d   1      13.868 -16.553  -2.774  0.00  0.00     0.035 H 
ATOM     12  H28 ALA d   1      14.199 -18.157  -2.037  0.00  0.00     0.035 H 
ATOM     13  H29 ALA d   1      15.350 -18.933  -3.932  0.00  0.00     0.064 H 
ATOM     14  H30 ALA d   1      14.284 -17.742  -4.751  0.00  0.00     0.064 H 
ENDROOT
BRANCH   4  15
ATOM     15  C   ALA d   1      18.199 -16.994  -2.849  0.00  0.00     0.241 C 
ATOM     16  O   ALA d   1      18.529 -18.098  -3.291  0.00  0.00    -0.271 OA
ATOM     17  N   ALA d   1      19.010 -16.240  -2.110  0.00  0.00    -0.346 N 
ATOM     18  H31 ALA d   1      18.699 -15.347  -1.785  0.00  0.00     0.163 HD
BRANCH  17  19
ATOM     19  CA  ALA d   1      20.348 -16.707  -1.771  0.00  0.00     0.086 C 
ATOM     20  H32 ALA d   1      20.835 -17.071  -2.688  0.00  0.00     0.086 H 
BRANCH  19  21
ATOM     21  C   ALA d   1      20.306 -17.841  -0.764  0.00  0.00     0.240 C 
ATOM     22  O   ALA d   1      21.110 -18.783  -0.830  0.00  0.00    -0.271 OA
ATOM     23  N   ALA d   1      19.385 -17.769   0.189  0.00  0.00    -0.344 N 
ATOM     24  H36 ALA d   1      18.716 -17.026   0.165  0.00  0.00     0.163 HD
BRANCH  23  25
ATOM     25  CA  ALA d   1      19.324 -18.748   1.274  0.00  0.00     0.109 C 
ATOM     26  H37 ALA d   1      20.319 -19.194   1.421  0.00  0.00     0.090 H 
BRANCH  25  27
ATOM     27  C   ALA d   1      18.339 -19.842   0.879  0.00  0.00     0.243 C 
ATOM     28  O   ALA d   1      17.171 -19.555   0.608  0.00  0.00    -0.271 OA
ATOM     29  N   ALA d   1      18.807 -21.089   0.878  0.00  0.00    -0.346 N 
ATOM     30  H41 ALA d   1      19.748 -21.242   1.181  0.00  0.00     0.163 HD
BRANCH  29  31
ATOM     31  CA  ALA d   1      18.019 -22.247   0.457  0.00  0.00     0.089 C 
ATOM     32  H42 ALA d   1      16.959 -21.958   0.394  0.00  0.00     0.087 H 
BRANCH  31  33
ATOM     33  C   ALA d   1      18.175 -23.349   1.495  0.00  0.00     0.241 C 
ATOM     34  O   ALA d   1      19.297 -23.744   1.837  0.00  0.00    -0.271 OA
ATOM     35  N   ALA d   1      17.061 -23.826   2.009  0.00  0.00    -0.345 N 
ATOM     36  H52 ALA d   1      16.178 -23.494   1.679  0.00  0.00     0.163 HD
BRANCH  35  37
ATOM     37  CA  ALA d   1      17.111 -24.844   3.065  0.00  0.00     0.096 C 
ATOM     38  H53 ALA d   1      17.870 -24.535   3.799  0.00  0.00     0.089 H 
BRANCH  37  39
ATOM     39  C   ALA d   1      17.518 -26.225   2.524  0.00  0.00     0.196 C 
ATOM     40  O   ALA d   1      17.062 -26.712   1.492  0.00  0.00    -0.646 OA
ATOM     41  OXT ALA d   1      18.354 -26.911   3.121  0.00  0.00    -0.646 OA
ENDBRANCH  37  39
BRANCH  37  42
ATOM     42  CB  ALA d   1      15.755 -24.915   3.778  0.00  0.00    -0.029 C 
ATOM     43  H54 ALA d   1      15.826 -25.667   4.577  0.00  0.00     0.037 H 
ATOM     44  H55 ALA d   1      14.997 -25.229   3.045  0.00  0.00     0.037 H 
BRANCH  42  45
ATOM     45  CG  ALA d   1      15.304 -23.608   4.396  0.00  0.00     0.011 C 
ATOM     46  H56 ALA d   1      16.154 -23.166   4.937  0.00  0.00     0.047 H 
ATOM     47  H57 ALA d   1      14.489 -23.819   5.104  0.00  0.00     0.047 H 
BRANCH  45  48
ATOM     48  CD  ALA d   1      14.804 -22.596   3.367  0.00  0.00     0.215 C 
ATOM     49  OE1 ALA d   1      14.584 -22.933   2.188  0.00  0.00    -0.274 OA
ATOM     50  NE2 ALA d   1      14.618 -21.347   3.809  0.00  0.00    -0.370 N 
ATOM     51  H58 ALA d   1      14.292 -20.639   3.183  0.00  0.00     0.159 HD
ATOM     52  H59 ALA d   1      14.805 -21.122   4.765  0.00  0.00     0.159 HD
ENDBRANCH  45  48
ENDBRANCH  42  45
ENDBRANCH  37  42
ENDBRANCH  35  37
ENDBRANCH  31  33
BRANCH  31  53
ATOM     53  CB  ALA d   1      18.476 -22.734  -0.906  0.00  0.00    -0.035 C 
ATOM     54  H43 ALA d   1      17.910 -23.645  -1.151  0.00  0.00     0.037 H 
ATOM     55  H44 ALA d   1      19.548 -22.974  -0.842  0.00  0.00     0.037 H 
BRANCH  53  56
ATOM     56  CG  ALA d   1      18.281 -21.738  -2.036  0.00  0.00    -0.059 C 
ATOM     57  H45 ALA d   1      18.655 -20.759  -1.703  0.00  0.00     0.038 H 
BRANCH  56  58
ATOM     58  CD1 ALA d   1      19.075 -22.153  -3.269  0.00  0.00    -0.073 C 
ATOM     59  H46 ALA d   1      18.917 -21.417  -4.071  0.00  0.00     0.028 H 
ATOM     60  H47 ALA d   1      18.736 -23.143  -3.608  0.00  0.00     0.028 H 
ATOM     61  H48 ALA d   1      20.145 -22.198  -3.018  0.00  0.00     0.028 H 
ENDBRANCH  56  58
BRANCH  56  62
ATOM     62  CD2 ALA d   1      16.794 -21.600  -2.354  0.00  0.00    -0.073 C 
ATOM     63  H49 ALA d   1      16.251 -21.300  -1.446  0.00  0.00     0.028 H 
ATOM     64  H50 ALA d   1      16.405 -22.564  -2.712  0.00  0.00     0.028 H 
ATOM     65  H51 ALA d   1      16.655 -20.836  -3.133  0.00  0.00     0.028 H 
ENDBRANCH  56  62
ENDBRANCH  53  56
ENDBRANCH  31  53
ENDBRANCH  29  31
ENDBRANCH  25  27
BRANCH  25  66
ATOM     66  CB  ALA d   1      18.897 -18.062   2.565  0.00  0.00     0.044 C 
ATOM     67  H38 ALA d   1      17.865 -17.696   2.456  0.00  0.00     0.077 H 
ATOM     68  H39 ALA d   1      19.568 -17.213   2.763  0.00  0.00     0.077 H 
BRANCH  66  69
ATOM     69  OG  ALA d   1      18.958 -18.969   3.652  0.00  0.00    -0.398 OA
ATOM     70  H40 ALA d   1      18.377 -19.702   3.484  0.00  0.00     0.209 HD
ENDBRANCH  66  69
ENDBRANCH  25  66
ENDBRANCH  23  25
ENDBRANCH  19  21
BRANCH  19  71
ATOM     71  CB  ALA d   1      21.164 -15.550  -1.202  0.00  0.00    -0.049 C 
ATOM     72  H33 ALA d   1      22.174 -15.904  -0.947  0.00  0.00     0.030 H 
ATOM     73  H34 ALA d   1      20.671 -15.164  -0.298  0.00  0.00     0.030 H 
ATOM     74  H35 ALA d   1      21.235 -14.748  -1.952  0.00  0.00     0.030 H 
ENDBRANCH  19  71
ENDBRANCH  17  19
ENDBRANCH   4  15
BRANCH   1  75
ATOM     75  CA  ALA d   1      16.466 -17.873  -6.567  0.00  0.00     0.109 C 
ATOM     76  H20 ALA d   1      15.394 -18.088  -6.445  0.00  0.00     0.090 H 
BRANCH  75  77
ATOM     77  N   ALA d   1      16.668 -17.257  -7.858  0.00  0.00    -0.344 N 
ATOM     78  C   ALA d   1      15.927 -16.248  -8.285  0.00  0.00     0.243 C 
ATOM     79  O   ALA d   1      15.145 -15.638  -7.555  0.00  0.00    -0.271 OA
ATOM     80  H19 ALA d   1      17.394 -17.606  -8.450  0.00  0.00     0.163 HD
BRANCH  78  81
ATOM     81  CA  ALA d   1      16.095 -15.858  -9.762  0.00  0.00     0.110 C 
ATOM     82  H16 ALA d   1      15.811 -16.722 -10.380  0.00  0.00     0.090 H 
BRANCH  81  83
ATOM     83  N   ALA d   1      15.163 -14.734 -10.056  0.00  0.00    -0.344 N 
ATOM     84  C   ALA d   1      14.057 -14.974 -10.754  0.00  0.00     0.241 C 
ATOM     85  O   ALA d   1      13.843 -16.053 -11.302  0.00  0.00    -0.271 OA
ATOM     86  H15 ALA d   1      15.367 -13.810  -9.732  0.00  0.00     0.163 HD
BRANCH  84  87
ATOM     87  CA  ALA d   1      13.036 -13.866 -10.822  0.00  0.00     0.094 C 
ATOM     88  H9  ALA d   1      13.497 -12.942 -10.443  0.00  0.00     0.088 H 
BRANCH  87  89
ATOM     89  N   ALA d   1      12.580 -13.620 -12.169  0.00  0.00    -0.346 N 
ATOM     90  C   ALA d   1      13.222 -12.815 -13.005  0.00  0.00     0.248 C 
ATOM     91  O   ALA d   1      14.240 -12.206 -12.701  0.00  0.00    -0.271 OA
ATOM     92  H8  ALA d   1      11.747 -14.075 -12.485  0.00  0.00     0.163 HD
BRANCH  90  93
ATOM     93  CA  ALA d   1      12.621 -12.706 -14.395  0.00  0.00     0.172 C 
ATOM     94  H4  ALA d   1      11.533 -12.848 -14.312  0.00  0.00     0.098 H 
BRANCH  93  95
ATOM     95  N   ALA d   1      12.859 -11.397 -14.998  0.00  0.00    -0.067 N 
ATOM     96  H1  ALA d   1      12.444 -11.370 -15.916  0.00  0.00     0.275 HD
ATOM     97  H2  ALA d   1      13.851 -11.237 -15.073  0.00  0.00     0.275 HD
ATOM     98  H3  ALA d   1      12.445 -10.681 -14.421  0.00  0.00     0.275 HD
ENDBRANCH  93  95
BRANCH  93  99
ATOM     99  CB  ALA d   1      13.195 -13.829 -15.280  0.00  0.00    -0.042 C 
ATOM    100  H5  ALA d   1      13.004 -14.803 -14.806  0.00  0.00     0.030 H 
ATOM    101  H6  ALA d   1      14.279 -13.685 -15.398  0.00  0.00     0.030 H 
ATOM    102  H7  ALA d   1      12.712 -13.801 -16.268  0.00  0.00     0.030 H 
ENDBRANCH  93  99
ENDBRANCH  90  93
ENDBRANCH  87  89
BRANCH  87 103
ATOM    103  CB  ALA d   1      11.851 -14.243  -9.913  0.00  0.00     0.004 C 
ATOM    104  H10 ALA d   1      12.206 -14.260  -8.872  0.00  0.00     0.046 H 
ATOM    105  H11 ALA d   1      11.503 -15.247 -10.198  0.00  0.00     0.046 H 
BRANCH 103 106
ATOM    106  CG  ALA d   1      10.691 -13.302  -9.998  0.00  0.00     0.053 A 
ATOM    107  ND1 ALA d   1      10.426 -12.359  -9.027  0.00  0.00    -0.247 NA
ATOM    108  CE1 ALA d   1       9.344 -11.678  -9.367  0.00  0.00     0.064 A 
ATOM    109  NE2 ALA d   1       8.897 -12.148 -10.519  0.00  0.00    -0.359 N 
ATOM    110  H13 ALA d   1       8.897 -10.867  -8.794  0.00  0.00     0.143 H 
ATOM    111  CD2 ALA d   1       9.719 -13.166 -10.933  0.00  0.00     0.002 A 
ATOM    112  H14 ALA d   1       8.067 -11.806 -11.024  0.00  0.00     0.166 HD
ATOM    113  H12 ALA d   1       9.611 -13.755 -11.843  0.00  0.00     0.114 H 
ENDBRANCH 103 106
ENDBRANCH  87 103
ENDBRANCH  84  87
ENDBRANCH  81  83
BRANCH  81 114
ATOM    114  CB  ALA d   1      17.551 -15.475 -10.129  0.00  0.00     0.059 C 
ATOM    115  H17 ALA d   1      17.629 -15.329 -11.216  0.00  0.00     0.079 H 
ATOM    116  H18 ALA d   1      18.232 -16.280  -9.817  0.00  0.00     0.079 H 
BRANCH 114 117
ATOM    117  OG  ALA d   1      17.900 -14.287  -9.472  0.00  0.00    -0.280 OA
BRANCH 117 118
ATOM    118  P   ALA d   1      19.367 -13.767  -9.858  0.00  0.00     0.422 P 
ATOM    119  O1P ALA d   1      19.426 -13.406 -11.351  0.00  0.00    -0.617 OA
ATOM    120  O2P ALA d   1      19.491 -12.500  -8.931  0.00  0.00    -0.617 OA
ATOM    121  O3P ALA d   1      20.450 -14.859  -9.497  0.00  0.00    -0.617 OA
ENDBRANCH 117 118
ENDBRANCH 114 117
ENDBRANCH  81 114
ENDBRANCH  78  81
ENDBRANCH  75  77
BRANCH  75 122
ATOM    122  CB  ALA d   1      17.241 -19.186  -6.477  0.00  0.00     0.044 C 
ATOM    123  H21 ALA d   1      17.002 -19.806  -7.354  0.00  0.00     0.077 H 
ATOM    124  H22 ALA d   1      16.945 -19.717  -5.561  0.00  0.00     0.077 H 
BRANCH 122 125
ATOM    125  OG  ALA d   1      18.634 -18.948  -6.444  0.00  0.00    -0.398 OA
ATOM    126  H23 ALA d   1      18.845 -18.415  -5.686  0.00  0.00     0.209 HD
ENDBRANCH 122 125
ENDBRANCH  75 122
ENDBRANCH   1  75
TORSDOF 35
