REMARK  21 active torsions:
REMARK  status: ('A' for Active; 'I' for Inactive)
REMARK    1  A    between atoms: CA_2  and  N_1 
REMARK    2  A    between atoms: C_3  and  CA_2 
REMARK    3  A    between atoms: CA_2  and  CB_5 
REMARK       I    between atoms: N_6  and  C_3 
REMARK    4  A    between atoms: CA_7  and  N_6 
REMARK    5  A    between atoms: C_8  and  CA_7 
REMARK    6  A    between atoms: CA_7  and  CB_10 
REMARK       I    between atoms: N_16  and  C_8 
REMARK    7  A    between atoms: CB_10  and  CG_11 
REMARK    8  A    between atoms: CA_17  and  N_16 
REMARK    9  A    between atoms: CA_17  and  CB_18 
REMARK   10  A    between atoms: C_20  and  CA_17 
REMARK   11  A    between atoms: CB_18  and  OG_19 
REMARK   12  A    between atoms: OG_19  and  P_22 
REMARK       I    between atoms: N_26  and  C_20 
REMARK   13  A    between atoms: CA_27  and  N_26 
REMARK   14  A    between atoms: C_28  and  CA_27 
REMARK   15  A    between atoms: CA_27  and  CB_30 
REMARK       I    between atoms: N_32  and  C_28 
REMARK   16  A    between atoms: CB_30  and  OG_31 
REMARK   17  A    between atoms: C_34  and  CA_33 
REMARK       I    between atoms: N_41  and  C_34 
REMARK   18  A    between atoms: CB_40  and  CG_39 
REMARK   19  A    between atoms: CB_40  and  N_41 
REMARK   20  A    between atoms: CB_40  and  CA_42 
REMARK   21  A    between atoms: CA_42  and  C_43 
ROOT
ATOM      1  CA  ALA d   1      16.096 -15.874  -9.697  0.00  0.00     0.110 C 
ATOM      2  H16 ALA d   1      15.813 -16.764 -10.278  0.00  0.00     0.090 H 
ENDROOT
BRANCH   1   3
ATOM      3  N   ALA d   1      15.151 -14.802  -9.998  0.00  0.00    -0.344 N 
ATOM      4  C   ALA d   1      14.060 -15.034 -10.722  0.00  0.00     0.241 C 
ATOM      5  O   ALA d   1      13.840 -16.114 -11.260  0.00  0.00    -0.271 OA
ATOM      6  H15 ALA d   1      15.327 -13.880  -9.654  0.00  0.00     0.163 HD
BRANCH   4   7
ATOM      7  CA  ALA d   1      13.077 -13.883 -10.860  0.00  0.00     0.094 C 
ATOM      8  H9  ALA d   1      13.553 -12.965 -10.485  0.00  0.00     0.088 H 
BRANCH   7   9
ATOM      9  N   ALA d   1      12.695 -13.678 -12.249  0.00  0.00    -0.346 N 
ATOM     10  C   ALA d   1      13.389 -12.887 -13.060  0.00  0.00     0.248 C 
ATOM     11  O   ALA d   1      14.408 -12.293 -12.706  0.00  0.00    -0.271 OA
ATOM     12  H8  ALA d   1      11.886 -14.146 -12.604  0.00  0.00     0.163 HD
BRANCH  10  13
ATOM     13  CA  ALA d   1      12.866 -12.762 -14.483  0.00  0.00     0.172 C 
ATOM     14  H4  ALA d   1      11.767 -12.808 -14.457  0.00  0.00     0.098 H 
BRANCH  13  15
ATOM     15  N   ALA d   1      13.263 -11.486 -15.068  0.00  0.00    -0.067 N 
ATOM     16  H1  ALA d   1      12.907 -11.423 -16.009  0.00  0.00     0.275 HD
ATOM     17  H2  ALA d   1      14.269 -11.422 -15.084  0.00  0.00     0.275 HD
ATOM     18  H3  ALA d   1      12.887 -10.732 -14.515  0.00  0.00     0.275 HD
ENDBRANCH  13  15
BRANCH  13  19
ATOM     19  CB  ALA d   1      13.379 -13.909 -15.332  0.00  0.00    -0.042 C 
ATOM     20  H5  ALA d   1      13.073 -14.864 -14.881  0.00  0.00     0.030 H 
ATOM     21  H6  ALA d   1      14.477 -13.863 -15.385  0.00  0.00     0.030 H 
ATOM     22  H7  ALA d   1      12.959 -13.831 -16.346  0.00  0.00     0.030 H 
ENDBRANCH  13  19
ENDBRANCH  10  13
ENDBRANCH   7   9
BRANCH   7  23
ATOM     23  CB  ALA d   1      11.830 -14.175 -10.030  0.00  0.00     0.002 C 
ATOM     24  H10 ALA d   1      12.100 -14.125  -8.965  0.00  0.00     0.046 H 
ATOM     25  H11 ALA d   1      11.479 -15.189 -10.272  0.00  0.00     0.046 H 
BRANCH  23  26
ATOM     26  CG  ALA d   1      10.711 -13.214 -10.281  0.00  0.00     0.030 A 
ATOM     27  ND1 ALA d   1      10.626 -11.991  -9.652  0.00  0.00    -0.353 N 
ATOM     28  CE1 ALA d   1       9.545 -11.357 -10.071  0.00  0.00     0.063 A 
ATOM     29  H12 ALA d   1      11.300 -11.628  -8.963  0.00  0.00     0.166 HD
ATOM     30  NE2 ALA d   1       8.928 -12.123 -10.953  0.00  0.00    -0.254 NA
ATOM     31  H14 ALA d   1       9.218 -10.371  -9.745  0.00  0.00     0.143 H 
ATOM     32  CD2 ALA d   1       9.638 -13.289 -11.105  0.00  0.00     0.025 A 
ATOM     33  H13 ALA d   1       9.386 -14.118 -11.764  0.00  0.00     0.117 H 
ENDBRANCH  23  26
ENDBRANCH   7  23
ENDBRANCH   4   7
ENDBRANCH   1   3
BRANCH   1  34
ATOM     34  CB  ALA d   1      17.530 -15.497 -10.088  0.00  0.00     0.059 C 
ATOM     35  H17 ALA d   1      17.589 -15.367 -11.179  0.00  0.00     0.079 H 
ATOM     36  H18 ALA d   1      18.216 -16.299  -9.777  0.00  0.00     0.079 H 
BRANCH  34  37
ATOM     37  OG  ALA d   1      17.898 -14.291  -9.451  0.00  0.00    -0.280 OA
BRANCH  37  38
ATOM     38  P   ALA d   1      19.365 -13.754  -9.849  0.00  0.00     0.422 P 
ATOM     39  O1P ALA d   1      19.384 -13.360 -11.391  0.00  0.00    -0.617 OA
ATOM     40  O2P ALA d   1      19.554 -12.469  -8.915  0.00  0.00    -0.617 OA
ATOM     41  O3P ALA d   1      20.442 -14.877  -9.519  0.00  0.00    -0.617 OA
ENDBRANCH  37  38
ENDBRANCH  34  37
ENDBRANCH   1  34
BRANCH   1  42
ATOM     42  C   ALA d   1      15.970 -16.204  -8.211  0.00  0.00     0.243 C 
ATOM     43  O   ALA d   1      15.205 -15.555  -7.484  0.00  0.00    -0.271 OA
ATOM     44  N   ALA d   1      16.702 -17.214  -7.760  0.00  0.00    -0.344 N 
ATOM     45  H19 ALA d   1      17.425 -17.592  -8.338  0.00  0.00     0.163 HD
BRANCH  44  46
ATOM     46  CA  ALA d   1      16.472 -17.783  -6.438  0.00  0.00     0.109 C 
ATOM     47  H20 ALA d   1      15.400 -18.012  -6.346  0.00  0.00     0.090 H 
BRANCH  46  48
ATOM     48  C   ALA d   1      16.847 -16.798  -5.336  0.00  0.00     0.245 C 
ATOM     49  O   ALA d   1      17.852 -16.099  -5.448  0.00  0.00    -0.271 OA
ATOM     50  N   ALA d   1      16.043 -16.741  -4.266  0.00  0.00    -0.337 N 
ATOM     51  CA  ALA d   1      16.381 -15.876  -3.132  0.00  0.00     0.091 C 
ATOM     52  CD  ALA d   1      14.730 -17.390  -4.093  0.00  0.00    -0.001 C 
ATOM     53  CB  ALA d   1      15.048 -15.736  -2.393  0.00  0.00    -0.036 C 
ATOM     54  H24 ALA d   1      16.745 -14.898  -3.481  0.00  0.00     0.087 H 
ATOM     55  CG  ALA d   1      14.316 -16.995  -2.696  0.00  0.00    -0.048 C 
ATOM     56  H25 ALA d   1      14.489 -14.864  -2.762  0.00  0.00     0.036 H 
ATOM     57  H26 ALA d   1      15.213 -15.634  -1.310  0.00  0.00     0.036 H 
ATOM     58  H27 ALA d   1      13.230 -16.826  -2.652  0.00  0.00     0.035 H 
ATOM     59  H28 ALA d   1      14.594 -17.781  -1.978  0.00  0.00     0.035 H 
ATOM     60  H29 ALA d   1      14.818 -18.483  -4.182  0.00  0.00     0.064 H 
ATOM     61  H30 ALA d   1      14.008 -17.019  -4.835  0.00  0.00     0.064 H 
BRANCH  51  62
ATOM     62  C   ALA d   1      17.429 -16.510  -2.225  0.00  0.00     0.241 C 
ATOM     63  O   ALA d   1      17.687 -17.706  -2.351  0.00  0.00    -0.271 OA
ATOM     64  N   ALA d   1      18.191 -15.765  -1.272  0.00  0.00    -0.355 N 
ATOM     65  H35 ALA d   1      17.977 -14.807  -1.084  0.00  0.00     0.162 HD
BRANCH  64  66
ATOM     66  CB  ALA d   1      19.295 -16.437  -0.576  0.00  0.00     0.014 C 
ATOM     67  H34 ALA d   1      19.346 -17.491  -0.886  0.00  0.00     0.072 H 
BRANCH  66  68
ATOM     68  CG  ALA d   1      20.637 -15.746  -0.881  0.00  0.00    -0.057 C 
ATOM     69  H31 ALA d   1      21.447 -16.267  -0.349  0.00  0.00     0.030 H 
ATOM     70  H32 ALA d   1      20.594 -14.698  -0.548  0.00  0.00     0.030 H 
ATOM     71  H33 ALA d   1      20.829 -15.779  -1.964  0.00  0.00     0.030 H 
ENDBRANCH  66  68
BRANCH  66  72
ATOM     72  CA  ALA d   1      19.011 -16.340   0.943  0.00  0.00     0.002 C 
ATOM     73  H36 ALA d   1      18.895 -15.283   1.223  0.00  0.00     0.046 H 
ATOM     74  H37 ALA d   1      19.855 -16.776   1.498  0.00  0.00     0.046 H 
BRANCH  72  75
ATOM     75  C   ALA d   1      17.746 -17.089   1.294  0.00  0.00     0.090 C 
ATOM     76  O   ALA d   1      16.660 -16.544   1.210  0.00  0.00    -0.307 OA
ATOM     77  H38 ALA d   1      17.806 -18.125   1.625  0.00  0.00     0.143 H 
ENDBRANCH  72  75
ENDBRANCH  66  72
ENDBRANCH  64  66
ENDBRANCH  51  62
ENDBRANCH  46  48
BRANCH  46  78
ATOM     78  CB  ALA d   1      17.260 -19.083  -6.265  0.00  0.00     0.044 C 
ATOM     79  H21 ALA d   1      17.099 -19.720  -7.148  0.00  0.00     0.077 H 
ATOM     80  H22 ALA d   1      16.898 -19.604  -5.366  0.00  0.00     0.077 H 
BRANCH  78  81
ATOM     81  OG  ALA d   1      18.647 -18.830  -6.125  0.00  0.00    -0.398 OA
ATOM     82  H23 ALA d   1      18.793 -18.284  -5.361  0.00  0.00     0.209 HD
ENDBRANCH  78  81
ENDBRANCH  46  78
ENDBRANCH  44  46
ENDBRANCH   1  42
TORSDOF 21
