REMARK  17 active torsions:
REMARK  status: ('A' for Active; 'I' for Inactive)
REMARK    1  A    between atoms: CA_2  and  N_1 
REMARK    2  A    between atoms: CA_2  and  CB_5 
REMARK    3  A    between atoms: C_3  and  CA_2 
REMARK       I    between atoms: N_6  and  C_3 
REMARK    4  A    between atoms: CA_7  and  N_6 
REMARK    5  A    between atoms: CA_7  and  CB_10 
REMARK    6  A    between atoms: C_8  and  CA_7 
REMARK       I    between atoms: N_16  and  C_8 
REMARK    7  A    between atoms: CB_10  and  CG_11 
REMARK    8  A    between atoms: CA_17  and  N_16 
REMARK    9  A    between atoms: CA_17  and  CB_18 
REMARK   10  A    between atoms: C_20  and  CA_17 
REMARK   11  A    between atoms: CB_18  and  OG_19 
REMARK   12  A    between atoms: OG_19  and  P_22 
REMARK       I    between atoms: N_26  and  C_20 
REMARK   13  A    between atoms: CA_27  and  N_26 
REMARK   14  A    between atoms: CA_27  and  CB_30 
REMARK   15  A    between atoms: C_28  and  CA_27 
REMARK       I    between atoms: C_28  and  N_32 
REMARK   16  A    between atoms: CB_30  and  OG_31 
REMARK   17  A    between atoms: CA_33  and  C_34 
ROOT
ATOM      1  CA  ALA d   1      16.125 -15.688  -9.761  0.00  0.00     0.110 C 
ATOM      2  H16 ALA d   1      15.822 -16.600 -10.296  0.00  0.00     0.090 H 
ENDROOT
BRANCH   1   3
ATOM      3  N   ALA d   1      15.199 -14.612 -10.098  0.00  0.00    -0.344 N 
ATOM      4  C   ALA d   1      14.088 -14.852 -10.766  0.00  0.00     0.241 C 
ATOM      5  O   ALA d   1      13.868 -15.921 -11.295  0.00  0.00    -0.271 OA
ATOM      6  H15 ALA d   1      15.411 -13.676  -9.817  0.00  0.00     0.163 HD
BRANCH   4   7
ATOM      7  CA  ALA d   1      13.092 -13.730 -10.885  0.00  0.00     0.094 C 
ATOM      8  H9  ALA d   1      13.532 -12.808 -10.478  0.00  0.00     0.088 H 
BRANCH   7   9
ATOM      9  N   ALA d   1      12.711 -13.508 -12.264  0.00  0.00    -0.346 N 
ATOM     10  C   ALA d   1      13.398 -12.704 -13.061  0.00  0.00     0.248 C 
ATOM     11  O   ALA d   1      14.402 -12.093 -12.691  0.00  0.00    -0.271 OA
ATOM     12  H8  ALA d   1      11.905 -13.976 -12.626  0.00  0.00     0.163 HD
BRANCH  10  13
ATOM     13  CA  ALA d   1      12.870 -12.587 -14.486  0.00  0.00     0.172 C 
ATOM     14  H4  ALA d   1      11.772 -12.635 -14.452  0.00  0.00     0.098 H 
BRANCH  13  15
ATOM     15  N   ALA d   1      13.257 -11.313 -15.099  0.00  0.00    -0.067 N 
ATOM     16  H1  ALA d   1      12.893 -11.268 -16.038  0.00  0.00     0.275 HD
ATOM     17  H2  ALA d   1      14.262 -11.244 -15.125  0.00  0.00     0.275 HD
ATOM     18  H3  ALA d   1      12.882 -10.551 -14.556  0.00  0.00     0.275 HD
ENDBRANCH  13  15
BRANCH  13  19
ATOM     19  CB  ALA d   1      13.379 -13.744 -15.326  0.00  0.00    -0.042 C 
ATOM     20  H5  ALA d   1      13.084 -14.695 -14.858  0.00  0.00     0.030 H 
ATOM     21  H6  ALA d   1      14.476 -13.694 -15.393  0.00  0.00     0.030 H 
ATOM     22  H7  ALA d   1      12.946 -13.682 -16.335  0.00  0.00     0.030 H 
ENDBRANCH  13  19
ENDBRANCH  10  13
ENDBRANCH   7   9
BRANCH   7  23
ATOM     23  CB  ALA d   1      11.848 -14.107 -10.086  0.00  0.00     0.004 C 
ATOM     24  H10 ALA d   1      12.113 -14.135  -9.019  0.00  0.00     0.046 H 
ATOM     25  H11 ALA d   1      11.515 -15.105 -10.408  0.00  0.00     0.046 H 
BRANCH  23  26
ATOM     26  CG  ALA d   1      10.719 -13.147 -10.270  0.00  0.00     0.053 A 
ATOM     27  ND1 ALA d   1      10.555 -12.047  -9.460  0.00  0.00    -0.247 NA
ATOM     28  CE1 ALA d   1       9.496 -11.365  -9.858  0.00  0.00     0.064 A 
ATOM     29  NE2 ALA d   1       8.975 -11.977 -10.906  0.00  0.00    -0.359 N 
ATOM     30  H13 ALA d   1       9.117 -10.453  -9.400  0.00  0.00     0.143 H 
ATOM     31  CD2 ALA d   1       9.723 -13.094 -11.188  0.00  0.00     0.002 A 
ATOM     32  H14 ALA d   1       8.143 -11.667 -11.427  0.00  0.00     0.166 HD
ATOM     33  H12 ALA d   1       9.549 -13.803 -11.996  0.00  0.00     0.114 H 
ENDBRANCH  23  26
ENDBRANCH   7  23
ENDBRANCH   4   7
ENDBRANCH   1   3
BRANCH   1  34
ATOM     34  CB  ALA d   1      17.555 -15.363 -10.178  0.00  0.00     0.059 C 
ATOM     35  H17 ALA d   1      17.604 -15.254 -11.271  0.00  0.00     0.079 H 
ATOM     36  H18 ALA d   1      18.225 -16.175  -9.860  0.00  0.00     0.079 H 
BRANCH  34  37
ATOM     37  OG  ALA d   1      17.955 -14.147  -9.560  0.00  0.00    -0.280 OA
BRANCH  37  38
ATOM     38  P   ALA d   1      19.408 -13.595  -9.933  0.00  0.00     0.422 P 
ATOM     39  O1P ALA d   1      19.422 -13.226 -11.450  0.00  0.00    -0.617 OA
ATOM     40  O2P ALA d   1      19.550 -12.347  -9.036  0.00  0.00    -0.617 OA
ATOM     41  O3P ALA d   1      20.440 -14.712  -9.609  0.00  0.00    -0.617 OA
ENDBRANCH  37  38
ENDBRANCH  34  37
ENDBRANCH   1  34
BRANCH   1  42
ATOM     42  C   ALA d   1      15.975 -15.925  -8.281  0.00  0.00     0.243 C 
ATOM     43  O   ALA d   1      15.179 -15.260  -7.601  0.00  0.00    -0.271 OA
ATOM     44  N   ALA d   1      16.781 -16.796  -7.718  0.00  0.00    -0.344 N 
ATOM     45  H19 ALA d   1      17.409 -17.349  -8.266  0.00  0.00     0.163 HD
BRANCH  44  46
ATOM     46  CA  ALA d   1      16.729 -16.929  -6.275  0.00  0.00     0.109 C 
ATOM     47  H20 ALA d   1      15.713 -17.232  -5.981  0.00  0.00     0.090 H 
BRANCH  46  48
ATOM     48  CB  ALA d   1      17.700 -17.993  -5.834  0.00  0.00     0.044 C 
ATOM     49  H21 ALA d   1      17.700 -18.067  -4.737  0.00  0.00     0.077 H 
ATOM     50  H22 ALA d   1      18.712 -17.743  -6.184  0.00  0.00     0.077 H 
BRANCH  48  51
ATOM     51  OG  ALA d   1      17.289 -19.213  -6.395  0.00  0.00    -0.398 OA
ATOM     52  H23 ALA d   1      16.413 -19.421  -6.091  0.00  0.00     0.209 HD
ENDBRANCH  48  51
ENDBRANCH  46  48
BRANCH  46  53
ATOM     53  C   ALA d   1      17.054 -15.585  -5.608  0.00  0.00     0.245 C 
ATOM     54  O   ALA d   1      18.038 -14.930  -5.962  0.00  0.00    -0.271 OA
ATOM     55  N   ALA d   1      16.206 -15.149  -4.660  0.00  0.00    -0.336 N 
ATOM     56  CA  ALA d   1      16.497 -13.893  -3.953  0.00  0.00     0.098 C 
ATOM     57  CD  ALA d   1      14.948 -15.777  -4.214  0.00  0.00    -0.001 C 
ATOM     58  CB  ALA d   1      15.358 -13.775  -2.927  0.00  0.00    -0.035 C 
ATOM     59  H24 ALA d   1      16.477 -13.047  -4.656  0.00  0.00     0.089 H 
ATOM     60  CG  ALA d   1      14.289 -14.708  -3.379  0.00  0.00    -0.048 C 
ATOM     61  H25 ALA d   1      14.976 -12.744  -2.899  0.00  0.00     0.036 H 
ATOM     62  H26 ALA d   1      15.715 -14.061  -1.927  0.00  0.00     0.036 H 
ATOM     63  H27 ALA d   1      13.794 -15.163  -2.508  0.00  0.00     0.035 H 
ATOM     64  H28 ALA d   1      13.546 -14.165  -3.981  0.00  0.00     0.035 H 
ATOM     65  H29 ALA d   1      15.150 -16.675  -3.612  0.00  0.00     0.064 H 
ATOM     66  H30 ALA d   1      14.318 -16.046  -5.074  0.00  0.00     0.064 H 
BRANCH  56  67
ATOM     67  C   ALA d   1      17.852 -13.916  -3.238  0.00  0.00     0.196 C 
ATOM     68  OXT ALA d   1      18.281 -14.992  -2.802  0.00  0.00    -0.646 OA
ATOM     69  O   ALA d   1      18.482 -12.858  -3.115  0.00  0.00    -0.646 OA
ENDBRANCH  56  67
ENDBRANCH  46  53
ENDBRANCH  44  46
ENDBRANCH   1  42
TORSDOF 17
