REMARK WARNING: 32 MAX_TORS EXCEEDED!!!
REMARK  36 active torsions:
REMARK  status: ('A' for Active; 'I' for Inactive)
REMARK    1  A    between atoms: CA_2  and  N_1 
REMARK    2  A    between atoms: C_3  and  CA_2 
REMARK    3  A    between atoms: CA_2  and  CB_5 
REMARK       I    between atoms: N_6  and  C_3 
REMARK    4  A    between atoms: CA_7  and  N_6 
REMARK    5  A    between atoms: C_8  and  CA_7 
REMARK    6  A    between atoms: CA_7  and  CB_10 
REMARK       I    between atoms: N_16  and  C_8 
REMARK    7  A    between atoms: CB_10  and  CG_11 
REMARK    8  A    between atoms: CA_17  and  N_16 
REMARK    9  A    between atoms: CA_17  and  CB_18 
REMARK   10  A    between atoms: C_20  and  CA_17 
REMARK   11  A    between atoms: CB_18  and  OG_19 
REMARK   12  A    between atoms: OG_19  and  P_22 
REMARK       I    between atoms: N_26  and  C_20 
REMARK   13  A    between atoms: CA_27  and  N_26 
REMARK   14  A    between atoms: C_28  and  CA_27 
REMARK   15  A    between atoms: CA_27  and  CB_30 
REMARK       I    between atoms: N_32  and  C_28 
REMARK   16  A    between atoms: CB_30  and  OG_31 
REMARK   17  A    between atoms: C_34  and  CA_33 
REMARK       I    between atoms: N_39  and  C_34 
REMARK   18  A    between atoms: CA_40  and  N_39 
REMARK   19  A    between atoms: C_41  and  CA_40 
REMARK   20  A    between atoms: CA_40  and  CB_43 
REMARK       I    between atoms: N_44  and  C_41 
REMARK   21  A    between atoms: CA_45  and  N_44 
REMARK   22  A    between atoms: C_46  and  CA_45 
REMARK   23  A    between atoms: CA_45  and  CB_48 
REMARK       I    between atoms: N_54  and  C_46 
REMARK   24  A    between atoms: CB_48  and  OG_49 
REMARK   25  A    between atoms: CA_52  and  C_51 
REMARK       I    between atoms: C_51  and  N_59 
REMARK   26  A    between atoms: CB_53  and  CA_52 
REMARK   27  A    between atoms: CB_53  and  N_54 
REMARK   28  A    between atoms: CB_53  and  CG_55 
REMARK   29  A    between atoms: CG_55  and  CD_56 
REMARK   30  A    between atoms: CD_56  and  CE2_57 
REMARK   31  A    between atoms: CD_56  and  CE1_58 
REMARK   32  A    between atoms: N_59  and  CA_60 
REMARK   33  A    between atoms: CA_60  and  C_61 
REMARK   34  A    between atoms: CA_60  and  CB_63 
REMARK   35  A    between atoms: CB_63  and  CG_64 
REMARK   36  A    between atoms: CG_64  and  CD_65 
REMARK       I    between atoms: CD_65  and  NE2_67 
ROOT
ATOM      1  C   ALA d   1      16.966 -16.965  -5.372  0.00  0.00     0.245 C 
ATOM      2  O   ALA d   1      17.900 -16.183  -5.528  0.00  0.00    -0.271 OA
ATOM      3  N   ALA d   1      16.330 -17.071  -4.213  0.00  0.00    -0.337 N 
ATOM      4  CA  ALA d   1      16.917 -16.442  -3.031  0.00  0.00     0.091 C 
ATOM      5  CB  ALA d   1      15.936 -16.769  -1.900  0.00  0.00    -0.036 C 
ATOM      6  CG  ALA d   1      15.016 -17.755  -2.409  0.00  0.00    -0.048 C 
ATOM      7  CD  ALA d   1      15.076 -17.782  -3.908  0.00  0.00    -0.001 C 
ATOM      8  H24 ALA d   1      17.011 -15.354  -3.167  0.00  0.00     0.087 H 
ATOM      9  H25 ALA d   1      15.390 -15.863  -1.600  0.00  0.00     0.036 H 
ATOM     10  H26 ALA d   1      16.480 -17.172  -1.033  0.00  0.00     0.036 H 
ATOM     11  H27 ALA d   1      13.995 -17.501  -2.089  0.00  0.00     0.035 H 
ATOM     12  H28 ALA d   1      15.288 -18.745  -2.015  0.00  0.00     0.035 H 
ATOM     13  H29 ALA d   1      15.109 -18.816  -4.282  0.00  0.00     0.064 H 
ATOM     14  H30 ALA d   1      14.212 -17.261  -4.346  0.00  0.00     0.064 H 
ENDROOT
BRANCH   4  15
ATOM     15  C   ALA d   1      18.283 -17.046  -2.751  0.00  0.00     0.241 C 
ATOM     16  O   ALA d   1      18.614 -18.153  -3.183  0.00  0.00    -0.271 OA
ATOM     17  N   ALA d   1      19.095 -16.295  -2.014  0.00  0.00    -0.346 N 
ATOM     18  H31 ALA d   1      18.789 -15.397  -1.697  0.00  0.00     0.163 HD
BRANCH  17  19
ATOM     19  CA  ALA d   1      20.431 -16.771  -1.664  0.00  0.00     0.086 C 
ATOM     20  H32 ALA d   1      20.917 -17.156  -2.573  0.00  0.00     0.086 H 
BRANCH  19  21
ATOM     21  C   ALA d   1      20.381 -17.890  -0.637  0.00  0.00     0.240 C 
ATOM     22  O   ALA d   1      21.110 -18.882  -0.745  0.00  0.00    -0.271 OA
ATOM     23  N   ALA d   1      19.536 -17.752   0.361  0.00  0.00    -0.344 N 
ATOM     24  H36 ALA d   1      18.922 -16.963   0.372  0.00  0.00     0.163 HD
BRANCH  23  25
ATOM     25  CA  ALA d   1      19.470 -18.712   1.447  0.00  0.00     0.109 C 
ATOM     26  H37 ALA d   1      20.462 -19.161   1.600  0.00  0.00     0.090 H 
BRANCH  25  27
ATOM     27  C   ALA d   1      18.473 -19.812   1.099  0.00  0.00     0.242 C 
ATOM     28  O   ALA d   1      17.320 -19.555   0.735  0.00  0.00    -0.271 OA
ATOM     29  N   ALA d   1      19.017 -21.129   1.044  0.00  0.00    -0.354 N 
ATOM     30  H44 ALA d   1      19.981 -21.269   1.271  0.00  0.00     0.162 HD
BRANCH  29  31
ATOM     31  CB  ALA d   1      18.193 -22.286   0.661  0.00  0.00     0.020 C 
ATOM     32  H43 ALA d   1      17.125 -22.025   0.616  0.00  0.00     0.073 H 
BRANCH  31  33
ATOM     33  CA  ALA d   1      18.453 -23.323   1.780  0.00  0.00     0.028 C 
ATOM     34  H41 ALA d   1      19.393 -23.848   1.554  0.00  0.00     0.050 H 
ATOM     35  H42 ALA d   1      18.553 -22.785   2.734  0.00  0.00     0.050 H 
BRANCH  33  36
ATOM     36  C   ALA d   1      17.405 -24.308   1.921  0.00  0.00     0.220 C 
ATOM     37  O   ALA d   1      16.292 -24.136   1.369  0.00  0.00    -0.274 OA
ATOM     38  N   ALA d   1      17.877 -25.525   2.137  0.00  0.00    -0.346 N 
ATOM     39  H54 ALA d   1      18.802 -25.672   2.486  0.00  0.00     0.163 HD
BRANCH  38  40
ATOM     40  CA  ALA d   1      16.992 -26.636   1.844  0.00  0.00     0.096 C 
ATOM     41  H55 ALA d   1      16.369 -26.378   0.975  0.00  0.00     0.089 H 
BRANCH  40  42
ATOM     42  C   ALA d   1      16.093 -26.859   3.049  0.00  0.00     0.196 C 
ATOM     43  O   ALA d   1      15.119 -27.612   2.984  0.00  0.00    -0.646 OA
ATOM     44  OXT ALA d   1      16.343 -26.274   4.110  0.00  0.00    -0.646 OA
ENDBRANCH  40  42
BRANCH  40  45
ATOM     45  CB  ALA d   1      17.781 -27.892   1.515  0.00  0.00    -0.029 C 
ATOM     46  H56 ALA d   1      18.362 -27.703   0.600  0.00  0.00     0.037 H 
ATOM     47  H57 ALA d   1      17.067 -28.709   1.334  0.00  0.00     0.037 H 
BRANCH  45  48
ATOM     48  CG  ALA d   1      18.739 -28.333   2.601  0.00  0.00     0.011 C 
ATOM     49  H58 ALA d   1      18.264 -28.175   3.580  0.00  0.00     0.047 H 
ATOM     50  H59 ALA d   1      19.655 -27.727   2.536  0.00  0.00     0.047 H 
BRANCH  48  51
ATOM     51  CD  ALA d   1      19.108 -29.796   2.465  0.00  0.00     0.215 C 
ATOM     52  OE1 ALA d   1      18.949 -30.383   1.391  0.00  0.00    -0.274 OA
ATOM     53  NE2 ALA d   1      19.604 -30.400   3.558  0.00  0.00    -0.370 N 
ATOM     54  H60 ALA d   1      19.863 -31.365   3.522  0.00  0.00     0.159 HD
ATOM     55  H61 ALA d   1      19.714 -29.884   4.408  0.00  0.00     0.159 HD
ENDBRANCH  48  51
ENDBRANCH  45  48
ENDBRANCH  40  45
ENDBRANCH  38  40
ENDBRANCH  33  36
ENDBRANCH  31  33
BRANCH  31  56
ATOM     56  CG  ALA d   1      18.677 -22.780  -0.735  0.00  0.00    -0.043 C 
ATOM     57  H45 ALA d   1      18.144 -23.710  -0.981  0.00  0.00     0.036 H 
ATOM     58  H46 ALA d   1      19.757 -22.980  -0.680  0.00  0.00     0.036 H 
BRANCH  56  59
ATOM     59  CD  ALA d   1      18.425 -21.762  -1.858  0.00  0.00    -0.059 C 
ATOM     60  H47 ALA d   1      18.795 -20.789  -1.502  0.00  0.00     0.038 H 
BRANCH  59  61
ATOM     61  CE2 ALA d   1      16.923 -21.587  -2.212  0.00  0.00    -0.073 C 
ATOM     62  H48 ALA d   1      16.820 -20.847  -3.019  0.00  0.00     0.028 H 
ATOM     63  H49 ALA d   1      16.375 -21.239  -1.324  0.00  0.00     0.028 H 
ATOM     64  H50 ALA d   1      16.510 -22.551  -2.543  0.00  0.00     0.028 H 
ENDBRANCH  59  61
BRANCH  59  65
ATOM     65  CE1 ALA d   1      19.222 -22.137  -3.139  0.00  0.00    -0.073 C 
ATOM     66  H51 ALA d   1      20.285 -22.261  -2.886  0.00  0.00     0.028 H 
ATOM     67  H52 ALA d   1      19.113 -21.337  -3.886  0.00  0.00     0.028 H 
ATOM     68  H53 ALA d   1      18.831 -23.079  -3.551  0.00  0.00     0.028 H 
ENDBRANCH  59  65
ENDBRANCH  56  59
ENDBRANCH  31  56
ENDBRANCH  29  31
ENDBRANCH  25  27
BRANCH  25  69
ATOM     69  CB  ALA d   1      19.044 -17.982   2.722  0.00  0.00     0.044 C 
ATOM     70  H38 ALA d   1      17.993 -17.673   2.625  0.00  0.00     0.077 H 
ATOM     71  H39 ALA d   1      19.677 -17.092   2.855  0.00  0.00     0.077 H 
BRANCH  69  72
ATOM     72  OG  ALA d   1      19.177 -18.817   3.854  0.00  0.00    -0.398 OA
ATOM     73  H40 ALA d   1      18.629 -19.585   3.745  0.00  0.00     0.209 HD
ENDBRANCH  69  72
ENDBRANCH  25  69
ENDBRANCH  23  25
ENDBRANCH  19  21
BRANCH  19  74
ATOM     74  CB  ALA d   1      21.239 -15.601  -1.128  0.00  0.00    -0.049 C 
ATOM     75  H33 ALA d   1      22.249 -15.945  -0.860  0.00  0.00     0.030 H 
ATOM     76  H34 ALA d   1      20.743 -15.191  -0.236  0.00  0.00     0.030 H 
ATOM     77  H35 ALA d   1      21.310 -14.820  -1.900  0.00  0.00     0.030 H 
ENDBRANCH  19  74
ENDBRANCH  17  19
ENDBRANCH   4  15
BRANCH   1  78
ATOM     78  CA  ALA d   1      16.520 -17.897  -6.492  0.00  0.00     0.109 C 
ATOM     79  H20 ALA d   1      15.446 -18.102  -6.372  0.00  0.00     0.090 H 
BRANCH  78  80
ATOM     80  N   ALA d   1      16.731 -17.315  -7.808  0.00  0.00    -0.344 N 
ATOM     81  C   ALA d   1      15.985 -16.303  -8.205  0.00  0.00     0.243 C 
ATOM     82  O   ALA d   1      15.219 -15.739  -7.440  0.00  0.00    -0.271 OA
ATOM     83  H19 ALA d   1      17.440 -17.681  -8.410  0.00  0.00     0.163 HD
BRANCH  81  84
ATOM     84  CA  ALA d   1      16.099 -15.896  -9.679  0.00  0.00     0.110 C 
ATOM     85  H16 ALA d   1      15.789 -16.763 -10.280  0.00  0.00     0.090 H 
BRANCH  84  86
ATOM     86  N   ALA d   1      15.175 -14.802  -9.980  0.00  0.00    -0.344 N 
ATOM     87  C   ALA d   1      14.127 -15.005 -10.767  0.00  0.00     0.241 C 
ATOM     88  O   ALA d   1      13.972 -16.040 -11.411  0.00  0.00    -0.271 OA
ATOM     89  H15 ALA d   1      15.335 -13.895  -9.590  0.00  0.00     0.163 HD
BRANCH  87  90
ATOM     90  CA  ALA d   1      13.097 -13.908 -10.840  0.00  0.00     0.094 C 
ATOM     91  H9  ALA d   1      13.498 -12.989 -10.388  0.00  0.00     0.088 H 
BRANCH  90  92
ATOM     92  N   ALA d   1      12.729 -13.647 -12.211  0.00  0.00    -0.346 N 
ATOM     93  C   ALA d   1      13.445 -12.854 -12.994  0.00  0.00     0.248 C 
ATOM     94  O   ALA d   1      14.446 -12.255 -12.617  0.00  0.00    -0.271 OA
ATOM     95  H8  ALA d   1      11.907 -14.079 -12.582  0.00  0.00     0.163 HD
BRANCH  93  96
ATOM     96  CA  ALA d   1      12.939 -12.732 -14.423  0.00  0.00     0.172 C 
ATOM     97  H4  ALA d   1      11.839 -12.739 -14.392  0.00  0.00     0.098 H 
BRANCH  96  98
ATOM     98  N   ALA d   1      13.358 -11.487 -15.077  0.00  0.00    -0.067 N 
ATOM     99  H1  ALA d   1      12.995 -11.463 -16.017  0.00  0.00     0.275 HD
ATOM    100  H2  ALA d   1      14.365 -11.444 -15.105  0.00  0.00     0.275 HD
ATOM    101  H3  ALA d   1      13.002 -10.699 -14.559  0.00  0.00     0.275 HD
ENDBRANCH  96  98
BRANCH  96 102
ATOM    102  CB  ALA d   1      13.404 -13.940 -15.233  0.00  0.00    -0.042 C 
ATOM    103  H5  ALA d   1      13.083 -14.864 -14.730  0.00  0.00     0.030 H 
ATOM    104  H6  ALA d   1      14.501 -13.928 -15.312  0.00  0.00     0.030 H 
ATOM    105  H7  ALA d   1      12.963 -13.898 -16.240  0.00  0.00     0.030 H 
ENDBRANCH  96 102
ENDBRANCH  93  96
ENDBRANCH  90  92
BRANCH  90 106
ATOM    106  CB  ALA d   1      11.877 -14.378 -10.066  0.00  0.00     0.002 C 
ATOM    107  H10 ALA d   1      12.162 -14.511  -9.012  0.00  0.00     0.046 H 
ATOM    108  H11 ALA d   1      11.550 -15.342 -10.482  0.00  0.00     0.046 H 
BRANCH 106 109
ATOM    109  CG  ALA d   1      10.732 -13.422 -10.129  0.00  0.00     0.030 A 
ATOM    110  ND1 ALA d   1      10.537 -12.452  -9.169  0.00  0.00    -0.353 N 
ATOM    111  CE1 ALA d   1       9.460 -11.747  -9.475  0.00  0.00     0.063 A 
ATOM    112  H12 ALA d   1      11.135 -12.300  -8.344  0.00  0.00     0.166 HD
ATOM    113  NE2 ALA d   1       8.968 -12.207 -10.612  0.00  0.00    -0.254 NA
ATOM    114  H14 ALA d   1       9.049 -10.927  -8.889  0.00  0.00     0.143 H 
ATOM    115  CD2 ALA d   1       9.743 -13.256 -11.044  0.00  0.00     0.025 A 
ATOM    116  H13 ALA d   1       9.592 -13.843 -11.949  0.00  0.00     0.117 H 
ENDBRANCH 106 109
ENDBRANCH  90 106
ENDBRANCH  87  90
ENDBRANCH  84  86
BRANCH  84 117
ATOM    117  CB  ALA d   1      17.537 -15.555 -10.094  0.00  0.00     0.059 C 
ATOM    118  H17 ALA d   1      17.576 -15.383 -11.180  0.00  0.00     0.079 H 
ATOM    119  H18 ALA d   1      18.204 -16.390  -9.831  0.00  0.00     0.079 H 
BRANCH 117 120
ATOM    120  OG  ALA d   1      17.953 -14.383  -9.413  0.00  0.00    -0.280 OA
BRANCH 120 121
ATOM    121  P   ALA d   1      19.392 -13.782  -9.764  0.00  0.00     0.422 P 
ATOM    122  O1P ALA d   1      19.384 -13.440 -11.285  0.00  0.00    -0.617 OA
ATOM    123  O2P ALA d   1      19.531 -12.523  -8.871  0.00  0.00    -0.617 OA
ATOM    124  O3P ALA d   1      20.435 -14.873  -9.450  0.00  0.00    -0.617 OA
ENDBRANCH 120 121
ENDBRANCH 117 120
ENDBRANCH  84 117
ENDBRANCH  81  84
ENDBRANCH  78  80
BRANCH  78 125
ATOM    125  CB  ALA d   1      17.291 -19.203  -6.372  0.00  0.00     0.044 C 
ATOM    126  H21 ALA d   1      17.232 -19.749  -7.325  0.00  0.00     0.077 H 
ATOM    127  H22 ALA d   1      16.849 -19.814  -5.571  0.00  0.00     0.077 H 
BRANCH 125 128
ATOM    128  OG  ALA d   1      18.644 -18.940  -6.067  0.00  0.00    -0.398 OA
ATOM    129  H23 ALA d   1      18.696 -18.469  -5.243  0.00  0.00     0.209 HD
ENDBRANCH 125 128
ENDBRANCH  78 125
ENDBRANCH   1  78
TORSDOF 36
