REMARK  20 active torsions:
REMARK  status: ('A' for Active; 'I' for Inactive)
REMARK    1  A    between atoms: C4_1  and  C5_2 
REMARK    2  A    between atoms: C4_1  and  C1_11 
REMARK    3  A    between atoms: C9_13  and  C4_1 
REMARK    4  A    between atoms: C5_2  and  C6_3 
REMARK    5  A    between atoms: C5_2  and  C7_4 
REMARK    6  A    between atoms: C15_5  and  C17_6 
REMARK    7  A    between atoms: C14_18  and  C15_5 
REMARK    8  A    between atoms: C15_5  and  C16_19 
REMARK    9  A    between atoms: C21_7  and  C22_8 
REMARK   10  A    between atoms: C21_7  and  N20_22 
REMARK   11  A    between atoms: C25_24  and  C21_7 
REMARK   12  A    between atoms: C22_8  and  C24_9 
REMARK   13  A    between atoms: C22_8  and  C23_23 
REMARK   14  A    between atoms: O27_26  and  C28_10 
REMARK   15  A    between atoms: C28_10  and  C61_27 
REMARK   16  A    between atoms: C9_13  and  O10_14 
REMARK   17  A    between atoms: C11_15  and  C9_13 
REMARK       I    between atoms: N13_17  and  C11_15 
REMARK   18  A    between atoms: C14_18  and  N13_17 
REMARK   19  A    between atoms: C18_20  and  C14_18 
REMARK       I    between atoms: N20_22  and  C18_20 
REMARK   20  A    between atoms: C25_24  and  O27_26 
ROOT
ATOM      1  C14 EQE d   1      60.702-139.769  42.468  0.00  0.00     0.092 C 
ATOM      2  H24 EQE d   1      59.925-139.544  41.723  0.00  0.00     0.088 H 
ENDROOT
BRANCH   1   3
ATOM      3  C15 EQE d   1      61.224-141.167  42.286  0.00  0.00    -0.033 C 
ATOM      4  H9  EQE d   1      61.954-141.397  43.076  0.00  0.00     0.042 H 
BRANCH   3   5
ATOM      5  C17 EQE d   1      61.875-141.312  40.942  0.00  0.00    -0.071 C 
ATOM      6  H10 EQE d   1      62.251-142.339  40.825  0.00  0.00     0.028 H 
ATOM      7  H11 EQE d   1      62.713-140.604  40.862  0.00  0.00     0.028 H 
ATOM      8  H12 EQE d   1      61.139-141.099  40.153  0.00  0.00     0.028 H 
ENDBRANCH   3   5
BRANCH   3   9
ATOM      9  C16 EQE d   1      60.061-142.116  42.368  0.00  0.00    -0.071 C 
ATOM     10  H25 EQE d   1      60.420-143.148  42.237  0.00  0.00     0.028 H 
ATOM     11  H26 EQE d   1      59.336-141.877  41.576  0.00  0.00     0.028 H 
ATOM     12  H27 EQE d   1      59.576-142.018  43.351  0.00  0.00     0.028 H 
ENDBRANCH   3   9
ENDBRANCH   1   3
BRANCH   1  13
ATOM     13  N13 EQE d   1      61.804-138.858  42.342  0.00  0.00    -0.345 N 
ATOM     14  C11 EQE d   1      61.694-137.854  41.505  0.00  0.00     0.247 C 
ATOM     15  O12 EQE d   1      60.690-137.663  40.851  0.00  0.00    -0.271 OA
ATOM     16  H23 EQE d   1      62.637-138.986  42.880  0.00  0.00     0.163 HD
BRANCH  14  17
ATOM     17  C9  EQE d   1      62.845-136.901  41.373  0.00  0.00     0.122 C 
ATOM     18  H21 EQE d   1      62.964-136.580  40.328  0.00  0.00     0.099 H 
BRANCH  17  19
ATOM     19  C4  EQE d   1      62.598-135.734  42.279  0.00  0.00     0.033 C 
ATOM     20  H1  EQE d   1      61.628-135.274  42.040  0.00  0.00     0.056 H 
BRANCH  19  21
ATOM     21  C5  EQE d   1      63.690-134.733  42.114  0.00  0.00    -0.049 C 
ATOM     22  H2  EQE d   1      64.664-135.130  42.437  0.00  0.00     0.040 H 
BRANCH  21  23
ATOM     23  C6  EQE d   1      63.284-133.526  42.888  0.00  0.00    -0.072 C 
ATOM     24  H3  EQE d   1      64.062-132.754  42.797  0.00  0.00     0.028 H 
ATOM     25  H4  EQE d   1      63.156-133.795  43.947  0.00  0.00     0.028 H 
ATOM     26  H5  EQE d   1      62.334-133.138  42.491  0.00  0.00     0.028 H 
ENDBRANCH  21  23
BRANCH  21  27
ATOM     27  C7  EQE d   1      63.701-134.308  40.686  0.00  0.00    -0.072 C 
ATOM     28  H6  EQE d   1      63.995-135.158  40.053  0.00  0.00     0.028 H 
ATOM     29  H7  EQE d   1      64.420-133.486  40.553  0.00  0.00     0.028 H 
ATOM     30  H8  EQE d   1      62.696-133.966  40.397  0.00  0.00     0.028 H 
ENDBRANCH  21  27
ENDBRANCH  19  21
BRANCH  19  31
ATOM     31  C1  EQE d   1      62.605-136.211  43.686  0.00  0.00     0.095 C 
ATOM     32  O3  EQE d   1      61.696-135.951  44.449  0.00  0.00    -0.306 OA
ATOM     33  H20 EQE d   1      63.444-136.807  44.041  0.00  0.00     0.144 H 
ENDBRANCH  19  31
ENDBRANCH  17  19
BRANCH  17  34
ATOM     34  O10 EQE d   1      64.003-137.503  41.848  0.00  0.00    -0.385 OA
ATOM     35  H22 EQE d   1      63.868-137.783  42.746  0.00  0.00     0.210 HD
ENDBRANCH  17  34
ENDBRANCH  14  17
ENDBRANCH   1  13
BRANCH   1  36
ATOM     36  C18 EQE d   1      60.152-139.650  43.861  0.00  0.00     0.241 C 
ATOM     37  O19 EQE d   1      60.898-139.583  44.809  0.00  0.00    -0.271 OA
ATOM     38  N20 EQE d   1      58.845-139.584  43.990  0.00  0.00    -0.345 N 
ATOM     39  H28 EQE d   1      58.257-139.613  43.182  0.00  0.00     0.163 HD
BRANCH  38  40
ATOM     40  C21 EQE d   1      58.259-139.468  45.322  0.00  0.00     0.099 C 
ATOM     41  H13 EQE d   1      59.078-139.212  46.010  0.00  0.00     0.089 H 
BRANCH  40  42
ATOM     42  C22 EQE d   1      57.223-138.380  45.450  0.00  0.00    -0.032 C 
ATOM     43  H14 EQE d   1      56.791-138.391  46.462  0.00  0.00     0.042 H 
BRANCH  42  44
ATOM     44  C24 EQE d   1      57.896-137.074  45.199  0.00  0.00    -0.071 C 
ATOM     45  H15 EQE d   1      57.161-136.260  45.286  0.00  0.00     0.028 H 
ATOM     46  H16 EQE d   1      58.327-137.072  44.187  0.00  0.00     0.028 H 
ATOM     47  H17 EQE d   1      58.697-136.926  45.939  0.00  0.00     0.028 H 
ENDBRANCH  42  44
BRANCH  42  48
ATOM     48  C23 EQE d   1      56.130-138.591  44.433  0.00  0.00    -0.071 C 
ATOM     49  H29 EQE d   1      55.636-139.555  44.621  0.00  0.00     0.028 H 
ATOM     50  H30 EQE d   1      56.565-138.593  43.422  0.00  0.00     0.028 H 
ATOM     51  H31 EQE d   1      55.392-137.779  44.514  0.00  0.00     0.028 H 
ENDBRANCH  42  48
ENDBRANCH  40  42
BRANCH  40  52
ATOM     52  C25 EQE d   1      57.693-140.784  45.760  0.00  0.00     0.282 C 
ATOM     53  O26 EQE d   1      57.460-141.625  44.898  0.00  0.00    -0.263 OA
BRANCH  52  54
ATOM     54  O27 EQE d   1      57.452-140.885  46.963  0.00  0.00    -0.315 OA
BRANCH  54  55
ATOM     55  C28 EQE d   1      56.984-141.917  47.451  0.00  0.00     0.052 C 
ATOM     56  H18 EQE d   1      57.693-142.723  47.213  0.00  0.00     0.082 H 
ATOM     57  H19 EQE d   1      56.031-142.102  46.933  0.00  0.00     0.082 H 
BRANCH  55  58
ATOM     58  C61 EQE d   1      56.718-142.018  48.807  0.00  0.00    -0.034 A 
ATOM     59  C62 EQE d   1      56.446-143.249  49.359  0.00  0.00    -0.075 A 
ATOM     60  C63 EQE d   1      56.216-143.359  50.716  0.00  0.00    -0.082 A 
ATOM     61  H32 EQE d   1      56.412-144.131  48.729  0.00  0.00     0.084 H 
ATOM     62  C64 EQE d   1      56.286-142.247  51.525  0.00  0.00    -0.083 A 
ATOM     63  H33 EQE d   1      55.979-144.325  51.147  0.00  0.00     0.083 H 
ATOM     64  C65 EQE d   1      56.586-141.020  50.981  0.00  0.00    -0.082 A 
ATOM     65  H34 EQE d   1      56.105-142.339  52.590  0.00  0.00     0.083 H 
ATOM     66  C66 EQE d   1      56.830-140.917  49.630  0.00  0.00    -0.075 A 
ATOM     67  H35 EQE d   1      56.630-140.140  51.612  0.00  0.00     0.083 H 
ATOM     68  H36 EQE d   1      57.113-139.959  49.208  0.00  0.00     0.084 H 
ENDBRANCH  55  58
ENDBRANCH  54  55
ENDBRANCH  52  54
ENDBRANCH  40  52
ENDBRANCH  38  40
ENDBRANCH   1  36
TORSDOF 20
