REMARK  21 active torsions:
REMARK  status: ('A' for Active; 'I' for Inactive)
REMARK    1  A    between atoms: C4_1  and  C5_2 
REMARK    2  A    between atoms: C4_1  and  C1_12 
REMARK    3  A    between atoms: C9_14  and  C4_1 
REMARK    4  A    between atoms: C5_2  and  C6_3 
REMARK    5  A    between atoms: C5_2  and  C7_4 
REMARK    6  A    between atoms: C7_4  and  C8_5 
REMARK    7  A    between atoms: C15_6  and  C17_7 
REMARK    8  A    between atoms: C14_19  and  C15_6 
REMARK    9  A    between atoms: C15_6  and  C16_20 
REMARK   10  A    between atoms: C21_8  and  C22_9 
REMARK   11  A    between atoms: C21_8  and  N20_23 
REMARK   12  A    between atoms: C25_25  and  C21_8 
REMARK   13  A    between atoms: C22_9  and  C24_10 
REMARK   14  A    between atoms: C22_9  and  C23_24 
REMARK   15  A    between atoms: O27_27  and  C28_11 
REMARK   16  A    between atoms: C28_11  and  C29_28 
REMARK   17  A    between atoms: C9_14  and  O10_15 
REMARK   18  A    between atoms: C11_16  and  C9_14 
REMARK       I    between atoms: N13_18  and  C11_16 
REMARK   19  A    between atoms: C14_19  and  N13_18 
REMARK   20  A    between atoms: C18_21  and  C14_19 
REMARK       I    between atoms: N20_23  and  C18_21 
REMARK   21  A    between atoms: C25_25  and  O27_27 
ROOT
ATOM      1  C14 EQB d   1      61.382-140.402  42.213  0.00  0.00     0.092 C 
ATOM      2  H26 EQB d   1      60.576-140.203  41.491  0.00  0.00     0.088 H 
ENDROOT
BRANCH   1   3
ATOM      3  C15 EQB d   1      61.969-141.749  41.996  0.00  0.00    -0.033 C 
ATOM      4  H11 EQB d   1      62.816-141.915  42.678  0.00  0.00     0.042 H 
BRANCH   3   5
ATOM      5  C17 EQB d   1      62.440-141.856  40.565  0.00  0.00    -0.071 C 
ATOM      6  H12 EQB d   1      62.876-142.851  40.396  0.00  0.00     0.028 H 
ATOM      7  H13 EQB d   1      63.200-141.085  40.370  0.00  0.00     0.028 H 
ATOM      8  H14 EQB d   1      61.587-141.710  39.886  0.00  0.00     0.028 H 
ENDBRANCH   3   5
BRANCH   3   9
ATOM      9  C16 EQB d   1      60.880-142.738  42.276  0.00  0.00    -0.071 C 
ATOM     10  H27 EQB d   1      61.264-143.758  42.129  0.00  0.00     0.028 H 
ATOM     11  H28 EQB d   1      60.039-142.561  41.590  0.00  0.00     0.028 H 
ATOM     12  H29 EQB d   1      60.537-142.622  43.315  0.00  0.00     0.028 H 
ENDBRANCH   3   9
ENDBRANCH   1   3
BRANCH   1  13
ATOM     13  N13 EQB d   1      62.424-139.389  42.072  0.00  0.00    -0.345 N 
ATOM     14  C11 EQB d   1      62.509-138.602  41.013  0.00  0.00     0.247 C 
ATOM     15  O12 EQB d   1      61.713-138.624  40.094  0.00  0.00    -0.271 OA
ATOM     16  H25 EQB d   1      63.098-139.287  42.803  0.00  0.00     0.163 HD
BRANCH  14  17
ATOM     17  C9  EQB d   1      63.624-137.599  40.985  0.00  0.00     0.122 C 
ATOM     18  H23 EQB d   1      63.839-137.240  39.968  0.00  0.00     0.099 H 
BRANCH  17  19
ATOM     19  C4  EQB d   1      63.208-136.488  41.904  0.00  0.00     0.033 C 
ATOM     20  H1  EQB d   1      62.192-136.183  41.611  0.00  0.00     0.056 H 
BRANCH  19  21
ATOM     21  C5  EQB d   1      64.074-135.279  41.890  0.00  0.00    -0.046 C 
ATOM     22  H2  EQB d   1      65.093-135.483  42.252  0.00  0.00     0.040 H 
BRANCH  21  23
ATOM     23  C6  EQB d   1      64.104-134.696  40.506  0.00  0.00    -0.072 C 
ATOM     24  H3  EQB d   1      64.745-133.802  40.498  0.00  0.00     0.028 H 
ATOM     25  H4  EQB d   1      63.084-134.418  40.203  0.00  0.00     0.028 H 
ATOM     26  H5  EQB d   1      64.505-135.441  39.803  0.00  0.00     0.028 H 
ENDBRANCH  21  23
BRANCH  21  27
ATOM     27  C7  EQB d   1      63.305-134.369  42.807  0.00  0.00    -0.065 C 
ATOM     28  H6  EQB d   1      63.221-134.844  43.796  0.00  0.00     0.033 H 
ATOM     29  H7  EQB d   1      62.300-134.207  42.391  0.00  0.00     0.033 H 
BRANCH  27  30
ATOM     30  C8  EQB d   1      63.995-133.035  42.959  0.00  0.00    -0.076 C 
ATOM     31  H8  EQB d   1      63.409-132.394  43.634  0.00  0.00     0.027 H 
ATOM     32  H9  EQB d   1      64.079-132.551  41.975  0.00  0.00     0.027 H 
ATOM     33  H10 EQB d   1      65.000-133.188  43.379  0.00  0.00     0.027 H 
ENDBRANCH  27  30
ENDBRANCH  21  27
ENDBRANCH  19  21
BRANCH  19  34
ATOM     34  C1  EQB d   1      63.188-136.971  43.309  0.00  0.00     0.095 C 
ATOM     35  O3  EQB d   1      62.373-136.548  44.110  0.00  0.00    -0.306 OA
ATOM     36  H22 EQB d   1      63.915-137.716  43.629  0.00  0.00     0.144 H 
ENDBRANCH  19  34
ENDBRANCH  17  19
BRANCH  17  37
ATOM     37  O10 EQB d   1      64.731-138.218  41.571  0.00  0.00    -0.385 OA
ATOM     38  H24 EQB d   1      64.487-138.559  42.423  0.00  0.00     0.210 HD
ENDBRANCH  17  37
ENDBRANCH  14  17
ENDBRANCH   1  13
BRANCH   1  39
ATOM     39  C18 EQB d   1      60.842-140.450  43.590  0.00  0.00     0.241 C 
ATOM     40  O19 EQB d   1      61.516-140.859  44.509  0.00  0.00    -0.271 OA
ATOM     41  N20 EQB d   1      59.584-140.141  43.725  0.00  0.00    -0.345 N 
ATOM     42  H30 EQB d   1      59.026-139.888  42.934  0.00  0.00     0.163 HD
BRANCH  41  43
ATOM     43  C21 EQB d   1      59.022-140.176  45.054  0.00  0.00     0.099 C 
ATOM     44  H15 EQB d   1      59.808-140.047  45.812  0.00  0.00     0.089 H 
BRANCH  43  45
ATOM     45  C22 EQB d   1      57.995-139.112  45.153  0.00  0.00    -0.032 C 
ATOM     46  H16 EQB d   1      58.418-138.109  44.994  0.00  0.00     0.042 H 
BRANCH  45  47
ATOM     47  C24 EQB d   1      56.970-139.451  44.103  0.00  0.00    -0.071 C 
ATOM     48  H17 EQB d   1      56.168-138.698  44.117  0.00  0.00     0.028 H 
ATOM     49  H18 EQB d   1      56.544-140.443  44.313  0.00  0.00     0.028 H 
ATOM     50  H19 EQB d   1      57.449-139.459  43.113  0.00  0.00     0.028 H 
ENDBRANCH  45  47
BRANCH  45  51
ATOM     51  C23 EQB d   1      57.385-139.236  46.525  0.00  0.00    -0.071 C 
ATOM     52  H31 EQB d   1      58.140-138.987  47.286  0.00  0.00     0.028 H 
ATOM     53  H32 EQB d   1      57.036-140.268  46.679  0.00  0.00     0.028 H 
ATOM     54  H33 EQB d   1      56.534-138.544  46.612  0.00  0.00     0.028 H 
ENDBRANCH  45  51
ENDBRANCH  43  45
BRANCH  43  55
ATOM     55  C25 EQB d   1      58.297-141.457  45.245  0.00  0.00     0.282 C 
ATOM     56  O26 EQB d   1      57.820-142.031  44.290  0.00  0.00    -0.263 OA
BRANCH  55  57
ATOM     57  O27 EQB d   1      58.202-141.849  46.525  0.00  0.00    -0.315 OA
BRANCH  57  58
ATOM     58  C28 EQB d   1      57.579-143.099  46.766  0.00  0.00     0.052 C 
ATOM     59  H20 EQB d   1      58.221-143.910  46.391  0.00  0.00     0.082 H 
ATOM     60  H21 EQB d   1      56.608-143.133  46.251  0.00  0.00     0.082 H 
BRANCH  58  61
ATOM     61  C29 EQB d   1      57.386-143.252  48.136  0.00  0.00    -0.034 A 
ATOM     62  C30 EQB d   1      57.285-144.502  48.690  0.00  0.00    -0.075 A 
ATOM     63  C31 EQB d   1      57.085-144.664  50.050  0.00  0.00    -0.082 A 
ATOM     64  H34 EQB d   1      57.363-145.376  48.054  0.00  0.00     0.084 H 
ATOM     65  C32 EQB d   1      56.978-143.575  50.880  0.00  0.00    -0.083 A 
ATOM     66  H35 EQB d   1      57.012-145.663  50.465  0.00  0.00     0.083 H 
ATOM     67  C33 EQB d   1      57.074-142.315  50.331  0.00  0.00    -0.082 A 
ATOM     68  H36 EQB d   1      56.821-143.704  51.945  0.00  0.00     0.083 H 
ATOM     69  C34 EQB d   1      57.275-142.162  48.972  0.00  0.00    -0.075 A 
ATOM     70  H37 EQB d   1      56.992-141.441  50.967  0.00  0.00     0.083 H 
ATOM     71  H38 EQB d   1      57.347-141.164  48.555  0.00  0.00     0.084 H 
ENDBRANCH  58  61
ENDBRANCH  57  58
ENDBRANCH  55  57
ENDBRANCH  43  55
ENDBRANCH  41  43
ENDBRANCH   1  39
TORSDOF 21
