REMARK  18 active torsions:
REMARK  status: ('A' for Active; 'I' for Inactive)
REMARK    1  A    between atoms: CA_2  and  N_1 
REMARK    2  A    between atoms: C_3  and  CA_2 
REMARK    3  A    between atoms: CA_2  and  CB_5 
REMARK       I    between atoms: N_6  and  C_3 
REMARK    4  A    between atoms: CA_7  and  N_6 
REMARK    5  A    between atoms: C_8  and  CA_7 
REMARK    6  A    between atoms: CA_7  and  CB_10 
REMARK       I    between atoms: N_16  and  C_8 
REMARK    7  A    between atoms: CB_10  and  CG_11 
REMARK    8  A    between atoms: CA_17  and  N_16 
REMARK    9  A    between atoms: CA_17  and  CB_18 
REMARK   10  A    between atoms: C_20  and  CA_17 
REMARK   11  A    between atoms: CB_18  and  OG_19 
REMARK   12  A    between atoms: OG_19  and  P_22 
REMARK       I    between atoms: N_26  and  C_20 
REMARK   13  A    between atoms: CA_27  and  N_26 
REMARK   14  A    between atoms: C_28  and  CA_27 
REMARK   15  A    between atoms: CA_27  and  CB_30 
REMARK       I    between atoms: N08_38  and  C_28 
REMARK   16  A    between atoms: CB_30  and  OG_31 
REMARK   17  A    between atoms: C03_33  and  C02_32 
REMARK   18  A    between atoms: C04_34  and  C03_33 
ROOT
ATOM      1  CA  ALA d   1      16.140 -15.664  -9.706  0.00  0.00     0.110 C 
ATOM      2  H16 ALA d   1      15.844 -16.550 -10.286  0.00  0.00     0.090 H 
ENDROOT
BRANCH   1   3
ATOM      3  N   ALA d   1      15.217 -14.576  -9.989  0.00  0.00    -0.344 N 
ATOM      4  C   ALA d   1      14.127 -14.798 -10.705  0.00  0.00     0.241 C 
ATOM      5  O   ALA d   1      13.928 -15.854 -11.296  0.00  0.00    -0.271 OA
ATOM      6  H15 ALA d   1      15.407 -13.658  -9.641  0.00  0.00     0.163 HD
BRANCH   4   7
ATOM      7  CA  ALA d   1      13.106 -13.677 -10.765  0.00  0.00     0.094 C 
ATOM      8  H9  ALA d   1      13.560 -12.755 -10.374  0.00  0.00     0.088 H 
BRANCH   7   9
ATOM      9  N   ALA d   1      12.701 -13.450 -12.143  0.00  0.00    -0.346 N 
ATOM     10  C   ALA d   1      13.409 -12.688 -12.972  0.00  0.00     0.248 C 
ATOM     11  O   ALA d   1      14.413 -12.061 -12.624  0.00  0.00    -0.271 OA
ATOM     12  H8  ALA d   1      11.863 -13.881 -12.478  0.00  0.00     0.163 HD
BRANCH  10  13
ATOM     13  CA  ALA d   1      12.901 -12.626 -14.411  0.00  0.00     0.172 C 
ATOM     14  H4  ALA d   1      11.805 -12.719 -14.396  0.00  0.00     0.098 H 
BRANCH  13  15
ATOM     15  N   ALA d   1      13.243 -11.351 -15.038  0.00  0.00    -0.067 N 
ATOM     16  H1  ALA d   1      12.896 -11.338 -15.984  0.00  0.00     0.275 HD
ATOM     17  H2  ALA d   1      14.245 -11.238 -15.046  0.00  0.00     0.275 HD
ATOM     18  H3  ALA d   1      12.824 -10.597 -14.517  0.00  0.00     0.275 HD
ENDBRANCH  13  15
BRANCH  13  19
ATOM     19  CB  ALA d   1      13.472 -13.788 -15.214  0.00  0.00    -0.042 C 
ATOM     20  H5  ALA d   1      13.204 -14.737 -14.727  0.00  0.00     0.030 H 
ATOM     21  H6  ALA d   1      14.567 -13.697 -15.263  0.00  0.00     0.030 H 
ATOM     22  H7  ALA d   1      13.057 -13.769 -16.233  0.00  0.00     0.030 H 
ENDBRANCH  13  19
ENDBRANCH  10  13
ENDBRANCH   7   9
BRANCH   7  23
ATOM     23  CB  ALA d   1      11.905 -14.047  -9.889  0.00  0.00     0.004 C 
ATOM     24  H10 ALA d   1      12.245 -14.108  -8.845  0.00  0.00     0.046 H 
ATOM     25  H11 ALA d   1      11.533 -15.031 -10.211  0.00  0.00     0.046 H 
BRANCH  23  26
ATOM     26  CG  ALA d   1      10.773 -13.071  -9.958  0.00  0.00     0.053 A 
ATOM     27  ND1 ALA d   1      10.126 -12.760 -11.135  0.00  0.00    -0.247 NA
ATOM     28  CE1 ALA d   1       9.169 -11.884 -10.891  0.00  0.00     0.064 A 
ATOM     29  NE2 ALA d   1       9.165 -11.621  -9.596  0.00  0.00    -0.359 N 
ATOM     30  H13 ALA d   1       8.497 -11.452 -11.631  0.00  0.00     0.143 H 
ATOM     31  CD2 ALA d   1      10.157 -12.353  -8.989  0.00  0.00     0.002 A 
ATOM     32  H14 ALA d   1       8.523 -10.973  -9.119  0.00  0.00     0.166 HD
ATOM     33  H12 ALA d   1      10.402 -12.355  -7.928  0.00  0.00     0.114 H 
ENDBRANCH  23  26
ENDBRANCH   7  23
ENDBRANCH   4   7
ENDBRANCH   1   3
BRANCH   1  34
ATOM     34  CB  ALA d   1      17.568 -15.289 -10.097  0.00  0.00     0.059 C 
ATOM     35  H17 ALA d   1      17.617 -15.107 -11.181  0.00  0.00     0.079 H 
ATOM     36  H18 ALA d   1      18.250 -16.110  -9.832  0.00  0.00     0.079 H 
BRANCH  34  37
ATOM     37  OG  ALA d   1      17.944 -14.123  -9.406  0.00  0.00    -0.280 OA
BRANCH  37  38
ATOM     38  P   ALA d   1      19.405 -13.601  -9.812  0.00  0.00     0.422 P 
ATOM     39  O1P ALA d   1      19.387 -13.236 -11.367  0.00  0.00    -0.617 OA
ATOM     40  O2P ALA d   1      20.517 -14.733  -9.536  0.00  0.00    -0.617 OA
ATOM     41  O3P ALA d   1      19.648 -12.292  -8.940  0.00  0.00    -0.617 OA
ENDBRANCH  37  38
ENDBRANCH  34  37
ENDBRANCH   1  34
BRANCH   1  42
ATOM     42  C   ALA d   1      16.023 -15.980  -8.217  0.00  0.00     0.243 C 
ATOM     43  O   ALA d   1      15.283 -15.305  -7.490  0.00  0.00    -0.271 OA
ATOM     44  N   ALA d   1      16.750 -16.989  -7.755  0.00  0.00    -0.344 N 
ATOM     45  H19 ALA d   1      17.453 -17.403  -8.333  0.00  0.00     0.163 HD
BRANCH  44  46
ATOM     46  CA  ALA d   1      16.527 -17.493  -6.411  0.00  0.00     0.104 C 
ATOM     47  H20 ALA d   1      15.454 -17.704  -6.290  0.00  0.00     0.090 H 
BRANCH  46  48
ATOM     48  C   ALA d   1      16.934 -16.429  -5.394  0.00  0.00     0.225 C 
ATOM     49  O   ALA d   1      17.845 -15.641  -5.642  0.00  0.00    -0.277 OA
ATOM     50  N08 ALA d   1      16.460 -16.279  -4.054  0.00  0.00    -0.246 NA
ATOM     51  C04 ALA d   1      16.559 -15.012  -3.278  0.00  0.00     0.011 C 
ATOM     52  C07 ALA d   1      15.059 -16.744  -4.004  0.00  0.00    -0.013 C 
ATOM     53  C05 ALA d   1      15.352 -15.039  -2.314  0.00  0.00    -0.048 C 
ATOM     54  H26 ALA d   1      16.483 -14.144  -3.949  0.00  0.00     0.065 H 
ATOM     55  C06 ALA d   1      14.554 -16.302  -2.639  0.00  0.00    -0.052 C 
ATOM     56  H27 ALA d   1      14.727 -14.147  -2.465  0.00  0.00     0.035 H 
ATOM     57  H28 ALA d   1      15.701 -15.070  -1.271  0.00  0.00     0.035 H 
ATOM     58  H29 ALA d   1      13.477 -16.080  -2.678  0.00  0.00     0.034 H 
ATOM     59  H30 ALA d   1      14.741 -17.082  -1.886  0.00  0.00     0.034 H 
ATOM     60  H31 ALA d   1      14.467 -16.279  -4.806  0.00  0.00     0.056 H 
ATOM     61  H32 ALA d   1      15.010 -17.839  -4.100  0.00  0.00     0.056 H 
BRANCH  51  62
ATOM     62  C03 ALA d   1      17.911 -14.953  -2.534  0.00  0.00     0.031 C 
ATOM     63  H24 ALA d   1      18.052 -15.891  -1.977  0.00  0.00     0.051 H 
ATOM     64  H25 ALA d   1      18.719 -14.840  -3.272  0.00  0.00     0.051 H 
BRANCH  62  65
ATOM     65  C02 ALA d   1      17.970 -13.791  -1.560  0.00  0.00     0.174 C 
ATOM     66  O01 ALA d   1      18.507 -12.743  -1.845  0.00  0.00    -0.648 OA
ATOM     67  O1  ALA d   1      17.445 -13.920  -0.422  0.00  0.00    -0.648 OA
ENDBRANCH  62  65
ENDBRANCH  51  62
ENDBRANCH  46  48
BRANCH  46  68
ATOM     68  CB  ALA d   1      17.301 -18.786  -6.168  0.00  0.00     0.043 C 
ATOM     69  H21 ALA d   1      17.141 -19.465  -7.018  0.00  0.00     0.077 H 
ATOM     70  H22 ALA d   1      16.930 -19.258  -5.246  0.00  0.00     0.077 H 
BRANCH  68  71
ATOM     71  OG  ALA d   1      18.686 -18.535  -6.033  0.00  0.00    -0.398 OA
ATOM     72  H23 ALA d   1      19.012 -18.131  -6.828  0.00  0.00     0.209 HD
ENDBRANCH  68  71
ENDBRANCH  46  68
ENDBRANCH  44  46
ENDBRANCH   1  42
TORSDOF 18
