REMARK  25 active torsions:
REMARK  status: ('A' for Active; 'I' for Inactive)
REMARK    1  A    between atoms: CA_2  and  N_1 
REMARK    2  A    between atoms: CA_2  and  CB_5 
REMARK    3  A    between atoms: C_3  and  CA_2 
REMARK       I    between atoms: N_6  and  C_3 
REMARK    4  A    between atoms: CA_7  and  N_6 
REMARK    5  A    between atoms: CA_7  and  CB_10 
REMARK    6  A    between atoms: C_8  and  CA_7 
REMARK       I    between atoms: N_16  and  C_8 
REMARK    7  A    between atoms: CB_10  and  CG_11 
REMARK    8  A    between atoms: CA_17  and  N_16 
REMARK    9  A    between atoms: CA_17  and  CB_18 
REMARK   10  A    between atoms: C_20  and  CA_17 
REMARK   11  A    between atoms: CB_18  and  OG_19 
REMARK   12  A    between atoms: OG_19  and  P_22 
REMARK       I    between atoms: N_26  and  C_20 
REMARK   13  A    between atoms: CA_27  and  N_26 
REMARK   14  A    between atoms: CA_27  and  CB_30 
REMARK   15  A    between atoms: C_28  and  CA_27 
REMARK       I    between atoms: N_32  and  C_28 
REMARK   16  A    between atoms: CB_30  and  OG_31 
REMARK   17  A    between atoms: C_34  and  CA_33 
REMARK       I    between atoms: N_41  and  C_34 
REMARK   18  A    between atoms: CB_40  and  CG_39 
REMARK   19  A    between atoms: CB_40  and  N_41 
REMARK   20  A    between atoms: CA_42  and  CB_40 
REMARK   21  A    between atoms: C_43  and  CA_42 
REMARK       I    between atoms: C_43  and  N_45 
REMARK   22  A    between atoms: N_45  and  CA_46 
REMARK   23  A    between atoms: CA_46  and  CB_49 
REMARK   24  A    between atoms: CA_46  and  C_47 
REMARK   25  A    between atoms: CB_49  and  OG_50 
ROOT
ATOM      1  CA  ALA d   1      16.460 -17.726  -6.391  0.00  0.00     0.109 C 
ATOM      2  H20 ALA d   1      15.373 -17.880  -6.325  0.00  0.00     0.090 H 
ENDROOT
BRANCH   1   3
ATOM      3  N   ALA d   1      16.763 -17.143  -7.686  0.00  0.00    -0.344 N 
ATOM      4  C   ALA d   1      16.016 -16.170  -8.144  0.00  0.00     0.243 C 
ATOM      5  O   ALA d   1      15.273 -15.526  -7.398  0.00  0.00    -0.271 OA
ATOM      6  H19 ALA d   1      17.535 -17.482  -8.223  0.00  0.00     0.163 HD
BRANCH   4   7
ATOM      7  CA  ALA d   1      16.121 -15.861  -9.630  0.00  0.00     0.110 C 
ATOM      8  H16 ALA d   1      15.828 -16.753 -10.204  0.00  0.00     0.090 H 
BRANCH   7   9
ATOM      9  N   ALA d   1      15.166 -14.781  -9.892  0.00  0.00    -0.344 N 
ATOM     10  C   ALA d   1      14.125 -14.987 -10.688  0.00  0.00     0.241 C 
ATOM     11  O   ALA d   1      13.958 -16.030 -11.324  0.00  0.00    -0.271 OA
ATOM     12  H15 ALA d   1      15.300 -13.885  -9.469  0.00  0.00     0.163 HD
BRANCH  10  13
ATOM     13  CA  ALA d   1      13.105 -13.875 -10.747  0.00  0.00     0.094 C 
ATOM     14  H9  ALA d   1      13.564 -12.952 -10.362  0.00  0.00     0.088 H 
BRANCH  13  15
ATOM     15  N   ALA d   1      12.678 -13.645 -12.111  0.00  0.00    -0.346 N 
ATOM     16  C   ALA d   1      13.369 -12.879 -12.946  0.00  0.00     0.248 C 
ATOM     17  O   ALA d   1      14.356 -12.253 -12.594  0.00  0.00    -0.271 OA
ATOM     18  H8  ALA d   1      11.836 -14.077 -12.434  0.00  0.00     0.163 HD
BRANCH  16  19
ATOM     19  CA  ALA d   1      12.860 -12.801 -14.379  0.00  0.00     0.172 C 
ATOM     20  H4  ALA d   1      11.764 -12.896 -14.365  0.00  0.00     0.098 H 
BRANCH  19  21
ATOM     21  N   ALA d   1      13.207 -11.510 -14.991  0.00  0.00    -0.067 N 
ATOM     22  H1  ALA d   1      12.860 -11.483 -15.937  0.00  0.00     0.275 HD
ATOM     23  H2  ALA d   1      14.209 -11.399 -14.997  0.00  0.00     0.275 HD
ATOM     24  H3  ALA d   1      12.790 -10.763 -14.459  0.00  0.00     0.275 HD
ENDBRANCH  19  21
BRANCH  19  25
ATOM     25  CB  ALA d   1      13.435 -13.944 -15.198  0.00  0.00    -0.042 C 
ATOM     26  H5  ALA d   1      13.168 -14.902 -14.729  0.00  0.00     0.030 H 
ATOM     27  H6  ALA d   1      14.530 -13.850 -15.241  0.00  0.00     0.030 H 
ATOM     28  H7  ALA d   1      13.024 -13.908 -16.218  0.00  0.00     0.030 H 
ENDBRANCH  19  25
ENDBRANCH  16  19
ENDBRANCH  13  15
BRANCH  13  29
ATOM     29  CB  ALA d   1      11.911 -14.235  -9.869  0.00  0.00     0.004 C 
ATOM     30  H10 ALA d   1      12.253 -14.301  -8.826  0.00  0.00     0.046 H 
ATOM     31  H11 ALA d   1      11.524 -15.213 -10.191  0.00  0.00     0.046 H 
BRANCH  29  32
ATOM     32  CG  ALA d   1      10.796 -13.238  -9.940  0.00  0.00     0.053 A 
ATOM     33  ND1 ALA d   1      10.018 -13.068 -11.067  0.00  0.00    -0.247 NA
ATOM     34  CE1 ALA d   1       9.120 -12.126 -10.840  0.00  0.00     0.064 A 
ATOM     35  NE2 ALA d   1       9.285 -11.681  -9.607  0.00  0.00    -0.359 N 
ATOM     36  H13 ALA d   1       8.371 -11.776 -11.549  0.00  0.00     0.143 H 
ATOM     37  CD2 ALA d   1      10.328 -12.359  -9.022  0.00  0.00     0.002 A 
ATOM     38  H14 ALA d   1       8.723 -10.945  -9.157  0.00  0.00     0.166 HD
ATOM     39  H12 ALA d   1      10.707 -12.216  -8.011  0.00  0.00     0.114 H 
ENDBRANCH  29  32
ENDBRANCH  13  29
ENDBRANCH  10  13
ENDBRANCH   7   9
BRANCH   7  40
ATOM     40  CB  ALA d   1      17.546 -15.468 -10.056  0.00  0.00     0.059 C 
ATOM     41  H17 ALA d   1      17.591 -15.374 -11.151  0.00  0.00     0.079 H 
ATOM     42  H18 ALA d   1      18.256 -16.240  -9.725  0.00  0.00     0.079 H 
BRANCH  40  43
ATOM     43  OG  ALA d   1      17.876 -14.245  -9.467  0.00  0.00    -0.280 OA
BRANCH  43  44
ATOM     44  P   ALA d   1      19.374 -13.729  -9.800  0.00  0.00     0.422 P 
ATOM     45  O1P ALA d   1      19.391 -13.342 -11.329  0.00  0.00    -0.617 OA
ATOM     46  O2P ALA d   1      19.502 -12.458  -8.875  0.00  0.00    -0.617 OA
ATOM     47  O3P ALA d   1      20.432 -14.876  -9.500  0.00  0.00    -0.617 OA
ENDBRANCH  43  44
ENDBRANCH  40  43
ENDBRANCH   7  40
ENDBRANCH   4   7
ENDBRANCH   1   3
BRANCH   1  48
ATOM     48  CB  ALA d   1      17.153 -19.078  -6.237  0.00  0.00     0.044 C 
ATOM     49  H21 ALA d   1      16.860 -19.736  -7.069  0.00  0.00     0.077 H 
ATOM     50  H22 ALA d   1      16.853 -19.537  -5.283  0.00  0.00     0.077 H 
BRANCH  48  51
ATOM     51  OG  ALA d   1      18.553 -18.898  -6.251  0.00  0.00    -0.398 OA
ATOM     52  H23 ALA d   1      18.805 -18.330  -5.532  0.00  0.00     0.209 HD
ENDBRANCH  48  51
ENDBRANCH   1  48
BRANCH   1  53
ATOM     53  C   ALA d   1      16.885 -16.796  -5.269  0.00  0.00     0.245 C 
ATOM     54  O   ALA d   1      17.927 -16.128  -5.351  0.00  0.00    -0.271 OA
ATOM     55  N   ALA d   1      16.081 -16.752  -4.211  0.00  0.00    -0.337 N 
ATOM     56  CA  ALA d   1      16.441 -15.926  -3.046  0.00  0.00     0.091 C 
ATOM     57  CD  ALA d   1      14.759 -17.392  -4.045  0.00  0.00    -0.001 C 
ATOM     58  CB  ALA d   1      15.143 -15.855  -2.238  0.00  0.00    -0.036 C 
ATOM     59  H24 ALA d   1      16.756 -14.922  -3.365  0.00  0.00     0.087 H 
ATOM     60  CG  ALA d   1      14.416 -17.114  -2.587  0.00  0.00    -0.048 C 
ATOM     61  H25 ALA d   1      14.553 -14.973  -2.527  0.00  0.00     0.036 H 
ATOM     62  H26 ALA d   1      15.358 -15.816  -1.160  0.00  0.00     0.036 H 
ATOM     63  H27 ALA d   1      14.754 -17.943  -1.948  0.00  0.00     0.035 H 
ATOM     64  H28 ALA d   1      13.331 -16.977  -2.467  0.00  0.00     0.035 H 
ATOM     65  H29 ALA d   1      14.818 -18.474  -4.237  0.00  0.00     0.064 H 
ATOM     66  H30 ALA d   1      14.015 -16.940  -4.718  0.00  0.00     0.064 H 
BRANCH  56  67
ATOM     67  C   ALA d   1      17.552 -16.564  -2.239  0.00  0.00     0.241 C 
ATOM     68  O   ALA d   1      17.685 -17.773  -2.316  0.00  0.00    -0.271 OA
ATOM     69  N   ALA d   1      18.166 -15.811  -1.190  0.00  0.00    -0.355 N 
ATOM     70  H35 ALA d   1      17.896 -14.868  -0.995  0.00  0.00     0.162 HD
BRANCH  69  71
ATOM     71  CB  ALA d   1      19.215 -16.489  -0.411  0.00  0.00     0.017 C 
ATOM     72  H34 ALA d   1      19.211 -17.566  -0.636  0.00  0.00     0.072 H 
BRANCH  71  73
ATOM     73  CG  ALA d   1      20.611 -15.901  -0.743  0.00  0.00    -0.057 C 
ATOM     74  H31 ALA d   1      21.378 -16.421  -0.151  0.00  0.00     0.030 H 
ATOM     75  H32 ALA d   1      20.625 -14.828  -0.499  0.00  0.00     0.030 H 
ATOM     76  H33 ALA d   1      20.820 -16.036  -1.814  0.00  0.00     0.030 H 
ENDBRANCH  71  73
BRANCH  71  77
ATOM     77  CA  ALA d   1      18.889 -16.258   1.089  0.00  0.00     0.028 C 
ATOM     78  H36 ALA d   1      18.692 -15.189   1.255  0.00  0.00     0.050 H 
ATOM     79  H37 ALA d   1      19.750 -16.572   1.698  0.00  0.00     0.050 H 
BRANCH  77  80
ATOM     80  C   ALA d   1      17.665 -17.061   1.503  0.00  0.00     0.220 C 
ATOM     81  O   ALA d   1      16.543 -16.613   1.321  0.00  0.00    -0.274 OA
ATOM     82  N   ALA d   1      17.771 -18.331   2.154  0.00  0.00    -0.345 N 
ATOM     83  H38 ALA d   1      18.710 -18.547   2.421  0.00  0.00     0.163 HD
BRANCH  82  84
ATOM     84  CA  ALA d   1      16.823 -19.391   2.521  0.00  0.00     0.116 C 
ATOM     85  H39 ALA d   1      16.412 -19.821   1.595  0.00  0.00     0.093 H 
BRANCH  84  86
ATOM     86  CB  ALA d   1      17.537 -20.505   3.300  0.00  0.00     0.045 C 
ATOM     87  H40 ALA d   1      18.497 -20.728   2.810  0.00  0.00     0.077 H 
ATOM     88  H41 ALA d   1      16.906 -21.406   3.297  0.00  0.00     0.077 H 
BRANCH  86  89
ATOM     89  OG  ALA d   1      17.782 -20.113   4.646  0.00  0.00    -0.398 OA
ATOM     90  H42 ALA d   1      16.956 -19.923   5.075  0.00  0.00     0.209 HD
ENDBRANCH  86  89
ENDBRANCH  84  86
BRANCH  84  91
ATOM     91  C   ALA d   1      15.659 -18.833   3.352  0.00  0.00     0.198 C 
ATOM     92  O   ALA d   1      15.863 -18.122   4.349  0.00  0.00    -0.646 OA
ATOM     93  OXT ALA d   1      14.479 -19.076   3.052  0.00  0.00    -0.646 OA
ENDBRANCH  84  91
ENDBRANCH  82  84
ENDBRANCH  77  80
ENDBRANCH  71  77
ENDBRANCH  69  71
ENDBRANCH  56  67
ENDBRANCH   1  53
TORSDOF 25
