REMARK  2 active torsions:
REMARK  status: ('A' for Active; 'I' for Inactive)
REMARK    1  A    between atoms: N6_11  and  C5_4 
REMARK    2  A    between atoms: C7_5  and  N6_11 
ROOT
ATOM      1  C7  EQW d   1      12.781   9.877  41.834  0.00  0.00     0.030 C 
ATOM      2  C8  EQW d   1      14.085  10.526  41.429  0.00  0.00    -0.026 C 
ATOM      3  C11 EQW d   1      11.741  11.000  39.852  0.00  0.00     0.021 C 
ATOM      4  C12 EQW d   1      11.871   9.700  40.618  0.00  0.00    -0.026 C 
ATOM      5  C9  EQW d   1      13.816  11.785  40.646  0.00  0.00     0.021 C 
ATOM      6  O10 EQW d   1      13.029  11.519  39.481  0.00  0.00    -0.391 OA
ATOM      7  H2  EQW d   1      12.268  10.536  42.550  0.00  0.00     0.073 H 
ATOM      8  H3  EQW d   1      14.661   9.826  40.806  0.00  0.00     0.039 H 
ATOM      9  H4  EQW d   1      14.663  10.775  42.331  0.00  0.00     0.039 H 
ATOM     10  H5  EQW d   1      11.226  11.738  40.484  0.00  0.00     0.074 H 
ATOM     11  H6  EQW d   1      11.151  10.822  38.941  0.00  0.00     0.074 H 
ATOM     12  H7  EQW d   1      10.875   9.379  40.956  0.00  0.00     0.039 H 
ATOM     13  H8  EQW d   1      12.298   8.932  39.956  0.00  0.00     0.039 H 
ATOM     14  H11 EQW d   1      14.775  12.226  40.337  0.00  0.00     0.074 H 
ATOM     15  H12 EQW d   1      13.276  12.497  41.288  0.00  0.00     0.074 H 
ENDROOT
BRANCH   1  16
ATOM     16  N6  EQW d   1      13.066   8.604  42.504  0.00  0.00    -0.218 N 
ATOM     17  H10 EQW d   1      14.013   8.211  42.401  0.00  0.00     0.178 HD
BRANCH  16  18
ATOM     18  C5  EQW d   1      12.179   7.911  43.244  0.00  0.00     0.722 A 
ATOM     19  N4  EQW d   1      12.551   6.672  43.618  0.00  0.00    -0.074 NA
ATOM     20  C3  EQW d   1      11.664   6.000  44.365  0.00  0.00     0.043 A 
ATOM     21  C2  EQW d   1      10.454   6.539  44.724  0.00  0.00     0.070 A 
ATOM     22  H1  EQW d   1      11.910   4.998  44.697  0.00  0.00     0.118 H 
ATOM     23  C14 EQW d   1      10.164   7.819  44.287  0.00  0.00     0.043 A 
ATOM     24 CL1  EQW d   1       9.312   5.638  45.685  0.00  0.00    -0.081 Cl
ATOM     25  N13 EQW d   1      11.025   8.523  43.547  0.00  0.00    -0.074 NA
ATOM     26  H9  EQW d   1       9.211   8.263  44.552  0.00  0.00     0.118 H 
ENDBRANCH  16  18
ENDBRANCH   1  16
TORSDOF 2
