REMARK  3 active torsions:
REMARK  status: ('A' for Active; 'I' for Inactive)
REMARK    1  A    between atoms: C5_4  and  N6_17 
REMARK    2  A    between atoms: N6_17  and  C7_5 
REMARK    3  A    between atoms: C15_10  and  C14_9 
ROOT
ATOM      1  C2  EU2 d   1       9.150   6.473  45.127  0.00  0.00     0.082 A 
ATOM      2  C3  EU2 d   1      10.427   5.983  44.939  0.00  0.00     0.044 A 
ATOM      3  N4  EU2 d   1      11.330   6.621  44.199  0.00  0.00    -0.074 NA
ATOM      4  C5  EU2 d   1      10.920   7.788  43.661  0.00  0.00     0.723 A 
ATOM      5  C14 EU2 d   1       8.771   7.677  44.503  0.00  0.00     0.109 A 
ATOM      6 CL1  EU2 d   1       8.062   5.565  46.116  0.00  0.00    -0.080 Cl
ATOM      7  N13 EU2 d   1       9.681   8.313  43.780  0.00  0.00    -0.061 NA
ATOM      8  H1  EU2 d   1      10.703   5.047  45.410  0.00  0.00     0.118 H 
ENDROOT
BRANCH   4   9
ATOM      9  N6  EU2 d   1      11.817   8.458  42.929  0.00  0.00    -0.218 N 
ATOM     10  H13 EU2 d   1      12.736   8.015  42.789  0.00  0.00     0.178 HD
BRANCH   9  11
ATOM     11  C7  EU2 d   1      11.607   9.751  42.317  0.00  0.00     0.030 C 
ATOM     12  C8  EU2 d   1      12.931  10.482  42.135  0.00  0.00    -0.026 C 
ATOM     13  C9  EU2 d   1      12.756  11.735  41.287  0.00  0.00     0.021 C 
ATOM     14  H3  EU2 d   1      13.647   9.810  41.639  0.00  0.00     0.039 H 
ATOM     15  H4  EU2 d   1      13.321  10.769  43.123  0.00  0.00     0.039 H 
ATOM     16  O10 EU2 d   1      12.152  11.430  40.014  0.00  0.00    -0.391 OA
ATOM     17  H14 EU2 d   1      13.742  12.191  41.115  0.00  0.00     0.074 H 
ATOM     18  H15 EU2 d   1      12.113  12.445  41.827  0.00  0.00     0.074 H 
ATOM     19  C11 EU2 d   1      10.841  10.901  40.209  0.00  0.00     0.021 C 
ATOM     20  C12 EU2 d   1      10.890   9.590  40.973  0.00  0.00    -0.026 C 
ATOM     21  H5  EU2 d   1      10.242  11.627  40.778  0.00  0.00     0.074 H 
ATOM     22  H6  EU2 d   1      10.373  10.728  39.228  0.00  0.00     0.074 H 
ATOM     23  H7  EU2 d   1       9.862   9.244  41.155  0.00  0.00     0.039 H 
ATOM     24  H8  EU2 d   1      11.427   8.844  40.369  0.00  0.00     0.039 H 
ATOM     25  H2  EU2 d   1      10.969  10.351  42.982  0.00  0.00     0.073 H 
ENDBRANCH   9  11
ENDBRANCH   4   9
BRANCH   5  26
ATOM     26  C15 EU2 d   1       7.459   8.383  44.565  0.00  0.00    -0.004 A 
ATOM     27  C16 EU2 d   1       7.408   9.754  44.288  0.00  0.00    -0.070 A 
ATOM     28  C17 EU2 d   1       6.213  10.453  44.334  0.00  0.00    -0.073 A 
ATOM     29  H9  EU2 d   1       8.321  10.279  44.032  0.00  0.00     0.084 H 
ATOM     30  C18 EU2 d   1       5.039   9.800  44.653  0.00  0.00    -0.025 A 
ATOM     31  H16 EU2 d   1       6.199  11.515  44.119  0.00  0.00     0.084 H 
ATOM     32  C19 EU2 d   1       3.629  10.312  44.769  0.00  0.00     0.020 C 
ATOM     33  C23 EU2 d   1       5.065   8.443  44.921  0.00  0.00     0.040 A 
ATOM     34  N20 EU2 d   1       2.886   9.076  44.963  0.00  0.00    -0.353 N 
ATOM     35  H10 EU2 d   1       3.313  10.831  43.852  0.00  0.00     0.071 H 
ATOM     36  H11 EU2 d   1       3.517  10.988  45.630  0.00  0.00     0.071 H 
ATOM     37  C21 EU2 d   1       3.681   8.015  45.232  0.00  0.00     0.252 C 
ATOM     38  H17 EU2 d   1       1.889   9.017  44.904  0.00  0.00     0.163 HD
ATOM     39  O22 EU2 d   1       3.295   6.926  45.659  0.00  0.00    -0.268 OA
ATOM     40  C24 EU2 d   1       6.259   7.731  44.884  0.00  0.00    -0.055 A 
ATOM     41  H12 EU2 d   1       6.262   6.669  45.102  0.00  0.00     0.086 H 
ENDBRANCH   5  26
TORSDOF 3
