REMARK  7 active torsions:
REMARK  status: ('A' for Active; 'I' for Inactive)
REMARK    1  A    between atoms: O2_18  and  C1_1 
REMARK    2  A    between atoms: C3_2  and  O2_18 
REMARK    3  A    between atoms: C4_19  and  C3_2 
REMARK    4  A    between atoms: C15_10  and  C10_6 
REMARK    5  A    between atoms: N18_11  and  C19_12 
REMARK    6  A    between atoms: C17_24  and  N18_11 
REMARK    7  A    between atoms: N5_20  and  C4_19 
ROOT
ATOM      1  C6  EQZ d   1       1.856  10.616  44.307  0.00  0.00     0.023 C 
ATOM      2  C7  EQZ d   1       3.241  10.063  44.206  0.00  0.00    -0.025 A 
ATOM      3  C8  EQZ d   1       4.431  10.656  43.817  0.00  0.00    -0.073 A 
ATOM      4  C10 EQZ d   1       5.625   8.572  44.215  0.00  0.00    -0.004 A 
ATOM      5  C11 EQZ d   1       4.418   7.995  44.637  0.00  0.00    -0.055 A 
ATOM      6  C12 EQZ d   1       3.237   8.734  44.604  0.00  0.00     0.041 A 
ATOM      7  C13 EQZ d   1       1.859   8.368  45.008  0.00  0.00     0.254 C 
ATOM      8  N5  EQZ d   1       1.085   9.442  44.719  0.00  0.00    -0.342 N 
ATOM      9  C9  EQZ d   1       5.602   9.918  43.813  0.00  0.00    -0.070 A 
ATOM     10  O14 EQZ d   1       1.465   7.331  45.503  0.00  0.00    -0.267 OA
ATOM     11  H6  EQZ d   1       1.508  11.001  43.337  0.00  0.00     0.071 H 
ATOM     12  H7  EQZ d   1       1.799  11.415  45.061  0.00  0.00     0.071 H 
ATOM     13  H8  EQZ d   1       4.445  11.697  43.516  0.00  0.00     0.084 H 
ATOM     14  H9  EQZ d   1       4.404   6.970  44.990  0.00  0.00     0.086 H 
ATOM     15  H21 EQZ d   1       6.524  10.390  43.492  0.00  0.00     0.084 H 
ENDROOT
BRANCH   4  16
ATOM     16  C15 EQZ d   1       6.920   7.839  44.210  0.00  0.00     0.109 A 
ATOM     17  C27 EQZ d   1       7.239   6.648  44.861  0.00  0.00     0.082 A 
ATOM     18  C26 EQZ d   1       8.527   6.158  44.728  0.00  0.00     0.044 A 
ATOM     19 CL1  EQZ d   1       6.139   5.755  45.853  0.00  0.00    -0.080 Cl
ATOM     20  N25 EQZ d   1       9.463   6.774  44.009  0.00  0.00    -0.074 NA
ATOM     21  H18 EQZ d   1       8.784   5.233  45.231  0.00  0.00     0.118 H 
ATOM     22  C17 EQZ d   1       9.078   7.915  43.433  0.00  0.00     0.723 A 
ATOM     23  N16 EQZ d   1       7.865   8.468  43.495  0.00  0.00    -0.061 NA
BRANCH  22  24
ATOM     24  N18 EQZ d   1      10.001   8.567  42.712  0.00  0.00    -0.218 N 
ATOM     25  H10 EQZ d   1      10.927   8.126  42.617  0.00  0.00     0.178 HD
BRANCH  24  26
ATOM     26  C19 EQZ d   1       9.799   9.846  42.055  0.00  0.00     0.030 C 
ATOM     27  C24 EQZ d   1       9.200   9.646  40.677  0.00  0.00    -0.026 C 
ATOM     28  C23 EQZ d   1       9.100  10.989  39.993  0.00  0.00     0.021 C 
ATOM     29  H16 EQZ d   1       8.198   9.202  40.770  0.00  0.00     0.039 H 
ATOM     30  H17 EQZ d   1       9.844   8.977  40.087  0.00  0.00     0.039 H 
ATOM     31  O22 EQZ d   1      10.395  11.614  39.879  0.00  0.00    -0.391 OA
ATOM     32  H14 EQZ d   1       8.437  11.642  40.580  0.00  0.00     0.074 H 
ATOM     33  H15 EQZ d   1       8.680  10.848  38.986  0.00  0.00     0.074 H 
ATOM     34  C21 EQZ d   1      10.949  11.857  41.185  0.00  0.00     0.021 C 
ATOM     35  C20 EQZ d   1      11.128  10.576  41.957  0.00  0.00    -0.026 C 
ATOM     36  H12 EQZ d   1      11.928  12.346  41.072  0.00  0.00     0.074 H 
ATOM     37  H13 EQZ d   1      10.271  12.519  41.743  0.00  0.00     0.074 H 
ATOM     38  H22 EQZ d   1      11.859   9.937  41.440  0.00  0.00     0.039 H 
ATOM     39  H23 EQZ d   1      11.494  10.807  42.968  0.00  0.00     0.039 H 
ATOM     40  H11 EQZ d   1       9.104  10.450  42.657  0.00  0.00     0.073 H 
ENDBRANCH  24  26
ENDBRANCH  22  24
ENDBRANCH   4  16
BRANCH   8  41
ATOM     41  C4  EQZ d   1      -0.340   9.562  45.052  0.00  0.00     0.018 C 
ATOM     42  H19 EQZ d   1      -0.907   9.710  44.121  0.00  0.00     0.067 H 
ATOM     43  H20 EQZ d   1      -0.667   8.630  45.536  0.00  0.00     0.067 H 
BRANCH  41  44
ATOM     44  C3  EQZ d   1      -0.627  10.707  45.975  0.00  0.00     0.034 C 
ATOM     45  H4  EQZ d   1      -0.325  11.654  45.504  0.00  0.00     0.076 H 
ATOM     46  H5  EQZ d   1      -1.701  10.740  46.208  0.00  0.00     0.076 H 
BRANCH  44  47
ATOM     47  O2  EQZ d   1       0.116  10.499  47.157  0.00  0.00    -0.394 OA
BRANCH  47  48
ATOM     48  C1  EQZ d   1       0.151  11.625  48.019  0.00  0.00     0.004 C 
ATOM     49  H1  EQZ d   1       0.746  11.384  48.913  0.00  0.00     0.066 H 
ATOM     50  H2  EQZ d   1      -0.874  11.888  48.321  0.00  0.00     0.066 H 
ATOM     51  H3  EQZ d   1       0.608  12.476  47.492  0.00  0.00     0.066 H 
ENDBRANCH  47  48
ENDBRANCH  44  47
ENDBRANCH  41  44
ENDBRANCH   8  41
TORSDOF 7
