REMARK  6 active torsions:
REMARK  status: ('A' for Active; 'I' for Inactive)
REMARK    1  A    between atoms: C5_4  and  N6_22 
REMARK    2  A    between atoms: N6_22  and  C7_5 
REMARK    3  A    between atoms: C15_10  and  C14_9 
REMARK    4  A    between atoms: C21_13  and  C22_14 
REMARK    5  A    between atoms: N20_28  and  C21_13 
REMARK    6  A    between atoms: C22_14  and  N23_29 
ROOT
ATOM      1  C15 ESQ d   1       6.622   8.281  43.823  0.00  0.00    -0.004 A 
ATOM      2  C16 ESQ d   1       6.245   8.787  42.565  0.00  0.00    -0.070 A 
ATOM      3  C19 ESQ d   1       2.559   9.593  43.341  0.00  0.00     0.023 A 
ATOM      4  O30 ESQ d   1       3.037   8.258  46.561  0.00  0.00    -0.267 OA
ATOM      5  C31 ESQ d   1       4.349   8.669  44.561  0.00  0.00     0.041 A 
ATOM      6  C17 ESQ d   1       4.955   9.236  42.315  0.00  0.00    -0.073 A 
ATOM      7  C18 ESQ d   1       3.998   9.178  43.319  0.00  0.00    -0.025 A 
ATOM      8  N20 ESQ d   1       2.180   9.322  44.730  0.00  0.00    -0.342 N 
ATOM      9  C29 ESQ d   1       3.154   8.700  45.436  0.00  0.00     0.254 A 
ATOM     10  C32 ESQ d   1       5.641   8.201  44.816  0.00  0.00    -0.055 A 
ATOM     11  H9  ESQ d   1       6.981   8.827  41.770  0.00  0.00     0.084 H 
ATOM     12  H10 ESQ d   1       1.960   8.993  42.640  0.00  0.00     0.071 H 
ATOM     13  H11 ESQ d   1       2.448  10.660  43.098  0.00  0.00     0.071 H 
ATOM     14  H27 ESQ d   1       4.696   9.630  41.339  0.00  0.00     0.084 H 
ATOM     15  H29 ESQ d   1       5.883   7.776  45.784  0.00  0.00     0.086 H 
ENDROOT
BRANCH   1  16
ATOM     16  C14 ESQ d   1       8.004   7.749  44.005  0.00  0.00     0.109 A 
ATOM     17  C2  ESQ d   1       8.370   6.610  44.727  0.00  0.00     0.082 A 
ATOM     18  C3  ESQ d   1       9.699   6.226  44.722  0.00  0.00     0.044 A 
ATOM     19 CL1  ESQ d   1       7.275   5.660  45.654  0.00  0.00    -0.080 Cl
ATOM     20  N4  ESQ d   1      10.638   6.886  44.041  0.00  0.00    -0.074 NA
ATOM     21  H1  ESQ d   1       9.990   5.353  45.295  0.00  0.00     0.118 H 
ATOM     22  C5  ESQ d   1      10.208   7.962  43.372  0.00  0.00     0.723 A 
ATOM     23  N13 ESQ d   1       8.942   8.419  43.308  0.00  0.00    -0.061 NA
BRANCH  22  24
ATOM     24  N6  ESQ d   1      11.153   8.635  42.686  0.00  0.00    -0.218 N 
ATOM     25  H24 ESQ d   1      12.102   8.235  42.680  0.00  0.00     0.178 HD
BRANCH  24  26
ATOM     26  C7  ESQ d   1      10.953   9.878  41.952  0.00  0.00     0.030 C 
ATOM     27  C8  ESQ d   1      10.409   9.598  40.561  0.00  0.00    -0.026 C 
ATOM     28  C9  ESQ d   1      10.360  10.877  39.766  0.00  0.00     0.021 C 
ATOM     29  H3  ESQ d   1       9.395   9.180  40.643  0.00  0.00     0.039 H 
ATOM     30  H4  ESQ d   1      11.064   8.876  40.051  0.00  0.00     0.039 H 
ATOM     31  O10 ESQ d   1      11.650  11.494  39.694  0.00  0.00    -0.391 OA
ATOM     32  H25 ESQ d   1       9.657  11.572  40.248  0.00  0.00     0.074 H 
ATOM     33  H26 ESQ d   1      10.013  10.652  38.747  0.00  0.00     0.074 H 
ATOM     34  C11 ESQ d   1      12.097  11.853  40.998  0.00  0.00     0.021 C 
ATOM     35  C12 ESQ d   1      12.264  10.634  41.873  0.00  0.00    -0.026 C 
ATOM     36  H5  ESQ d   1      13.064  12.371  40.916  0.00  0.00     0.074 H 
ATOM     37  H6  ESQ d   1      11.358  12.526  41.458  0.00  0.00     0.074 H 
ATOM     38  H7  ESQ d   1      13.038   9.980  41.445  0.00  0.00     0.039 H 
ATOM     39  H8  ESQ d   1      12.567  10.948  42.883  0.00  0.00     0.039 H 
ATOM     40  H2  ESQ d   1      10.222  10.495  42.495  0.00  0.00     0.073 H 
ENDBRANCH  24  26
ENDBRANCH  22  24
ENDBRANCH   1  16
BRANCH   8  41
ATOM     41  C21 ESQ d   1       0.838   9.573  45.270  0.00  0.00     0.021 C 
ATOM     42  H12 ESQ d   1       0.125   8.939  44.722  0.00  0.00     0.067 H 
ATOM     43  H13 ESQ d   1       0.839   9.290  46.333  0.00  0.00     0.067 H 
BRANCH  41  44
ATOM     44  C22 ESQ d   1       0.364  11.024  45.164  0.00  0.00     0.098 C 
ATOM     45  H14 ESQ d   1      -0.724  11.025  45.327  0.00  0.00     0.078 H 
ATOM     46  H15 ESQ d   1       0.582  11.365  44.141  0.00  0.00     0.078 H 
BRANCH  44  47
ATOM     47  N23 ESQ d   1       0.945  12.015  46.088  0.00  0.00    -0.066 N 
ATOM     48  C24 ESQ d   1       2.359  12.296  45.820  0.00  0.00     0.103 C 
ATOM     49  C25 ESQ d   1       2.824  13.434  46.690  0.00  0.00     0.042 C 
ATOM     50  H16 ESQ d   1       2.958  11.400  46.039  0.00  0.00     0.079 H 
ATOM     51  H17 ESQ d   1       2.483  12.570  44.762  0.00  0.00     0.079 H 
ATOM     52  O26 ESQ d   1       2.645  13.143  48.079  0.00  0.00    -0.388 OA
ATOM     53  H18 ESQ d   1       2.247  14.335  46.437  0.00  0.00     0.076 H 
ATOM     54  H19 ESQ d   1       3.892  13.617  46.498  0.00  0.00     0.076 H 
ATOM     55  C27 ESQ d   1       1.278  12.823  48.364  0.00  0.00     0.042 C 
ATOM     56  C28 ESQ d   1       0.777  11.685  47.508  0.00  0.00     0.103 C 
ATOM     57  H20 ESQ d   1       1.193  12.536  49.422  0.00  0.00     0.076 H 
ATOM     58  H21 ESQ d   1       0.658  13.711  48.174  0.00  0.00     0.076 H 
ATOM     59  H22 ESQ d   1      -0.289  11.512  47.718  0.00  0.00     0.079 H 
ATOM     60  H23 ESQ d   1       1.349  10.775  47.741  0.00  0.00     0.079 H 
ATOM     61  H28 ESQ d   1       0.440  12.873  45.928  0.00  0.00     0.280 HD
ENDBRANCH  44  47
ENDBRANCH  41  44
ENDBRANCH   8  41
TORSDOF 6
