REMARK  6 active torsions:
REMARK  status: ('A' for Active; 'I' for Inactive)
REMARK    1  A    between atoms: C15_17  and  N1_9 
REMARK    2  A    between atoms: C17_19  and  N2_11 
REMARK    3  A    between atoms: N2_11  and  C18_20 
REMARK    4  A    between atoms: N2_11  and  C19_21 
REMARK    5  A    between atoms: C16_18  and  C15_17 
REMARK    6  A    between atoms: C16_18  and  C17_19 
ROOT
ATOM      1  C11 IXX d   1     -48.776  11.545  -2.859  0.00  0.00     0.021 A 
ATOM      2  C10 IXX d   1     -49.112  12.474  -1.870  0.00  0.00    -0.061 A 
ATOM      3  C9  IXX d   1     -50.427  12.565  -1.403  0.00  0.00    -0.081 A 
ATOM      4  C8  IXX d   1     -51.405  11.734  -1.910  0.00  0.00    -0.082 A 
ATOM      5  C7  IXX d   1     -51.083  10.801  -2.893  0.00  0.00    -0.075 A 
ATOM      6  C2  IXX d   1     -46.876  13.507  -6.620  0.00  0.00    -0.081 A 
ATOM      7  C6  IXX d   1     -49.442   9.655  -4.472  0.00  0.00    -0.035 C 
ATOM      8  C5  IXX d   1     -48.016   9.664  -5.037  0.00  0.00    -0.035 C 
ATOM      9  N1  IXX d   1     -47.410  11.340  -3.442  0.00  0.00    -0.249 NA
ATOM     10  C3  IXX d   1     -47.235  12.532  -7.563  0.00  0.00    -0.082 A 
ATOM     11  C4  IXX d   1     -47.617  11.264  -7.133  0.00  0.00    -0.075 A 
ATOM     12  C1  IXX d   1     -46.900  13.205  -5.245  0.00  0.00    -0.061 A 
ATOM     13  C12 IXX d   1     -49.765  10.709  -3.355  0.00  0.00    -0.036 A 
ATOM     14  C13 IXX d   1     -47.649  10.962  -5.740  0.00  0.00    -0.036 A 
ATOM     15  C14 IXX d   1     -47.291  11.919  -4.817  0.00  0.00     0.021 A 
ATOM     16  H1  IXX d   1     -48.349  13.127  -1.463  0.00  0.00     0.086 H 
ATOM     17  H2  IXX d   1     -50.679  13.292  -0.639  0.00  0.00     0.083 H 
ATOM     18  H3  IXX d   1     -52.423  11.807  -1.544  0.00  0.00     0.083 H 
ATOM     19  H4  IXX d   1     -51.849  10.150  -3.298  0.00  0.00     0.084 H 
ATOM     20  H5  IXX d   1     -46.579  14.496  -6.951  0.00  0.00     0.083 H 
ATOM     21  H6  IXX d   1     -49.627   8.656  -4.051  0.00  0.00     0.040 H 
ATOM     22  H7  IXX d   1     -50.133   9.834  -5.309  0.00  0.00     0.040 H 
ATOM     23  H8  IXX d   1     -47.922   8.839  -5.758  0.00  0.00     0.040 H 
ATOM     24  H9  IXX d   1     -47.312   9.507  -4.207  0.00  0.00     0.040 H 
ATOM     25  H10 IXX d   1     -47.215  12.765  -8.621  0.00  0.00     0.083 H 
ATOM     26  H12 IXX d   1     -47.890  10.506  -7.858  0.00  0.00     0.084 H 
ATOM     27  H13 IXX d   1     -46.619  13.958  -4.518  0.00  0.00     0.086 H 
ENDROOT
BRANCH   9  28
ATOM     28  C15 IXX d   1     -46.400  11.864  -2.546  0.00  0.00    -0.010 C 
ATOM     29  H14 IXX d   1     -46.808  12.707  -1.969  0.00  0.00     0.057 H 
ATOM     30  H15 IXX d   1     -45.525  12.202  -3.120  0.00  0.00     0.057 H 
BRANCH  28  31
ATOM     31  C16 IXX d   1     -45.990  10.689  -1.573  0.00  0.00    -0.031 C 
ATOM     32  H16 IXX d   1     -45.848   9.768  -2.158  0.00  0.00     0.037 H 
ATOM     33  H17 IXX d   1     -46.791  10.535  -0.835  0.00  0.00     0.037 H 
BRANCH  31  34
ATOM     34  C17 IXX d   1     -44.677  11.029  -0.835  0.00  0.00     0.084 C 
ATOM     35  H18 IXX d   1     -43.870  11.195  -1.564  0.00  0.00     0.076 H 
ATOM     36  H19 IXX d   1     -44.813  11.935  -0.227  0.00  0.00     0.076 H 
BRANCH  34  37
ATOM     37  N2  IXX d   1     -44.331   9.855   0.059  0.00  0.00    -0.079 N 
ATOM     38  H11 IXX d   1     -45.170   9.333   0.258  0.00  0.00     0.278 HD
BRANCH  37  39
ATOM     39  C18 IXX d   1     -43.387   8.989  -0.629  0.00  0.00     0.066 C 
ATOM     40  H20 IXX d   1     -43.134   8.136   0.017  0.00  0.00     0.068 H 
ATOM     41  H21 IXX d   1     -42.474   9.555  -0.863  0.00  0.00     0.068 H 
ATOM     42  H22 IXX d   1     -43.840   8.621  -1.562  0.00  0.00     0.068 H 
ENDBRANCH  37  39
BRANCH  37  43
ATOM     43  C19 IXX d   1     -43.764  10.336   1.319  0.00  0.00     0.066 C 
ATOM     44  H23 IXX d   1     -44.492  10.988   1.823  0.00  0.00     0.068 H 
ATOM     45  H24 IXX d   1     -42.844  10.903   1.114  0.00  0.00     0.068 H 
ATOM     46  H25 IXX d   1     -43.530   9.478   1.967  0.00  0.00     0.068 H 
ENDBRANCH  37  43
ENDBRANCH  34  37
ENDBRANCH  31  34
ENDBRANCH  28  31
ENDBRANCH   9  28
TORSDOF 6
