REMARK  9 active torsions:
REMARK  status: ('A' for Active; 'I' for Inactive)
REMARK    1  A    between atoms: C2_2  and  C1_1 
REMARK    2  A    between atoms: C2_2  and  C3_3 
REMARK    3  A    between atoms: C2_2  and  C4_21 
REMARK    4  A    between atoms: N5_22  and  C2_2 
REMARK    5  A    between atoms: C8_5  and  C6_4 
REMARK       I    between atoms: C6_4  and  N5_22 
REMARK    6  A    between atoms: N9_24  and  C8_5 
REMARK    7  A    between atoms: C19_13  and  C14_10 
REMARK    8  A    between atoms: N22_28  and  C21_14 
REMARK    9  A    between atoms: C23_15  and  N22_28 
ROOT
ATOM      1  C10 ER8 d   1       4.684  10.110  45.592  0.00  0.00     0.023 A 
ATOM      2  C11 ER8 d   1       6.079   9.635  45.290  0.00  0.00    -0.025 A 
ATOM      3  C12 ER8 d   1       7.251  10.338  45.103  0.00  0.00    -0.073 A 
ATOM      4  C13 ER8 d   1       8.435   9.665  44.825  0.00  0.00    -0.070 A 
ATOM      5  C14 ER8 d   1       8.463   8.275  44.696  0.00  0.00    -0.004 A 
ATOM      6  C15 ER8 d   1       7.259   7.573  44.882  0.00  0.00    -0.055 A 
ATOM      7  C16 ER8 d   1       6.089   8.256  45.175  0.00  0.00     0.041 A 
ATOM      8  N9  ER8 d   1       3.964   8.850  45.739  0.00  0.00    -0.335 N 
ATOM      9  C17 ER8 d   1       4.713   7.760  45.408  0.00  0.00     0.255 A 
ATOM     10  O18 ER8 d   1       4.293   6.611  45.331  0.00  0.00    -0.267 OA
ATOM     11  H9  ER8 d   1       4.277  10.709  44.764  0.00  0.00     0.071 H 
ATOM     12  H10 ER8 d   1       4.654  10.699  46.520  0.00  0.00     0.071 H 
ATOM     13  H11 ER8 d   1       7.249  11.420  45.173  0.00  0.00     0.084 H 
ATOM     14  H12 ER8 d   1       9.353  10.229  44.706  0.00  0.00     0.084 H 
ATOM     15  H13 ER8 d   1       7.246   6.492  44.796  0.00  0.00     0.086 H 
ENDROOT
BRANCH   5  16
ATOM     16  C19 ER8 d   1       9.755   7.583  44.424  0.00  0.00     0.109 A 
ATOM     17  C31 ER8 d   1      10.122   6.315  44.903  0.00  0.00     0.082 A 
ATOM     18  C30 ER8 d   1      11.376   5.801  44.615  0.00  0.00     0.044 A 
ATOM     19 CL3  ER8 d   1       9.030   5.357  45.843  0.00  0.00    -0.080 Cl
ATOM     20  N29 ER8 d   1      12.276   6.491  43.900  0.00  0.00    -0.074 NA
ATOM     21  H28 ER8 d   1      11.637   4.813  44.978  0.00  0.00     0.118 H 
ATOM     22  C21 ER8 d   1      11.875   7.709  43.476  0.00  0.00     0.723 A 
ATOM     23  N20 ER8 d   1      10.662   8.283  43.723  0.00  0.00    -0.061 NA
BRANCH  22  24
ATOM     24  N22 ER8 d   1      12.761   8.412  42.764  0.00  0.00    -0.218 N 
ATOM     25  H27 ER8 d   1      13.717   8.036  42.686  0.00  0.00     0.178 HD
BRANCH  24  26
ATOM     26  C23 ER8 d   1      12.476   9.659  42.096  0.00  0.00     0.030 C 
ATOM     27  C24 ER8 d   1      13.747  10.472  41.895  0.00  0.00    -0.026 C 
ATOM     28  C25 ER8 d   1      13.445  11.721  41.081  0.00  0.00     0.021 C 
ATOM     29  H15 ER8 d   1      14.489   9.861  41.361  0.00  0.00     0.039 H 
ATOM     30  H16 ER8 d   1      14.150  10.765  42.876  0.00  0.00     0.039 H 
ATOM     31  O26 ER8 d   1      12.870  11.388  39.801  0.00  0.00    -0.391 OA
ATOM     32  H17 ER8 d   1      14.380  12.278  40.919  0.00  0.00     0.074 H 
ATOM     33  H18 ER8 d   1      12.736  12.349  41.639  0.00  0.00     0.074 H 
ATOM     34  C27 ER8 d   1      11.612  10.710  39.978  0.00  0.00     0.021 C 
ATOM     35  C28 ER8 d   1      11.788   9.407  40.751  0.00  0.00    -0.026 C 
ATOM     36  H19 ER8 d   1      10.926  11.367  40.534  0.00  0.00     0.074 H 
ATOM     37  H20 ER8 d   1      11.184  10.485  38.990  0.00  0.00     0.074 H 
ATOM     38  H21 ER8 d   1      10.800   8.958  40.930  0.00  0.00     0.039 H 
ATOM     39  H22 ER8 d   1      12.402   8.715  40.156  0.00  0.00     0.039 H 
ATOM     40  H14 ER8 d   1      11.791  10.240  42.731  0.00  0.00     0.073 H 
ENDBRANCH  24  26
ENDBRANCH  22  24
ENDBRANCH   5  16
BRANCH   8  41
ATOM     41  C8  ER8 d   1       2.531   8.802  45.983  0.00  0.00     0.072 C 
ATOM     42  H7  ER8 d   1       2.114   9.805  45.810  0.00  0.00     0.079 H 
ATOM     43  H8  ER8 d   1       2.080   8.090  45.276  0.00  0.00     0.079 H 
BRANCH  41  44
ATOM     44  C6  ER8 d   1       2.177   8.370  47.394  0.00  0.00     0.236 C 
ATOM     45  N5  ER8 d   1       0.912   7.945  47.566  0.00  0.00    -0.352 N 
ATOM     46  H26 ER8 d   1       0.318   7.973  46.762  0.00  0.00     0.163 HD
ATOM     47  O7  ER8 d   1       3.005   8.412  48.301  0.00  0.00    -0.272 OA
BRANCH  45  48
ATOM     48  C2  ER8 d   1       0.307   7.442  48.816  0.00  0.00     0.022 C 
BRANCH  48  49
ATOM     49  C1  ER8 d   1      -1.003   6.735  48.472  0.00  0.00    -0.054 C 
ATOM     50  H1  ER8 d   1      -1.467   6.354  49.394  0.00  0.00     0.030 H 
ATOM     51  H2  ER8 d   1      -0.799   5.896  47.790  0.00  0.00     0.030 H 
ATOM     52  H3  ER8 d   1      -1.686   7.446  47.984  0.00  0.00     0.030 H 
ENDBRANCH  48  49
BRANCH  48  53
ATOM     53  C3  ER8 d   1       0.036   8.625  49.747  0.00  0.00    -0.054 C 
ATOM     54  H4  ER8 d   1       0.985   9.127  49.988  0.00  0.00     0.030 H 
ATOM     55  H5  ER8 d   1      -0.433   8.262  50.674  0.00  0.00     0.030 H 
ATOM     56  H6  ER8 d   1      -0.639   9.337  49.249  0.00  0.00     0.030 H 
ENDBRANCH  48  53
BRANCH  48  57
ATOM     57  C4  ER8 d   1       1.267   6.457  49.486  0.00  0.00    -0.054 C 
ATOM     58  H23 ER8 d   1       1.455   5.611  48.809  0.00  0.00     0.030 H 
ATOM     59  H24 ER8 d   1       0.820   6.087  50.420  0.00  0.00     0.030 H 
ATOM     60  H25 ER8 d   1       2.216   6.965  49.710  0.00  0.00     0.030 H 
ENDBRANCH  48  57
ENDBRANCH  45  48
ENDBRANCH  41  44
ENDBRANCH   8  41
TORSDOF 9
