REMARK  4 active torsions:
REMARK  status: ('A' for Active; 'I' for Inactive)
REMARK       I    between atoms: CAN_2  and  N_3 
REMARK    1  A    between atoms: CA_5  and  C_6 
REMARK       I    between atoms: C_6  and  NAA_8 
REMARK    2  A    between atoms: CAO_11  and  NAK_12 
REMARK    3  A    between atoms: NAK_12  and  OAL_13 
REMARK    4  A    between atoms: OAL_13  and  SAR_14 
ROOT
ATOM      1  OAC NXL d   1      11.004  38.567  43.552  0.00  0.00    -0.284 OA
ATOM      2  CAN NXL d   1      10.139  37.877  43.058  0.00  0.00     0.171 C 
ATOM      3  N   NXL d   1       9.056  37.541  43.728  0.00  0.00    -0.344 N 
ATOM      4  CAJ NXL d   1       7.848  36.939  43.193  0.00  0.00     0.027 C 
ATOM      5  CA  NXL d   1       9.064  37.754  45.170  0.00  0.00     0.091 C 
ATOM      6  CB  NXL d   1       7.862  38.634  45.530  0.00  0.00    -0.036 C 
ATOM      7  CAH NXL d   1       6.574  38.168  44.864  0.00  0.00    -0.032 C 
ATOM      8  CAO NXL d   1       6.771  37.992  43.372  0.00  0.00     0.147 C 
ATOM      9  H1  NXL d   1      10.260  37.526  42.034  0.00  0.00     0.180 H 
ATOM     10  H2  NXL d   1       7.592  36.026  43.750  0.00  0.00     0.067 H 
ATOM     11  H3  NXL d   1       7.977  36.695  42.128  0.00  0.00     0.067 H 
ATOM     12  H4  NXL d   1       9.983  38.292  45.445  0.00  0.00     0.087 H 
ATOM     13  H7  NXL d   1       8.072  39.665  45.209  0.00  0.00     0.036 H 
ATOM     14  H8  NXL d   1       7.723  38.611  46.621  0.00  0.00     0.036 H 
ATOM     15  H9  NXL d   1       5.787  38.917  45.038  0.00  0.00     0.036 H 
ATOM     16  H10 NXL d   1       6.269  37.207  45.303  0.00  0.00     0.036 H 
ATOM     17  H11 NXL d   1       5.834  37.650  42.909  0.00  0.00     0.091 H 
ENDROOT
BRANCH   8  18
ATOM     18  NAK NXL d   1       7.181  39.268  42.750  0.00  0.00     0.061 N 
ATOM     19  H12 NXL d   1       7.187  39.164  41.747  0.00  0.00     0.316 HD
ATOM     20  H13 NXL d   1       8.106  39.513  43.068  0.00  0.00     0.316 HD
BRANCH  18  21
ATOM     21  OAL NXL d   1       6.313  40.250  43.095  0.00  0.00    -0.054 OA
BRANCH  21  22
ATOM     22  SAR NXL d   1       6.669  41.748  42.940  0.00  0.00     0.279 S 
ATOM     23  OAD NXL d   1       7.377  42.277  44.129  0.00  0.00    -0.571 OA
ATOM     24  OAE NXL d   1       7.591  41.903  41.793  0.00  0.00    -0.571 OA
ATOM     25  OAG NXL d   1       5.410  42.513  42.726  0.00  0.00    -0.571 OA
ENDBRANCH  21  22
ENDBRANCH  18  21
ENDBRANCH   8  18
BRANCH   5  26
ATOM     26  C   NXL d   1       9.064  36.441  45.894  0.00  0.00     0.238 C 
ATOM     27  O   NXL d   1       8.398  36.320  46.903  0.00  0.00    -0.271 OA
ATOM     28  NAA NXL d   1       9.813  35.457  45.401  0.00  0.00    -0.368 N 
ATOM     29  H5  NXL d   1       9.836  34.569  45.859  0.00  0.00     0.159 HD
ATOM     30  H6  NXL d   1      10.353  35.606  44.572  0.00  0.00     0.159 HD
ENDBRANCH   5  26
TORSDOF 4
