REMARK  10 active torsions:
REMARK  status: ('A' for Active; 'I' for Inactive)
REMARK    1  A    between atoms: N2_19  and  C1_1 
REMARK    2  A    between atoms: C5_3  and  C3_2 
REMARK       I    between atoms: C3_2  and  N2_19 
REMARK    3  A    between atoms: N6_21  and  C5_3 
REMARK    4  A    between atoms: C16_11  and  C11_7 
REMARK    5  A    between atoms: C30_31  and  C31_18 
REMARK    6  A    between atoms: N2_19  and  C30_31 
REMARK    7  A    between atoms: N19_26  and  C18_25 
REMARK    8  A    between atoms: N19_26  and  C20_27 
REMARK    9  A    between atoms: C30_31  and  C32_32 
REMARK   10  A    between atoms: C30_31  and  C33_33 
ROOT
ATOM      1  C7  ERW d   1       3.841  10.127  45.479  0.00  0.00     0.023 A 
ATOM      2  C8  ERW d   1       5.239   9.628  45.266  0.00  0.00    -0.025 A 
ATOM      3  C10 ERW d   1       7.619   9.627  44.919  0.00  0.00    -0.070 A 
ATOM      4  C11 ERW d   1       7.646   8.234  44.845  0.00  0.00    -0.004 A 
ATOM      5  C12 ERW d   1       6.433   7.548  44.985  0.00  0.00    -0.055 A 
ATOM      6  C13 ERW d   1       5.231   8.247  45.193  0.00  0.00     0.041 A 
ATOM      7  C14 ERW d   1       3.838   7.767  45.414  0.00  0.00     0.255 A 
ATOM      8  N6  ERW d   1       3.080   8.880  45.596  0.00  0.00    -0.335 N 
ATOM      9  C9  ERW d   1       6.434  10.315  45.108  0.00  0.00    -0.073 A 
ATOM     10  O15 ERW d   1       3.419   6.620  45.445  0.00  0.00    -0.267 OA
ATOM     11  H6  ERW d   1       3.497  10.725  44.623  0.00  0.00     0.071 H 
ATOM     12  H7  ERW d   1       3.768  10.726  46.398  0.00  0.00     0.071 H 
ATOM     13  H8  ERW d   1       8.546  10.181  44.827  0.00  0.00     0.084 H 
ATOM     14  H9  ERW d   1       6.421   6.465  44.932  0.00  0.00     0.086 H 
ATOM     15  H22 ERW d   1       6.439  11.399  45.133  0.00  0.00     0.084 H 
ENDROOT
BRANCH   4  16
ATOM     16  C16 ERW d   1       8.952   7.544  44.641  0.00  0.00     0.109 A 
ATOM     17  C28 ERW d   1       9.321   6.325  45.206  0.00  0.00     0.082 A 
ATOM     18  C27 ERW d   1      10.583   5.832  44.918  0.00  0.00     0.044 A 
ATOM     19 CL2  ERW d   1       8.280   5.413  46.245  0.00  0.00    -0.080 Cl
ATOM     20  N26 ERW d   1      11.448   6.476  44.130  0.00  0.00    -0.074 NA
ATOM     21  H18 ERW d   1      10.881   4.884  45.350  0.00  0.00     0.118 H 
ATOM     22  C18 ERW d   1      11.012   7.651  43.649  0.00  0.00     0.723 A 
ATOM     23  N17 ERW d   1       9.808   8.209  43.871  0.00  0.00    -0.061 NA
BRANCH  22  24
ATOM     24  N19 ERW d   1      11.868   8.344  42.877  0.00  0.00    -0.218 N 
ATOM     25  H23 ERW d   1      12.793   7.924  42.708  0.00  0.00     0.178 HD
BRANCH  24  26
ATOM     26  C20 ERW d   1      11.602   9.638  42.258  0.00  0.00     0.030 C 
ATOM     27  C21 ERW d   1      12.897  10.416  42.118  0.00  0.00    -0.026 C 
ATOM     28  C22 ERW d   1      12.661  11.679  41.324  0.00  0.00     0.021 C 
ATOM     29  H10 ERW d   1      13.273  10.680  43.118  0.00  0.00     0.039 H 
ATOM     30  H11 ERW d   1      13.641   9.794  41.599  0.00  0.00     0.039 H 
ATOM     31  O23 ERW d   1      12.126  11.392  40.033  0.00  0.00    -0.391 OA
ATOM     32  H12 ERW d   1      13.617  12.210  41.205  0.00  0.00     0.074 H 
ATOM     33  H13 ERW d   1      11.952  12.318  41.871  0.00  0.00     0.074 H 
ATOM     34  C24 ERW d   1      10.833  10.780  40.175  0.00  0.00     0.021 C 
ATOM     35  C25 ERW d   1      10.935   9.457  40.895  0.00  0.00    -0.026 C 
ATOM     36  H14 ERW d   1      10.178  11.452  40.749  0.00  0.00     0.074 H 
ATOM     37  H15 ERW d   1      10.403  10.614  39.176  0.00  0.00     0.074 H 
ATOM     38  H16 ERW d   1      11.533   8.761  40.289  0.00  0.00     0.039 H 
ATOM     39  H17 ERW d   1       9.925   9.044  41.038  0.00  0.00     0.039 H 
ATOM     40  H24 ERW d   1      10.919  10.205  42.908  0.00  0.00     0.073 H 
ENDBRANCH  24  26
ENDBRANCH  22  24
ENDBRANCH   4  16
BRANCH   8  41
ATOM     41  C5  ERW d   1       1.653   8.857  45.851  0.00  0.00     0.072 C 
ATOM     42  H4  ERW d   1       1.223   9.819  45.536  0.00  0.00     0.079 H 
ATOM     43  H5  ERW d   1       1.203   8.044  45.262  0.00  0.00     0.079 H 
BRANCH  41  44
ATOM     44  C3  ERW d   1       1.321   8.632  47.336  0.00  0.00     0.238 C 
ATOM     45  N2  ERW d   1       0.015   8.811  47.715  0.00  0.00    -0.347 N 
ATOM     46  O4  ERW d   1       2.199   8.305  48.126  0.00  0.00    -0.272 OA
BRANCH  45  47
ATOM     47  C1  ERW d   1      -0.918   9.478  46.803  0.00  0.00    -0.015 C 
ATOM     48  H1  ERW d   1      -0.362   9.899  45.953  0.00  0.00     0.056 H 
ATOM     49  H2  ERW d   1      -1.438  10.287  47.337  0.00  0.00     0.056 H 
ATOM     50  H3  ERW d   1      -1.655   8.749  46.434  0.00  0.00     0.056 H 
ENDBRANCH  45  47
BRANCH  45  51
ATOM     51  C30 ERW d   1      -0.506   8.147  48.971  0.00  0.00     0.024 C 
BRANCH  51  52
ATOM     52  C31 ERW d   1      -0.024   6.700  49.079  0.00  0.00    -0.053 C 
ATOM     53  H19 ERW d   1      -0.420   6.249  50.001  0.00  0.00     0.030 H 
ATOM     54  H20 ERW d   1       1.075   6.681  49.105  0.00  0.00     0.030 H 
ATOM     55  H21 ERW d   1      -0.381   6.129  48.209  0.00  0.00     0.030 H 
ENDBRANCH  51  52
BRANCH  51  56
ATOM     56  C32 ERW d   1      -0.021   8.924  50.190  0.00  0.00    -0.053 C 
ATOM     57  H25 ERW d   1      -0.364   9.967  50.120  0.00  0.00     0.030 H 
ATOM     58  H26 ERW d   1       1.078   8.901  50.226  0.00  0.00     0.030 H 
ATOM     59  H27 ERW d   1      -0.428   8.465  51.103  0.00  0.00     0.030 H 
ENDBRANCH  51  56
BRANCH  51  60
ATOM     60  C33 ERW d   1      -2.037   8.109  49.029  0.00  0.00    -0.053 C 
ATOM     61  H28 ERW d   1      -2.432   9.133  48.955  0.00  0.00     0.030 H 
ATOM     62  H29 ERW d   1      -2.357   7.661  49.981  0.00  0.00     0.030 H 
ATOM     63  H30 ERW d   1      -2.421   7.506  48.193  0.00  0.00     0.030 H 
ENDBRANCH  51  60
ENDBRANCH  45  51
ENDBRANCH  41  44
ENDBRANCH   8  41
TORSDOF 10
