REMARK  8 active torsions:
REMARK  status: ('A' for Active; 'I' for Inactive)
REMARK    1  A    between atoms: C2_2  and  C1_1 
REMARK    2  A    between atoms: C2_2  and  C31_19 
REMARK    3  A    between atoms: N3_22  and  C2_2 
REMARK    4  A    between atoms: C4_23  and  C6_3 
REMARK    5  A    between atoms: C6_3  and  N7_25 
REMARK    6  A    between atoms: C12_7  and  C17_28 
REMARK    7  A    between atoms: C19_12  and  N20_29 
REMARK    8  A    between atoms: N20_29  and  C21_13 
REMARK       I    between atoms: N3_22  and  C4_23 
ROOT
ATOM      1  C8  ERK d   1       4.550   9.900  45.910  0.00  0.00     0.023 A 
ATOM      2  C10 ERK d   1       7.118  10.153  45.470  0.00  0.00    -0.073 A 
ATOM      3  C11 ERK d   1       8.287   9.512  45.114  0.00  0.00    -0.070 A 
ATOM      4  C12 ERK d   1       8.303   8.156  44.786  0.00  0.00    -0.004 A 
ATOM      5  C13 ERK d   1       7.105   7.433  44.894  0.00  0.00    -0.055 A 
ATOM      6  C14 ERK d   1       5.921   8.091  45.265  0.00  0.00     0.041 A 
ATOM      7  C15 ERK d   1       4.534   7.589  45.417  0.00  0.00     0.255 A 
ATOM      8  N7  ERK d   1       3.779   8.656  45.792  0.00  0.00    -0.335 N 
ATOM      9  C9  ERK d   1       5.935   9.447  45.558  0.00  0.00    -0.025 A 
ATOM     10  O16 ERK d   1       4.113   6.458  45.250  0.00  0.00    -0.267 OA
ATOM     11  H7  ERK d   1       4.509  10.299  46.934  0.00  0.00     0.071 H 
ATOM     12  H8  ERK d   1       4.188  10.662  45.204  0.00  0.00     0.071 H 
ATOM     13  H9  ERK d   1       7.129  11.216  45.682  0.00  0.00     0.084 H 
ATOM     14  H10 ERK d   1       9.213  10.074  45.089  0.00  0.00     0.084 H 
ATOM     15  H11 ERK d   1       7.093   6.368  44.691  0.00  0.00     0.086 H 
ENDROOT
BRANCH   4  16
ATOM     16  C17 ERK d   1       9.605   7.526  44.443  0.00  0.00     0.109 A 
ATOM     17  N18 ERK d   1      10.436   8.265  43.671  0.00  0.00    -0.061 NA
ATOM     18  C19 ERK d   1      11.631   7.708  43.397  0.00  0.00     0.723 A 
ATOM     19  N27 ERK d   1      12.085   6.519  43.828  0.00  0.00    -0.074 NA
ATOM     20  C28 ERK d   1      11.243   5.826  44.601  0.00  0.00     0.044 A 
ATOM     21  C29 ERK d   1       9.989   6.297  44.949  0.00  0.00     0.082 A 
ATOM     22  H21 ERK d   1      11.555   4.856  44.970  0.00  0.00     0.118 H 
ATOM     23 CL3  ERK d   1       8.970   5.331  45.966  0.00  0.00    -0.080 Cl
BRANCH  18  24
ATOM     24  N20 ERK d   1      12.491   8.411  42.626  0.00  0.00    -0.218 N 
ATOM     25  H25 ERK d   1      13.427   8.005  42.483  0.00  0.00     0.178 HD
BRANCH  24  26
ATOM     26  C21 ERK d   1      12.222   9.688  41.978  0.00  0.00     0.030 C 
ATOM     27  C22 ERK d   1      13.522  10.416  41.705  0.00  0.00    -0.026 C 
ATOM     28  C23 ERK d   1      13.197  11.693  40.977  0.00  0.00     0.021 C 
ATOM     29  H13 ERK d   1      14.178   9.789  41.083  0.00  0.00     0.039 H 
ATOM     30  H14 ERK d   1      14.027  10.646  42.654  0.00  0.00     0.039 H 
ATOM     31  O24 ERK d   1      12.522  11.433  39.739  0.00  0.00    -0.391 OA
ATOM     32  H15 ERK d   1      14.132  12.234  40.768  0.00  0.00     0.074 H 
ATOM     33  H16 ERK d   1      12.549  12.313  41.614  0.00  0.00     0.074 H 
ATOM     34  C25 ERK d   1      11.267  10.814  39.984  0.00  0.00     0.021 C 
ATOM     35  C26 ERK d   1      11.440   9.490  40.689  0.00  0.00    -0.026 C 
ATOM     36  H17 ERK d   1      10.656  11.478  40.613  0.00  0.00     0.074 H 
ATOM     37  H18 ERK d   1      10.757  10.646  39.024  0.00  0.00     0.074 H 
ATOM     38  H19 ERK d   1      10.451   9.070  40.923  0.00  0.00     0.039 H 
ATOM     39  H20 ERK d   1      11.987   8.796  40.033  0.00  0.00     0.039 H 
ATOM     40  H12 ERK d   1      11.615  10.302  42.660  0.00  0.00     0.073 H 
ENDBRANCH  24  26
ENDBRANCH  18  24
ENDBRANCH   4  16
BRANCH   8  41
ATOM     41  C6  ERK d   1       2.337   8.617  45.948  0.00  0.00     0.072 C 
ATOM     42  H5  ERK d   1       1.936   9.604  45.673  0.00  0.00     0.079 H 
ATOM     43  H6  ERK d   1       1.938   7.855  45.262  0.00  0.00     0.079 H 
BRANCH  41  44
ATOM     44  C4  ERK d   1       1.860   8.286  47.354  0.00  0.00     0.236 C 
ATOM     45  N3  ERK d   1       0.575   8.531  47.614  0.00  0.00    -0.351 N 
ATOM     46  H24 ERK d   1       0.045   9.045  46.940  0.00  0.00     0.163 HD
ATOM     47  O5  ERK d   1       2.626   7.826  48.189  0.00  0.00    -0.272 OA
BRANCH  45  48
ATOM     48  C2  ERK d   1      -0.102   8.085  48.838  0.00  0.00     0.034 C 
ATOM     49  H4  ERK d   1       0.672   7.781  49.558  0.00  0.00     0.079 H 
BRANCH  48  50
ATOM     50  C1  ERK d   1      -0.964   6.872  48.512  0.00  0.00    -0.053 C 
ATOM     51  H1  ERK d   1      -0.344   6.099  48.034  0.00  0.00     0.030 H 
ATOM     52  H2  ERK d   1      -1.771   7.169  47.827  0.00  0.00     0.030 H 
ATOM     53  H3  ERK d   1      -1.399   6.471  49.440  0.00  0.00     0.030 H 
ENDBRANCH  48  50
BRANCH  48  54
ATOM     54  C31 ERK d   1      -0.948   9.161  49.499  0.00  0.00    -0.036 A 
ATOM     55  C36 ERK d   1      -1.583  10.145  48.753  0.00  0.00    -0.075 A 
ATOM     56  C35 ERK d   1      -2.363  11.110  49.372  0.00  0.00    -0.082 A 
ATOM     57  H23 ERK d   1      -1.468  10.159  47.675  0.00  0.00     0.084 H 
ATOM     58  C34 ERK d   1      -2.525  11.099  50.739  0.00  0.00    -0.083 A 
ATOM     59  H22 ERK d   1      -2.847  11.876  48.777  0.00  0.00     0.083 H 
ATOM     60  C33 ERK d   1      -1.904  10.126  51.493  0.00  0.00    -0.082 A 
ATOM     61  H28 ERK d   1      -3.138  11.852  51.221  0.00  0.00     0.083 H 
ATOM     62  C32 ERK d   1      -1.128   9.155  50.877  0.00  0.00    -0.075 A 
ATOM     63  H27 ERK d   1      -2.022  10.120  52.571  0.00  0.00     0.083 H 
ATOM     64  H26 ERK d   1      -0.657   8.384  51.476  0.00  0.00     0.084 H 
ENDBRANCH  48  54
ENDBRANCH  45  48
ENDBRANCH  41  44
ENDBRANCH   8  41
TORSDOF 8
