REMARK  9 active torsions:
REMARK  status: ('A' for Active; 'I' for Inactive)
REMARK    1  A    between atoms: C3_2  and  C2_1 
REMARK    2  A    between atoms: C2_1  and  O1_22 
REMARK    3  A    between atoms: N4_3  and  C3_2 
REMARK    4  A    between atoms: C3_2  and  C32_35 
REMARK       I    between atoms: C5_4  and  N4_3 
REMARK    5  A    between atoms: C7_5  and  C5_4 
REMARK    6  A    between atoms: N8_24  and  C7_5 
REMARK    7  A    between atoms: C18_26  and  C13_9 
REMARK    8  A    between atoms: N21_29  and  C22_14 
REMARK    9  A    between atoms: C20_28  and  N21_29 
ROOT
ATOM      1  C10 ESK d   1       6.368   9.536  45.276  0.00  0.00    -0.025 A 
ATOM      2  C11 ESK d   1       7.557  10.237  45.178  0.00  0.00    -0.073 A 
ATOM      3  C12 ESK d   1       8.724   9.578  44.838  0.00  0.00    -0.070 A 
ATOM      4  C13 ESK d   1       8.733   8.206  44.574  0.00  0.00    -0.004 A 
ATOM      5  C14 ESK d   1       7.527   7.498  44.682  0.00  0.00    -0.055 A 
ATOM      6  C15 ESK d   1       6.348   8.174  45.018  0.00  0.00     0.041 A 
ATOM      7  C16 ESK d   1       4.962   7.676  45.201  0.00  0.00     0.255 A 
ATOM      8  O17 ESK d   1       4.540   6.527  45.124  0.00  0.00    -0.267 OA
ATOM      9  N8  ESK d   1       4.207   8.769  45.494  0.00  0.00    -0.335 N 
ATOM     10  C9  ESK d   1       4.984  10.006  45.598  0.00  0.00     0.023 A 
ATOM     11  H7  ESK d   1       7.574  11.304  45.368  0.00  0.00     0.084 H 
ATOM     12  H8  ESK d   1       9.651  10.137  44.775  0.00  0.00     0.084 H 
ATOM     13  H9  ESK d   1       7.508   6.429  44.505  0.00  0.00     0.086 H 
ATOM     14  H23 ESK d   1       4.638  10.757  44.872  0.00  0.00     0.071 H 
ATOM     15  H24 ESK d   1       4.931  10.426  46.613  0.00  0.00     0.071 H 
ENDROOT
BRANCH   4  16
ATOM     16  C18 ESK d   1      10.024   7.544  44.243  0.00  0.00     0.109 A 
ATOM     17  N19 ESK d   1      10.862   8.270  43.485  0.00  0.00    -0.061 NA
ATOM     18  C20 ESK d   1      12.054   7.707  43.206  0.00  0.00     0.723 A 
ATOM     19  N28 ESK d   1      12.482   6.496  43.595  0.00  0.00    -0.074 NA
ATOM     20  C29 ESK d   1      11.635   5.809  44.359  0.00  0.00     0.044 A 
ATOM     21  C30 ESK d   1      10.383   6.288  44.703  0.00  0.00     0.082 A 
ATOM     22  H26 ESK d   1      11.938   4.835  44.726  0.00  0.00     0.118 H 
ATOM     23 CL1  ESK d   1       9.356   5.313  45.690  0.00  0.00    -0.080 Cl
BRANCH  18  24
ATOM     24  N21 ESK d   1      12.917   8.407  42.445  0.00  0.00    -0.218 N 
ATOM     25  H25 ESK d   1      13.855   8.002  42.313  0.00  0.00     0.178 HD
BRANCH  24  26
ATOM     26  C22 ESK d   1      12.653   9.683  41.789  0.00  0.00     0.030 C 
ATOM     27  C23 ESK d   1      13.949  10.388  41.459  0.00  0.00    -0.026 C 
ATOM     28  C24 ESK d   1      13.581  11.684  40.792  0.00  0.00     0.021 C 
ATOM     29  H11 ESK d   1      14.553   9.770  40.779  0.00  0.00     0.039 H 
ATOM     30  H12 ESK d   1      14.518  10.584  42.380  0.00  0.00     0.039 H 
ATOM     31  O25 ESK d   1      12.862  11.459  39.572  0.00  0.00    -0.391 OA
ATOM     32  H13 ESK d   1      14.500  12.245  40.567  0.00  0.00     0.074 H 
ATOM     33  H14 ESK d   1      12.951  12.272  41.475  0.00  0.00     0.074 H 
ATOM     34  C26 ESK d   1      11.621  10.803  39.839  0.00  0.00     0.021 C 
ATOM     35  C27 ESK d   1      11.837   9.475  40.526  0.00  0.00    -0.026 C 
ATOM     36  H15 ESK d   1      11.008  11.446  40.488  0.00  0.00     0.074 H 
ATOM     37  H16 ESK d   1      11.094  10.633  38.888  0.00  0.00     0.074 H 
ATOM     38  H17 ESK d   1      10.863   9.035  40.787  0.00  0.00     0.039 H 
ATOM     39  H18 ESK d   1      12.376   8.796  39.849  0.00  0.00     0.039 H 
ATOM     40  H10 ESK d   1      12.075  10.316  42.479  0.00  0.00     0.073 H 
ENDBRANCH  24  26
ENDBRANCH  18  24
ENDBRANCH   4  16
BRANCH   9  41
ATOM     41  C7  ESK d   1       2.769   8.742  45.680  0.00  0.00     0.072 C 
ATOM     42  H5  ESK d   1       2.364   9.720  45.382  0.00  0.00     0.079 H 
ATOM     43  H6  ESK d   1       2.351   7.958  45.031  0.00  0.00     0.079 H 
BRANCH  41  44
ATOM     44  C5  ESK d   1       2.334   8.461  47.105  0.00  0.00     0.236 C 
ATOM     45  N4  ESK d   1       1.062   8.752  47.379  0.00  0.00    -0.349 N 
ATOM     46  H4  ESK d   1       0.556   9.323  46.732  0.00  0.00     0.163 HD
ATOM     47  O6  ESK d   1       3.114   7.996  47.931  0.00  0.00    -0.272 OA
BRANCH  45  48
ATOM     48  C3  ESK d   1       0.371   8.281  48.573  0.00  0.00     0.058 C 
ATOM     49  H3  ESK d   1       1.125   7.971  49.311  0.00  0.00     0.083 H 
BRANCH  48  50
ATOM     50  C2  ESK d   1      -0.489   7.071  48.201  0.00  0.00     0.039 C 
ATOM     51  H1  ESK d   1      -1.081   6.769  49.078  0.00  0.00     0.077 H 
ATOM     52  H2  ESK d   1       0.170   6.243  47.901  0.00  0.00     0.077 H 
BRANCH  50  53
ATOM     53  O1  ESK d   1      -1.371   7.371  47.130  0.00  0.00    -0.399 OA
ATOM     54  H22 ESK d   1      -0.866   7.628  46.368  0.00  0.00     0.209 HD
ENDBRANCH  50  53
ENDBRANCH  48  50
BRANCH  48  55
ATOM     55  C32 ESK d   1      -0.501   9.353  49.206  0.00  0.00    -0.033 A 
ATOM     56  C37 ESK d   1      -0.866   9.253  50.541  0.00  0.00    -0.075 A 
ATOM     57  C36 ESK d   1      -1.670  10.219  51.128  0.00  0.00    -0.082 A 
ATOM     58  H21 ESK d   1      -0.520   8.412  51.131  0.00  0.00     0.084 H 
ATOM     59  C35 ESK d   1      -2.124  11.290  50.385  0.00  0.00    -0.083 A 
ATOM     60  H20 ESK d   1      -1.943  10.133  52.174  0.00  0.00     0.083 H 
ATOM     61  C34 ESK d   1      -1.775  11.398  49.056  0.00  0.00    -0.082 A 
ATOM     62  H19 ESK d   1      -2.753  12.044  50.845  0.00  0.00     0.083 H 
ATOM     63  C33 ESK d   1      -0.969  10.438  48.469  0.00  0.00    -0.075 A 
ATOM     64  H28 ESK d   1      -2.132  12.236  48.469  0.00  0.00     0.083 H 
ATOM     65  H27 ESK d   1      -0.699  10.532  47.423  0.00  0.00     0.084 H 
ENDBRANCH  48  55
ENDBRANCH  45  48
ENDBRANCH  41  44
ENDBRANCH   9  41
TORSDOF 9
