REMARK  9 active torsions:
REMARK  status: ('A' for Active; 'I' for Inactive)
REMARK    1  A    between atoms: C2_2  and  C1_1 
REMARK    2  A    between atoms: C2_2  and  C3_3 
REMARK    3  A    between atoms: N4_4  and  C2_2 
REMARK    4  A    between atoms: C2_2  and  C32_35 
REMARK       I    between atoms: C5_5  and  N4_4 
REMARK    5  A    between atoms: C7_6  and  C5_5 
REMARK    6  A    between atoms: N8_24  and  C7_6 
REMARK    7  A    between atoms: C18_26  and  C13_10 
REMARK    8  A    between atoms: N21_29  and  C22_15 
REMARK    9  A    between atoms: C20_28  and  N21_29 
ROOT
ATOM      1  C10 ESW d   1       6.002   9.503  44.769  0.00  0.00    -0.025 A 
ATOM      2  C11 ESW d   1       7.163  10.236  44.580  0.00  0.00    -0.073 A 
ATOM      3  C12 ESW d   1       8.381   9.592  44.435  0.00  0.00    -0.070 A 
ATOM      4  C13 ESW d   1       8.473   8.199  44.466  0.00  0.00    -0.004 A 
ATOM      5  C14 ESW d   1       7.293   7.463  44.644  0.00  0.00    -0.055 A 
ATOM      6  C15 ESW d   1       6.065   8.121  44.809  0.00  0.00     0.041 A 
ATOM      7  C16 ESW d   1       4.693   7.588  45.018  0.00  0.00     0.255 A 
ATOM      8  O17 ESW d   1       4.327   6.431  45.091  0.00  0.00    -0.267 OA
ATOM      9  N8  ESW d   1       3.877   8.668  45.119  0.00  0.00    -0.335 N 
ATOM     10  C9  ESW d   1       4.580   9.944  44.958  0.00  0.00     0.023 A 
ATOM     11  H10 ESW d   1       7.118  11.319  44.545  0.00  0.00     0.084 H 
ATOM     12  H11 ESW d   1       9.280  10.181  44.295  0.00  0.00     0.084 H 
ATOM     13  H12 ESW d   1       7.330   6.380  44.654  0.00  0.00     0.086 H 
ATOM     14  H25 ESW d   1       4.213  10.493  44.078  0.00  0.00     0.071 H 
ATOM     15  H26 ESW d   1       4.474  10.573  45.854  0.00  0.00     0.071 H 
ENDROOT
BRANCH   9  16
ATOM     16  C7  ESW d   1       2.447   8.576  45.342  0.00  0.00     0.072 C 
ATOM     17  H8  ESW d   1       1.928   9.252  44.647  0.00  0.00     0.079 H 
ATOM     18  H9  ESW d   1       2.118   7.542  45.162  0.00  0.00     0.079 H 
BRANCH  16  19
ATOM     19  C5  ESW d   1       2.107   8.968  46.770  0.00  0.00     0.236 C 
ATOM     20  N4  ESW d   1       1.018   9.747  46.923  0.00  0.00    -0.347 N 
ATOM     21  H7  ESW d   1       0.362   9.789  46.169  0.00  0.00     0.163 HD
ATOM     22  O6  ESW d   1       2.805   8.581  47.707  0.00  0.00    -0.272 OA
BRANCH  20  23
ATOM     23  C2  ESW d   1       0.731  10.543  48.133  0.00  0.00     0.053 C 
BRANCH  23  24
ATOM     24  C1  ESW d   1      -0.516  11.387  47.862  0.00  0.00    -0.049 C 
ATOM     25  H1  ESW d   1      -0.751  11.991  48.751  0.00  0.00     0.031 H 
ATOM     26  H2  ESW d   1      -1.364  10.725  47.634  0.00  0.00     0.031 H 
ATOM     27  H3  ESW d   1      -0.330  12.052  47.006  0.00  0.00     0.031 H 
ENDBRANCH  23  24
BRANCH  23  28
ATOM     28  C3  ESW d   1       0.439   9.562  49.273  0.00  0.00    -0.049 C 
ATOM     29  H4  ESW d   1       1.333   8.953  49.471  0.00  0.00     0.031 H 
ATOM     30  H5  ESW d   1      -0.396   8.905  48.987  0.00  0.00     0.031 H 
ATOM     31  H6  ESW d   1       0.170  10.123  50.180  0.00  0.00     0.031 H 
ENDBRANCH  23  28
BRANCH  23  32
ATOM     32  C32 ESW d   1       2.030  11.418  48.294  0.00  0.00    -0.031 A 
ATOM     33  C37 ESW d   1       2.425  12.274  47.272  0.00  0.00    -0.074 A 
ATOM     34  C36 ESW d   1       3.587  13.020  47.377  0.00  0.00    -0.082 A 
ATOM     35  H24 ESW d   1       1.815  12.359  46.380  0.00  0.00     0.084 H 
ATOM     36  C35 ESW d   1       4.379  12.917  48.504  0.00  0.00    -0.083 A 
ATOM     37  H23 ESW d   1       3.876  13.687  46.572  0.00  0.00     0.083 H 
ATOM     38  C34 ESW d   1       4.004  12.069  49.526  0.00  0.00    -0.082 A 
ATOM     39  H22 ESW d   1       5.290  13.499  48.585  0.00  0.00     0.083 H 
ATOM     40  C33 ESW d   1       2.844  11.315  49.419  0.00  0.00    -0.074 A 
ATOM     41  H30 ESW d   1       4.618  11.992  50.416  0.00  0.00     0.083 H 
ATOM     42  H29 ESW d   1       2.568  10.639  50.220  0.00  0.00     0.084 H 
ENDBRANCH  23  32
ENDBRANCH  20  23
ENDBRANCH  16  19
ENDBRANCH   9  16
BRANCH   4  43
ATOM     43  C18 ESW d   1       9.796   7.539  44.296  0.00  0.00     0.109 A 
ATOM     44  N19 ESW d   1      10.664   8.203  43.524  0.00  0.00    -0.061 NA
ATOM     45  C20 ESW d   1      11.874   7.639  43.344  0.00  0.00     0.723 A 
ATOM     46  N28 ESW d   1      12.295   6.473  43.863  0.00  0.00    -0.074 NA
ATOM     47  C29 ESW d   1      11.416   5.842  44.647  0.00  0.00     0.044 A 
ATOM     48  C30 ESW d   1      10.150   6.338  44.902  0.00  0.00     0.082 A 
ATOM     49  H28 ESW d   1      11.707   4.902  45.102  0.00  0.00     0.118 H 
ATOM     50 CL1  ESW d   1       9.088   5.445  45.939  0.00  0.00    -0.080 Cl
BRANCH  45  51
ATOM     51  N21 ESW d   1      12.753   8.307  42.561  0.00  0.00    -0.218 N 
ATOM     52  H27 ESW d   1      13.672   7.877  42.387  0.00  0.00     0.178 HD
BRANCH  51  53
ATOM     53  C22 ESW d   1      12.471   9.609  41.946  0.00  0.00     0.030 C 
ATOM     54  C23 ESW d   1      13.756  10.349  41.635  0.00  0.00    -0.026 C 
ATOM     55  C24 ESW d   1      13.421  11.624  40.905  0.00  0.00     0.021 C 
ATOM     56  H14 ESW d   1      14.400   9.720  41.003  0.00  0.00     0.039 H 
ATOM     57  H15 ESW d   1      14.281  10.587  42.572  0.00  0.00     0.039 H 
ATOM     58  O25 ESW d   1      12.743  11.361  39.675  0.00  0.00    -0.391 OA
ATOM     59  H16 ESW d   1      14.352  12.168  40.690  0.00  0.00     0.074 H 
ATOM     60  H17 ESW d   1      12.774  12.242  41.544  0.00  0.00     0.074 H 
ATOM     61  C26 ESW d   1      11.470  10.749  39.939  0.00  0.00     0.021 C 
ATOM     62  C27 ESW d   1      11.632   9.442  40.685  0.00  0.00    -0.026 C 
ATOM     63  H18 ESW d   1      10.862  11.435  40.547  0.00  0.00     0.074 H 
ATOM     64  H19 ESW d   1      10.961  10.555  38.983  0.00  0.00     0.074 H 
ATOM     65  H20 ESW d   1      10.637   9.067  40.967  0.00  0.00     0.039 H 
ATOM     66  H21 ESW d   1      12.124   8.714  40.024  0.00  0.00     0.039 H 
ATOM     67  H13 ESW d   1      11.895  10.209  42.665  0.00  0.00     0.073 H 
ENDBRANCH  51  53
ENDBRANCH  45  51
ENDBRANCH   4  43
TORSDOF 9
