REMARK  11 active torsions:
REMARK  status: ('A' for Active; 'I' for Inactive)
REMARK    1  A    between atoms: C2_2  and  C1_1 
REMARK    2  A    between atoms: C27_16  and  C2_2 
REMARK    3  A    between atoms: C2_2  and  N3_23 
REMARK    4  A    between atoms: C8_6  and  C13_9 
REMARK    5  A    between atoms: C15_10  and  N16_28 
REMARK       I    between atoms: N29_35  and  C27_16 
REMARK    6  A    between atoms: C30_36  and  C31_17 
REMARK    7  A    between atoms: C31_17  and  O32_37 
REMARK    8  A    between atoms: C37_20  and  C38_21 
REMARK    9  A    between atoms: N16_28  and  C17_29 
REMARK   10  A    between atoms: C30_36  and  N29_35 
REMARK   11  A    between atoms: C30_36  and  C33_38 
ROOT
ATOM      1  C5  ESN d   1       5.828   9.507  45.457  0.00  0.00    -0.025 A 
ATOM      2  C6  ESN d   1       7.050  10.145  45.432  0.00  0.00    -0.073 A 
ATOM      3  C7  ESN d   1       8.193   9.434  45.133  0.00  0.00    -0.070 A 
ATOM      4  C8  ESN d   1       8.139   8.069  44.821  0.00  0.00    -0.004 A 
ATOM      5  C10 ESN d   1       5.755   8.144  45.185  0.00  0.00     0.041 A 
ATOM      6  C11 ESN d   1       4.334   7.732  45.235  0.00  0.00     0.255 C 
ATOM      7  N3  ESN d   1       3.612   8.883  45.409  0.00  0.00    -0.331 N 
ATOM      8  C4  ESN d   1       4.452  10.042  45.716  0.00  0.00     0.024 C 
ATOM      9  C9  ESN d   1       6.898   7.423  44.847  0.00  0.00    -0.055 A 
ATOM     10  O12 ESN d   1       3.857   6.614  45.140  0.00  0.00    -0.267 OA
ATOM     11  H5  ESN d   1       7.112  11.206  45.647  0.00  0.00     0.084 H 
ATOM     12  H6  ESN d   1       9.151   9.941  45.139  0.00  0.00     0.084 H 
ATOM     13  H22 ESN d   1       4.221  10.889  45.054  0.00  0.00     0.071 H 
ATOM     14  H23 ESN d   1       4.335  10.354  46.764  0.00  0.00     0.071 H 
ATOM     15  H24 ESN d   1       6.827   6.369  44.606  0.00  0.00     0.086 H 
ENDROOT
BRANCH   7  16
ATOM     16  C2  ESN d   1       2.163   8.879  45.547  0.00  0.00     0.089 C 
ATOM     17  H4  ESN d   1       1.763   8.112  44.868  0.00  0.00     0.087 H 
BRANCH  16  18
ATOM     18  C1  ESN d   1       1.536  10.212  45.156  0.00  0.00    -0.049 C 
ATOM     19  H1  ESN d   1       0.444  10.154  45.279  0.00  0.00     0.030 H 
ATOM     20  H2  ESN d   1       1.776  10.436  44.106  0.00  0.00     0.030 H 
ATOM     21  H3  ESN d   1       1.935  11.008  45.801  0.00  0.00     0.030 H 
ENDBRANCH  16  18
BRANCH  16  22
ATOM     22  C27 ESN d   1       1.778   8.496  46.977  0.00  0.00     0.240 C 
ATOM     23  O28 ESN d   1       2.630   8.342  47.853  0.00  0.00    -0.271 OA
ATOM     24  N29 ESN d   1       0.470   8.353  47.176  0.00  0.00    -0.349 N 
ATOM     25  H29 ESN d   1      -0.143   8.539  46.408  0.00  0.00     0.163 HD
BRANCH  24  26
ATOM     26  C30 ESN d   1      -0.130   7.940  48.449  0.00  0.00     0.058 C 
ATOM     27  H30 ESN d   1       0.673   7.614  49.126  0.00  0.00     0.083 H 
BRANCH  26  28
ATOM     28  C31 ESN d   1      -1.069   6.774  48.200  0.00  0.00     0.039 C 
ATOM     29  H14 ESN d   1      -1.520   6.469  49.156  0.00  0.00     0.077 H 
ATOM     30  H15 ESN d   1      -0.494   5.935  47.782  0.00  0.00     0.077 H 
BRANCH  28  31
ATOM     31  O32 ESN d   1      -2.092   7.118  47.302  0.00  0.00    -0.399 OA
ATOM     32  H31 ESN d   1      -1.709   7.378  46.472  0.00  0.00     0.209 HD
ENDBRANCH  28  31
ENDBRANCH  26  28
BRANCH  26  33
ATOM     33  C33 ESN d   1      -0.885   9.077  49.111  0.00  0.00    -0.033 A 
ATOM     34  C39 ESN d   1      -1.314  10.174  48.365  0.00  0.00    -0.069 A 
ATOM     35  C37 ESN d   1      -2.036  11.211  48.940  0.00  0.00    -0.061 A 
ATOM     36  H21 ESN d   1      -1.077  10.218  47.308  0.00  0.00     0.085 H 
ATOM     37  C36 ESN d   1      -2.311  11.143  50.300  0.00  0.00    -0.077 A 
ATOM     38  C35 ESN d   1      -1.896  10.060  51.059  0.00  0.00    -0.082 A 
ATOM     39  H17 ESN d   1      -2.858  11.949  50.775  0.00  0.00     0.084 H 
ATOM     40  C34 ESN d   1      -1.194   9.025  50.464  0.00  0.00    -0.075 A 
ATOM     41  H16 ESN d   1      -2.121  10.023  52.119  0.00  0.00     0.083 H 
ATOM     42  H32 ESN d   1      -0.885   8.171  51.056  0.00  0.00     0.084 H 
BRANCH  35  43
ATOM     43  C38 ESN d   1      -2.454  12.405  48.120  0.00  0.00    -0.051 C 
ATOM     44  H18 ESN d   1      -2.143  12.259  47.075  0.00  0.00     0.033 H 
ATOM     45  H19 ESN d   1      -1.977  13.311  48.522  0.00  0.00     0.033 H 
ATOM     46  H20 ESN d   1      -3.547  12.516  48.165  0.00  0.00     0.033 H 
ENDBRANCH  35  43
ENDBRANCH  26  33
ENDBRANCH  24  26
ENDBRANCH  16  22
ENDBRANCH   7  16
BRANCH   4  47
ATOM     47  C13 ESN d   1       9.408   7.344  44.565  0.00  0.00     0.109 A 
ATOM     48  C25 ESN d   1       9.724   6.088  45.072  0.00  0.00     0.082 A 
ATOM     49  C24 ESN d   1      10.980   5.585  44.778  0.00  0.00     0.044 A 
ATOM     50 CL1  ESN d   1       8.650   5.135  46.040  0.00  0.00    -0.080 Cl
ATOM     51  N23 ESN d   1      11.875   6.260  44.061  0.00  0.00    -0.074 NA
ATOM     52  H13 ESN d   1      11.245   4.601  45.147  0.00  0.00     0.118 H 
ATOM     53  C15 ESN d   1      11.482   7.465  43.624  0.00  0.00     0.723 A 
ATOM     54  N14 ESN d   1      10.287   8.037  43.836  0.00  0.00    -0.061 NA
BRANCH  53  55
ATOM     55  N16 ESN d   1      12.365   8.171  42.874  0.00  0.00    -0.218 N 
ATOM     56  H25 ESN d   1      13.297   7.755  42.733  0.00  0.00     0.178 HD
BRANCH  55  57
ATOM     57  C17 ESN d   1      12.114   9.472  42.245  0.00  0.00     0.030 C 
ATOM     58  C22 ESN d   1      11.335   9.278  40.954  0.00  0.00    -0.026 C 
ATOM     59  C21 ESN d   1      11.182  10.579  40.197  0.00  0.00     0.021 C 
ATOM     60  H11 ESN d   1      11.870   8.556  40.319  0.00  0.00     0.039 H 
ATOM     61  H12 ESN d   1      10.336   8.885  41.195  0.00  0.00     0.039 H 
ATOM     62  O20 ESN d   1      12.452  11.198  39.958  0.00  0.00    -0.391 OA
ATOM     63  H9  ESN d   1      10.555  11.264  40.786  0.00  0.00     0.074 H 
ATOM     64  H10 ESN d   1      10.696  10.376  39.231  0.00  0.00     0.074 H 
ATOM     65  C19 ESN d   1      13.145  11.463  41.195  0.00  0.00     0.021 C 
ATOM     66  C18 ESN d   1      13.416  10.199  41.972  0.00  0.00    -0.026 C 
ATOM     67  H7  ESN d   1      14.103  11.953  40.967  0.00  0.00     0.074 H 
ATOM     68  H8  ESN d   1      12.528  12.133  41.811  0.00  0.00     0.074 H 
ATOM     69  H27 ESN d   1      13.898  10.454  42.927  0.00  0.00     0.039 H 
ATOM     70  H28 ESN d   1      14.082   9.547  41.388  0.00  0.00     0.039 H 
ATOM     71  H26 ESN d   1      11.511  10.083  42.932  0.00  0.00     0.073 H 
ENDBRANCH  55  57
ENDBRANCH  53  55
ENDBRANCH   4  47
TORSDOF 11
