REMARK  6 active torsions:
REMARK  status: ('A' for Active; 'I' for Inactive)
REMARK       I    between atoms: N1_1  and  C13_11 
REMARK    1  A    between atoms: C7_5  and  C2_3 
REMARK    2  A    between atoms: C2_3  and  N3_12 
REMARK    3  A    between atoms: C11_9  and  C9_7 
REMARK    4  A    between atoms: C10_8  and  N4_13 
REMARK    5  A    between atoms: N4_13  and  O3_15 
REMARK    6  A    between atoms: O3_15  and  S1_21 
ROOT
ATOM      1  N1  ET5 d   1       9.053  37.582  44.162  0.00  0.00    -0.347 N 
ATOM      2  C1  ET5 d   1       7.852  37.068  43.526  0.00  0.00     0.031 C 
ATOM      3  C7  ET5 d   1       8.894  37.660  45.608  0.00  0.00     0.054 C 
ATOM      4  C8  ET5 d   1       7.612  38.399  45.931  0.00  0.00    -0.069 C 
ATOM      5  C9  ET5 d   1       6.661  38.563  44.998  0.00  0.00     0.010 C 
ATOM      6  C10 ET5 d   1       6.923  38.275  43.553  0.00  0.00     0.174 C 
ATOM      7  C13 ET5 d   1      10.148  37.976  43.503  0.00  0.00     0.171 C 
ATOM      8  O8  ET5 d   1      10.979  38.786  43.905  0.00  0.00    -0.284 OA
ATOM      9  H1  ET5 d   1       7.429  36.228  44.096  0.00  0.00     0.068 H 
ATOM     10  H2  ET5 d   1       8.055  36.746  42.494  0.00  0.00     0.068 H 
ATOM     11  H6  ET5 d   1       9.755  38.168  46.067  0.00  0.00     0.081 H 
ATOM     12  H7  ET5 d   1       7.460  38.802  46.931  0.00  0.00     0.081 H 
ATOM     13  H8  ET5 d   1       5.980  38.037  43.039  0.00  0.00     0.099 H 
ATOM     14  H10 ET5 d   1      10.318  37.539  42.520  0.00  0.00     0.180 H 
ENDROOT
BRANCH   6  15
ATOM     15  N4  ET5 d   1       7.558  39.444  42.887  0.00  0.00     0.066 N 
ATOM     16  H14 ET5 d   1       7.880  39.164  41.974  0.00  0.00     0.317 HD
ATOM     17  H15 ET5 d   1       8.343  39.749  43.441  0.00  0.00     0.317 HD
BRANCH  15  18
ATOM     18  O3  ET5 d   1       6.689  40.479  42.748  0.00  0.00    -0.053 OA
BRANCH  18  19
ATOM     19  S1  ET5 d   1       6.877  41.865  43.422  0.00  0.00     0.279 S 
ATOM     20  O4  ET5 d   1       6.949  41.757  44.900  0.00  0.00    -0.571 OA
ATOM     21  O5  ET5 d   1       8.130  42.479  42.937  0.00  0.00    -0.571 OA
ATOM     22  O6  ET5 d   1       5.733  42.741  43.071  0.00  0.00    -0.571 OA
ENDBRANCH  18  19
ENDBRANCH  15  18
ENDBRANCH   6  15
BRANCH   5  23
ATOM     23  C11 ET5 d   1       5.316  39.075  45.367  0.00  0.00     0.102 A 
ATOM     24  C12 ET5 d   1       4.198  39.386  44.610  0.00  0.00     0.037 A 
ATOM     25  N5  ET5 d   1       3.274  39.814  45.506  0.00  0.00    -0.246 NA
ATOM     26  H9  ET5 d   1       4.085  39.304  43.530  0.00  0.00     0.119 H 
ATOM     27  C3  ET5 d   1       3.801  39.781  46.761  0.00  0.00     0.103 A 
ATOM     28  O7  ET5 d   1       5.100  39.311  46.700  0.00  0.00    -0.302 OA
ATOM     29  H5  ET5 d   1       3.281  40.078  47.670  0.00  0.00     0.155 H 
ENDBRANCH   5  23
BRANCH   3  30
ATOM     30  C2  ET5 d   1       8.771  36.222  46.124  0.00  0.00     0.101 C 
ATOM     31  H3  ET5 d   1       7.913  35.746  45.627  0.00  0.00     0.079 H 
ATOM     32  H4  ET5 d   1       8.594  36.255  47.209  0.00  0.00     0.079 H 
BRANCH  30  33
ATOM     33  N3  ET5 d   1       9.985  35.392  45.869  0.00  0.00    -0.077 N 
ATOM     34  H11 ET5 d   1       9.839  34.463  46.231  0.00  0.00     0.274 HD
ATOM     35  H12 ET5 d   1      10.780  35.810  46.327  0.00  0.00     0.274 HD
ATOM     36  H13 ET5 d   1      10.156  35.343  44.877  0.00  0.00     0.274 HD
ENDBRANCH  30  33
ENDBRANCH   3  30
TORSDOF 6
