REMARK WARNING: 32 MAX_TORS EXCEEDED!!!
REMARK  54 active torsions:
REMARK  status: ('A' for Active; 'I' for Inactive)
REMARK    1  A    between atoms: N_1  and  CA_2 
REMARK    2  A    between atoms: CA_2  and  C_3 
REMARK    3  A    between atoms: CA_2  and  CB_5 
REMARK       I    between atoms: C_3  and  N_9 
REMARK    4  A    between atoms: CB_5  and  CG_6 
REMARK    5  A    between atoms: CG_6  and  SD_7 
REMARK    6  A    between atoms: SD_7  and  CE_8 
REMARK    7  A    between atoms: N_9  and  CA_10 
REMARK    8  A    between atoms: CA_10  and  C_11 
REMARK    9  A    between atoms: CA_10  and  CB_13 
REMARK       I    between atoms: C_11  and  N_20 
REMARK   10  A    between atoms: CB_13  and  CG_14 
REMARK   11  A    between atoms: N_20  and  CA_21 
REMARK   12  A    between atoms: CA_21  and  C_22 
REMARK   13  A    between atoms: CA_21  and  CB_24 
REMARK       I    between atoms: C_22  and  N_31 
REMARK   14  A    between atoms: CB_24  and  CG_25 
REMARK   15  A    between atoms: CG_25  and  CD_26 
REMARK   16  A    between atoms: CD_26  and  NE_27 
REMARK       I    between atoms: NE_27  and  CZ_28 
REMARK       I    between atoms: CZ_28  and  NH1_29 
REMARK   17  A    between atoms: N_31  and  CA_32 
REMARK   18  A    between atoms: CA_32  and  C_33 
REMARK   19  A    between atoms: CA_32  and  CB_35 
REMARK       I    between atoms: C_33  and  N_39 
REMARK   20  A    between atoms: CB_35  and  CG_36 
REMARK   21  A    between atoms: N_39  and  CA_40 
REMARK   22  A    between atoms: CA_40  and  C_41 
REMARK   23  A    between atoms: CA_40  and  CB_43 
REMARK       I    between atoms: C_41  and  N_50 
REMARK   24  A    between atoms: CB_43  and  CG_44 
REMARK   25  A    between atoms: N_50  and  CA_51 
REMARK   26  A    between atoms: CA_51  and  C_52 
REMARK   27  A    between atoms: CA_51  and  CB_54 
REMARK       I    between atoms: C_52  and  N_58 
REMARK   28  A    between atoms: CB_54  and  CG_55 
REMARK   29  A    between atoms: N_58  and  CA_59 
REMARK   30  A    between atoms: CA_59  and  C_60 
REMARK   31  A    between atoms: CA_59  and  CB_62 
REMARK       I    between atoms: C_60  and  N_70 
REMARK   32  A    between atoms: CB_62  and  CG_63 
REMARK   33  A    between atoms: CZ_68  and  OH_69 
REMARK   34  A    between atoms: N_70  and  CA_71 
REMARK   35  A    between atoms: CA_71  and  C_72 
REMARK   36  A    between atoms: CA_71  and  CB_74 
REMARK       I    between atoms: C_72  and  N_78 
REMARK   37  A    between atoms: CB_74  and  CG1_75 
REMARK   38  A    between atoms: CB_74  and  CG2_76 
REMARK   39  A    between atoms: CG1_75  and  CD1_77 
REMARK   40  A    between atoms: N_78  and  CA_79 
REMARK   41  A    between atoms: CA_79  and  C_80 
REMARK   42  A    between atoms: CA_79  and  CB_82 
REMARK       I    between atoms: C_80  and  N_83 
REMARK   43  A    between atoms: N_83  and  CA_84 
REMARK   44  A    between atoms: CA_84  and  C_85 
REMARK   45  A    between atoms: CA_84  and  CB_87 
REMARK       I    between atoms: C_85  and  N_91 
REMARK   46  A    between atoms: CB_87  and  CG_88 
REMARK   47  A    between atoms: N_91  and  CA_92 
REMARK   48  A    between atoms: CA_92  and  C_93 
REMARK   49  A    between atoms: CA_92  and  CB_95 
REMARK       I    between atoms: C_93  and  N_105 
REMARK   50  A    between atoms: CB_95  and  CG_96 
REMARK   51  A    between atoms: N_105  and  CA_106 
REMARK   52  A    between atoms: CA_106  and  C_107 
REMARK   53  A    between atoms: CA_106  and  CB_109 
REMARK   54  A    between atoms: CB_109  and  SG_110 
ROOT
ATOM      1  CA  ASP d   1      18.200 -23.639  13.527  0.00  0.00     0.098 C 
ATOM      2  H48 ASP d   1      18.802 -23.618  14.447  0.00  0.00     0.088 H 
ENDROOT
BRANCH   1   3
ATOM      3  N   ASP d   1      16.982 -24.401  13.779  0.00  0.00    -0.345 N 
ATOM      4  C   PHE d   1      16.845 -25.134  14.878  0.00  0.00     0.241 C 
ATOM      5  O   PHE d   1      17.721 -25.220  15.739  0.00  0.00    -0.271 OA
ATOM      6  H47 ASP d   1      16.237 -24.371  13.113  0.00  0.00     0.163 HD
BRANCH   4   7
ATOM      7  CA  PHE d   1      15.526 -25.884  15.028  0.00  0.00     0.093 C 
ATOM      8  H39 PHE d   1      15.494 -26.355  16.022  0.00  0.00     0.088 H 
BRANCH   7   9
ATOM      9  N   PHE d   1      14.399 -24.966  14.905  0.00  0.00    -0.346 N 
ATOM     10  C   ASP d   1      13.380 -25.010  15.757  0.00  0.00     0.241 C 
ATOM     11  O   ASP d   1      13.319 -25.814  16.688  0.00  0.00    -0.271 OA
ATOM     12  H38 PHE d   1      14.393 -24.292  14.167  0.00  0.00     0.163 HD
BRANCH  10  13
ATOM     13  CA  ASP d   1      12.264 -23.999  15.522  0.00  0.00     0.098 C 
ATOM     14  H35 ASP d   1      11.579 -24.396  14.759  0.00  0.00     0.088 H 
BRANCH  13  15
ATOM     15  N   ASP d   1      11.515 -23.767  16.752  0.00  0.00    -0.346 N 
ATOM     16  C   ARG d   1      10.244 -23.381  16.719  0.00  0.00     0.241 C 
ATOM     17  O   ARG d   1       9.625 -23.197  15.670  0.00  0.00    -0.271 OA
ATOM     18  H34 ASP d   1      11.966 -23.901  17.635  0.00  0.00     0.163 HD
BRANCH  16  19
ATOM     19  CA  ARG d   1       9.568 -23.171  18.070  0.00  0.00     0.089 C 
ATOM     20  H22 ARG d   1      10.193 -22.503  18.681  0.00  0.00     0.087 H 
BRANCH  19  21
ATOM     21  N   ARG d   1       8.256 -22.559  17.896  0.00  0.00    -0.346 N 
ATOM     22  C   PHE d   1       7.666 -21.903  18.890  0.00  0.00     0.241 C 
ATOM     23  O   PHE d   1       8.177 -21.771  20.003  0.00  0.00    -0.271 OA
ATOM     24  H21 ARG d   1       7.792 -22.634  17.013  0.00  0.00     0.163 HD
BRANCH  22  25
ATOM     25  CA  PHE d   1       6.296 -21.309  18.585  0.00  0.00     0.093 C 
ATOM     26  H13 PHE d   1       6.432 -20.326  18.111  0.00  0.00     0.088 H 
BRANCH  25  27
ATOM     27  N   PHE d   1       5.556 -22.173  17.672  0.00  0.00    -0.346 N 
ATOM     28  C   MET d   1       5.505 -23.488  17.862  0.00  0.00     0.249 C 
ATOM     29  O   MET d   1       6.066 -24.051  18.801  0.00  0.00    -0.271 OA
ATOM     30  H12 PHE d   1       5.079 -21.770  16.891  0.00  0.00     0.163 HD
BRANCH  28  31
ATOM     31  CA  MET d   1       4.700 -24.285  16.841  0.00  0.00     0.176 C 
ATOM     32  H4  MET d   1       4.139 -23.591  16.198  0.00  0.00     0.099 H 
BRANCH  31  33
ATOM     33  N   MET d   1       5.629 -25.096  16.005  0.00  0.00    -0.066 N 
ATOM     34  H1  MET d   1       5.099 -25.624  15.329  0.00  0.00     0.275 HD
ATOM     35  H2  MET d   1       6.146 -25.729  16.595  0.00  0.00     0.275 HD
ATOM     36  H3  MET d   1       6.270 -24.484  15.525  0.00  0.00     0.275 HD
ENDBRANCH  31  33
BRANCH  31  37
ATOM     37  CB  MET d   1       3.720 -25.215  17.559  0.00  0.00    -0.022 C 
ATOM     38  H5  MET d   1       3.110 -24.631  18.264  0.00  0.00     0.037 H 
ATOM     39  H6  MET d   1       4.281 -25.985  18.109  0.00  0.00     0.037 H 
BRANCH  37  40
ATOM     40  CG  MET d   1       2.807 -25.887  16.531  0.00  0.00    -0.021 C 
ATOM     41  H7  MET d   1       3.419 -26.341  15.738  0.00  0.00     0.049 H 
ATOM     42  H8  MET d   1       2.135 -25.136  16.091  0.00  0.00     0.049 H 
BRANCH  40  43
ATOM     43  SD  MET d   1       1.826 -27.172  17.346  0.00  0.00    -0.173 SA
BRANCH  43  44
ATOM     44  CE  MET d   1       1.102 -27.886  15.849  0.00  0.00    -0.035 C 
ATOM     45  H9  MET d   1       0.441 -28.721  16.124  0.00  0.00     0.041 H 
ATOM     46  H10 MET d   1       1.905 -28.254  15.193  0.00  0.00     0.041 H 
ATOM     47  H11 MET d   1       0.520 -27.117  15.320  0.00  0.00     0.041 H 
ENDBRANCH  43  44
ENDBRANCH  40  43
ENDBRANCH  37  40
ENDBRANCH  31  37
ENDBRANCH  28  31
ENDBRANCH  25  27
BRANCH  25  48
ATOM     48  CB  PHE d   1       5.513 -21.130  19.886  0.00  0.00    -0.014 C 
ATOM     49  H14 PHE d   1       5.466 -22.090  20.421  0.00  0.00     0.043 H 
ATOM     50  H15 PHE d   1       4.493 -20.788  19.656  0.00  0.00     0.043 H 
BRANCH  48  51
ATOM     51  CG  PHE d   1       6.204 -20.105  20.753  0.00  0.00    -0.056 A 
ATOM     52  CD1 PHE d   1       6.855 -20.505  21.927  0.00  0.00    -0.077 A 
ATOM     53  CE1 PHE d   1       7.496 -19.555  22.730  0.00  0.00    -0.082 A 
ATOM     54  H16 PHE d   1       6.862 -21.550  22.213  0.00  0.00     0.084 H 
ATOM     55  CZ  PHE d   1       7.488 -18.205  22.359  0.00  0.00    -0.083 A 
ATOM     56  H18 PHE d   1       7.999 -19.864  23.639  0.00  0.00     0.083 H 
ATOM     57  CE2 PHE d   1       6.838 -17.805  21.186  0.00  0.00    -0.082 A 
ATOM     58  H20 PHE d   1       7.986 -17.469  22.981  0.00  0.00     0.083 H 
ATOM     59  CD2 PHE d   1       6.196 -18.755  20.382  0.00  0.00    -0.077 A 
ATOM     60  H19 PHE d   1       6.832 -16.759  20.900  0.00  0.00     0.083 H 
ATOM     61  H17 PHE d   1       5.693 -18.445  19.473  0.00  0.00     0.084 H 
ENDBRANCH  48  51
ENDBRANCH  25  48
ENDBRANCH  22  25
ENDBRANCH  19  21
BRANCH  19  62
ATOM     62  CB  ARG d   1       9.426 -24.515  18.787  0.00  0.00    -0.036 C 
ATOM     63  H23 ARG d   1       9.576 -25.332  18.066  0.00  0.00     0.036 H 
ATOM     64  H24 ARG d   1       8.420 -24.592  19.225  0.00  0.00     0.036 H 
BRANCH  62  65
ATOM     65  CG  ARG d   1      10.474 -24.616  19.897  0.00  0.00    -0.048 C 
ATOM     66  H25 ARG d   1      10.367 -23.762  20.581  0.00  0.00     0.035 H 
ATOM     67  H26 ARG d   1      11.480 -24.606  19.453  0.00  0.00     0.035 H 
BRANCH  65  68
ATOM     68  CD  ARG d   1      10.272 -25.919  20.673  0.00  0.00     0.009 C 
ATOM     69  H27 ARG d   1       9.741 -26.642  20.036  0.00  0.00     0.064 H 
ATOM     70  H28 ARG d   1       9.675 -25.716  21.574  0.00  0.00     0.064 H 
BRANCH  68  71
ATOM     71  NE  ARG d   1      11.560 -26.479  21.066  0.00  0.00    -0.227 N 
ATOM     72  CZ  ARG d   1      12.381 -27.011  20.166  0.00  0.00     0.665 C 
ATOM     73  NH1 ARG d   1      12.040 -27.037  18.906  0.00  0.00    -0.235 N 
ATOM     74  NH2 ARG d   1      13.527 -27.509  20.542  0.00  0.00    -0.235 N 
ATOM     75  H30 ARG d   1      12.676 -27.449  18.209  0.00  0.00     0.174 HD
ATOM     76  H31 ARG d   1      11.135 -26.645  18.609  0.00  0.00     0.174 HD
ATOM     77  H32 ARG d   1      13.796 -27.489  21.536  0.00  0.00     0.174 HD
ATOM     78  H33 ARG d   1      14.162 -27.922  19.845  0.00  0.00     0.174 HD
ATOM     79  H29 ARG d   1      11.838 -26.462  22.058  0.00  0.00     0.177 HD
ENDBRANCH  68  71
ENDBRANCH  65  68
ENDBRANCH  62  65
ENDBRANCH  19  62
ENDBRANCH  16  19
ENDBRANCH  13  15
BRANCH  13  80
ATOM     80  CB  ASP d   1      12.863 -22.684  15.019  0.00  0.00     0.043 C 
ATOM     81  H36 ASP d   1      13.910 -22.611  15.348  0.00  0.00     0.052 H 
ATOM     82  H37 ASP d   1      12.289 -21.841  15.431  0.00  0.00     0.052 H 
BRANCH  80  83
ATOM     83  CG  ASP d   1      12.808 -22.635  13.496  0.00  0.00     0.175 C 
ATOM     84  OD1 ASP d   1      13.790 -23.006  12.875  0.00  0.00    -0.648 OA
ATOM     85  OD2 ASP d   1      11.784 -22.228  12.972  0.00  0.00    -0.648 OA
ENDBRANCH  80  83
ENDBRANCH  13  80
ENDBRANCH  10  13
ENDBRANCH   7   9
BRANCH   7  86
ATOM     86  CB  PHE d   1      15.430 -26.973  13.957  0.00  0.00    -0.014 C 
ATOM     87  H40 PHE d   1      16.076 -26.709  13.107  0.00  0.00     0.043 H 
ATOM     88  H41 PHE d   1      14.389 -27.058  13.613  0.00  0.00     0.043 H 
BRANCH  86  89
ATOM     89  CG  PHE d   1      15.878 -28.293  14.539  0.00  0.00    -0.056 A 
ATOM     90  CD1 PHE d   1      14.954 -29.120  15.188  0.00  0.00    -0.077 A 
ATOM     91  CE1 PHE d   1      15.369 -30.345  15.727  0.00  0.00    -0.082 A 
ATOM     92  H42 PHE d   1      13.918 -28.813  15.274  0.00  0.00     0.084 H 
ATOM     93  CZ  PHE d   1      16.708 -30.740  15.617  0.00  0.00    -0.083 A 
ATOM     94  H44 PHE d   1      14.654 -30.987  16.229  0.00  0.00     0.083 H 
ATOM     95  CE2 PHE d   1      17.631 -29.912  14.968  0.00  0.00    -0.082 A 
ATOM     96  H46 PHE d   1      17.030 -31.687  16.035  0.00  0.00     0.083 H 
ATOM     97  CD2 PHE d   1      17.216 -28.688  14.429  0.00  0.00    -0.077 A 
ATOM     98  H45 PHE d   1      18.667 -30.218  14.883  0.00  0.00     0.083 H 
ATOM     99  H43 PHE d   1      17.931 -28.047  13.927  0.00  0.00     0.084 H 
ENDBRANCH  86  89
ENDBRANCH   7  86
ENDBRANCH   4   7
ENDBRANCH   1   3
BRANCH   1 100
ATOM    100  C   ASP d   1      17.863 -22.206  13.125  0.00  0.00     0.241 C 
ATOM    101  O   ASP d   1      16.769 -21.931  12.634  0.00  0.00    -0.271 OA
ATOM    102  N   TYR d   1      18.811 -21.299  13.337  0.00  0.00    -0.346 N 
ATOM    103  H51 TYR d   1      19.682 -21.583  13.739  0.00  0.00     0.163 HD
BRANCH 102 104
ATOM    104  CA  TYR d   1      18.603 -19.897  12.994  0.00  0.00     0.093 C 
ATOM    105  H52 TYR d   1      17.705 -19.816  12.364  0.00  0.00     0.088 H 
BRANCH 104 106
ATOM    106  C   TYR d   1      19.800 -19.351  12.221  0.00  0.00     0.241 C 
ATOM    107  O   TYR d   1      20.801 -20.043  12.039  0.00  0.00    -0.271 OA
ATOM    108  N   ILE d   1      19.688 -18.105  11.770  0.00  0.00    -0.346 N 
ATOM    109  H60 ILE d   1      18.850 -17.590  11.950  0.00  0.00     0.163 HD
BRANCH 108 110
ATOM    110  CA  ILE d   1      20.767 -17.477  11.018  0.00  0.00     0.092 C 
ATOM    111  H61 ILE d   1      21.686 -18.065  11.157  0.00  0.00     0.088 H 
BRANCH 110 112
ATOM    112  C   ILE d   1      21.010 -16.055  11.515  0.00  0.00     0.241 C 
ATOM    113  O   ILE d   1      20.102 -15.406  12.033  0.00  0.00    -0.271 OA
ATOM    114  N   ALA d   1      22.240 -15.578  11.355  0.00  0.00    -0.346 N 
ATOM    115  H71 ALA d   1      22.938 -16.152  10.927  0.00  0.00     0.163 HD
BRANCH 114 116
ATOM    116  CA  ALA d   1      22.588 -14.231  11.794  0.00  0.00     0.086 C 
ATOM    117  H72 ALA d   1      21.842 -13.525  11.400  0.00  0.00     0.086 H 
BRANCH 116 118
ATOM    118  C   ALA d   1      23.966 -13.837  11.271  0.00  0.00     0.240 C 
ATOM    119  O   ALA d   1      24.723 -13.143  11.950  0.00  0.00    -0.271 OA
ATOM    120  N   ASP d   1      24.284 -14.282  10.060  0.00  0.00    -0.346 N 
ATOM    121  H76 ASP d   1      23.628 -14.841   9.554  0.00  0.00     0.163 HD
BRANCH 120 122
ATOM    122  CA  ASP d   1      25.575 -13.968   9.456  0.00  0.00     0.098 C 
ATOM    123  H77 ASP d   1      26.149 -13.339  10.152  0.00  0.00     0.088 H 
BRANCH 122 124
ATOM    124  C   ASP d   1      25.383 -13.208   8.149  0.00  0.00     0.241 C 
ATOM    125  O   ASP d   1      24.505 -13.537   7.351  0.00  0.00    -0.271 OA
ATOM    126  N   TRP d   1      26.211 -12.190   7.936  0.00  0.00    -0.346 N 
ATOM    127  H80 TRP d   1      26.905 -11.970   8.621  0.00  0.00     0.163 HD
BRANCH 126 128
ATOM    128  CA  TRP d   1      26.124 -11.389   6.720  0.00  0.00     0.093 C 
ATOM    129  H81 TRP d   1      25.665 -11.996   5.926  0.00  0.00     0.088 H 
BRANCH 128 130
ATOM    130  C   TRP d   1      27.513 -10.952   6.267  0.00  0.00     0.241 C 
ATOM    131  O   TRP d   1      28.520 -11.334   6.863  0.00  0.00    -0.271 OA
ATOM    132  N   CYS d   1      27.560 -10.150   5.209  0.00  0.00    -0.344 N 
ATOM    133  H90 CYS d   1      26.708  -9.872   4.765  0.00  0.00     0.163 HD
BRANCH 132 134
ATOM    134  CA  CYS d   1      28.834  -9.668   4.684  0.00  0.00     0.104 C 
ATOM    135  H91 CYS d   1      29.610  -9.812   5.450  0.00  0.00     0.090 H 
BRANCH 134 136
ATOM    136  C   CYS d   1      28.746  -8.184   4.343  0.00  0.00     0.197 C 
ATOM    137  O   CYS d   1      27.787  -7.801   3.694  0.00  0.00    -0.646 OA
ATOM    138  OXT CYS d   1      29.638  -7.452   4.737  0.00  0.00    -0.646 OA
ENDBRANCH 134 136
BRANCH 134 139
ATOM    139  CB  CYS d   1      29.216 -10.460   3.432  0.00  0.00     0.003 C 
ATOM    140  H92 CYS d   1      28.731 -10.012   2.552  0.00  0.00     0.052 H 
ATOM    141  H93 CYS d   1      28.884 -11.503   3.542  0.00  0.00     0.052 H 
BRANCH 139 142
ATOM    142  SG  CYS d   1      31.012 -10.418   3.217  0.00  0.00    -0.180 SA
ATOM    143  H94 CYS d   1      31.315  -9.462   3.116  0.00  0.00     0.101 HD
ENDBRANCH 139 142
ENDBRANCH 134 139
ENDBRANCH 132 134
ENDBRANCH 128 130
BRANCH 128 144
ATOM    144  CB  TRP d   1      25.255 -10.155   6.971  0.00  0.00    -0.012 C 
ATOM    145  H82 TRP d   1      24.198 -10.410   6.804  0.00  0.00     0.044 H 
ATOM    146  H83 TRP d   1      25.552  -9.351   6.281  0.00  0.00     0.044 H 
BRANCH 144 147
ATOM    147  CG  TRP d   1      25.439  -9.695   8.381  0.00  0.00    -0.028 A 
ATOM    148  CD1 TRP d   1      26.548  -9.088   8.862  0.00  0.00    -0.015 A 
ATOM    149  NE1 TRP d   1      26.357  -8.809  10.205  0.00  0.00    -0.365 N 
ATOM    150  H84 TRP d   1      27.444  -8.857   8.288  0.00  0.00     0.112 H 
ATOM    151  CE2 TRP d   1      25.116  -9.226  10.643  0.00  0.00     0.042 A 
ATOM    152  H85 TRP d   1      27.056  -8.347  10.804  0.00  0.00     0.165 HD
ATOM    153  CD2 TRP d   1      24.508  -9.796   9.499  0.00  0.00    -0.002 A 
ATOM    154  CZ2 TRP d   1      24.459  -9.178  11.872  0.00  0.00    -0.056 A 
ATOM    155  CE3 TRP d   1      23.210 -10.319   9.630  0.00  0.00    -0.070 A 
ATOM    156  CZ3 TRP d   1      22.546 -10.272  10.867  0.00  0.00    -0.082 A 
ATOM    157  H86 TRP d   1      22.718 -10.761   8.771  0.00  0.00     0.084 H 
ATOM    158  CH2 TRP d   1      23.169  -9.702  11.985  0.00  0.00    -0.081 A 
ATOM    159  H88 TRP d   1      21.546 -10.679  10.957  0.00  0.00     0.083 H 
ATOM    160  H89 TRP d   1      22.651  -9.668  12.936  0.00  0.00     0.083 H 
ATOM    161  H87 TRP d   1      24.946  -8.737  12.734  0.00  0.00     0.086 H 
ENDBRANCH 144 147
ENDBRANCH 128 144
ENDBRANCH 126 128
ENDBRANCH 122 124
BRANCH 122 162
ATOM    162  CB  ASP d   1      26.355 -15.258   9.190  0.00  0.00     0.043 C 
ATOM    163  H78 ASP d   1      27.222 -15.034   8.551  0.00  0.00     0.052 H 
ATOM    164  H79 ASP d   1      25.701 -15.981   8.680  0.00  0.00     0.052 H 
BRANCH 162 165
ATOM    165  CG  ASP d   1      26.838 -15.855  10.507  0.00  0.00     0.175 C 
ATOM    166  OD1 ASP d   1      26.077 -15.833  11.460  0.00  0.00    -0.648 OA
ATOM    167  OD2 ASP d   1      27.963 -16.326  10.544  0.00  0.00    -0.648 OA
ENDBRANCH 162 165
ENDBRANCH 122 162
ENDBRANCH 120 122
ENDBRANCH 116 118
BRANCH 116 168
ATOM    168  CB  ALA d   1      22.581 -14.161  13.321  0.00  0.00    -0.049 C 
ATOM    169  H73 ALA d   1      22.844 -13.143  13.643  0.00  0.00     0.030 H 
ATOM    170  H74 ALA d   1      23.315 -14.874  13.724  0.00  0.00     0.030 H 
ATOM    171  H75 ALA d   1      21.578 -14.416  13.695  0.00  0.00     0.030 H 
ENDBRANCH 116 168
ENDBRANCH 114 116
ENDBRANCH 110 112
BRANCH 110 172
ATOM    172  CB  ILE d   1      20.416 -17.445   9.529  0.00  0.00    -0.030 C 
ATOM    173  H62 ILE d   1      20.584 -18.440   9.091  0.00  0.00     0.043 H 
BRANCH 172 174
ATOM    174  CG1 ILE d   1      21.301 -16.417   8.819  0.00  0.00    -0.063 C 
ATOM    175  H63 ILE d   1      22.336 -16.512   9.180  0.00  0.00     0.033 H 
ATOM    176  H64 ILE d   1      20.930 -15.404   9.033  0.00  0.00     0.033 H 
BRANCH 174 177
ATOM    177  CD1 ILE d   1      21.263 -16.666   7.311  0.00  0.00    -0.076 C 
ATOM    178  H68 ILE d   1      21.899 -15.927   6.801  0.00  0.00     0.027 H 
ATOM    179  H69 ILE d   1      20.229 -16.571   6.950  0.00  0.00     0.027 H 
ATOM    180  H70 ILE d   1      21.634 -17.679   7.097  0.00  0.00     0.027 H 
ENDBRANCH 174 177
ENDBRANCH 172 174
BRANCH 172 181
ATOM    181  CG2 ILE d   1      18.948 -17.053   9.358  0.00  0.00    -0.071 C 
ATOM    182  H65 ILE d   1      18.310 -17.790   9.867  0.00  0.00     0.028 H 
ATOM    183  H66 ILE d   1      18.697 -17.029   8.287  0.00  0.00     0.028 H 
ATOM    184  H67 ILE d   1      18.781 -16.058   9.796  0.00  0.00     0.028 H 
ENDBRANCH 172 181
ENDBRANCH 110 172
ENDBRANCH 108 110
ENDBRANCH 104 106
BRANCH 104 185
ATOM    185  CB  TYR d   1      18.395 -19.073  14.266  0.00  0.00    -0.014 C 
ATOM    186  H53 TYR d   1      17.936 -18.108  14.007  0.00  0.00     0.043 H 
ATOM    187  H54 TYR d   1      19.366 -18.899  14.753  0.00  0.00     0.043 H 
BRANCH 185 188
ATOM    188  CG  TYR d   1      17.486 -19.825  15.210  0.00  0.00    -0.056 A 
ATOM    189  CD1 TYR d   1      17.975 -20.930  15.919  0.00  0.00    -0.074 A 
ATOM    190  CE1 TYR d   1      17.133 -21.626  16.794  0.00  0.00    -0.051 A 
ATOM    191  H55 TYR d   1      19.004 -21.245  15.790  0.00  0.00     0.084 H 
ATOM    192  CZ  TYR d   1      15.803 -21.220  16.959  0.00  0.00     0.065 A 
ATOM    193  H57 TYR d   1      17.511 -22.480  17.344  0.00  0.00     0.087 H 
ATOM    194  CE2 TYR d   1      15.316 -20.115  16.250  0.00  0.00    -0.051 A 
ATOM    195  CD2 TYR d   1      16.157 -19.418  15.375  0.00  0.00    -0.074 A 
ATOM    196  H58 TYR d   1      14.287 -19.799  16.379  0.00  0.00     0.087 H 
ATOM    197  H56 TYR d   1      15.779 -18.563  14.825  0.00  0.00     0.084 H 
BRANCH 192 198
ATOM    198  OH  TYR d   1      14.973 -21.907  17.822  0.00  0.00    -0.361 OA
ATOM    199  H59 TYR d   1      15.454 -22.623  18.220  0.00  0.00     0.217 HD
ENDBRANCH 192 198
ENDBRANCH 185 188
ENDBRANCH 104 185
ENDBRANCH 102 104
ENDBRANCH   1 100
BRANCH   1 200
ATOM    200  CB  ASP d   1      19.012 -24.305  12.415  0.00  0.00     0.043 C 
ATOM    201  H49 ASP d   1      19.558 -23.534  11.851  0.00  0.00     0.052 H 
ATOM    202  H50 ASP d   1      18.331 -24.841  11.738  0.00  0.00     0.052 H 
BRANCH 200 203
ATOM    203  CG  ASP d   1      20.007 -25.291  13.015  0.00  0.00     0.175 C 
ATOM    204  OD1 ASP d   1      19.629 -26.000  13.933  0.00  0.00    -0.648 OA
ATOM    205  OD2 ASP d   1      21.135 -25.323  12.549  0.00  0.00    -0.648 OA
ENDBRANCH 200 203
ENDBRANCH   1 200
TORSDOF 54
