REMARK  14 active torsions:
REMARK  status: ('A' for Active; 'I' for Inactive)
REMARK    1  A    between atoms: C16_4  and  C17_16 
REMARK    2  A    between atoms: C18_14  and  C19_5 
REMARK    3  A    between atoms: C24_11  and  C25_12 
REMARK    4  A    between atoms: C25_12  and  N6_13 
REMARK    5  A    between atoms: N5_15  and  C18_14 
REMARK       I    between atoms: C17_16  and  N5_15 
REMARK       I    between atoms: C12_21  and  N4_20 
REMARK    6  A    between atoms: C4_22  and  C12_21 
REMARK    7  A    between atoms: C4_22  and  C3_23 
REMARK    8  A    between atoms: N3_30  and  C4_22 
REMARK    9  A    between atoms: C3_23  and  C2_24 
REMARK   10  A    between atoms: C2_24  and  C1_25 
REMARK   11  A    between atoms: C1_25  and  N2_26 
REMARK       I    between atoms: N2_26  and  C_27 
REMARK       I    between atoms: C_27  and  N1_28 
REMARK       I    between atoms: C_27  and  N_29 
REMARK   12  A    between atoms: S_31  and  N3_30 
REMARK   13  A    between atoms: C5_34  and  S_31 
REMARK   14  A    between atoms: C5_34  and  C6_35 
ROOT
ATOM      1  C4  EU5 d   1      17.064 -14.952  22.295  0.00  0.00     0.097 C 
ATOM      2  H20 EU5 d   1      18.108 -15.253  22.123  0.00  0.00     0.088 H 
ENDROOT
BRANCH   1   3
ATOM      3  C12 EU5 d   1      16.886 -13.437  22.100  0.00  0.00     0.244 C 
ATOM      4  O2  EU5 d   1      15.983 -12.817  22.649  0.00  0.00    -0.271 OA
ATOM      5  N4  EU5 d   1      17.793 -12.811  21.340  0.00  0.00    -0.337 N 
ATOM      6  C16 EU5 d   1      17.520 -11.469  20.812  0.00  0.00     0.091 C 
ATOM      7  C13 EU5 d   1      19.027 -13.400  20.787  0.00  0.00    -0.001 C 
ATOM      8  C15 EU5 d   1      18.494 -11.361  19.632  0.00  0.00    -0.036 C 
ATOM      9  H2  EU5 d   1      17.729 -10.697  21.567  0.00  0.00     0.087 H 
ATOM     10  C14 EU5 d   1      19.681 -12.234  20.078  0.00  0.00    -0.048 C 
ATOM     11  H14 EU5 d   1      18.808 -10.319  19.473  0.00  0.00     0.036 H 
ATOM     12  H15 EU5 d   1      18.041 -11.752  18.709  0.00  0.00     0.036 H 
ATOM     13  H16 EU5 d   1      20.340 -11.679  20.762  0.00  0.00     0.035 H 
ATOM     14  H17 EU5 d   1      20.261 -12.579  19.210  0.00  0.00     0.035 H 
ATOM     15  H18 EU5 d   1      19.673 -13.786  21.589  0.00  0.00     0.064 H 
ATOM     16  H19 EU5 d   1      18.795 -14.211  20.081  0.00  0.00     0.064 H 
BRANCH   6  17
ATOM     17  C17 EU5 d   1      16.070 -11.349  20.351  0.00  0.00     0.240 C 
ATOM     18  O3  EU5 d   1      15.516 -12.245  19.713  0.00  0.00    -0.271 OA
ATOM     19  N5  EU5 d   1      15.460 -10.213  20.687  0.00  0.00    -0.355 N 
ATOM     20  H13 EU5 d   1      15.979  -9.517  21.183  0.00  0.00     0.162 HD
BRANCH  19  21
ATOM     21  C18 EU5 d   1      14.066  -9.946  20.360  0.00  0.00     0.019 C 
ATOM     22  H11 EU5 d   1      14.000  -8.958  19.881  0.00  0.00     0.071 H 
ATOM     23  H12 EU5 d   1      13.716 -10.717  19.658  0.00  0.00     0.071 H 
BRANCH  21  24
ATOM     24  C19 EU5 d   1      13.169  -9.955  21.575  0.00  0.00    -0.031 A 
ATOM     25  C20 EU5 d   1      13.096  -8.836  22.403  0.00  0.00    -0.054 A 
ATOM     26  C21 EU5 d   1      12.229  -8.823  23.470  0.00  0.00     0.034 A 
ATOM     27  H3  EU5 d   1      13.724  -7.975  22.205  0.00  0.00     0.087 H 
ATOM     28 CL   EU5 d   1      12.182  -7.418  24.503  0.00  0.00    -0.084 Cl
ATOM     29  C22 EU5 d   1      11.412  -9.892  23.744  0.00  0.00    -0.061 A 
ATOM     30  C23 EU5 d   1      11.493 -11.017  22.943  0.00  0.00    -0.073 A 
ATOM     31  H4  EU5 d   1      10.715  -9.855  24.574  0.00  0.00     0.086 H 
ATOM     32  C24 EU5 d   1      12.370 -11.075  21.864  0.00  0.00    -0.025 A 
ATOM     33  H5  EU5 d   1      10.861 -11.870  23.160  0.00  0.00     0.084 H 
BRANCH  32  34
ATOM     34  C25 EU5 d   1      12.461 -12.380  21.045  0.00  0.00     0.104 C 
ATOM     35  H6  EU5 d   1      13.090 -12.203  20.160  0.00  0.00     0.082 H 
ATOM     36  H7  EU5 d   1      11.450 -12.671  20.724  0.00  0.00     0.082 H 
BRANCH  34  37
ATOM     37  N6  EU5 d   1      13.052 -13.489  21.844  0.00  0.00    -0.075 N 
ATOM     38  H8  EU5 d   1      13.096 -14.323  21.280  0.00  0.00     0.274 HD
ATOM     39  H9  EU5 d   1      12.479 -13.662  22.655  0.00  0.00     0.274 HD
ATOM     40  H10 EU5 d   1      13.981 -13.233  22.138  0.00  0.00     0.274 HD
ENDBRANCH  34  37
ENDBRANCH  32  34
ENDBRANCH  21  24
ENDBRANCH  19  21
ENDBRANCH   6  17
ENDBRANCH   1   3
BRANCH   1  41
ATOM     41  C3  EU5 d   1      16.127 -15.704  21.328  0.00  0.00    -0.036 C 
ATOM     42  H21 EU5 d   1      15.877 -15.012  20.510  0.00  0.00     0.036 H 
ATOM     43  H22 EU5 d   1      15.214 -15.957  21.887  0.00  0.00     0.036 H 
BRANCH  41  44
ATOM     44  C2  EU5 d   1      16.642 -16.995  20.690  0.00  0.00    -0.048 C 
ATOM     45  H23 EU5 d   1      16.824 -17.737  21.482  0.00  0.00     0.035 H 
ATOM     46  H24 EU5 d   1      17.584 -16.782  20.164  0.00  0.00     0.035 H 
BRANCH  44  47
ATOM     47  C1  EU5 d   1      15.638 -17.570  19.694  0.00  0.00     0.009 C 
ATOM     48  H25 EU5 d   1      14.661 -17.655  20.192  0.00  0.00     0.064 H 
ATOM     49  H26 EU5 d   1      15.982 -18.569  19.388  0.00  0.00     0.064 H 
BRANCH  47  50
ATOM     50  N2  EU5 d   1      15.480 -16.747  18.499  0.00  0.00    -0.227 N 
ATOM     51  C   EU5 d   1      16.087 -17.238  17.280  0.00  0.00     0.665 C 
ATOM     52  N1  EU5 d   1      16.900 -18.376  17.438  0.00  0.00    -0.235 N 
ATOM     53  N   EU5 d   1      15.857 -16.623  16.147  0.00  0.00    -0.235 N 
ATOM     54  H28 EU5 d   1      17.370 -18.791  16.621  0.00  0.00     0.174 HD
ATOM     55  H29 EU5 d   1      17.025 -18.794  18.371  0.00  0.00     0.174 HD
ATOM     56  H30 EU5 d   1      15.246 -15.794  16.126  0.00  0.00     0.174 HD
ATOM     57  H31 EU5 d   1      16.287 -16.968  15.277  0.00  0.00     0.174 HD
ATOM     58  H27 EU5 d   1      14.961 -15.858  18.522  0.00  0.00     0.177 HD
ENDBRANCH  47  50
ENDBRANCH  44  47
ENDBRANCH  41  44
ENDBRANCH   1  41
BRANCH   1  59
ATOM     59  N3  EU5 d   1      16.666 -15.216  23.668  0.00  0.00    -0.305 N 
ATOM     60  H32 EU5 d   1      15.936 -14.665  24.074  0.00  0.00     0.173 HD
BRANCH  59  61
ATOM     61  S   EU5 d   1      17.364 -16.372  24.564  0.00  0.00     0.231 S 
ATOM     62  O   EU5 d   1      16.317 -17.013  25.304  0.00  0.00    -0.206 OA
ATOM     63  O1  EU5 d   1      18.186 -17.157  23.688  0.00  0.00    -0.206 OA
BRANCH  61  64
ATOM     64  C5  EU5 d   1      18.383 -15.521  25.759  0.00  0.00     0.070 C 
ATOM     65  H33 EU5 d   1      18.833 -16.267  26.430  0.00  0.00     0.066 H 
ATOM     66  H34 EU5 d   1      17.745 -14.840  26.342  0.00  0.00     0.066 H 
BRANCH  64  67
ATOM     67  C6  EU5 d   1      19.485 -14.720  25.127  0.00  0.00    -0.043 A 
ATOM     68  C7  EU5 d   1      19.450 -13.330  25.142  0.00  0.00    -0.076 A 
ATOM     69  C8  EU5 d   1      20.466 -12.590  24.563  0.00  0.00    -0.082 A 
ATOM     70  H1  EU5 d   1      18.617 -12.820  25.613  0.00  0.00     0.084 H 
ATOM     71  C9  EU5 d   1      21.532 -13.227  23.963  0.00  0.00    -0.083 A 
ATOM     72  H38 EU5 d   1      20.424 -11.507  24.581  0.00  0.00     0.083 H 
ATOM     73  C10 EU5 d   1      21.580 -14.605  23.938  0.00  0.00    -0.082 A 
ATOM     74  H37 EU5 d   1      22.329 -12.647  23.513  0.00  0.00     0.083 H 
ATOM     75  C11 EU5 d   1      20.563 -15.348  24.516  0.00  0.00    -0.076 A 
ATOM     76  H36 EU5 d   1      22.416 -15.108  23.465  0.00  0.00     0.083 H 
ATOM     77  H35 EU5 d   1      20.609 -16.431  24.491  0.00  0.00     0.084 H 
ENDBRANCH  64  67
ENDBRANCH  61  64
ENDBRANCH  59  61
ENDBRANCH   1  59
TORSDOF 14
