REMARK  4 active torsions:
REMARK  status: ('A' for Active; 'I' for Inactive)
REMARK    1  A    between atoms: C18_1  and  N2_2 
REMARK    2  A    between atoms: C4_6  and  C3_7 
REMARK    3  A    between atoms: N1_12  and  C1_13 
REMARK    4  A    between atoms: C2_18  and  C5_19 
ROOT
ATOM      1  C3  S77 d   1      22.470   6.794  35.948  0.00  0.00     0.009 C 
ATOM      2  C9  S77 d   1      23.429   6.428  37.057  0.00  0.00    -0.040 C 
ATOM      3  C7  S77 d   1      23.682   7.611  37.982  0.00  0.00    -0.003 C 
ATOM      4  C8  S77 d   1      21.244   7.357  36.541  0.00  0.00    -0.040 C 
ATOM      5  C6  S77 d   1      21.550   8.574  37.372  0.00  0.00    -0.003 C 
ATOM      6  N1  S77 d   1      22.466   8.178  38.472  0.00  0.00    -0.365 N 
ATOM      7  H5  S77 d   1      22.933   7.537  35.282  0.00  0.00     0.052 H 
ATOM      8  H6  S77 d   1      24.384   6.109  36.614  0.00  0.00     0.036 H 
ATOM      9  H7  S77 d   1      23.001   5.601  37.642  0.00  0.00     0.036 H 
ATOM     10  H8  S77 d   1      24.235   8.383  37.428  0.00  0.00     0.064 H 
ATOM     11  H9  S77 d   1      24.285   7.271  38.837  0.00  0.00     0.064 H 
ATOM     12  H10 S77 d   1      20.772   6.596  37.180  0.00  0.00     0.036 H 
ATOM     13  H11 S77 d   1      20.552   7.639  35.734  0.00  0.00     0.036 H 
ATOM     14  H12 S77 d   1      20.618   8.979  37.793  0.00  0.00     0.064 H 
ATOM     15  H13 S77 d   1      22.032   9.339  36.746  0.00  0.00     0.064 H 
ENDROOT
BRANCH   6  16
ATOM     16  C1  S77 d   1      22.384   8.710  39.736  0.00  0.00     0.136 A 
ATOM     17  N3  S77 d   1      23.463   9.347  40.186  0.00  0.00    -0.243 NA
ATOM     18  C14 S77 d   1      23.504   9.939  41.449  0.00  0.00     0.004 A 
ATOM     19  C15 S77 d   1      22.364   9.914  42.264  0.00  0.00    -0.065 A 
ATOM     20  H14 S77 d   1      24.413  10.416  41.798  0.00  0.00     0.114 H 
ATOM     21  C10 S77 d   1      21.195   9.269  41.799  0.00  0.00    -0.067 A 
ATOM     22  H15 S77 d   1      22.378  10.384  43.241  0.00  0.00     0.085 H 
ATOM     23  C2  S77 d   1      21.199   8.660  40.526  0.00  0.00     0.021 A 
ATOM     24  H16 S77 d   1      20.303   9.242  42.415  0.00  0.00     0.085 H 
BRANCH  23  25
ATOM     25  C5  S77 d   1      20.080   7.894  40.160  0.00  0.00    -0.004 A 
ATOM     26  C12 S77 d   1      20.364   6.539  39.828  0.00  0.00    -0.066 A 
ATOM     27  C17 S77 d   1      19.390   5.627  39.511  0.00  0.00    -0.026 A 
ATOM     28  H17 S77 d   1      21.398   6.213  39.826  0.00  0.00     0.085 H 
ATOM     29  C16 S77 d   1      18.104   6.028  39.545  0.00  0.00     0.209 A 
ATOM     30  H18 S77 d   1      19.648   4.610  39.240  0.00  0.00     0.090 H 
ATOM     31  F   S77 d   1      17.182   5.111  39.230  0.00  0.00    -0.184 F 
ATOM     32  N6  S77 d   1      17.754   7.317  39.874  0.00  0.00    -0.232 NA
ATOM     33  C11 S77 d   1      18.748   8.272  40.205  0.00  0.00     0.016 A 
ATOM     34  H19 S77 d   1      18.471   9.281  40.489  0.00  0.00     0.116 H 
ENDBRANCH  23  25
ENDBRANCH   6  16
BRANCH   1  35
ATOM     35  C4  S77 d   1      22.138   5.525  35.156  0.00  0.00     0.133 A 
ATOM     36  N2  S77 d   1      23.026   4.820  34.442  0.00  0.00    -0.331 N 
ATOM     37  C13 S77 d   1      22.365   3.806  33.863  0.00  0.00     0.088 A 
ATOM     38  N5  S77 d   1      21.112   3.879  34.246  0.00  0.00    -0.143 NA
ATOM     39  H4  S77 d   1      22.791   3.058  33.196  0.00  0.00     0.146 H 
ATOM     40  N4  S77 d   1      20.939   4.928  35.070  0.00  0.00    -0.135 NA
BRANCH  36  41
ATOM     41  C18 S77 d   1      24.495   5.165  34.262  0.00  0.00    -0.012 C 
ATOM     42  H1  S77 d   1      24.974   4.406  33.626  0.00  0.00     0.057 H 
ATOM     43  H2  S77 d   1      24.990   5.186  35.244  0.00  0.00     0.057 H 
ATOM     44  H3  S77 d   1      24.584   6.152  33.785  0.00  0.00     0.057 H 
ENDBRANCH  36  41
ENDBRANCH   1  35
TORSDOF 4
