REMARK  7 active torsions:
REMARK  status: ('A' for Active; 'I' for Inactive)
REMARK    1  A    between atoms: CN2_1  and  CN1_2 
REMARK       I    between atoms: CN1_2  and  N3_4 
REMARK    2  A    between atoms: N3_4  and  C3_5 
REMARK    3  A    between atoms: C3_5  and  C2_6 
REMARK    4  A    between atoms: C3_5  and  C4_8 
REMARK    5  A    between atoms: C2_6  and  C1_7 
REMARK    6  A    between atoms: C2_6  and  O2_9 
REMARK    7  A    between atoms: C4_8  and  CP1_13 
ROOT
ATOM      1  C3  APF d   1      36.044  76.695  87.172  0.00  0.00     0.049 C 
ATOM      2  H5  APF d   1      35.053  76.945  87.579  0.00  0.00     0.077 H 
ENDROOT
BRANCH   1   3
ATOM      3  N3  APF d   1      36.224  75.422  87.594  0.00  0.00    -0.354 N 
ATOM      4  CN1 APF d   1      35.701  74.235  88.131  0.00  0.00     0.214 C 
ATOM      5  ON1 APF d   1      34.729  74.204  88.851  0.00  0.00    -0.274 OA
ATOM      6  H4  APF d   1      37.198  75.239  87.458  0.00  0.00     0.162 HD
BRANCH   4   7
ATOM      7  CN2 APF d   1      36.595  73.123  87.886  0.00  0.00    -0.003 C 
ATOM      8  H1  APF d   1      37.389  73.437  87.192  0.00  0.00     0.040 H 
ATOM      9  H2  APF d   1      36.030  72.289  87.444  0.00  0.00     0.040 H 
ATOM     10  H3  APF d   1      37.045  72.798  88.836  0.00  0.00     0.040 H 
ENDBRANCH   4   7
ENDBRANCH   1   3
BRANCH   1  11
ATOM     11  C2  APF d   1      35.926  77.070  85.806  0.00  0.00     0.148 C 
ATOM     12  H6  APF d   1      36.853  76.882  85.244  0.00  0.00     0.100 H 
BRANCH  11  13
ATOM     13  C1  APF d   1      34.768  76.283  85.213  0.00  0.00     0.414 C 
ATOM     14  F11 APF d   1      35.078  75.058  85.117  0.00  0.00    -0.168 F 
ATOM     15  F12 APF d   1      34.375  76.712  84.142  0.00  0.00    -0.168 F 
ATOM     16  F13 APF d   1      33.726  76.541  85.935  0.00  0.00    -0.168 F 
ENDBRANCH  11  13
BRANCH  11  17
ATOM     17  O2  APF d   1      35.607  78.522  85.855  0.00  0.00    -0.384 OA
ATOM     18  H9  APF d   1      36.342  78.994  86.228  0.00  0.00     0.210 HD
ENDBRANCH  11  17
ENDBRANCH   1  11
BRANCH   1  19
ATOM     19  C4  APF d   1      37.053  77.662  87.900  0.00  0.00    -0.019 C 
ATOM     20  H7  APF d   1      36.757  78.687  87.634  0.00  0.00     0.043 H 
ATOM     21  H8  APF d   1      38.050  77.449  87.487  0.00  0.00     0.043 H 
BRANCH  19  22
ATOM     22  CP1 APF d   1      37.191  77.625  89.424  0.00  0.00    -0.056 A 
ATOM     23  CP2 APF d   1      38.323  78.013  90.021  0.00  0.00    -0.077 A 
ATOM     24  CP3 APF d   1      38.455  77.964  91.350  0.00  0.00    -0.082 A 
ATOM     25  H10 APF d   1      39.148  78.373  89.417  0.00  0.00     0.084 H 
ATOM     26  CP4 APF d   1      37.455  77.485  92.111  0.00  0.00    -0.083 A 
ATOM     27  H11 APF d   1      39.370  78.311  91.816  0.00  0.00     0.083 H 
ATOM     28  CP5 APF d   1      36.317  77.084  91.537  0.00  0.00    -0.082 A 
ATOM     29  H12 APF d   1      37.572  77.424  93.187  0.00  0.00     0.083 H 
ATOM     30  CP6 APF d   1      36.207  77.134  90.209  0.00  0.00    -0.077 A 
ATOM     31  H13 APF d   1      35.494  76.723  92.143  0.00  0.00     0.083 H 
ATOM     32  H14 APF d   1      35.298  76.769  89.744  0.00  0.00     0.084 H 
ENDBRANCH  19  22
ENDBRANCH   1  19
TORSDOF 7
