REMARK  15 active torsions:
REMARK  status: ('A' for Active; 'I' for Inactive)
REMARK    1  A    between atoms: NBD_35  and  C4_1 
REMARK    2  A    between atoms: C2_6  and  NAG_31 
REMARK    3  A    between atoms: NAG_31  and  CAH_7 
REMARK    4  A    between atoms: CAK_10  and  CAN_13 
REMARK    5  A    between atoms: CAN_13  and  NAO_32 
REMARK    6  A    between atoms: NAO_32  and  CAP_14 
REMARK    7  A    between atoms: CAQ_15  and  NAV_33 
REMARK    8  A    between atoms: CAW_18  and  CAX_19 
REMARK    9  A    between atoms: NAV_33  and  CAW_18 
REMARK   10  A    between atoms: CAX_19  and  NAY_34 
REMARK   11  A    between atoms: CAZ_20  and  CBA_21 
REMARK       I    between atoms: NAY_34  and  CAZ_20 
REMARK   12  A    between atoms: CBA_21  and  CBB_22 
REMARK   13  A    between atoms: CBE_23  and  NBD_35 
REMARK   14  A    between atoms: CBF_24  and  CBK_29 
REMARK       I    between atoms: CBK_29  and  NBM_36 
REMARK   15  A    between atoms: NBM_36  and  CBN_30 
ROOT
ATOM      1  CAH EUW d   1       6.693   0.226  28.080  0.00  0.00     0.049 A 
ATOM      2  CAI EUW d   1       8.062   0.089  27.818  0.00  0.00    -0.056 A 
ATOM      3  CAJ EUW d   1       8.839  -0.776  28.594  0.00  0.00    -0.073 A 
ATOM      4  CAK EUW d   1       8.280  -1.517  29.638  0.00  0.00    -0.040 A 
ATOM      5  CAL EUW d   1       6.930  -1.375  29.862  0.00  0.00    -0.073 A 
ATOM      6  CAM EUW d   1       6.133  -0.521  29.109  0.00  0.00    -0.056 A 
ATOM      7  H2  EUW d   1       8.519   0.654  27.014  0.00  0.00     0.086 H 
ATOM      8  H3  EUW d   1       9.897  -0.874  28.381  0.00  0.00     0.084 H 
ATOM      9  H4  EUW d   1       6.470  -1.952  30.657  0.00  0.00     0.084 H 
ATOM     10  H5  EUW d   1       5.074  -0.438  29.325  0.00  0.00     0.086 H 
ENDROOT
BRANCH   1  11
ATOM     11  NAG EUW d   1       5.834   1.004  27.399  0.00  0.00    -0.188 N 
ATOM     12  H24 EUW d   1       4.847   0.711  27.375  0.00  0.00     0.184 HD
BRANCH  11  13
ATOM     13  C2  EUW d   1       6.158   2.134  26.746  0.00  0.00     0.728 A 
ATOM     14  N1  EUW d   1       5.137   2.804  26.206  0.00  0.00    -0.073 NA
ATOM     15  C6  EUW d   1       5.368   3.999  25.525  0.00  0.00     0.046 A 
ATOM     16  C5  EUW d   1       6.671   4.468  25.400  0.00  0.00     0.098 A 
ATOM     17  H1  EUW d   1       4.542   4.556  25.098  0.00  0.00     0.118 H 
ATOM     18  C4  EUW d   1       7.707   3.747  25.949  0.00  0.00     0.170 A 
ATOM     19 CL1  EUW d   1       7.025   5.905  24.557  0.00  0.00    -0.079 Cl
ATOM     20  N3  EUW d   1       7.416   2.612  26.616  0.00  0.00    -0.043 NA
BRANCH  18  21
ATOM     21  NBD EUW d   1       8.940   4.267  25.745  0.00  0.00    -0.338 N 
ATOM     22  H28 EUW d   1       9.043   5.196  25.312  0.00  0.00     0.167 HD
BRANCH  21  23
ATOM     23  CBE EUW d   1      10.032   3.569  26.109  0.00  0.00     0.049 A 
ATOM     24  CBF EUW d   1      11.054   3.302  25.169  0.00  0.00     0.058 A 
ATOM     25  CBG EUW d   1      12.186   2.589  25.564  0.00  0.00    -0.066 A 
ATOM     26  CBH EUW d   1      12.319   2.138  26.865  0.00  0.00    -0.082 A 
ATOM     27  H17 EUW d   1      12.970   2.386  24.843  0.00  0.00     0.085 H 
ATOM     28  CBI EUW d   1      11.318   2.404  27.784  0.00  0.00    -0.081 A 
ATOM     29  H18 EUW d   1      13.200   1.581  27.163  0.00  0.00     0.083 H 
ATOM     30  CBJ EUW d   1      10.180   3.126  27.425  0.00  0.00    -0.056 A 
ATOM     31  H19 EUW d   1      11.421   2.044  28.801  0.00  0.00     0.083 H 
ATOM     32  H20 EUW d   1       9.415   3.342  28.163  0.00  0.00     0.086 H 
BRANCH  24  33
ATOM     33  CBK EUW d   1      11.039   3.676  23.825  0.00  0.00     0.253 C 
ATOM     34  NBM EUW d   1      11.804   2.929  23.035  0.00  0.00    -0.361 N 
ATOM     35  H29 EUW d   1      12.332   2.158  23.392  0.00  0.00     0.162 HD
ATOM     36  OBL EUW d   1      10.365   4.602  23.408  0.00  0.00    -0.268 OA
BRANCH  34  37
ATOM     37  CBN EUW d   1      11.835   3.295  21.602  0.00  0.00    -0.018 C 
ATOM     38  H21 EUW d   1      12.500   2.605  21.062  0.00  0.00     0.056 H 
ATOM     39  H22 EUW d   1      12.209   4.324  21.494  0.00  0.00     0.056 H 
ATOM     40  H23 EUW d   1      10.819   3.228  21.184  0.00  0.00     0.056 H 
ENDBRANCH  34  37
ENDBRANCH  24  33
ENDBRANCH  21  23
ENDBRANCH  18  21
ENDBRANCH  11  13
ENDBRANCH   1  11
BRANCH   4  41
ATOM     41  CAN EUW d   1       9.012  -2.444  30.431  0.00  0.00     0.017 C 
ATOM     42  H6  EUW d   1       9.495  -3.146  29.735  0.00  0.00     0.071 H 
ATOM     43  H7  EUW d   1       8.278  -2.985  31.047  0.00  0.00     0.071 H 
BRANCH  41  44
ATOM     44  NAO EUW d   1      10.063  -1.960  31.346  0.00  0.00    -0.380 N 
ATOM     45  H25 EUW d   1      10.940  -1.530  31.018  0.00  0.00     0.160 HD
BRANCH  44  46
ATOM     46  CAP EUW d   1       9.768  -2.133  32.661  0.00  0.00     0.114 A 
ATOM     47  CAQ EUW d   1      10.547  -2.120  33.828  0.00  0.00     0.114 A 
ATOM     48  CAR EUW d   1       9.403  -2.340  34.605  0.00  0.00     0.252 A 
ATOM     49  CAS EUW d   1       8.616  -2.357  33.452  0.00  0.00     0.252 A 
ATOM     50  OAU EUW d   1       9.161  -2.479  35.810  0.00  0.00    -0.281 OA
ATOM     51  OAT EUW d   1       7.401  -2.519  33.271  0.00  0.00    -0.281 OA
BRANCH  47  52
ATOM     52  NAV EUW d   1      11.848  -1.951  34.098  0.00  0.00    -0.383 N 
ATOM     53  H26 EUW d   1      12.203  -1.444  34.922  0.00  0.00     0.159 HD
BRANCH  52  54
ATOM     54  CAW EUW d   1      12.717  -2.576  33.077  0.00  0.00     0.007 C 
ATOM     55  H8  EUW d   1      13.149  -3.501  33.488  0.00  0.00     0.066 H 
ATOM     56  H9  EUW d   1      12.115  -2.816  32.188  0.00  0.00     0.066 H 
BRANCH  54  57
ATOM     57  CAX EUW d   1      13.856  -1.623  32.673  0.00  0.00     0.010 C 
ATOM     58  H10 EUW d   1      13.645  -1.197  31.681  0.00  0.00     0.066 H 
ATOM     59  H11 EUW d   1      14.806  -2.177  32.640  0.00  0.00     0.066 H 
BRANCH  57  60
ATOM     60  NAY EUW d   1      13.953  -0.531  33.672  0.00  0.00    -0.360 N 
ATOM     61  CAZ EUW d   1      14.964  -0.450  34.552  0.00  0.00     0.217 C 
ATOM     62  OBC EUW d   1      15.899  -1.252  34.596  0.00  0.00    -0.274 OA
ATOM     63  H27 EUW d   1      13.240   0.170  33.691  0.00  0.00     0.162 HD
BRANCH  61  64
ATOM     64  CBA EUW d   1      14.910   0.732  35.535  0.00  0.00     0.006 C 
ATOM     65  H12 EUW d   1      15.815   1.338  35.379  0.00  0.00     0.046 H 
ATOM     66  H13 EUW d   1      14.916   0.320  36.555  0.00  0.00     0.046 H 
BRANCH  64  67
ATOM     67  CBB EUW d   1      13.712   1.653  35.417  0.00  0.00    -0.068 C 
ATOM     68  H14 EUW d   1      13.789   2.453  36.169  0.00  0.00     0.028 H 
ATOM     69  H15 EUW d   1      12.790   1.078  35.586  0.00  0.00     0.028 H 
ATOM     70  H16 EUW d   1      13.688   2.097  34.411  0.00  0.00     0.028 H 
ENDBRANCH  64  67
ENDBRANCH  61  64
ENDBRANCH  57  60
ENDBRANCH  54  57
ENDBRANCH  52  54
ENDBRANCH  47  52
ENDBRANCH  44  46
ENDBRANCH  41  44
ENDBRANCH   4  41
TORSDOF 15
