REMARK  15 active torsions:
REMARK  status: ('A' for Active; 'I' for Inactive)
REMARK    1  A    between atoms: NBC_36  and  C4_1 
REMARK    2  A    between atoms: C2_6  and  NBB_35 
REMARK    3  A    between atoms: CAF_9  and  CAA_7 
REMARK    4  A    between atoms: NAY_32  and  CAB_8 
REMARK    5  A    between atoms: CBD_23  and  CAF_9 
REMARK    6  A    between atoms: CAR_20  and  CAQ_19 
REMARK    7  A    between atoms: CAQ_19  and  NBA_34 
REMARK    8  A    between atoms: NBN_37  and  CAR_20 
REMARK    9  A    between atoms: CBG_25  and  CAS_21 
REMARK   10  A    between atoms: CAS_21  and  NAZ_33 
REMARK   11  A    between atoms: CAT_22  and  CBI_27 
REMARK   12  A    between atoms: NAZ_33  and  CAT_22 
REMARK       I    between atoms: NBA_34  and  CBD_23 
REMARK   13  A    between atoms: CBL_29  and  CBE_24 
REMARK       I    between atoms: CBE_24  and  NAY_32 
REMARK   14  A    between atoms: NBB_35  and  CBH_26 
REMARK   15  A    between atoms: CBK_28  and  NBC_36 
ROOT
ATOM      1  CAK EUQ d   1       5.544 -33.420  17.690  0.00  0.00    -0.073 A 
ATOM      2  CAL EUQ d   1       4.850 -32.419  15.617  0.00  0.00    -0.073 A 
ATOM      3  CAM EUQ d   1       4.674 -34.482  17.495  0.00  0.00    -0.056 A 
ATOM      4  CAN EUQ d   1       3.986 -33.489  15.416  0.00  0.00    -0.056 A 
ATOM      5  CBG EUQ d   1       5.644 -32.401  16.762  0.00  0.00    -0.033 A 
ATOM      6  CBH EUQ d   1       3.877 -34.511  16.353  0.00  0.00     0.049 A 
ATOM      7  H14 EUQ d   1       6.155 -33.389  18.585  0.00  0.00     0.084 H 
ATOM      8  H15 EUQ d   1       4.905 -31.612  14.895  0.00  0.00     0.084 H 
ATOM      9  H16 EUQ d   1       4.615 -35.282  18.224  0.00  0.00     0.086 H 
ATOM     10  H17 EUQ d   1       3.387 -33.528  14.514  0.00  0.00     0.086 H 
ENDROOT
BRANCH   5  11
ATOM     11  CAS EUQ d   1       6.529 -31.342  16.998  0.00  0.00     0.105 C 
ATOM     12  H23 EUQ d   1       6.095 -30.409  16.610  0.00  0.00     0.083 H 
ATOM     13  H24 EUQ d   1       7.484 -31.542  16.489  0.00  0.00     0.083 H 
BRANCH  11  14
ATOM     14  NAZ EUQ d   1       6.764 -31.208  18.445  0.00  0.00    -0.066 N 
ATOM     15  H28 EUQ d   1       6.157 -31.840  18.943  0.00  0.00     0.277 HD
ATOM     16  H29 EUQ d   1       6.570 -30.261  18.730  0.00  0.00     0.277 HD
BRANCH  14  17
ATOM     17  CAT EUQ d   1       8.170 -31.535  18.752  0.00  0.00     0.124 C 
ATOM     18  H25 EUQ d   1       8.204 -32.143  19.668  0.00  0.00     0.085 H 
ATOM     19  H26 EUQ d   1       8.594 -32.109  17.915  0.00  0.00     0.085 H 
BRANCH  17  20
ATOM     20  CBI EUQ d   1       9.009 -30.266  18.963  0.00  0.00     0.101 A 
ATOM     21  CAP EUQ d   1      10.314 -30.265  19.181  0.00  0.00     0.027 A 
ATOM     22  NBN EUQ d   1      10.636 -28.979  19.311  0.00  0.00    -0.259 N 
ATOM     23  H18 EUQ d   1      10.978 -31.126  19.241  0.00  0.00     0.117 H 
ATOM     24  NAW EUQ d   1       9.564 -28.253  19.173  0.00  0.00    -0.066 NA
ATOM     25  NAV EUQ d   1       8.564 -29.004  18.963  0.00  0.00    -0.134 NA
BRANCH  22  26
ATOM     26  CAR EUQ d   1      12.018 -28.521  19.569  0.00  0.00     0.033 C 
ATOM     27  H21 EUQ d   1      12.005 -27.453  19.832  0.00  0.00     0.070 H 
ATOM     28  H22 EUQ d   1      12.444 -29.099  20.403  0.00  0.00     0.070 H 
BRANCH  26  29
ATOM     29  CAQ EUQ d   1      12.876 -28.725  18.321  0.00  0.00     0.012 C 
ATOM     30  H19 EUQ d   1      13.412 -27.792  18.092  0.00  0.00     0.066 H 
ATOM     31  H20 EUQ d   1      12.227 -28.992  17.474  0.00  0.00     0.066 H 
BRANCH  29  32
ATOM     32  NBA EUQ d   1      13.849 -29.800  18.543  0.00  0.00    -0.359 N 
ATOM     33  CBD EUQ d   1      15.150 -29.642  18.258  0.00  0.00     0.217 C 
ATOM     34  OAC EUQ d   1      15.646 -28.612  17.792  0.00  0.00    -0.274 OA
ATOM     35  H30 EUQ d   1      13.534 -30.673  18.916  0.00  0.00     0.162 HD
BRANCH  33  36
ATOM     36  CAF EUQ d   1      15.999 -30.875  18.560  0.00  0.00     0.006 C 
ATOM     37  H8  EUQ d   1      16.486 -31.196  17.628  0.00  0.00     0.046 H 
ATOM     38  H9  EUQ d   1      16.766 -30.594  19.297  0.00  0.00     0.046 H 
BRANCH  36  39
ATOM     39  CAA EUQ d   1      15.205 -32.057  19.119  0.00  0.00    -0.068 C 
ATOM     40  H2  EUQ d   1      15.886 -32.900  19.308  0.00  0.00     0.028 H 
ATOM     41  H3  EUQ d   1      14.439 -32.361  18.391  0.00  0.00     0.028 H 
ATOM     42  H4  EUQ d   1      14.719 -31.760  20.060  0.00  0.00     0.028 H 
ENDBRANCH  36  39
ENDBRANCH  33  36
ENDBRANCH  29  32
ENDBRANCH  26  29
ENDBRANCH  22  26
ENDBRANCH  17  20
ENDBRANCH  14  17
ENDBRANCH  11  14
ENDBRANCH   5  11
BRANCH   6  43
ATOM     43  NBB EUQ d   1       3.083 -35.581  16.215  0.00  0.00    -0.188 N 
ATOM     44  H31 EUQ d   1       3.348 -36.437  16.723  0.00  0.00     0.184 HD
BRANCH  43  45
ATOM     45  C2  EUQ d   1       1.977 -35.624  15.472  0.00  0.00     0.728 A 
ATOM     46  N1  EUQ d   1       1.295 -36.771  15.542  0.00  0.00    -0.073 NA
ATOM     47  C6  EUQ d   1       0.128 -36.944  14.816  0.00  0.00     0.046 A 
ATOM     48  C5  EUQ d   1      -0.312 -35.898  14.033  0.00  0.00     0.098 A 
ATOM     49  H1  EUQ d   1      -0.424 -37.876  14.862  0.00  0.00     0.118 H 
ATOM     50  C4  EUQ d   1       0.423 -34.717  13.972  0.00  0.00     0.170 A 
ATOM     51 CL5  EUQ d   1      -1.728 -36.108  13.153  0.00  0.00    -0.079 Cl
ATOM     52  N3  EUQ d   1       1.531 -34.615  14.710  0.00  0.00    -0.043 NA
BRANCH  50  53
ATOM     53  NBC EUQ d   1      -0.058 -33.731  13.183  0.00  0.00    -0.338 N 
ATOM     54  H32 EUQ d   1      -0.997 -33.830  12.771  0.00  0.00     0.167 HD
BRANCH  53  55
ATOM     55  CBK EUQ d   1       0.660 -32.622  12.923  0.00  0.00     0.049 A 
ATOM     56  CAI EUQ d   1       1.232 -31.825  13.907  0.00  0.00    -0.056 A 
ATOM     57  CAG EUQ d   1       1.954 -30.689  13.558  0.00  0.00    -0.081 A 
ATOM     58  H12 EUQ d   1       1.115 -32.090  14.952  0.00  0.00     0.086 H 
ATOM     59  CAH EUQ d   1       2.099 -30.335  12.222  0.00  0.00    -0.082 A 
ATOM     60  H10 EUQ d   1       2.405 -30.077  14.331  0.00  0.00     0.083 H 
ATOM     61  CAJ EUQ d   1       1.529 -31.133  11.238  0.00  0.00    -0.066 A 
ATOM     62  H11 EUQ d   1       2.652 -29.444  11.950  0.00  0.00     0.083 H 
ATOM     63  CBL EUQ d   1       0.800 -32.261  11.584  0.00  0.00     0.058 A 
ATOM     64  H13 EUQ d   1       1.655 -30.872  10.193  0.00  0.00     0.085 H 
BRANCH  63  65
ATOM     65  CBE EUQ d   1       0.248 -33.037  10.561  0.00  0.00     0.253 C 
ATOM     66  NAY EUQ d   1       1.084 -33.241   9.534  0.00  0.00    -0.361 N 
ATOM     67  H27 EUQ d   1       1.998 -32.835   9.533  0.00  0.00     0.162 HD
ATOM     68  OAD EUQ d   1      -0.886 -33.506  10.652  0.00  0.00    -0.268 OA
BRANCH  66  69
ATOM     69  CAB EUQ d   1       0.635 -34.070   8.413  0.00  0.00    -0.018 C 
ATOM     70  H5  EUQ d   1       1.436 -34.135   7.662  0.00  0.00     0.056 H 
ATOM     71  H6  EUQ d   1      -0.259 -33.619   7.958  0.00  0.00     0.056 H 
ATOM     72  H7  EUQ d   1       0.391 -35.079   8.777  0.00  0.00     0.056 H 
ENDBRANCH  66  69
ENDBRANCH  63  65
ENDBRANCH  53  55
ENDBRANCH  50  53
ENDBRANCH  43  45
ENDBRANCH   6  43
TORSDOF 15
