REMARK  15 active torsions:
REMARK  status: ('A' for Active; 'I' for Inactive)
REMARK    1  A    between atoms: NBD_35  and  C4_1 
REMARK    2  A    between atoms: C2_6  and  NAG_31 
REMARK    3  A    between atoms: NAG_31  and  CAH_7 
REMARK    4  A    between atoms: CAK_10  and  CAN_13 
REMARK    5  A    between atoms: CAN_13  and  NAO_32 
REMARK    6  A    between atoms: NAO_32  and  CAP_14 
REMARK    7  A    between atoms: CAQ_15  and  NAV_33 
REMARK    8  A    between atoms: CAW_18  and  CAX_19 
REMARK    9  A    between atoms: NAV_33  and  CAW_18 
REMARK   10  A    between atoms: CAX_19  and  NAY_34 
REMARK   11  A    between atoms: CAZ_20  and  CBA_21 
REMARK       I    between atoms: NAY_34  and  CAZ_20 
REMARK   12  A    between atoms: CBA_21  and  CBB_22 
REMARK   13  A    between atoms: CBE_23  and  NBD_35 
REMARK   14  A    between atoms: CBF_24  and  CBK_29 
REMARK       I    between atoms: CBK_29  and  NBM_36 
REMARK   15  A    between atoms: NBM_36  and  CBN_30 
ROOT
ATOM      1  CAH EUW d   1      -4.398   2.274  89.564  0.00  0.00     0.049 A 
ATOM      2  CAI EUW d   1      -5.132   1.541  90.494  0.00  0.00    -0.056 A 
ATOM      3  CAJ EUW d   1      -4.506   0.697  91.392  0.00  0.00    -0.073 A 
ATOM      4  CAK EUW d   1      -3.124   0.572  91.366  0.00  0.00    -0.040 A 
ATOM      5  CAL EUW d   1      -2.368   1.285  90.434  0.00  0.00    -0.073 A 
ATOM      6  CAM EUW d   1      -3.009   2.136  89.527  0.00  0.00    -0.056 A 
ATOM      7  H2  EUW d   1      -6.212   1.634  90.514  0.00  0.00     0.086 H 
ATOM      8  H3  EUW d   1      -5.091   0.136  92.112  0.00  0.00     0.084 H 
ATOM      9  H4  EUW d   1      -1.289   1.180  90.413  0.00  0.00     0.084 H 
ATOM     10  H5  EUW d   1      -2.428   2.687  88.797  0.00  0.00     0.086 H 
ENDROOT
BRANCH   1  11
ATOM     11  NAG EUW d   1      -5.132   3.039  88.746  0.00  0.00    -0.188 N 
ATOM     12  H24 EUW d   1      -6.115   2.761  88.612  0.00  0.00     0.184 HD
BRANCH  11  13
ATOM     13  C2  EUW d   1      -4.720   4.129  88.083  0.00  0.00     0.728 A 
ATOM     14  N1  EUW d   1      -5.706   4.795  87.465  0.00  0.00    -0.073 NA
ATOM     15  C6  EUW d   1      -5.434   5.951  86.720  0.00  0.00     0.046 A 
ATOM     16  C5  EUW d   1      -4.128   6.397  86.633  0.00  0.00     0.098 A 
ATOM     17  H1  EUW d   1      -6.234   6.486  86.221  0.00  0.00     0.118 H 
ATOM     18  C4  EUW d   1      -3.131   5.678  87.283  0.00  0.00     0.170 A 
ATOM     19 CL1  EUW d   1      -3.749   7.824  85.719  0.00  0.00    -0.079 Cl
ATOM     20  N3  EUW d   1      -3.442   4.563  87.986  0.00  0.00    -0.043 NA
BRANCH  18  21
ATOM     21  NBD EUW d   1      -1.893   6.179  87.129  0.00  0.00    -0.338 N 
ATOM     22  H28 EUW d   1      -1.758   7.050  86.597  0.00  0.00     0.167 HD
BRANCH  21  23
ATOM     23  CBE EUW d   1      -0.833   5.556  87.661  0.00  0.00     0.049 A 
ATOM     24  CBF EUW d   1       0.199   5.172  86.792  0.00  0.00     0.058 A 
ATOM     25  CBG EUW d   1       1.315   4.528  87.328  0.00  0.00    -0.066 A 
ATOM     26  CBH EUW d   1       1.411   4.281  88.695  0.00  0.00    -0.082 A 
ATOM     27  H17 EUW d   1       2.119   4.216  86.671  0.00  0.00     0.085 H 
ATOM     28  CBI EUW d   1       0.386   4.676  89.548  0.00  0.00    -0.081 A 
ATOM     29  H18 EUW d   1       2.285   3.780  89.095  0.00  0.00     0.083 H 
ATOM     30  CBJ EUW d   1      -0.732   5.317  89.031  0.00  0.00    -0.056 A 
ATOM     31  H19 EUW d   1       0.460   4.484  90.612  0.00  0.00     0.083 H 
ATOM     32  H20 EUW d   1      -1.529   5.633  89.695  0.00  0.00     0.086 H 
BRANCH  24  33
ATOM     33  CBK EUW d   1       0.164   5.386  85.404  0.00  0.00     0.253 C 
ATOM     34  NBM EUW d   1       1.073   4.667  84.709  0.00  0.00    -0.361 N 
ATOM     35  H29 EUW d   1       1.706   4.043  85.168  0.00  0.00     0.162 HD
ATOM     36  OBL EUW d   1      -0.632   6.168  84.873  0.00  0.00    -0.268 OA
BRANCH  34  37
ATOM     37  CBN EUW d   1       1.093   4.840  83.250  0.00  0.00    -0.018 C 
ATOM     38  H21 EUW d   1       1.875   4.200  82.816  0.00  0.00     0.056 H 
ATOM     39  H22 EUW d   1       1.304   5.892  83.008  0.00  0.00     0.056 H 
ATOM     40  H23 EUW d   1       0.115   4.557  82.834  0.00  0.00     0.056 H 
ENDBRANCH  34  37
ENDBRANCH  24  33
ENDBRANCH  21  23
ENDBRANCH  18  21
ENDBRANCH  11  13
ENDBRANCH   1  11
BRANCH   4  41
ATOM     41  CAN EUW d   1      -2.554  -0.304  92.275  0.00  0.00     0.017 C 
ATOM     42  H6  EUW d   1      -2.229   0.243  93.172  0.00  0.00     0.071 H 
ATOM     43  H7  EUW d   1      -1.689  -0.809  91.820  0.00  0.00     0.071 H 
BRANCH  41  44
ATOM     44  NAO EUW d   1      -3.592  -1.300  92.635  0.00  0.00    -0.380 N 
ATOM     45  H25 EUW d   1      -4.597  -1.101  92.533  0.00  0.00     0.160 HD
BRANCH  44  46
ATOM     46  CAP EUW d   1      -3.146  -2.473  93.100  0.00  0.00     0.114 A 
ATOM     47  CAQ EUW d   1      -2.717  -2.964  94.337  0.00  0.00     0.114 A 
ATOM     48  CAR EUW d   1      -2.519  -4.220  93.764  0.00  0.00     0.252 A 
ATOM     49  CAS EUW d   1      -2.948  -3.733  92.536  0.00  0.00     0.252 A 
ATOM     50  OAU EUW d   1      -2.124  -5.313  94.171  0.00  0.00    -0.281 OA
ATOM     51  OAT EUW d   1      -3.090  -4.225  91.416  0.00  0.00    -0.281 OA
BRANCH  47  52
ATOM     52  NAV EUW d   1      -2.560  -2.477  95.575  0.00  0.00    -0.383 N 
ATOM     53  H26 EUW d   1      -2.377  -3.064  96.401  0.00  0.00     0.159 HD
BRANCH  52  54
ATOM     54  CAW EUW d   1      -2.678  -1.012  95.624  0.00  0.00     0.007 C 
ATOM     55  H8  EUW d   1      -1.730  -0.569  95.285  0.00  0.00     0.066 H 
ATOM     56  H9  EUW d   1      -3.490  -0.700  94.951  0.00  0.00     0.066 H 
BRANCH  54  57
ATOM     57  CAX EUW d   1      -2.982  -0.504  97.031  0.00  0.00     0.010 C 
ATOM     58  H10 EUW d   1      -2.318   0.340  97.267  0.00  0.00     0.066 H 
ATOM     59  H11 EUW d   1      -2.817  -1.314  97.756  0.00  0.00     0.066 H 
BRANCH  57  60
ATOM     60  NAY EUW d   1      -4.382  -0.060  97.104  0.00  0.00    -0.360 N 
ATOM     61  CAZ EUW d   1      -4.851   0.592  98.175  0.00  0.00     0.217 C 
ATOM     62  OBC EUW d   1      -4.165   0.870  99.158  0.00  0.00    -0.274 OA
ATOM     63  H27 EUW d   1      -4.996  -0.249  96.338  0.00  0.00     0.162 HD
BRANCH  61  64
ATOM     64  CBA EUW d   1      -6.330   0.979  98.105  0.00  0.00     0.006 C 
ATOM     65  H12 EUW d   1      -6.420   2.030  97.794  0.00  0.00     0.046 H 
ATOM     66  H13 EUW d   1      -6.790   0.849  99.096  0.00  0.00     0.046 H 
BRANCH  64  67
ATOM     67  CBB EUW d   1      -7.044   0.084  97.090  0.00  0.00    -0.068 C 
ATOM     68  H14 EUW d   1      -8.107   0.362  97.040  0.00  0.00     0.028 H 
ATOM     69  H15 EUW d   1      -6.955  -0.967  97.401  0.00  0.00     0.028 H 
ATOM     70  H16 EUW d   1      -6.584   0.214  96.099  0.00  0.00     0.028 H 
ENDBRANCH  64  67
ENDBRANCH  61  64
ENDBRANCH  57  60
ENDBRANCH  54  57
ENDBRANCH  52  54
ENDBRANCH  47  52
ENDBRANCH  44  46
ENDBRANCH  41  44
ENDBRANCH   4  41
TORSDOF 15
