REMARK  6 active torsions:
REMARK  status: ('A' for Active; 'I' for Inactive)
REMARK       I    between atoms: C5'_1  and  N5'_3 
REMARK    1  A    between atoms: C5'_1  and  C4'_6 
REMARK    2  A    between atoms: N5'_3  and  C51_4 
REMARK    3  A    between atoms: C51_4  and  C52_5 
REMARK    4  A    between atoms: C3'_8  and  O3'_9 
REMARK    5  A    between atoms: C2'_10  and  O2'_11 
REMARK    6  A    between atoms: C1'_12  and  N9_13 
ROOT
ATOM      1  C4' NEC d   1      83.955  53.551  73.415  0.00  0.00     0.144 C 
ATOM      2  O4' NEC d   1      83.619  52.259  72.902  0.00  0.00    -0.346 OA
ATOM      3  C3' NEC d   1      84.662  53.351  74.754  0.00  0.00     0.098 C 
ATOM      4  C2' NEC d   1      84.598  51.858  75.040  0.00  0.00     0.105 C 
ATOM      5  C1' NEC d   1      84.041  51.206  73.776  0.00  0.00     0.140 C 
ATOM      6  H7  NEC d   1      83.035  54.130  73.584  0.00  0.00     0.102 H 
ATOM      7  H8  NEC d   1      85.713  53.667  74.676  0.00  0.00     0.091 H 
ATOM      8  H10 NEC d   1      85.610  51.478  75.243  0.00  0.00     0.093 H 
ATOM      9  H12 NEC d   1      83.172  50.587  74.044  0.00  0.00     0.123 H 
ENDROOT
BRANCH   5  10
ATOM     10  N9  NEC d   1      85.054  50.334  73.111  0.00  0.00    -0.294 N 
ATOM     11  C8  NEC d   1      85.625  50.532  71.901  0.00  0.00     0.071 A 
ATOM     12  N7  NEC d   1      86.500  49.534  71.609  0.00  0.00    -0.236 NA
ATOM     13  H13 NEC d   1      85.412  51.377  71.249  0.00  0.00     0.144 H 
ATOM     14  C5  NEC d   1      86.499  48.671  72.637  0.00  0.00     0.149 A 
ATOM     15  C6  NEC d   1      87.193  47.400  72.977  0.00  0.00     0.155 A 
ATOM     16  C4  NEC d   1      85.541  49.200  73.625  0.00  0.00     0.167 A 
ATOM     17  N6  NEC d   1      88.088  46.843  72.125  0.00  0.00    -0.382 N 
ATOM     18  N1  NEC d   1      86.899  46.818  74.167  0.00  0.00    -0.222 NA
ATOM     19  H14 NEC d   1      88.559  45.962  72.377  0.00  0.00     0.157 HD
ATOM     20  H15 NEC d   1      88.297  47.300  71.226  0.00  0.00     0.157 HD
ATOM     21  C2  NEC d   1      86.009  47.356  75.032  0.00  0.00     0.091 A 
ATOM     22  N3  NEC d   1      85.347  48.508  74.781  0.00  0.00    -0.222 NA
ATOM     23  H16 NEC d   1      85.818  46.841  75.967  0.00  0.00     0.146 H 
ENDBRANCH   5  10
BRANCH   4  24
ATOM     24  O2' NEC d   1      83.759  51.560  76.164  0.00  0.00    -0.388 OA
ATOM     25  H11 NEC d   1      84.100  51.996  76.936  0.00  0.00     0.210 HD
ENDBRANCH   4  24
BRANCH   1  26
ATOM     26  C5' NEC d   1      84.800  54.281  72.401  0.00  0.00     0.249 C 
ATOM     27  O5' NEC d   1      85.949  53.923  72.179  0.00  0.00    -0.271 OA
ATOM     28  N5' NEC d   1      84.225  55.307  71.766  0.00  0.00    -0.359 N 
ATOM     29  H1  NEC d   1      83.279  55.542  71.989  0.00  0.00     0.162 HD
BRANCH  28  30
ATOM     30  C51 NEC d   1      84.923  56.092  70.764  0.00  0.00    -0.008 C 
ATOM     31  H2  NEC d   1      85.127  55.457  69.889  0.00  0.00     0.063 H 
ATOM     32  H3  NEC d   1      85.873  56.450  71.187  0.00  0.00     0.063 H 
BRANCH  30  33
ATOM     33  C52 NEC d   1      84.097  57.281  70.329  0.00  0.00    -0.061 C 
ATOM     34  H4  NEC d   1      84.651  57.855  69.571  0.00  0.00     0.029 H 
ATOM     35  H5  NEC d   1      83.893  57.923  71.198  0.00  0.00     0.029 H 
ATOM     36  H6  NEC d   1      83.147  56.930  69.901  0.00  0.00     0.029 H 
ENDBRANCH  30  33
ENDBRANCH  28  30
ENDBRANCH   1  26
BRANCH   3  37
ATOM     37  O3' NEC d   1      84.023  54.125  75.776  0.00  0.00    -0.390 OA
ATOM     38  H9  NEC d   1      83.117  53.851  75.860  0.00  0.00     0.210 HD
ENDBRANCH   3  37
TORSDOF 6
