REMARK  10 active torsions:
REMARK  status: ('A' for Active; 'I' for Inactive)
REMARK    1  A    between atoms: O2_20  and  C1_1 
REMARK    2  A    between atoms: C3_2  and  O2_20 
REMARK    3  A    between atoms: C9_22  and  C7_5 
REMARK    4  A    between atoms: C9_22  and  C10_7 
REMARK    5  A    between atoms: C14_9  and  C12_8 
REMARK       I    between atoms: C12_8  and  N11_23 
REMARK    6  A    between atoms: N15_25  and  C14_9 
REMARK    7  A    between atoms: C25_15  and  C20_28 
REMARK    8  A    between atoms: N28_31  and  C27_16 
REMARK    9  A    between atoms: N11_23  and  C9_22 
REMARK   10  A    between atoms: C29_32  and  N28_31 
ROOT
ATOM      1  C16 EVQ d   1       4.288   9.853  46.062  0.00  0.00     0.023 A 
ATOM      2  C19 EVQ d   1       8.037   9.492  45.329  0.00  0.00    -0.070 A 
ATOM      3  C21 EVQ d   1       6.848   7.433  45.004  0.00  0.00    -0.055 A 
ATOM      4  C22 EVQ d   1       5.679   8.065  45.375  0.00  0.00     0.041 A 
ATOM      5  C23 EVQ d   1       4.291   7.562  45.482  0.00  0.00     0.255 A 
ATOM      6  N15 EVQ d   1       3.532   8.618  45.901  0.00  0.00    -0.335 N 
ATOM      7  C17 EVQ d   1       5.680   9.405  45.721  0.00  0.00    -0.025 A 
ATOM      8  C18 EVQ d   1       6.860  10.112  45.694  0.00  0.00    -0.073 A 
ATOM      9  C20 EVQ d   1       8.054   8.151  44.954  0.00  0.00    -0.004 A 
ATOM     10  O24 EVQ d   1       3.861   6.438  45.250  0.00  0.00    -0.267 OA
ATOM     11  H12 EVQ d   1       4.229  10.227  47.095  0.00  0.00     0.071 H 
ATOM     12  H13 EVQ d   1       3.936  10.632  45.369  0.00  0.00     0.071 H 
ATOM     13  H14 EVQ d   1       8.962  10.057  45.334  0.00  0.00     0.084 H 
ATOM     14  H15 EVQ d   1       6.836   6.379  44.750  0.00  0.00     0.086 H 
ATOM     15  H22 EVQ d   1       6.865  11.163  45.961  0.00  0.00     0.084 H 
ENDROOT
BRANCH   6  16
ATOM     16  C14 EVQ d   1       2.096   8.557  46.095  0.00  0.00     0.072 C 
ATOM     17  H10 EVQ d   1       1.659   9.521  45.797  0.00  0.00     0.079 H 
ATOM     18  H11 EVQ d   1       1.688   7.758  45.459  0.00  0.00     0.079 H 
BRANCH  16  19
ATOM     19  C12 EVQ d   1       1.715   8.275  47.533  0.00  0.00     0.236 C 
ATOM     20  N11 EVQ d   1       0.421   8.417  47.810  0.00  0.00    -0.351 N 
ATOM     21  H21 EVQ d   1      -0.166   8.813  47.104  0.00  0.00     0.163 HD
ATOM     22  O13 EVQ d   1       2.555   7.940  48.361  0.00  0.00    -0.272 OA
BRANCH  20  23
ATOM     23  C9  EVQ d   1      -0.199   8.034  49.073  0.00  0.00     0.034 C 
ATOM     24  H20 EVQ d   1       0.602   7.832  49.799  0.00  0.00     0.079 H 
BRANCH  23  25
ATOM     25  C7  EVQ d   1      -1.077   9.137  49.648  0.00  0.00    -0.033 A 
ATOM     26  C6  EVQ d   1      -1.296   9.213  51.019  0.00  0.00    -0.075 A 
ATOM     27  C5  EVQ d   1      -2.096  10.206  51.557  0.00  0.00    -0.080 A 
ATOM     28  H5  EVQ d   1      -0.834   8.485  51.675  0.00  0.00     0.084 H 
ATOM     29  C4  EVQ d   1      -2.717  11.112  50.724  0.00  0.00    -0.051 A 
ATOM     30  H4  EVQ d   1      -2.234  10.271  52.630  0.00  0.00     0.083 H 
ATOM     31  C3  EVQ d   1      -2.522  11.051  49.356  0.00  0.00     0.068 A 
ATOM     32  H19 EVQ d   1      -3.361  11.876  51.143  0.00  0.00     0.087 H 
ATOM     33  C8  EVQ d   1      -1.708  10.063  48.822  0.00  0.00    -0.043 A 
ATOM     34  H6  EVQ d   1      -1.562  10.011  47.749  0.00  0.00     0.088 H 
BRANCH  31  35
ATOM     35  O2  EVQ d   1      -3.170  11.989  48.591  0.00  0.00    -0.356 OA
BRANCH  35  36
ATOM     36  C1  EVQ d   1      -2.908  12.018  47.185  0.00  0.00     0.010 C 
ATOM     37  H1  EVQ d   1      -3.500  12.819  46.718  0.00  0.00     0.066 H 
ATOM     38  H2  EVQ d   1      -3.185  11.051  46.740  0.00  0.00     0.066 H 
ATOM     39  H3  EVQ d   1      -1.838  12.206  47.015  0.00  0.00     0.066 H 
ENDBRANCH  35  36
ENDBRANCH  31  35
ENDBRANCH  23  25
BRANCH  23  40
ATOM     40  C10 EVQ d   1      -0.996   6.749  48.867  0.00  0.00    -0.053 C 
ATOM     41  H7  EVQ d   1      -0.338   5.972  48.452  0.00  0.00     0.030 H 
ATOM     42  H8  EVQ d   1      -1.824   6.939  48.169  0.00  0.00     0.030 H 
ATOM     43  H9  EVQ d   1      -1.400   6.410  49.832  0.00  0.00     0.030 H 
ENDBRANCH  23  40
ENDBRANCH  20  23
ENDBRANCH  16  19
ENDBRANCH   6  16
BRANCH   9  44
ATOM     44  C25 EVQ d   1       9.350   7.503  44.620  0.00  0.00     0.109 A 
ATOM     45  C37 EVQ d   1       9.751   6.264  45.124  0.00  0.00     0.082 A 
ATOM     46  C36 EVQ d   1      11.003   5.778  44.800  0.00  0.00     0.044 A 
ATOM     47 CL1  EVQ d   1       8.706   5.328  46.146  0.00  0.00    -0.080 Cl
ATOM     48  N35 EVQ d   1      11.844   6.472  44.026  0.00  0.00    -0.074 NA
ATOM     49  H18 EVQ d   1      11.311   4.811  45.182  0.00  0.00     0.118 H 
ATOM     50  C27 EVQ d   1      11.408   7.673  43.593  0.00  0.00     0.723 A 
ATOM     51  N26 EVQ d   1      10.200   8.220  43.875  0.00  0.00    -0.061 NA
BRANCH  50  52
ATOM     52  N28 EVQ d   1      12.266   8.368  42.822  0.00  0.00    -0.218 N 
ATOM     53  H23 EVQ d   1      13.195   7.953  42.662  0.00  0.00     0.178 HD
BRANCH  52  54
ATOM     54  C29 EVQ d   1      11.998   9.648  42.197  0.00  0.00     0.030 C 
ATOM     55  C30 EVQ d   1      13.293  10.429  41.982  0.00  0.00    -0.026 C 
ATOM     56  C31 EVQ d   1      13.047  11.682  41.159  0.00  0.00     0.021 C 
ATOM     57  H25 EVQ d   1      13.705  10.717  42.960  0.00  0.00     0.039 H 
ATOM     58  H26 EVQ d   1      14.015   9.789  41.454  0.00  0.00     0.039 H 
ATOM     59  O32 EVQ d   1      12.421  11.373  39.899  0.00  0.00    -0.391 OA
ATOM     60  H16 EVQ d   1      14.010  12.178  40.967  0.00  0.00     0.074 H 
ATOM     61  H17 EVQ d   1      12.392  12.359  41.727  0.00  0.00     0.074 H 
ATOM     62  C33 EVQ d   1      11.132  10.773  40.120  0.00  0.00     0.021 C 
ATOM     63  C34 EVQ d   1      11.269   9.453  40.865  0.00  0.00    -0.026 C 
ATOM     64  H27 EVQ d   1      10.648  10.590  39.149  0.00  0.00     0.074 H 
ATOM     65  H28 EVQ d   1      10.512  11.460  40.715  0.00  0.00     0.074 H 
ATOM     66  H29 EVQ d   1      10.267   9.044  41.060  0.00  0.00     0.039 H 
ATOM     67  H30 EVQ d   1      11.838   8.746  40.243  0.00  0.00     0.039 H 
ATOM     68  H24 EVQ d   1      11.349  10.231  42.867  0.00  0.00     0.073 H 
ENDBRANCH  52  54
ENDBRANCH  50  52
ENDBRANCH   9  44
TORSDOF 10
