REMARK  5 active torsions:
REMARK  status: ('A' for Active; 'I' for Inactive)
REMARK    1  A    between atoms: C2_2  and  C1_1 
REMARK    2  A    between atoms: C2_2  and  C3_3 
REMARK    3  A    between atoms: C4_17  and  C2_2 
REMARK       I    between atoms: N14_21  and  C15_10 
REMARK    4  A    between atoms: C15_10  and  C17_23 
REMARK    5  A    between atoms: C5_18  and  C4_17 
ROOT
ATOM      1  C8  EWN d   1       9.028  14.467  16.077  0.00  0.00     0.098 A 
ATOM      2  C9  EWN d   1      10.139  13.646  16.170  0.00  0.00    -0.011 A 
ATOM      3  C10 EWN d   1      11.270  14.211  16.731  0.00  0.00     0.119 A 
ATOM      4  C11 EWN d   1      11.325  15.512  17.182  0.00  0.00    -0.043 A 
ATOM      5  C12 EWN d   1      10.201  16.310  17.083  0.00  0.00    -0.051 A 
ATOM      6  C13 EWN d   1       9.052  15.770  16.533  0.00  0.00     0.071 A 
ATOM      7  C15 EWN d   1       7.399  17.513  17.295  0.00  0.00     0.259 C 
ATOM      8  C5  EWN d   1       6.978  16.182  15.304  0.00  0.00     0.042 C 
ATOM      9  C6  EWN d   1       6.708  14.708  15.491  0.00  0.00     0.045 C 
ATOM     10  O7  EWN d   1       7.916  13.923  15.465  0.00  0.00    -0.347 OA
ATOM     11  N14 EWN d   1       7.864  16.548  16.406  0.00  0.00    -0.304 N 
ATOM     12  O16 EWN d   1       6.449  18.246  17.000  0.00  0.00    -0.267 OA
ATOM     13  F28 EWN d   1      12.375  13.447  16.852  0.00  0.00    -0.206 F 
ATOM     14  H8  EWN d   1      10.123  12.619  15.823  0.00  0.00     0.092 H 
ATOM     15  H9  EWN d   1      12.240  15.905  17.610  0.00  0.00     0.088 H 
ATOM     16  H10 EWN d   1      10.219  17.337  17.429  0.00  0.00     0.087 H 
ATOM     17  H16 EWN d   1       6.037  16.745  15.394  0.00  0.00     0.076 H 
ATOM     18  H17 EWN d   1       6.045  14.364  14.683  0.00  0.00     0.078 H 
ATOM     19  H18 EWN d   1       6.211  14.560  16.461  0.00  0.00     0.078 H 
ENDROOT
BRANCH   7  20
ATOM     20  C17 EWN d   1       7.960  17.634  18.669  0.00  0.00     0.034 A 
ATOM     21  C22 EWN d   1       8.206  18.912  19.156  0.00  0.00    -0.039 A 
ATOM     22  C21 EWN d   1       8.677  19.040  20.449  0.00  0.00     0.069 A 
ATOM     23  H12 EWN d   1       8.033  19.786  18.538  0.00  0.00     0.088 H 
ATOM     24  C20 EWN d   1       8.913  17.937  21.238  0.00  0.00     0.096 A 
ATOM     25  N23 EWN d   1       8.899  20.343  20.967  0.00  0.00    -0.323 N 
ATOM     26  C19 EWN d   1       8.649  16.659  20.764  0.00  0.00    -0.048 A 
ATOM     27  O27 EWN d   1       9.302  18.114  22.559  0.00  0.00    -0.340 OA
ATOM     28  C18 EWN d   1       8.178  16.515  19.460  0.00  0.00    -0.065 A 
ATOM     29  H11 EWN d   1       8.806  15.791  21.395  0.00  0.00     0.087 H 
ATOM     30  H19 EWN d   1       7.981  15.526  19.063  0.00  0.00     0.085 H 
ATOM     31  C26 EWN d   1      10.072  19.308  22.807  0.00  0.00     0.100 C 
ATOM     32  C24 EWN d   1       9.527  20.545  22.162  0.00  0.00     0.246 C 
ATOM     33  H20 EWN d   1      10.107  19.474  23.894  0.00  0.00     0.089 H 
ATOM     34  H21 EWN d   1      11.091  19.144  22.428  0.00  0.00     0.089 H 
ATOM     35  O25 EWN d   1       9.661  21.649  22.651  0.00  0.00    -0.271 OA
ATOM     36  H13 EWN d   1       8.587  21.135  20.442  0.00  0.00     0.169 HD
ENDBRANCH   7  20
BRANCH   8  37
ATOM     37  C4  EWN d   1       7.565  16.468  13.932  0.00  0.00    -0.041 C 
ATOM     38  H14 EWN d   1       8.633  16.207  13.950  0.00  0.00     0.036 H 
ATOM     39  H15 EWN d   1       7.046  15.839  13.194  0.00  0.00     0.036 H 
BRANCH  37  40
ATOM     40  C2  EWN d   1       7.432  17.927  13.501  0.00  0.00    -0.059 C 
ATOM     41  H4  EWN d   1       6.415  18.284  13.721  0.00  0.00     0.038 H 
BRANCH  40  42
ATOM     42  C1  EWN d   1       8.437  18.841  14.195  0.00  0.00    -0.073 C 
ATOM     43  H1  EWN d   1       8.294  19.875  13.847  0.00  0.00     0.028 H 
ATOM     44  H2  EWN d   1       9.459  18.511  13.956  0.00  0.00     0.028 H 
ATOM     45  H3  EWN d   1       8.283  18.796  15.283  0.00  0.00     0.028 H 
ENDBRANCH  40  42
BRANCH  40  46
ATOM     46  C3  EWN d   1       7.680  17.945  12.009  0.00  0.00    -0.073 C 
ATOM     47  H5  EWN d   1       6.955  17.286  11.509  0.00  0.00     0.028 H 
ATOM     48  H6  EWN d   1       8.701  17.591  11.803  0.00  0.00     0.028 H 
ATOM     49  H7  EWN d   1       7.564  18.971  11.630  0.00  0.00     0.028 H 
ENDBRANCH  40  46
ENDBRANCH  37  40
ENDBRANCH   8  37
TORSDOF 5
