REMARK  10 active torsions:
REMARK  status: ('A' for Active; 'I' for Inactive)
REMARK    1  A    between atoms: OAS_28  and  CAB_2 
REMARK    2  A    between atoms: CAC_3  and  OAR_27 
REMARK    3  A    between atoms: CAJ_9  and  CBC_23 
REMARK    4  A    between atoms: CAL_11  and  CBA_21 
REMARK    5  A    between atoms: OAR_27  and  CAT_16 
REMARK    6  A    between atoms: CAU_17  and  CAV_18 
REMARK    7  A    between atoms: CAU_17  and  OAS_28 
REMARK    8  A    between atoms: CBA_21  and  CBB_22 
REMARK    9  A    between atoms: CBC_23  and  OBE_32 
REMARK   10  A    between atoms: OBE_32  and  CBF_24 
ROOT
ATOM      1  CAA EX5 d   1      17.547  66.600  45.164  0.00  0.00    -0.038 A 
ATOM      2  CAB EX5 d   1      17.494  65.705  46.289  0.00  0.00     0.113 A 
ATOM      3  CAC EX5 d   1      17.071  64.352  46.077  0.00  0.00     0.104 A 
ATOM      4  CAD EX5 d   1      16.705  63.943  44.740  0.00  0.00    -0.020 A 
ATOM      5  CAE EX5 d   1      16.772  64.856  43.689  0.00  0.00     0.067 A 
ATOM      6  CAF EX5 d   1      17.185  66.163  43.895  0.00  0.00    -0.010 A 
ATOM      7  CAH EX5 d   1      16.656  65.806  41.754  0.00  0.00     0.042 A 
ATOM      8  CAI EX5 d   1      17.129  66.769  42.661  0.00  0.00     0.062 A 
ATOM      9  CAJ EX5 d   1      16.181  66.153  40.532  0.00  0.00     0.071 C 
ATOM     10  CAK EX5 d   1      15.734  67.497  40.250  0.00  0.00    -0.037 C 
ATOM     11  CAL EX5 d   1      15.309  68.340  41.623  0.00  0.00     0.019 C 
ATOM     12  CAM EX5 d   1      16.588  68.267  42.414  0.00  0.00     0.130 C 
ATOM     13  CAN EX5 d   1      14.909  69.833  41.451  0.00  0.00     0.075 A 
ATOM     14  CAO EX5 d   1      15.923  70.966  41.623  0.00  0.00     0.088 A 
ATOM     15  CAP EX5 d   1      17.349  70.593  42.114  0.00  0.00     0.110 C 
ATOM     16  CAY EX5 d   1      18.761  68.629  42.836  0.00  0.00     0.086 C 
ATOM     17  CAZ EX5 d   1      18.678  67.066  42.470  0.00  0.00    -0.024 C 
ATOM     18  NAG EX5 d   1      16.501  64.693  42.430  0.00  0.00    -0.255 NA
ATOM     19  NAQ EX5 d   1      17.662  69.149  41.972  0.00  0.00    -0.062 N 
ATOM     20  OAX EX5 d   1      14.888  70.705  42.596  0.00  0.00    -0.373 OA
ATOM     21  H1  EX5 d   1      17.872  67.624  45.307  0.00  0.00     0.088 H 
ATOM     22  H2  EX5 d   1      16.378  62.926  44.555  0.00  0.00     0.091 H 
ATOM     23  H3  EX5 d   1      17.191  66.346  40.142  0.00  0.00     0.065 H 
ATOM     24  H4  EX5 d   1      14.859  67.444  39.586  0.00  0.00     0.036 H 
ATOM     25  H5  EX5 d   1      16.547  68.038  39.743  0.00  0.00     0.036 H 
ATOM     26  H6  EX5 d   1      16.311  68.640  43.411  0.00  0.00     0.088 H 
ATOM     27  H7  EX5 d   1      14.130  69.911  40.678  0.00  0.00     0.088 H 
ATOM     28  H8  EX5 d   1      15.926  71.849  40.967  0.00  0.00     0.089 H 
ATOM     29  H9  EX5 d   1      17.434  70.865  43.176  0.00  0.00     0.080 H 
ATOM     30  H10 EX5 d   1      18.081  71.168  41.528  0.00  0.00     0.080 H 
ATOM     31  H17 EX5 d   1      19.735  69.062  42.564  0.00  0.00     0.076 H 
ATOM     32  H18 EX5 d   1      18.564  68.811  43.903  0.00  0.00     0.076 H 
ATOM     33  H19 EX5 d   1      18.997  66.880  41.434  0.00  0.00     0.037 H 
ATOM     34  H20 EX5 d   1      19.289  66.461  43.156  0.00  0.00     0.037 H 
ATOM     35  H29 EX5 d   1      17.878  68.984  41.001  0.00  0.00     0.280 HD
ENDROOT
BRANCH   9  36
ATOM     36  CBC EX5 d   1      15.916  65.172  39.579  0.00  0.00     0.268 C 
ATOM     37  OBD EX5 d   1      16.105  63.989  39.825  0.00  0.00    -0.264 OA
BRANCH  36  38
ATOM     38  OBE EX5 d   1      15.449  65.593  38.385  0.00  0.00    -0.326 OA
BRANCH  38  39
ATOM     39  CBF EX5 d   1      14.540  64.625  37.879  0.00  0.00     0.013 C 
ATOM     40  H26 EX5 d   1      14.153  64.959  36.905  0.00  0.00     0.067 H 
ATOM     41  H27 EX5 d   1      13.704  64.504  38.583  0.00  0.00     0.067 H 
ATOM     42  H28 EX5 d   1      15.059  63.663  37.757  0.00  0.00     0.067 H 
ENDBRANCH  38  39
ENDBRANCH  36  38
ENDBRANCH   9  36
BRANCH  11  43
ATOM     43  CBA EX5 d   1      14.104  67.697  42.323  0.00  0.00    -0.057 C 
ATOM     44  H21 EX5 d   1      13.660  68.425  43.018  0.00  0.00     0.033 H 
ATOM     45  H22 EX5 d   1      14.442  66.814  42.884  0.00  0.00     0.033 H 
BRANCH  43  46
ATOM     46  CBB EX5 d   1      13.048  67.269  41.303  0.00  0.00    -0.076 C 
ATOM     47  H23 EX5 d   1      12.196  66.812  41.827  0.00  0.00     0.027 H 
ATOM     48  H24 EX5 d   1      13.485  66.538  40.607  0.00  0.00     0.027 H 
ATOM     49  H25 EX5 d   1      12.703  68.149  40.741  0.00  0.00     0.027 H 
ENDBRANCH  43  46
ENDBRANCH  11  43
BRANCH   2  50
ATOM     50  OAS EX5 d   1      17.863  66.128  47.545  0.00  0.00    -0.276 OA
BRANCH  50  51
ATOM     51  CAU EX5 d   1      17.133  66.895  48.384  0.00  0.00     0.260 C 
ATOM     52  OAW EX5 d   1      16.706  68.019  48.140  0.00  0.00    -0.265 OA
BRANCH  51  53
ATOM     53  CAV EX5 d   1      16.883  66.233  49.731  0.00  0.00     0.004 C 
ATOM     54  H14 EX5 d   1      16.286  66.905  50.365  0.00  0.00     0.041 H 
ATOM     55  H15 EX5 d   1      17.845  66.025  50.221  0.00  0.00     0.041 H 
ATOM     56  H16 EX5 d   1      16.337  65.290  49.581  0.00  0.00     0.041 H 
ENDBRANCH  51  53
ENDBRANCH  50  51
ENDBRANCH   2  50
BRANCH   3  57
ATOM     57  OAR EX5 d   1      17.043  63.550  47.155  0.00  0.00    -0.353 OA
BRANCH  57  58
ATOM     58  CAT EX5 d   1      16.633  62.217  46.905  0.00  0.00     0.010 C 
ATOM     59  H11 EX5 d   1      16.644  61.647  47.846  0.00  0.00     0.066 H 
ATOM     60  H12 EX5 d   1      17.322  61.750  46.186  0.00  0.00     0.066 H 
ATOM     61  H13 EX5 d   1      15.614  62.218  46.489  0.00  0.00     0.066 H 
ENDBRANCH  57  58
ENDBRANCH   3  57
TORSDOF 10
