REMARK  15 active torsions:
REMARK  status: ('A' for Active; 'I' for Inactive)
REMARK    1  A    between atoms: O3C_40  and  PD_1 
REMARK    2  A    between atoms: O3B_12  and  PG_5 
REMARK    3  A    between atoms: PB_9  and  O3B_12 
REMARK    4  A    between atoms: O3A_13  and  PB_9 
REMARK    5  A    between atoms: PA_14  and  O3A_13 
REMARK    6  A    between atoms: O5'_17  and  PA_14 
REMARK    7  A    between atoms: C5'_18  and  O5'_17 
REMARK    8  A    between atoms: C4'_19  and  C5'_18 
REMARK    9  A    between atoms: O3'_22  and  C3'_21 
REMARK   10  A    between atoms: PC_37  and  O3'_22 
REMARK   11  A    between atoms: C2'_23  and  O2'_24 
REMARK   12  A    between atoms: C1'_25  and  N9_26 
REMARK   13  A    between atoms: C6_30  and  O6_31 
REMARK   14  A    between atoms: C2_33  and  N2_34 
REMARK   15  A    between atoms: PC_37  and  O3C_40 
ROOT
ATOM      1  C4' MOL d   1       5.402 -23.365 -50.750  0.00  0.00     0.090 C 
ATOM      2  O4' MOL d   1       4.079 -22.987 -50.188  0.00  0.00    -0.353 OA
ATOM      3  C3' MOL d   1       6.432 -22.722 -49.880  0.00  0.00     0.106 C 
ATOM      4  C2' MOL d   1       5.727 -22.414 -48.637  0.00  0.00     0.106 C 
ATOM      5  C1' MOL d   1       4.399 -21.977 -49.149  0.00  0.00     0.139 C 
ATOM      6  H3  MOL d   1       5.497 -22.983 -51.777  0.00  0.00     0.090 H 
ATOM      7  H4  MOL d   1       7.287 -23.392 -49.705  0.00  0.00     0.092 H 
ATOM      8  H5  MOL d   1       5.635 -23.302 -47.995  0.00  0.00     0.093 H 
ATOM      9  H7  MOL d   1       4.505 -20.989 -49.621  0.00  0.00     0.122 H 
ENDROOT
BRANCH   5  10
ATOM     10  N9  MOL d   1       3.382 -21.862 -48.158  0.00  0.00    -0.295 N 
ATOM     11  C8  MOL d   1       2.762 -20.793 -48.112  0.00  0.00     0.070 A 
ATOM     12  N7  MOL d   1       1.838 -20.839 -47.132  0.00  0.00    -0.240 NA
ATOM     13  H8  MOL d   1       2.937 -19.941 -48.767  0.00  0.00     0.144 H 
ATOM     14  C5  MOL d   1       2.084 -22.278 -46.591  0.00  0.00     0.129 A 
ATOM     15  C6  MOL d   1       1.458 -23.035 -45.525  0.00  0.00     0.163 A 
ATOM     16  C4  MOL d   1       3.108 -22.793 -47.365  0.00  0.00     0.155 A 
ATOM     17  N1  MOL d   1       1.921 -24.387 -45.257  0.00  0.00    -0.194 N 
ATOM     18  H9  MOL d   1       2.193 -22.640 -44.809  0.00  0.00     0.129 H 
ATOM     19  C2  MOL d   1       2.903 -24.925 -45.975  0.00  0.00     0.675 A 
ATOM     20  H11 MOL d   1       1.483 -24.935 -44.502  0.00  0.00     0.180 HD
ATOM     21  N3  MOL d   1       3.569 -24.135 -47.100  0.00  0.00    -0.175 N 
ATOM     22  H14 MOL d   1       4.330 -24.550 -47.657  0.00  0.00     0.186 HD
BRANCH  15  23
ATOM     23  O6  MOL d   1       0.425 -22.470 -44.769  0.00  0.00    -0.370 OA
ATOM     24  H10 MOL d   1       0.253 -21.588 -45.078  0.00  0.00     0.212 HD
ENDBRANCH  15  23
BRANCH  19  25
ATOM     25  N2  MOL d   1       3.346 -26.276 -45.688  0.00  0.00    -0.235 N 
ATOM     26  H12 MOL d   1       4.106 -26.697 -46.241  0.00  0.00     0.174 HD
ATOM     27  H13 MOL d   1       2.901 -26.814 -44.931  0.00  0.00     0.174 HD
ENDBRANCH  19  25
ENDBRANCH   5  10
BRANCH   4  28
ATOM     28  O2' MOL d   1       6.395 -21.366 -47.911  0.00  0.00    -0.388 OA
ATOM     29  H6  MOL d   1       6.426 -20.582 -48.446  0.00  0.00     0.210 HD
ENDBRANCH   4  28
BRANCH   1  30
ATOM     30  C5' MOL d   1       5.541 -24.851 -50.772  0.00  0.00     0.058 C 
ATOM     31  H1  MOL d   1       6.571 -25.129 -50.505  0.00  0.00     0.079 H 
ATOM     32  H2  MOL d   1       4.842 -25.297 -50.049  0.00  0.00     0.079 H 
BRANCH  30  33
ATOM     33  O5' MOL d   1       5.248 -25.319 -52.058  0.00  0.00    -0.287 OA
BRANCH  33  34
ATOM     34  PA  MOL d   1       6.493 -25.895 -52.970  0.00  0.00     0.417 P 
ATOM     35  O1A MOL d   1       6.020 -26.406 -54.253  0.00  0.00    -0.624 OA
ATOM     36  O2A MOL d   1       7.367 -24.810 -53.413  0.00  0.00    -0.624 OA
BRANCH  34  37
ATOM     37  O3A MOL d   1       7.331 -27.042 -52.130  0.00  0.00    -0.180 OA
BRANCH  37  38
ATOM     38  PB  MOL d   1       6.839 -28.607 -51.970  0.00  0.00     0.428 P 
ATOM     39  O1B MOL d   1       7.944 -29.540 -52.181  0.00  0.00    -0.624 OA
ATOM     40  O2B MOL d   1       5.928 -28.988 -53.048  0.00  0.00    -0.624 OA
BRANCH  38  41
ATOM     41  O3B MOL d   1       6.139 -28.839 -50.495  0.00  0.00    -0.173 OA
BRANCH  41  42
ATOM     42  PG  MOL d   1       4.819 -29.799 -50.265  0.00  0.00     0.431 P 
ATOM     43  O1G MOL d   1       4.864 -30.596 -49.042  0.00  0.00    -0.616 OA
ATOM     44  O2G MOL d   1       4.606 -30.780 -51.328  0.00  0.00    -0.616 OA
ATOM     45  O3G MOL d   1       3.558 -29.068 -50.193  0.00  0.00    -0.616 OA
ENDBRANCH  41  42
ENDBRANCH  38  41
ENDBRANCH  37  38
ENDBRANCH  34  37
ENDBRANCH  33  34
ENDBRANCH  30  33
ENDBRANCH   1  30
BRANCH   3  46
ATOM     46  O3' MOL d   1       6.869 -21.487 -50.488  0.00  0.00    -0.279 OA
BRANCH  46  47
ATOM     47  PC  MOL d   1       8.421 -21.304 -51.011  0.00  0.00     0.419 P 
ATOM     48  O1C MOL d   1       9.280 -22.401 -50.571  0.00  0.00    -0.624 OA
ATOM     49  O2C MOL d   1       8.489 -21.432 -52.467  0.00  0.00    -0.624 OA
BRANCH  47  50
ATOM     50  O3C MOL d   1       9.017 -19.846 -50.512  0.00  0.00    -0.173 OA
BRANCH  50  51
ATOM     51  PD  MOL d   1       9.432 -19.484 -48.957  0.00  0.00     0.431 P 
ATOM     52  O1D MOL d   1       9.771 -18.080 -48.739  0.00  0.00    -0.616 OA
ATOM     53  O2D MOL d   1      10.588 -20.222 -48.455  0.00  0.00    -0.616 OA
ATOM     54  O3D MOL d   1       8.390 -19.751 -47.970  0.00  0.00    -0.616 OA
ENDBRANCH  50  51
ENDBRANCH  47  50
ENDBRANCH  46  47
ENDBRANCH   3  46
TORSDOF 15
