REMARK WARNING: 32 MAX_TORS EXCEEDED!!!
REMARK  70 active torsions:
REMARK  status: ('A' for Active; 'I' for Inactive)
REMARK    1  A    between atoms: CA_2  and  N_1 
REMARK    2  A    between atoms: C_3  and  CA_2 
REMARK    3  A    between atoms: CA_2  and  CB_5 
REMARK       I    between atoms: N_10  and  C_3 
REMARK    4  A    between atoms: CB_5  and  CG_6 
REMARK    5  A    between atoms: CG_6  and  CD_7 
REMARK    6  A    between atoms: CA_11  and  N_10 
REMARK    7  A    between atoms: C_12  and  CA_11 
REMARK    8  A    between atoms: CA_11  and  CB_14 
REMARK       I    between atoms: N_15  and  C_12 
REMARK    9  A    between atoms: CA_16  and  N_15 
REMARK   10  A    between atoms: C_17  and  CA_16 
REMARK   11  A    between atoms: CA_16  and  CB_19 
REMARK       I    between atoms: N_23  and  C_17 
REMARK   12  A    between atoms: CB_19  and  CG_20 
REMARK   13  A    between atoms: CG_20  and  CD1_21 
REMARK   14  A    between atoms: CG_20  and  CD2_22 
REMARK   15  A    between atoms: CA_24  and  N_23 
REMARK   16  A    between atoms: C_25  and  CA_24 
REMARK   17  A    between atoms: CA_24  and  CB_27 
REMARK       I    between atoms: N_33  and  C_25 
REMARK   18  A    between atoms: CA_30  and  C_29 
REMARK       I    between atoms: C_29  and  N_37 
REMARK   19  A    between atoms: CG_35  and  OD2_36 
REMARK   20  A    between atoms: N_37  and  CA_38 
REMARK   21  A    between atoms: CA_38  and  C_39 
REMARK   22  A    between atoms: CA_38  and  CB_41 
REMARK       I    between atoms: C_39  and  N_49 
REMARK   23  A    between atoms: CB_41  and  CG_42 
REMARK   24  A    between atoms: CZ_47  and  OH_48 
REMARK   25  A    between atoms: N_49  and  CA_50 
REMARK   26  A    between atoms: CA_50  and  C_51 
REMARK   27  A    between atoms: CA_50  and  CB_53 
REMARK       I    between atoms: C_51  and  N_57 
REMARK   28  A    between atoms: CB_53  and  CG1_54 
REMARK   29  A    between atoms: CB_53  and  CG2_55 
REMARK   30  A    between atoms: CG1_54  and  CD1_56 
REMARK   31  A    between atoms: CA_58  and  C_59 
REMARK       I    between atoms: C_59  and  N_64 
REMARK   32  A    between atoms: N_64  and  CA_65 
REMARK   33  A    between atoms: CA_65  and  C_66 
REMARK   34  A    between atoms: CA_65  and  CB_68 
REMARK       I    between atoms: C_66  and  N_72 
REMARK   35  A    between atoms: CB_68  and  CG_69 
REMARK   36  A    between atoms: CG_69  and  SD_70 
REMARK   37  A    between atoms: SD_70  and  CE_71 
REMARK   38  A    between atoms: N_72  and  CA_73 
REMARK   39  A    between atoms: CA_73  and  C_74 
REMARK   40  A    between atoms: CA_73  and  CB_76 
REMARK       I    between atoms: C_74  and  N_80 
REMARK   41  A    between atoms: CB_76  and  CG_77 
REMARK   42  A    between atoms: N_80  and  CA_81 
REMARK   43  A    between atoms: CA_81  and  C_82 
REMARK   44  A    between atoms: CA_81  and  CB_84 
REMARK       I    between atoms: C_82  and  N_88 
REMARK   45  A    between atoms: CB_84  and  CG_85 
REMARK   46  A    between atoms: N_88  and  CA_89 
REMARK   47  A    between atoms: CA_89  and  C_90 
REMARK   48  A    between atoms: CA_89  and  CB_92 
REMARK       I    between atoms: C_90  and  N_96 
REMARK   49  A    between atoms: CB_92  and  CG_93 
REMARK   50  A    between atoms: N_96  and  CA_97 
REMARK   51  A    between atoms: CA_97  and  C_98 
REMARK   52  A    between atoms: CA_97  and  CB_100 
REMARK       I    between atoms: C_98  and  N_107 
REMARK   53  A    between atoms: CB_100  and  CG_101 
REMARK   54  A    between atoms: N_107  and  CA_108 
REMARK   55  A    between atoms: CA_108  and  C_109 
REMARK   56  A    between atoms: CA_108  and  CB_111 
REMARK       I    between atoms: C_109  and  N_116 
REMARK   57  A    between atoms: CB_111  and  CG_112 
REMARK   58  A    between atoms: CG_112  and  CD_113 
REMARK       I    between atoms: CD_113  and  NE2_115 
REMARK   59  A    between atoms: N_116  and  CA_117 
REMARK   60  A    between atoms: CA_117  and  C_118 
REMARK   61  A    between atoms: CA_117  and  CB_120 
REMARK       I    between atoms: C_118  and  N_124 
REMARK   62  A    between atoms: CB_120  and  CG_121 
REMARK   63  A    between atoms: CG_121  and  CD1_122 
REMARK   64  A    between atoms: CG_121  and  CD2_123 
REMARK   65  A    between atoms: N_124  and  CA_125 
REMARK   66  A    between atoms: CA_125  and  C_126 
REMARK   67  A    between atoms: CA_125  and  CB_128 
REMARK   68  A    between atoms: CB_128  and  CG_129 
REMARK   69  A    between atoms: CG_129  and  CD_130 
REMARK   70  A    between atoms: CD_130  and  NE_131 
REMARK       I    between atoms: NE_131  and  CZ_132 
REMARK       I    between atoms: CZ_132  and  NH1_133 
REMARK       I    between atoms: CZ_132  and  NH2_134 
ROOT
ATOM      1  CA  MET d   1      68.799  36.917  48.546  0.00  0.00     0.090 C 
ATOM      2  H64 MET d   1      67.934  36.656  49.173  0.00  0.00     0.087 H 
ENDROOT
BRANCH   1   3
ATOM      3  N   MET d   1      68.319  37.591  47.344  0.00  0.00    -0.346 N 
ATOM      4  C   PRO d   1      67.488  38.628  47.412  0.00  0.00     0.241 C 
ATOM      5  O   PRO d   1      66.972  39.010  48.462  0.00  0.00    -0.271 OA
ATOM      6  H63 MET d   1      68.622  37.266  46.448  0.00  0.00     0.163 HD
BRANCH   4   7
ATOM      7  CA  PRO d   1      67.150  39.338  46.100  0.00  0.00     0.091 C 
ATOM      8  N   PRO d   1      65.799  39.898  46.119  0.00  0.00    -0.337 N 
ATOM      9  C   ILE d   1      64.735  39.069  46.139  0.00  0.00     0.243 C 
ATOM     10  CD  PRO d   1      65.826  41.358  46.350  0.00  0.00    -0.001 C 
ATOM     11  O   ILE d   1      64.842  37.849  46.133  0.00  0.00    -0.271 OA
ATOM     12  CG  PRO d   1      67.274  41.643  46.662  0.00  0.00    -0.048 C 
ATOM     13  H61 PRO d   1      65.181  41.633  47.197  0.00  0.00     0.064 H 
ATOM     14  H62 PRO d   1      65.504  41.904  45.451  0.00  0.00     0.064 H 
ATOM     15  CB  PRO d   1      68.027  40.579  45.930  0.00  0.00    -0.036 C 
ATOM     16  H59 PRO d   1      67.561  42.642  46.301  0.00  0.00     0.035 H 
ATOM     17  H60 PRO d   1      67.460  41.577  47.744  0.00  0.00     0.035 H 
ATOM     18  H57 PRO d   1      68.140  40.838  44.867  0.00  0.00     0.036 H 
ATOM     19  H58 PRO d   1      69.020  40.423  46.377  0.00  0.00     0.036 H 
ATOM     20  H56 PRO d   1      67.276  38.640  45.260  0.00  0.00     0.087 H 
BRANCH   9  21
ATOM     21  CA  ILE d   1      63.355  39.692  46.190  0.00  0.00     0.092 C 
ATOM     22  H46 ILE d   1      63.449  40.788  46.224  0.00  0.00     0.088 H 
BRANCH  21  23
ATOM     23  N   ILE d   1      62.630  39.306  44.990  0.00  0.00    -0.346 N 
ATOM     24  C   TYR d   1      62.282  40.184  44.066  0.00  0.00     0.241 C 
ATOM     25  O   TYR d   1      62.643  41.361  44.077  0.00  0.00    -0.271 OA
ATOM     26  H45 ILE d   1      62.387  38.345  44.860  0.00  0.00     0.163 HD
BRANCH  24  27
ATOM     27  CA  TYR d   1      61.382  39.647  42.973  0.00  0.00     0.093 C 
ATOM     28  H37 TYR d   1      60.600  39.039  43.451  0.00  0.00     0.088 H 
BRANCH  27  29
ATOM     29  N   TYR d   1      60.727  40.736  42.262  0.00  0.00    -0.346 N 
ATOM     30  C   EX8 d   1      59.526  40.567  41.707  0.00  0.00     0.244 C 
ATOM     31  O   EX8 d   1      58.966  39.470  41.645  0.00  0.00    -0.271 OA
ATOM     32  H36 TYR d   1      61.184  41.623  42.189  0.00  0.00     0.163 HD
BRANCH  30  33
ATOM     33  CA  EX8 d   1      58.864  41.809  41.131  0.00  0.00     0.123 C 
ATOM     34  CB  EX8 d   1      57.997  42.470  42.211  0.00  0.00     0.133 C 
ATOM     35  FAG EX8 d   1      58.714  43.348  42.901  0.00  0.00    -0.244 F 
ATOM     36  CG  EX8 d   1      56.923  43.164  41.401  0.00  0.00     0.083 C 
ATOM     37  H31 EX8 d   1      57.564  41.723  42.893  0.00  0.00     0.099 H 
ATOM     38  CD1 EX8 d   1      56.642  42.125  40.321  0.00  0.00     0.025 C 
ATOM     39  H34 EX8 d   1      56.032  43.378  42.009  0.00  0.00     0.090 H 
ATOM     40  N   EX8 d   1      57.975  41.463  40.018  0.00  0.00    -0.332 N 
ATOM     41  H32 EX8 d   1      55.920  41.380  40.686  0.00  0.00     0.068 H 
ATOM     42  H33 EX8 d   1      56.243  42.611  39.418  0.00  0.00     0.068 H 
ATOM     43  C   ALA d   1      58.442  40.857  38.932  0.00  0.00     0.243 C 
ATOM     44  O   ALA d   1      59.638  40.559  38.785  0.00  0.00    -0.271 OA
ATOM     45  H30 EX8 d   1      59.639  42.509  40.786  0.00  0.00     0.092 H 
BRANCH  36  46
ATOM     46  OD2 EX8 d   1      57.406  44.371  40.803  0.00  0.00    -0.391 OA
ATOM     47  H35 EX8 d   1      56.751  44.710  40.204  0.00  0.00     0.210 HD
ENDBRANCH  36  46
BRANCH  43  48
ATOM     48  CA  ALA d   1      57.402  40.487  37.880  0.00  0.00     0.086 C 
ATOM     49  H26 ALA d   1      56.692  41.322  37.785  0.00  0.00     0.086 H 
BRANCH  48  50
ATOM     50  N   ALA d   1      58.037  40.266  36.573  0.00  0.00    -0.346 N 
ATOM     51  C   LEU d   1      58.133  41.239  35.659  0.00  0.00     0.241 C 
ATOM     52  O   LEU d   1      57.752  42.380  35.864  0.00  0.00    -0.271 OA
ATOM     53  H25 ALA d   1      58.408  39.362  36.360  0.00  0.00     0.163 HD
BRANCH  51  54
ATOM     54  CA  LEU d   1      58.771  40.887  34.308  0.00  0.00     0.089 C 
ATOM     55  H15 LEU d   1      59.152  39.856  34.353  0.00  0.00     0.087 H 
BRANCH  54  56
ATOM     56  N   LEU d   1      57.765  40.973  33.259  0.00  0.00    -0.346 N 
ATOM     57  C   ALA d   1      57.403  39.907  32.536  0.00  0.00     0.240 C 
ATOM     58  O   ALA d   1      57.843  38.779  32.745  0.00  0.00    -0.271 OA
ATOM     59  H14 LEU d   1      57.332  41.855  33.073  0.00  0.00     0.163 HD
BRANCH  57  60
ATOM     60  CA  ALA d   1      56.410  40.132  31.403  0.00  0.00     0.086 C 
ATOM     61  H10 ALA d   1      56.229  41.212  31.298  0.00  0.00     0.086 H 
BRANCH  60  62
ATOM     62  N   ALA d   1      56.984  39.623  30.148  0.00  0.00    -0.346 N 
ATOM     63  C   GLU d   1      57.912  40.304  29.473  0.00  0.00     0.248 C 
ATOM     64  O   GLU d   1      58.354  41.377  29.849  0.00  0.00    -0.271 OA
ATOM     65  H9  ALA d   1      56.670  38.743  29.791  0.00  0.00     0.163 HD
BRANCH  63  66
ATOM     66  CA  GLU d   1      58.438  39.685  28.168  0.00  0.00     0.176 C 
ATOM     67  H4  GLU d   1      59.251  40.323  27.792  0.00  0.00     0.099 H 
BRANCH  66  68
ATOM     68  N   GLU d   1      58.997  38.326  28.433  0.00  0.00    -0.066 N 
ATOM     69  H1  GLU d   1      59.339  37.929  27.572  0.00  0.00     0.275 HD
ATOM     70  H2  GLU d   1      58.275  37.734  28.812  0.00  0.00     0.275 HD
ATOM     71  H3  GLU d   1      59.755  38.397  29.094  0.00  0.00     0.275 HD
ENDBRANCH  66  68
BRANCH  66  72
ATOM     72  CB  GLU d   1      57.342  39.627  27.086  0.00  0.00    -0.021 C 
ATOM     73  H5  GLU d   1      56.628  38.843  27.378  0.00  0.00     0.037 H 
ATOM     74  H6  GLU d   1      57.826  39.348  26.138  0.00  0.00     0.037 H 
BRANCH  72  75
ATOM     75  CG  GLU d   1      56.541  40.912  26.836  0.00  0.00     0.018 C 
ATOM     76  H7  GLU d   1      56.265  41.341  27.811  0.00  0.00     0.049 H 
ATOM     77  H8  GLU d   1      55.629  40.647  26.280  0.00  0.00     0.049 H 
BRANCH  75  78
ATOM     78  CD  GLU d   1      57.292  41.975  26.042  0.00  0.00     0.172 C 
ATOM     79  OE1 GLU d   1      58.507  42.168  26.262  0.00  0.00    -0.648 OA
ATOM     80  OE2 GLU d   1      56.649  42.638  25.196  0.00  0.00    -0.648 OA
ENDBRANCH  75  78
ENDBRANCH  72  75
ENDBRANCH  66  72
ENDBRANCH  63  66
ENDBRANCH  60  62
BRANCH  60  81
ATOM     81  CB  ALA d   1      55.087  39.448  31.708  0.00  0.00    -0.049 C 
ATOM     82  H11 ALA d   1      54.678  39.844  32.649  0.00  0.00     0.030 H 
ATOM     83  H12 ALA d   1      55.248  38.364  31.806  0.00  0.00     0.030 H 
ATOM     84  H13 ALA d   1      54.377  39.641  30.890  0.00  0.00     0.030 H 
ENDBRANCH  60  81
ENDBRANCH  57  60
ENDBRANCH  54  56
BRANCH  54  85
ATOM     85  CB  LEU d   1      59.939  41.830  34.002  0.00  0.00    -0.035 C 
ATOM     86  H16 LEU d   1      60.535  41.912  34.923  0.00  0.00     0.037 H 
ATOM     87  H17 LEU d   1      59.505  42.811  33.758  0.00  0.00     0.037 H 
BRANCH  85  88
ATOM     88  CG  LEU d   1      60.916  41.474  32.863  0.00  0.00    -0.059 C 
ATOM     89  H18 LEU d   1      60.373  41.566  31.911  0.00  0.00     0.038 H 
BRANCH  88  90
ATOM     90  CD1 LEU d   1      62.080  42.457  32.853  0.00  0.00    -0.073 C 
ATOM     91  H19 LEU d   1      62.772  42.197  32.039  0.00  0.00     0.028 H 
ATOM     92  H20 LEU d   1      62.611  42.407  33.815  0.00  0.00     0.028 H 
ATOM     93  H21 LEU d   1      61.698  43.477  32.698  0.00  0.00     0.028 H 
ENDBRANCH  88  90
BRANCH  88  94
ATOM     94  CD2 LEU d   1      61.442  40.053  32.965  0.00  0.00    -0.073 C 
ATOM     95  H22 LEU d   1      60.597  39.349  32.972  0.00  0.00     0.028 H 
ATOM     96  H23 LEU d   1      62.020  39.942  33.895  0.00  0.00     0.028 H 
ATOM     97  H24 LEU d   1      62.090  39.839  32.103  0.00  0.00     0.028 H 
ENDBRANCH  88  94
ENDBRANCH  85  88
ENDBRANCH  54  85
ENDBRANCH  51  54
ENDBRANCH  48  50
BRANCH  48  98
ATOM     98  CB  ALA d   1      56.637  39.250  38.311  0.00  0.00    -0.049 C 
ATOM     99  H27 ALA d   1      56.168  39.431  39.289  0.00  0.00     0.030 H 
ATOM    100  H28 ALA d   1      57.330  38.399  38.388  0.00  0.00     0.030 H 
ATOM    101  H29 ALA d   1      55.858  39.023  37.568  0.00  0.00     0.030 H 
ENDBRANCH  48  98
ENDBRANCH  43  48
ENDBRANCH  30  33
ENDBRANCH  27  29
BRANCH  27 102
ATOM    102  CB  TYR d   1      62.154  38.739  42.008  0.00  0.00    -0.014 C 
ATOM    103  H38 TYR d   1      61.456  38.372  41.241  0.00  0.00     0.043 H 
ATOM    104  H39 TYR d   1      62.555  37.887  42.576  0.00  0.00     0.043 H 
BRANCH 102 105
ATOM    105  CG  TYR d   1      63.304  39.438  41.316  0.00  0.00    -0.056 A 
ATOM    106  CD1 TYR d   1      63.083  40.220  40.189  0.00  0.00    -0.074 A 
ATOM    107  CE1 TYR d   1      64.124  40.881  39.566  0.00  0.00    -0.051 A 
ATOM    108  H40 TYR d   1      62.078  40.313  39.792  0.00  0.00     0.084 H 
ATOM    109  CZ  TYR d   1      65.409  40.756  40.068  0.00  0.00     0.065 A 
ATOM    110  H42 TYR d   1      63.937  41.493  38.691  0.00  0.00     0.087 H 
ATOM    111  CE2 TYR d   1      65.659  39.996  41.192  0.00  0.00    -0.051 A 
ATOM    112  CD2 TYR d   1      64.607  39.337  41.811  0.00  0.00    -0.074 A 
ATOM    113  H43 TYR d   1      66.665  39.915  41.587  0.00  0.00     0.087 H 
ATOM    114  H41 TYR d   1      64.798  38.735  42.692  0.00  0.00     0.084 H 
BRANCH 109 115
ATOM    115  OH  TYR d   1      66.429  41.423  39.458  0.00  0.00    -0.361 OA
ATOM    116  H44 TYR d   1      66.092  41.895  38.705  0.00  0.00     0.217 HD
ENDBRANCH 109 115
ENDBRANCH 102 105
ENDBRANCH  27 102
ENDBRANCH  24  27
ENDBRANCH  21  23
BRANCH  21 117
ATOM    117  CB  ILE d   1      62.603  39.210  47.446  0.00  0.00    -0.030 C 
ATOM    118  H47 ILE d   1      62.534  38.113  47.413  0.00  0.00     0.043 H 
BRANCH 117 119
ATOM    119  CG1 ILE d   1      61.173  39.781  47.443  0.00  0.00    -0.063 C 
ATOM    120  H48 ILE d   1      60.722  39.572  46.462  0.00  0.00     0.033 H 
ATOM    121  H49 ILE d   1      61.238  40.869  47.592  0.00  0.00     0.033 H 
BRANCH 119 122
ATOM    122  CD1 ILE d   1      60.264  39.213  48.509  0.00  0.00    -0.076 C 
ATOM    123  H53 ILE d   1      59.270  39.678  48.429  0.00  0.00     0.027 H 
ATOM    124  H54 ILE d   1      60.688  39.423  49.502  0.00  0.00     0.027 H 
ATOM    125  H55 ILE d   1      60.172  38.126  48.371  0.00  0.00     0.027 H 
ENDBRANCH 119 122
ENDBRANCH 117 119
BRANCH 117 126
ATOM    126  CG2 ILE d   1      63.377  39.597  48.701  0.00  0.00    -0.071 C 
ATOM    127  H50 ILE d   1      64.388  39.167  48.655  0.00  0.00     0.028 H 
ATOM    128  H51 ILE d   1      62.854  39.211  49.588  0.00  0.00     0.028 H 
ATOM    129  H52 ILE d   1      63.447  40.693  48.765  0.00  0.00     0.028 H 
ENDBRANCH 117 126
ENDBRANCH  21 117
ENDBRANCH   9  21
ENDBRANCH   4   7
ENDBRANCH   1   3
BRANCH   1 130
ATOM    130  C   MET d   1      69.704  37.873  49.323  0.00  0.00     0.241 C 
ATOM    131  O   MET d   1      70.887  38.029  49.020  0.00  0.00    -0.271 OA
ATOM    132  N   ASP d   1      69.101  38.533  50.297  0.00  0.00    -0.346 N 
ATOM    133  H72 ASP d   1      68.117  38.402  50.416  0.00  0.00     0.163 HD
BRANCH 132 134
ATOM    134  CA  ASP d   1      69.786  39.438  51.206  0.00  0.00     0.098 C 
ATOM    135  H73 ASP d   1      70.857  39.192  51.257  0.00  0.00     0.088 H 
BRANCH 134 136
ATOM    136  C   ASP d   1      69.140  39.256  52.570  0.00  0.00     0.241 C 
ATOM    137  O   ASP d   1      68.043  38.709  52.674  0.00  0.00    -0.271 OA
ATOM    138  N   ASP d   1      69.820  39.693  53.618  0.00  0.00    -0.345 N 
ATOM    139  H76 ASP d   1      70.760  40.013  53.497  0.00  0.00     0.163 HD
BRANCH 138 140
ATOM    140  CA  ASP d   1      69.219  39.715  54.945  0.00  0.00     0.098 C 
ATOM    141  H77 ASP d   1      68.672  38.772  55.095  0.00  0.00     0.088 H 
BRANCH 140 142
ATOM    142  C   ASP d   1      68.225  40.875  55.049  0.00  0.00     0.241 C 
ATOM    143  O   ASP d   1      68.432  41.935  54.449  0.00  0.00    -0.271 OA
ATOM    144  N   ASP d   1      67.142  40.648  55.790  0.00  0.00    -0.345 N 
ATOM    145  H80 ASP d   1      66.921  39.708  56.048  0.00  0.00     0.163 HD
BRANCH 144 146
ATOM    146  CA  ASP d   1      66.265  41.731  56.239  0.00  0.00     0.098 C 
ATOM    147  H81 ASP d   1      65.969  42.358  55.385  0.00  0.00     0.088 H 
BRANCH 146 148
ATOM    148  C   ASP d   1      67.052  42.527  57.255  0.00  0.00     0.241 C 
ATOM    149  O   ASP d   1      68.057  42.057  57.769  0.00  0.00    -0.271 OA
ATOM    150  N   PHE d   1      66.586  43.720  57.576  0.00  0.00    -0.346 N 
ATOM    151  H84 PHE d   1      65.803  44.105  57.087  0.00  0.00     0.163 HD
BRANCH 150 152
ATOM    152  CA  PHE d   1      67.225  44.470  58.651  0.00  0.00     0.093 C 
ATOM    153  H85 PHE d   1      67.856  43.771  59.220  0.00  0.00     0.088 H 
BRANCH 152 154
ATOM    154  C   PHE d   1      66.197  45.029  59.591  0.00  0.00     0.241 C 
ATOM    155  O   PHE d   1      65.022  45.122  59.248  0.00  0.00    -0.271 OA
ATOM    156  N   GLN d   1      66.664  45.372  60.789  0.00  0.00    -0.346 N 
ATOM    157  H93 GLN d   1      67.647  45.294  60.956  0.00  0.00     0.163 HD
BRANCH 156 158
ATOM    158  CA  GLN d   1      65.821  45.852  61.863  0.00  0.00     0.090 C 
ATOM    159  H94 GLN d   1      64.844  45.350  61.810  0.00  0.00     0.087 H 
BRANCH 158 160
ATOM    160  C   GLN d   1      65.635  47.354  61.708  0.00  0.00     0.241 C 
ATOM    161  O   GLN d   1      66.583  48.063  61.370  0.00  0.00    -0.271 OA
ATOM    162  N   LEU d   1      64.420  47.817  61.969  0.00  0.00    -0.346 N 
ATOM    163 1H10 LEU d   1      63.684  47.160  62.132  0.00  0.00     0.163 HD
BRANCH 162 164
ATOM    164  CA  LEU d   1      64.104  49.252  62.030  0.00  0.00     0.089 C 
ATOM    165 2H10 LEU d   1      64.846  49.802  61.432  0.00  0.00     0.087 H 
BRANCH 164 166
ATOM    166  C   LEU d   1      64.154  49.757  63.470  0.00  0.00     0.241 C 
ATOM    167  O   LEU d   1      64.042  48.955  64.404  0.00  0.00    -0.271 OA
ATOM    168  N   ARG d   1      64.273  51.087  63.605  0.00  0.00    -0.345 N 
ATOM    169 2H11 ARG d   1      64.269  51.627  62.763  0.00  0.00     0.163 HD
BRANCH 168 170
ATOM    170  CA  ARG d   1      64.410  51.837  64.880  0.00  0.00     0.096 C 
ATOM    171 3H11 ARG d   1      64.483  52.903  64.617  0.00  0.00     0.089 H 
BRANCH 170 172
ATOM    172  C   ARG d   1      65.687  51.467  65.620  0.00  0.00     0.196 C 
ATOM    173  O   ARG d   1      65.768  51.612  66.839  0.00  0.00    -0.646 OA
ATOM    174  OXT ARG d   1      66.656  51.018  65.009  0.00  0.00    -0.646 OA
ENDBRANCH 170 172
BRANCH 170 175
ATOM    175  CB  ARG d   1      63.181  51.680  65.798  0.00  0.00    -0.035 C 
ATOM    176 4H11 ARG d   1      63.449  52.059  66.795  0.00  0.00     0.036 H 
ATOM    177 5H11 ARG d   1      62.941  50.609  65.866  0.00  0.00     0.036 H 
BRANCH 175 178
ATOM    178  CG  ARG d   1      61.933  52.415  65.334  0.00  0.00    -0.047 C 
ATOM    179 6H11 ARG d   1      62.234  53.210  64.636  0.00  0.00     0.035 H 
ATOM    180 7H11 ARG d   1      61.445  52.864  66.212  0.00  0.00     0.035 H 
BRANCH 178 181
ATOM    181  CD  ARG d   1      60.931  51.509  64.633  0.00  0.00     0.009 C 
ATOM    182 8H11 ARG d   1      61.399  51.103  63.724  0.00  0.00     0.064 H 
ATOM    183 9H11 ARG d   1      60.050  52.106  64.357  0.00  0.00     0.064 H 
BRANCH 181 184
ATOM    184  NE  ARG d   1      60.494  50.389  65.476  0.00  0.00    -0.227 N 
ATOM    185  CZ  ARG d   1      59.465  49.582  65.211  0.00  0.00     0.665 C 
ATOM    186  NH1 ARG d   1      58.695  49.757  64.131  0.00  0.00    -0.235 N 
ATOM    187  NH2 ARG d   1      59.186  48.596  66.058  0.00  0.00    -0.235 N 
ATOM    188 1H12 ARG d   1      57.907  49.118  63.951  0.00  0.00     0.174 HD
ATOM    189 2H12 ARG d   1      58.890  50.530  63.479  0.00  0.00     0.174 HD
ATOM    190 3H12 ARG d   1      59.772  48.453  66.892  0.00  0.00     0.174 HD
ATOM    191 4H12 ARG d   1      58.383  47.975  65.880  0.00  0.00     0.174 HD
ATOM    192 0H12 ARG d   1      61.024  50.212  66.341  0.00  0.00     0.177 HD
ENDBRANCH 181 184
ENDBRANCH 178 181
ENDBRANCH 175 178
ENDBRANCH 170 175
ENDBRANCH 168 170
ENDBRANCH 164 166
BRANCH 164 193
ATOM    193  CB  LEU d   1      62.711  49.517  61.464  0.00  0.00    -0.035 C 
ATOM    194 3H10 LEU d   1      62.349  50.452  61.915  0.00  0.00     0.037 H 
ATOM    195 4H10 LEU d   1      62.067  48.683  61.780  0.00  0.00     0.037 H 
BRANCH 193 196
ATOM    196  CG  LEU d   1      62.559  49.657  59.945  0.00  0.00    -0.059 C 
ATOM    197 5H10 LEU d   1      62.683  50.726  59.719  0.00  0.00     0.038 H 
BRANCH 196 198
ATOM    198  CD1 LEU d   1      63.599  48.928  59.115  0.00  0.00    -0.073 C 
ATOM    199 6H10 LEU d   1      63.398  49.094  58.046  0.00  0.00     0.028 H 
ATOM    200 7H10 LEU d   1      63.553  47.851  59.334  0.00  0.00     0.028 H 
ATOM    201 8H10 LEU d   1      64.600  49.310  59.363  0.00  0.00     0.028 H 
ENDBRANCH 196 198
BRANCH 196 202
ATOM    202  CD2 LEU d   1      61.148  49.269  59.524  0.00  0.00    -0.073 C 
ATOM    203 9H10 LEU d   1      60.418  49.812  60.142  0.00  0.00     0.028 H 
ATOM    204 0H11 LEU d   1      61.009  48.186  59.660  0.00  0.00     0.028 H 
ATOM    205 1H11 LEU d   1      60.997  49.528  58.466  0.00  0.00     0.028 H 
ENDBRANCH 196 202
ENDBRANCH 193 196
ENDBRANCH 164 193
ENDBRANCH 162 164
ENDBRANCH 158 160
BRANCH 158 206
ATOM    206  CB  GLN d   1      66.460  45.573  63.227  0.00  0.00    -0.030 C 
ATOM    207  H95 GLN d   1      65.855  46.078  63.995  0.00  0.00     0.037 H 
ATOM    208  H96 GLN d   1      67.474  45.999  63.220  0.00  0.00     0.037 H 
BRANCH 206 209
ATOM    209  CG  GLN d   1      66.570  44.104  63.607  0.00  0.00     0.011 C 
ATOM    210  H97 GLN d   1      67.254  44.015  64.464  0.00  0.00     0.047 H 
ATOM    211  H98 GLN d   1      66.982  43.551  62.750  0.00  0.00     0.047 H 
BRANCH 209 212
ATOM    212  CD  GLN d   1      65.236  43.483  63.987  0.00  0.00     0.215 C 
ATOM    213  OE1 GLN d   1      64.434  44.085  64.706  0.00  0.00    -0.274 OA
ATOM    214  NE2 GLN d   1      64.996  42.265  63.513  0.00  0.00    -0.370 N 
ATOM    215  H99 GLN d   1      64.135  41.805  63.729  0.00  0.00     0.159 HD
ATOM    216 0H10 GLN d   1      65.677  41.808  62.940  0.00  0.00     0.159 HD
ENDBRANCH 209 212
ENDBRANCH 206 209
ENDBRANCH 158 206
ENDBRANCH 156 158
ENDBRANCH 152 154
BRANCH 152 217
ATOM    217  CB  PHE d   1      68.124  45.559  58.102  0.00  0.00    -0.014 C 
ATOM    218  H86 PHE d   1      69.016  45.086  57.666  0.00  0.00     0.043 H 
ATOM    219  H87 PHE d   1      68.425  46.214  58.933  0.00  0.00     0.043 H 
BRANCH 217 220
ATOM    220  CG  PHE d   1      67.477  46.395  57.056  0.00  0.00    -0.056 A 
ATOM    221  CD1 PHE d   1      67.588  46.054  55.710  0.00  0.00    -0.077 A 
ATOM    222  CE1 PHE d   1      66.982  46.823  54.739  0.00  0.00    -0.082 A 
ATOM    223  H88 PHE d   1      68.156  45.176  55.423  0.00  0.00     0.084 H 
ATOM    224  CZ  PHE d   1      66.255  47.942  55.117  0.00  0.00    -0.083 A 
ATOM    225  H90 PHE d   1      67.073  46.556  53.692  0.00  0.00     0.083 H 
ATOM    226  CE2 PHE d   1      66.131  48.284  56.448  0.00  0.00    -0.082 A 
ATOM    227  H92 PHE d   1      65.779  48.554  54.359  0.00  0.00     0.083 H 
ATOM    228  CD2 PHE d   1      66.740  47.505  57.413  0.00  0.00    -0.077 A 
ATOM    229  H91 PHE d   1      65.559  49.159  56.735  0.00  0.00     0.083 H 
ATOM    230  H89 PHE d   1      66.638  47.768  58.459  0.00  0.00     0.084 H 
ENDBRANCH 217 220
ENDBRANCH 152 217
ENDBRANCH 150 152
ENDBRANCH 146 148
BRANCH 146 231
ATOM    231  CB  ASP d   1      65.022  41.197  56.956  0.00  0.00     0.043 C 
ATOM    232  H82 ASP d   1      64.509  42.040  57.442  0.00  0.00     0.052 H 
ATOM    233  H83 ASP d   1      65.343  40.474  57.720  0.00  0.00     0.052 H 
BRANCH 231 234
ATOM    234  CG  ASP d   1      64.040  40.508  56.020  0.00  0.00     0.175 C 
ATOM    235  OD1 ASP d   1      64.169  40.635  54.787  0.00  0.00    -0.648 OA
ATOM    236  OD2 ASP d   1      63.113  39.845  56.534  0.00  0.00    -0.648 OA
ENDBRANCH 231 234
ENDBRANCH 146 231
ENDBRANCH 144 146
ENDBRANCH 140 142
BRANCH 140 237
ATOM    237  CB  ASP d   1      70.298  39.827  56.038  0.00  0.00     0.043 C 
ATOM    238  H78 ASP d   1      69.818  40.142  56.977  0.00  0.00     0.052 H 
ATOM    239  H79 ASP d   1      71.034  40.584  55.731  0.00  0.00     0.052 H 
BRANCH 237 240
ATOM    240  CG  ASP d   1      71.028  38.500  56.279  0.00  0.00     0.175 C 
ATOM    241  OD1 ASP d   1      70.337  37.464  56.371  0.00  0.00    -0.648 OA
ATOM    242  OD2 ASP d   1      72.278  38.493  56.403  0.00  0.00    -0.648 OA
ENDBRANCH 237 240
ENDBRANCH 140 237
ENDBRANCH 138 140
ENDBRANCH 134 136
BRANCH 134 243
ATOM    243  CB  ASP d   1      69.612  40.882  50.720  0.00  0.00     0.043 C 
ATOM    244  H74 ASP d   1      68.766  41.334  51.259  0.00  0.00     0.052 H 
ATOM    245  H75 ASP d   1      69.393  40.865  49.642  0.00  0.00     0.052 H 
BRANCH 243 246
ATOM    246  CG  ASP d   1      70.842  41.737  50.949  0.00  0.00     0.175 C 
ATOM    247  OD1 ASP d   1      71.652  41.432  51.857  0.00  0.00    -0.648 OA
ATOM    248  OD2 ASP d   1      70.997  42.725  50.200  0.00  0.00    -0.648 OA
ENDBRANCH 243 246
ENDBRANCH 134 243
ENDBRANCH 132 134
ENDBRANCH   1 130
BRANCH   1 249
ATOM    249  CB  MET d   1      69.555  35.626  48.200  0.00  0.00    -0.030 C 
ATOM    250  H65 MET d   1      70.023  35.243  49.118  0.00  0.00     0.037 H 
ATOM    251  H66 MET d   1      70.336  35.869  47.464  0.00  0.00     0.037 H 
BRANCH 249 252
ATOM    252  CG  MET d   1      68.676  34.532  47.620  0.00  0.00    -0.021 C 
ATOM    253  H67 MET d   1      69.316  33.686  47.330  0.00  0.00     0.049 H 
ATOM    254  H68 MET d   1      68.166  34.928  46.730  0.00  0.00     0.049 H 
BRANCH 252 255
ATOM    255  SD  MET d   1      67.426  33.934  48.779  0.00  0.00    -0.173 SA
BRANCH 255 256
ATOM    256  CE  MET d   1      66.627  32.676  47.772  0.00  0.00    -0.035 C 
ATOM    257  H69 MET d   1      65.819  32.203  48.349  0.00  0.00     0.041 H 
ATOM    258  H70 MET d   1      67.366  31.914  47.483  0.00  0.00     0.041 H 
ATOM    259  H71 MET d   1      66.208  33.142  46.868  0.00  0.00     0.041 H 
ENDBRANCH 255 256
ENDBRANCH 252 255
ENDBRANCH 249 252
ENDBRANCH   1 249
TORSDOF 70
