REMARK  13 active torsions:
REMARK  status: ('A' for Active; 'I' for Inactive)
REMARK    1  A    between atoms: CAA_1  and  CAV_2 
REMARK       I    between atoms: CAV_2  and  N_4 
REMARK    2  A    between atoms: N_4  and  CA_5 
REMARK    3  A    between atoms: CA_5  and  CB_6 
REMARK    4  A    between atoms: CA_5  and  C_10 
REMARK    5  A    between atoms: CB_6  and  CG1_7 
REMARK    6  A    between atoms: CB_6  and  CAE_8 
REMARK    7  A    between atoms: CB_6  and  CG2_9 
REMARK       I    between atoms: C_10  and  NBG_12 
REMARK    8  A    between atoms: CBC_14  and  OAI_15 
REMARK    9  A    between atoms: CBF_18  and  CAW_19 
REMARK       I    between atoms: CAW_19  and  NAS_21 
REMARK   10  A    between atoms: NAS_21  and  CAP_22 
REMARK   11  A    between atoms: CAP_22  and  CAZ_23 
REMARK   12  A    between atoms: CBA_28  and  CBB_29 
REMARK   13  A    between atoms: CAY_33  and  CAB_34 
ROOT
ATOM      1  C   EXH d   1      11.790  54.471  92.555  0.00  0.00     0.244 C 
ATOM      2  O   EXH d   1      10.638  54.270  92.188  0.00  0.00    -0.271 OA
ATOM      3  NBG EXH d   1      12.780  54.729  91.677  0.00  0.00    -0.331 N 
ATOM      4  CAQ EXH d   1      14.230  55.080  91.907  0.00  0.00     0.025 C 
ATOM      5  CBC EXH d   1      14.592  55.931  90.711  0.00  0.00     0.083 C 
ATOM      6  CBD EXH d   1      13.845  55.248  89.577  0.00  0.00     0.133 C 
ATOM      7  FAJ EXH d   1      13.644  56.094  88.572  0.00  0.00    -0.244 F 
ATOM      8  CBF EXH d   1      12.495  54.835  90.194  0.00  0.00     0.123 C 
ATOM      9  H15 EXH d   1      14.851  54.173  91.944  0.00  0.00     0.068 H 
ATOM     10  H16 EXH d   1      14.352  55.647  92.842  0.00  0.00     0.068 H 
ATOM     11  H17 EXH d   1      15.677  55.942  90.533  0.00  0.00     0.090 H 
ATOM     12  H19 EXH d   1      14.399  54.368  89.218  0.00  0.00     0.099 H 
ATOM     13  H20 EXH d   1      11.731  55.607  90.020  0.00  0.00     0.092 H 
ENDROOT
BRANCH   8  14
ATOM     14  CAW EXH d   1      12.076  53.641  89.587  0.00  0.00     0.243 C 
ATOM     15  OAG EXH d   1      12.584  52.581  89.942  0.00  0.00    -0.271 OA
ATOM     16  NAS EXH d   1      11.175  53.752  88.568  0.00  0.00    -0.355 N 
ATOM     17  H21 EXH d   1      10.804  54.652  88.341  0.00  0.00     0.162 HD
BRANCH  16  18
ATOM     18  CAP EXH d   1      10.739  52.586  87.800  0.00  0.00     0.019 C 
ATOM     19  H22 EXH d   1       9.691  52.723  87.494  0.00  0.00     0.071 H 
ATOM     20  H23 EXH d   1      10.823  51.685  88.426  0.00  0.00     0.071 H 
BRANCH  18  21
ATOM     21  CAZ EXH d   1      11.559  52.431  86.632  0.00  0.00    -0.040 A 
ATOM     22  CAL EXH d   1      11.609  51.179  86.002  0.00  0.00    -0.074 A 
ATOM     23  CAN EXH d   1      12.406  50.968  84.870  0.00  0.00    -0.071 A 
ATOM     24  H24 EXH d   1      11.020  50.360  86.398  0.00  0.00     0.084 H 
ATOM     25  CBA EXH d   1      13.176  51.999  84.305  0.00  0.00    -0.017 A 
ATOM     26  H25 EXH d   1      12.430  49.983  84.418  0.00  0.00     0.084 H 
ATOM     27  CAM EXH d   1      13.141  53.242  84.935  0.00  0.00    -0.071 A 
ATOM     28  CAK EXH d   1      12.345  53.460  86.076  0.00  0.00    -0.074 A 
ATOM     29  H27 EXH d   1      13.738  54.056  84.539  0.00  0.00     0.084 H 
ATOM     30  H26 EXH d   1      12.337  54.441  86.537  0.00  0.00     0.084 H 
BRANCH  25  31
ATOM     31  CBB EXH d   1      13.946  51.784  83.216  0.00  0.00     0.040 A 
ATOM     32  SAU EXH d   1      15.557  52.219  83.061  0.00  0.00    -0.080 SA
ATOM     33  CAO EXH d   1      15.765  51.610  81.540  0.00  0.00     0.041 A 
ATOM     34  NAR EXH d   1      14.601  51.070  81.153  0.00  0.00    -0.258 NA
ATOM     35  H28 EXH d   1      16.684  51.642  80.956  0.00  0.00     0.126 H 
ATOM     36  CAY EXH d   1      13.611  51.162  82.063  0.00  0.00     0.049 A 
BRANCH  36  37
ATOM     37  CAB EXH d   1      12.233  50.579  81.739  0.00  0.00    -0.034 C 
ATOM     38  H29 EXH d   1      12.250  50.135  80.733  0.00  0.00     0.035 H 
ATOM     39  H30 EXH d   1      11.479  51.379  81.774  0.00  0.00     0.035 H 
ATOM     40  H31 EXH d   1      11.980  49.804  82.478  0.00  0.00     0.035 H 
ENDBRANCH  36  37
ENDBRANCH  25  31
ENDBRANCH  18  21
ENDBRANCH  16  18
ENDBRANCH   8  14
BRANCH   1  41
ATOM     41  CA  EXH d   1      12.124  54.465  94.068  0.00  0.00     0.095 C 
ATOM     42  H5  EXH d   1      13.069  55.005  94.225  0.00  0.00     0.088 H 
BRANCH  41  43
ATOM     43  N   EXH d   1      11.033  55.184  94.774  0.00  0.00    -0.347 N 
ATOM     44  CAV EXH d   1      11.195  56.350  95.445  0.00  0.00     0.214 C 
ATOM     45  OAF EXH d   1      12.260  56.952  95.587  0.00  0.00    -0.274 OA
ATOM     46  H4  EXH d   1      10.118  54.781  94.753  0.00  0.00     0.163 HD
BRANCH  44  47
ATOM     47  CAA EXH d   1       9.920  56.921  96.081  0.00  0.00    -0.003 C 
ATOM     48  H1  EXH d   1       9.070  56.260  95.855  0.00  0.00     0.040 H 
ATOM     49  H2  EXH d   1       9.724  57.923  95.673  0.00  0.00     0.040 H 
ATOM     50  H3  EXH d   1      10.052  56.989  97.171  0.00  0.00     0.040 H 
ENDBRANCH  44  47
ENDBRANCH  41  43
BRANCH  41  51
ATOM     51  CB  EXH d   1      12.292  53.021  94.619  0.00  0.00    -0.022 C 
BRANCH  51  52
ATOM     52  CG1 EXH d   1      12.648  53.120  96.102  0.00  0.00    -0.067 C 
ATOM     53  H6  EXH d   1      12.773  52.109  96.517  0.00  0.00     0.028 H 
ATOM     54  H7  EXH d   1      11.841  53.640  96.639  0.00  0.00     0.028 H 
ATOM     55  H8  EXH d   1      13.586  53.682  96.217  0.00  0.00     0.028 H 
ENDBRANCH  51  52
BRANCH  51  56
ATOM     56  CAE EXH d   1      13.420  52.284  93.874  0.00  0.00    -0.067 C 
ATOM     57  H9  EXH d   1      13.167  52.211  92.806  0.00  0.00     0.028 H 
ATOM     58  H10 EXH d   1      13.537  51.274  94.293  0.00  0.00     0.028 H 
ATOM     59  H11 EXH d   1      14.361  52.841  93.991  0.00  0.00     0.028 H 
ENDBRANCH  51  56
BRANCH  51  60
ATOM     60  CG2 EXH d   1      11.020  52.164  94.501  0.00  0.00    -0.067 C 
ATOM     61  H12 EXH d   1      10.191  52.663  95.025  0.00  0.00     0.028 H 
ATOM     62  H13 EXH d   1      11.199  51.178  94.954  0.00  0.00     0.028 H 
ATOM     63  H14 EXH d   1      10.760  52.038  93.440  0.00  0.00     0.028 H 
ENDBRANCH  51  60
ENDBRANCH  41  51
ENDBRANCH   1  41
BRANCH   5  64
ATOM     64  OAI EXH d   1      14.106  57.274  90.896  0.00  0.00    -0.391 OA
ATOM     65  H18 EXH d   1      14.499  57.647  91.676  0.00  0.00     0.210 HD
ENDBRANCH   5  64
TORSDOF 13
