REMARK  3 active torsions:
REMARK  status: ('A' for Active; 'I' for Inactive)
REMARK    1  A    between atoms: N_1  and  CA_2 
REMARK    2  A    between atoms: CA_2  and  C_3 
REMARK    3  A    between atoms: CA_2  and  CB_5 
ROOT
ATOM      1  CA  ALA d   1      26.806 387.591  68.700  0.00  0.00     0.179 C 
ATOM      2  H4  ALA d   1      26.608 388.492  69.299  0.00  0.00     0.100 H 
ENDROOT
BRANCH   1   3
ATOM      3  N   ALA d   1      28.288 387.426  68.556  0.00  0.00    -0.066 N 
ATOM      4  H1  ALA d   1      28.671 388.227  68.079  0.00  0.00     0.275 HD
ATOM      5  H2  ALA d   1      28.483 386.593  68.023  0.00  0.00     0.275 HD
ATOM      6  H3  ALA d   1      28.708 387.347  69.469  0.00  0.00     0.275 HD
ENDBRANCH   1   3
BRANCH   1   7
ATOM      7  C   ALA d   1      26.176 386.322  69.459  0.00  0.00     0.204 C 
ATOM      8  O   ALA d   1      24.955 386.150  69.588  0.00  0.00    -0.646 OA
ATOM      9  OXT ALA d   1      26.867 385.427  69.927  0.00  0.00    -0.646 OA
ENDBRANCH   1   7
BRANCH   1  10
ATOM     10  CB  ALA d   1      26.158 387.766  67.321  0.00  0.00    -0.040 C 
ATOM     11  H5  ALA d   1      25.071 387.886  67.439  0.00  0.00     0.030 H 
ATOM     12  H6  ALA d   1      26.364 386.879  66.704  0.00  0.00     0.030 H 
ATOM     13  H7  ALA d   1      26.574 388.658  66.831  0.00  0.00     0.030 H 
ENDBRANCH   1  10
TORSDOF 3
