REMARK  4 active torsions:
REMARK  status: ('A' for Active; 'I' for Inactive)
REMARK    1  A    between atoms: N_1  and  CA_2 
REMARK    2  A    between atoms: CA_2  and  C_3 
REMARK    3  A    between atoms: CA_2  and  CB_5 
REMARK    4  A    between atoms: CB_5  and  CG_6 
ROOT
ATOM      1  CG  TRP d   1     366.783 -80.236 195.878  0.00  0.00    -0.028 A 
ATOM      2  CD1 TRP d   1     366.201 -79.000 195.818  0.00  0.00    -0.015 A 
ATOM      3  CD2 TRP d   1     365.972 -81.100 195.079  0.00  0.00    -0.002 A 
ATOM      4  NE1 TRP d   1     365.083 -79.038 195.013  0.00  0.00    -0.365 N 
ATOM      5  CE2 TRP d   1     364.922 -80.317 194.544  0.00  0.00     0.042 A 
ATOM      6  CE3 TRP d   1     366.031 -82.454 194.753  0.00  0.00    -0.070 A 
ATOM      7  CZ2 TRP d   1     363.958 -80.845 193.684  0.00  0.00    -0.056 A 
ATOM      8  CZ3 TRP d   1     365.063 -82.973 193.895  0.00  0.00    -0.082 A 
ATOM      9  CH2 TRP d   1     364.046 -82.170 193.379  0.00  0.00    -0.081 A 
ATOM     10  H7  TRP d   1     366.568 -78.113 196.332  0.00  0.00     0.112 H 
ATOM     11  H8  TRP d   1     364.470 -78.239 194.799  0.00  0.00     0.165 HD
ATOM     12  H9  TRP d   1     366.812 -83.088 195.157  0.00  0.00     0.084 H 
ATOM     13  H10 TRP d   1     363.169 -80.225 193.274  0.00  0.00     0.086 H 
ATOM     14  H11 TRP d   1     365.101 -84.022 193.623  0.00  0.00     0.083 H 
ATOM     15  H12 TRP d   1     363.308 -82.611 192.719  0.00  0.00     0.083 H 
ENDROOT
BRANCH   1  16
ATOM     16  CB  TRP d   1     367.976 -80.628 196.676  0.00  0.00    -0.003 C 
ATOM     17  H5  TRP d   1     367.909 -80.129 197.654  0.00  0.00     0.044 H 
ATOM     18  H6  TRP d   1     367.946 -81.718 196.818  0.00  0.00     0.044 H 
BRANCH  16  19
ATOM     19  CA  TRP d   1     369.318 -80.272 196.059  0.00  0.00     0.186 C 
ATOM     20  H4  TRP d   1     370.109 -80.700 196.692  0.00  0.00     0.101 H 
BRANCH  19  21
ATOM     21  N   TRP d   1     369.523 -78.777 196.082  0.00  0.00    -0.065 N 
ATOM     22  H1  TRP d   1     369.436 -78.440 197.028  0.00  0.00     0.275 HD
ATOM     23  H2  TRP d   1     368.828 -78.334 195.502  0.00  0.00     0.275 HD
ATOM     24  H3  TRP d   1     370.442 -78.558 195.731  0.00  0.00     0.275 HD
ENDBRANCH  19  21
BRANCH  19  25
ATOM     25  C   TRP d   1     369.412 -80.977 194.703  0.00  0.00     0.204 C 
ATOM     26  O   TRP d   1     369.578 -80.367 193.678  0.00  0.00    -0.646 OA
ATOM     27  OXT TRP d   1     369.298 -82.194 194.581  0.00  0.00    -0.646 OA
ENDBRANCH  19  25
ENDBRANCH  16  19
ENDBRANCH   1  16
TORSDOF 4
