REMARK  4 active torsions:
REMARK  status: ('A' for Active; 'I' for Inactive)
REMARK    1  A    between atoms: C17_22  and  C19_9 
REMARK    2  A    between atoms: S2_15  and  N1_14 
REMARK    3  A    between atoms: C5_17  and  S2_15 
REMARK    4  A    between atoms: C6_18  and  C5_17 
REMARK       I    between atoms: N16_21  and  C17_22 
ROOT
ATOM      1  C7  EY8 d   1      -6.737  14.642 -15.506  0.00  0.00     0.046 C 
ATOM      2  C9  EY8 d   1      -9.021  14.257 -16.057  0.00  0.00     0.098 A 
ATOM      3  C10 EY8 d   1     -10.054  13.352 -16.234  0.00  0.00    -0.011 A 
ATOM      4  C11 EY8 d   1     -11.239  13.802 -16.781  0.00  0.00     0.119 A 
ATOM      5  C13 EY8 d   1     -11.409  15.122 -17.142  0.00  0.00    -0.043 A 
ATOM      6  C14 EY8 d   1     -10.382  16.023 -16.960  0.00  0.00    -0.051 A 
ATOM      7  C15 EY8 d   1      -9.182  15.589 -16.423  0.00  0.00     0.071 A 
ATOM      8  C6  EY8 d   1      -7.144  16.078 -15.214  0.00  0.00     0.055 C 
ATOM      9  O8  EY8 d   1      -7.858  13.746 -15.467  0.00  0.00    -0.347 OA
ATOM     10  F12 EY8 d   1     -12.256  12.930 -16.957  0.00  0.00    -0.206 F 
ATOM     11  N16 EY8 d   1      -8.097  16.483 -16.232  0.00  0.00    -0.303 N 
ATOM     12  C17 EY8 d   1      -7.666  17.500 -17.109  0.00  0.00     0.259 C 
ATOM     13  O18 EY8 d   1      -6.849  18.353 -16.765  0.00  0.00    -0.267 OA
ATOM     14  H1  EY8 d   1      -6.000  14.322 -14.754  0.00  0.00     0.078 H 
ATOM     15  H2  EY8 d   1      -6.282  14.598 -16.507  0.00  0.00     0.078 H 
ATOM     16  H3  EY8 d   1      -9.935  12.313 -15.949  0.00  0.00     0.092 H 
ATOM     17  H4  EY8 d   1     -12.350  15.451 -17.569  0.00  0.00     0.088 H 
ATOM     18  H5  EY8 d   1     -10.513  17.063 -17.235  0.00  0.00     0.087 H 
ATOM     19  H14 EY8 d   1      -6.256  16.718 -15.325  0.00  0.00     0.078 H 
ENDROOT
BRANCH   8  20
ATOM     20  C5  EY8 d   1      -7.610  16.225 -13.776  0.00  0.00     0.067 C 
ATOM     21  H12 EY8 d   1      -8.509  15.607 -13.638  0.00  0.00     0.062 H 
ATOM     22  H13 EY8 d   1      -6.811  15.862 -13.113  0.00  0.00     0.062 H 
BRANCH  20  23
ATOM     23  S2  EY8 d   1      -8.003  17.899 -13.318  0.00  0.00     0.226 S 
ATOM     24  O4  EY8 d   1      -9.080  18.371 -14.159  0.00  0.00    -0.206 OA
ATOM     25  O3  EY8 d   1      -8.104  17.882 -11.864  0.00  0.00    -0.206 OA
BRANCH  23  26
ATOM     26  N1  EY8 d   1      -6.561  18.711 -13.703  0.00  0.00    -0.328 N 
ATOM     27  H10 EY8 d   1      -6.297  18.835 -14.659  0.00  0.00     0.168 HD
ATOM     28  H11 EY8 d   1      -5.976  19.065 -12.973  0.00  0.00     0.168 HD
ENDBRANCH  23  26
ENDBRANCH  20  23
ENDBRANCH   8  20
BRANCH  12  29
ATOM     29  C19 EY8 d   1      -8.084  17.585 -18.535  0.00  0.00     0.034 A 
ATOM     30  C20 EY8 d   1      -8.156  16.479 -19.375  0.00  0.00    -0.065 A 
ATOM     31  C21 EY8 d   1      -8.522  16.635 -20.703  0.00  0.00    -0.048 A 
ATOM     32  H6  EY8 d   1      -7.925  15.492 -18.990  0.00  0.00     0.085 H 
ATOM     33  C22 EY8 d   1      -8.800  17.913 -21.177  0.00  0.00     0.096 A 
ATOM     34  H7  EY8 d   1      -8.590  15.776 -21.361  0.00  0.00     0.087 H 
ATOM     35  O23 EY8 d   1      -9.158  18.098 -22.507  0.00  0.00    -0.340 OA
ATOM     36  C28 EY8 d   1      -8.714  19.008 -20.339  0.00  0.00     0.069 A 
ATOM     37  C24 EY8 d   1     -10.088  19.209 -22.659  0.00  0.00     0.100 C 
ATOM     38  C25 EY8 d   1      -9.527  20.484 -22.082  0.00  0.00     0.246 C 
ATOM     39  H8  EY8 d   1     -11.026  18.964 -22.139  0.00  0.00     0.089 H 
ATOM     40  H9  EY8 d   1     -10.291  19.361 -23.729  0.00  0.00     0.089 H 
ATOM     41  O26 EY8 d   1      -9.604  21.572 -22.645  0.00  0.00    -0.271 OA
ATOM     42  N27 EY8 d   1      -8.963  20.299 -20.851  0.00  0.00    -0.323 N 
ATOM     43  H15 EY8 d   1      -8.721  21.098 -20.300  0.00  0.00     0.169 HD
ATOM     44  C29 EY8 d   1      -8.364  18.853 -19.011  0.00  0.00    -0.039 A 
ATOM     45  H16 EY8 d   1      -8.310  19.712 -18.352  0.00  0.00     0.088 H 
ENDBRANCH  12  29
TORSDOF 4
