REMARK  6 active torsions:
REMARK  status: ('A' for Active; 'I' for Inactive)
REMARK    1  A    between atoms: N1_1  and  C13_9 
REMARK    2  A    between atoms: C18_22  and  N3_2 
REMARK    3  A    between atoms: N3_2  and  C19_23 
REMARK    4  A    between atoms: C10_8  and  C18_22 
REMARK    5  A    between atoms: C13_9  and  C14_18 
REMARK    6  A    between atoms: C15_10  and  C3_14 
ROOT
ATOM      1  N1  EYB d   1      91.465  94.315 -42.534  0.00  0.00    -0.346 N 
ATOM      2  C4  EYB d   1      91.181  93.247 -44.793  0.00  0.00    -0.045 A 
ATOM      3  C5  EYB d   1      91.212  94.313 -43.888  0.00  0.00     0.046 A 
ATOM      4  C6  EYB d   1      90.970  95.633 -44.263  0.00  0.00     0.003 A 
ATOM      5  C7  EYB d   1      91.400  95.602 -42.025  0.00  0.00     0.046 A 
ATOM      6  C8  EYB d   1      91.088  96.444 -43.096  0.00  0.00     0.004 A 
ATOM      7  C10 EYB d   1      91.138  98.338 -41.574  0.00  0.00    -0.032 A 
ATOM      8  C1  EYB d   1      90.680  95.911 -45.610  0.00  0.00    -0.069 A 
ATOM      9  C2  EYB d   1      90.638  94.847 -46.528  0.00  0.00    -0.071 A 
ATOM     10  C3  EYB d   1      90.878  93.521 -46.134  0.00  0.00    -0.020 A 
ATOM     11  C9  EYB d   1      90.962  97.826 -42.868  0.00  0.00    -0.062 A 
ATOM     12  C11 EYB d   1      91.461  97.469 -40.519  0.00  0.00    -0.073 A 
ATOM     13  C12 EYB d   1      91.590  96.091 -40.721  0.00  0.00    -0.056 A 
ATOM     14  H3  EYB d   1      91.386  92.234 -44.466  0.00  0.00     0.088 H 
ATOM     15  H7  EYB d   1      90.492  96.928 -45.935  0.00  0.00     0.085 H 
ATOM     16  H8  EYB d   1      90.414  95.056 -47.568  0.00  0.00     0.084 H 
ATOM     17  H9  EYB d   1      90.730  98.494 -43.690  0.00  0.00     0.085 H 
ATOM     18  H10 EYB d   1      91.614  97.875 -39.526  0.00  0.00     0.084 H 
ATOM     19  H11 EYB d   1      91.828  95.424 -39.901  0.00  0.00     0.087 H 
ENDROOT
BRANCH   7  20
ATOM     20  C18 EYB d   1      91.010  99.817 -41.354  0.00  0.00     0.105 C 
ATOM     21  H16 EYB d   1      91.692 100.104 -40.540  0.00  0.00     0.083 H 
ATOM     22  H17 EYB d   1      91.309 100.329 -42.280  0.00  0.00     0.083 H 
BRANCH  20  23
ATOM     23  N3  EYB d   1      89.638 100.270 -40.993  0.00  0.00    -0.075 N 
ATOM     24  H1  EYB d   1      89.315  99.726 -40.208  0.00  0.00     0.277 HD
ATOM     25  H2  EYB d   1      89.030 100.116 -41.782  0.00  0.00     0.277 HD
BRANCH  23  26
ATOM     26  C19 EYB d   1      89.587 101.709 -40.627  0.00  0.00     0.065 C 
ATOM     27  H18 EYB d   1      88.554 101.986 -40.371  0.00  0.00     0.067 H 
ATOM     28  H19 EYB d   1      89.929 102.316 -41.478  0.00  0.00     0.067 H 
ATOM     29  H20 EYB d   1      90.240 101.891 -39.761  0.00  0.00     0.067 H 
ENDBRANCH  23  26
ENDBRANCH  20  23
ENDBRANCH   7  20
BRANCH   1  30
ATOM     30  C13 EYB d   1      91.774  93.109 -41.782  0.00  0.00    -0.003 C 
ATOM     31  H4  EYB d   1      91.329  92.242 -42.293  0.00  0.00     0.064 H 
ATOM     32  H5  EYB d   1      91.349  93.196 -40.771  0.00  0.00     0.064 H 
BRANCH  30  33
ATOM     33  C14 EYB d   1      93.276  92.905 -41.673  0.00  0.00    -0.061 C 
ATOM     34  H12 EYB d   1      93.481  91.988 -41.101  0.00  0.00     0.029 H 
ATOM     35  H13 EYB d   1      93.727  93.766 -41.159  0.00  0.00     0.029 H 
ATOM     36  H14 EYB d   1      93.708  92.813 -42.681  0.00  0.00     0.029 H 
ENDBRANCH  30  33
ENDBRANCH   1  30
BRANCH  10  37
ATOM     37  C15 EYB d   1      90.856  92.425 -47.081  0.00  0.00     0.018 A 
ATOM     38  C17 EYB d   1      90.448  92.357 -48.428  0.00  0.00     0.041 A 
ATOM     39  N2  EYB d   1      90.621  91.140 -48.949  0.00  0.00    -0.141 NA
ATOM     40  H6  EYB d   1      90.038  93.201 -48.981  0.00  0.00     0.119 H 
ATOM     41  O1  EYB d   1      91.165  90.375 -47.923  0.00  0.00    -0.225 OA
ATOM     42  C16 EYB d   1      91.308  91.152 -46.817  0.00  0.00     0.056 A 
ATOM     43  H15 EYB d   1      91.718  90.818 -45.865  0.00  0.00     0.128 H 
ENDBRANCH  10  37
TORSDOF 6
