REMARK  7 active torsions:
REMARK  status: ('A' for Active; 'I' for Inactive)
REMARK    1  A    between atoms: N1_1  and  C14_15 
REMARK    2  A    between atoms: C4_5  and  C7_8 
REMARK    3  A    between atoms: C7_8  and  N2_23 
REMARK    4  A    between atoms: C12_13  and  C15_16 
REMARK    5  A    between atoms: C14_15  and  C20_22 
REMARK    6  A    between atoms: C18_19  and  C19_21 
REMARK    7  A    between atoms: N2_23  and  C21_24 
ROOT
ATOM      1  N1  EYE d   1      91.615  94.296 -42.450  0.00  0.00    -0.346 N 
ATOM      2  C1  EYE d   1      91.555  95.617 -41.993  0.00  0.00     0.046 A 
ATOM      3  C2  EYE d   1      91.222  96.477 -43.080  0.00  0.00     0.004 A 
ATOM      4  C3  EYE d   1      91.111  97.866 -42.868  0.00  0.00    -0.062 A 
ATOM      5  C4  EYE d   1      91.322  98.403 -41.583  0.00  0.00    -0.032 A 
ATOM      6  C5  EYE d   1      91.668  97.538 -40.515  0.00  0.00    -0.073 A 
ATOM      7  C6  EYE d   1      91.777  96.152 -40.710  0.00  0.00    -0.056 A 
ATOM      8  C8  EYE d   1      91.317  94.310 -43.811  0.00  0.00     0.046 A 
ATOM      9  C9  EYE d   1      91.071  95.646 -44.228  0.00  0.00     0.003 A 
ATOM     10  C10 EYE d   1      90.751  95.884 -45.576  0.00  0.00    -0.069 A 
ATOM     11  C11 EYE d   1      90.676  94.814 -46.479  0.00  0.00    -0.071 A 
ATOM     12  C12 EYE d   1      90.912  93.481 -46.076  0.00  0.00    -0.017 A 
ATOM     13  C13 EYE d   1      91.251  93.245 -44.727  0.00  0.00    -0.045 A 
ATOM     14  H1  EYE d   1      90.863  98.522 -43.695  0.00  0.00     0.085 H 
ATOM     15  H2  EYE d   1      91.852  97.954 -39.531  0.00  0.00     0.084 H 
ATOM     16  H3  EYE d   1      92.029  95.501 -39.881  0.00  0.00     0.087 H 
ATOM     17  H6  EYE d   1      90.562  96.895 -45.917  0.00  0.00     0.085 H 
ATOM     18  H7  EYE d   1      90.430  95.015 -47.515  0.00  0.00     0.084 H 
ATOM     19  H8  EYE d   1      91.462  92.235 -44.394  0.00  0.00     0.088 H 
ENDROOT
BRANCH  12  20
ATOM     20  C15 EYE d   1      90.851  92.379 -47.042  0.00  0.00     0.015 A 
ATOM     21  C16 EYE d   1      90.448  92.393 -48.356  0.00  0.00    -0.065 A 
ATOM     22  C17 EYE d   1      90.557  91.123 -48.990  0.00  0.00    -0.069 A 
ATOM     23  H11 EYE d   1      90.082  93.286 -48.861  0.00  0.00     0.085 H 
ATOM     24  C18 EYE d   1      91.052  90.145 -48.167  0.00  0.00    -0.021 A 
ATOM     25  H12 EYE d   1      90.275  90.946 -50.027  0.00  0.00     0.085 H 
ATOM     26  S1  EYE d   1      91.392  90.786 -46.579  0.00  0.00    -0.095 SA
BRANCH  24  27
ATOM     27  C19 EYE d   1      91.287  88.714 -48.527  0.00  0.00    -0.045 C 
ATOM     28  H13 EYE d   1      91.690  88.178 -47.655  0.00  0.00     0.034 H 
ATOM     29  H14 EYE d   1      92.007  88.658 -49.357  0.00  0.00     0.034 H 
ATOM     30  H15 EYE d   1      90.337  88.252 -48.834  0.00  0.00     0.034 H 
ENDBRANCH  24  27
ENDBRANCH  12  20
BRANCH   1  31
ATOM     31  C14 EYE d   1      91.924  93.103 -41.683  0.00  0.00    -0.003 C 
ATOM     32  H9  EYE d   1      91.411  92.243 -42.139  0.00  0.00     0.064 H 
ATOM     33  H10 EYE d   1      91.565  93.240 -40.652  0.00  0.00     0.064 H 
BRANCH  31  34
ATOM     34  C20 EYE d   1      93.429  92.822 -41.651  0.00  0.00    -0.061 C 
ATOM     35  H16 EYE d   1      93.620  91.913 -41.062  0.00  0.00     0.029 H 
ATOM     36  H17 EYE d   1      93.951  93.674 -41.191  0.00  0.00     0.029 H 
ATOM     37  H18 EYE d   1      93.797  92.678 -42.678  0.00  0.00     0.029 H 
ENDBRANCH  31  34
ENDBRANCH   1  31
BRANCH   5  38
ATOM     38  C7  EYE d   1      91.202  99.898 -41.367  0.00  0.00     0.105 C 
ATOM     39  H4  EYE d   1      91.433 100.419 -42.308  0.00  0.00     0.083 H 
ATOM     40  H5  EYE d   1      91.916 100.210 -40.590  0.00  0.00     0.083 H 
BRANCH  38  41
ATOM     41  N2  EYE d   1      89.835 100.252 -40.940  0.00  0.00    -0.075 N 
ATOM     42  H19 EYE d   1      89.631  99.754 -40.088  0.00  0.00     0.277 HD
ATOM     43  H20 EYE d   1      89.193  99.962 -41.661  0.00  0.00     0.277 HD
BRANCH  41  44
ATOM     44  C21 EYE d   1      89.633 101.700 -40.693  0.00  0.00     0.065 C 
ATOM     45  H21 EYE d   1      88.593 101.877 -40.380  0.00  0.00     0.067 H 
ATOM     46  H22 EYE d   1      89.839 102.262 -41.616  0.00  0.00     0.067 H 
ATOM     47  H23 EYE d   1      90.317 102.035 -39.899  0.00  0.00     0.067 H 
ENDBRANCH  41  44
ENDBRANCH  38  41
ENDBRANCH   5  38
TORSDOF 7
