REMARK  8 active torsions:
REMARK  status: ('A' for Active; 'I' for Inactive)
REMARK    1  A    between atoms: C2_2  and  C1_1 
REMARK    2  A    between atoms: C2_2  and  C3_3 
REMARK    3  A    between atoms: C4_19  and  C2_2 
REMARK    4  A    between atoms: C14_9  and  C30_16 
REMARK    5  A    between atoms: C17_25  and  C19_10 
REMARK    6  A    between atoms: C30_16  and  C31_17 
REMARK       I    between atoms: C31_17  and  N33_33 
REMARK    7  A    between atoms: N33_33  and  C34_18 
REMARK    8  A    between atoms: C5_20  and  C4_19 
REMARK       I    between atoms: N16_24  and  C17_25 
ROOT
ATOM      1  C7  EYN d   1     -28.716   4.517   4.730  0.00  0.00     0.072 A 
ATOM      2  C8  EYN d   1     -28.411   5.404   5.757  0.00  0.00     0.098 A 
ATOM      3  C9  EYN d   1     -28.890   5.203   7.037  0.00  0.00    -0.011 A 
ATOM      4  C10 EYN d   1     -29.717   4.128   7.279  0.00  0.00     0.125 A 
ATOM      5  C13 EYN d   1     -26.974   6.613   4.281  0.00  0.00     0.046 C 
ATOM      6  C14 EYN d   1     -27.898   6.181   3.143  0.00  0.00     0.049 C 
ATOM      7  C5  EYN d   1     -30.056   3.242   6.263  0.00  0.00    -0.017 A 
ATOM      8  C6  EYN d   1     -29.559   3.447   4.988  0.00  0.00    -0.045 A 
ATOM      9  F11 EYN d   1     -30.212   3.983   8.527  0.00  0.00    -0.205 F 
ATOM     10  O12 EYN d   1     -27.594   6.528   5.582  0.00  0.00    -0.347 OA
ATOM     11  N16 EYN d   1     -28.213   4.775   3.422  0.00  0.00    -0.304 N 
ATOM     12  C17 EYN d   1     -27.792   3.812   2.501  0.00  0.00     0.259 C 
ATOM     13  O18 EYN d   1     -27.740   4.042   1.286  0.00  0.00    -0.267 OA
ATOM     14  H8  EYN d   1     -28.619   5.881   7.839  0.00  0.00     0.092 H 
ATOM     15  H9  EYN d   1     -26.669   7.655   4.107  0.00  0.00     0.078 H 
ATOM     16  H10 EYN d   1     -26.085   5.965   4.275  0.00  0.00     0.078 H 
ATOM     17  H11 EYN d   1     -27.371   6.248   2.180  0.00  0.00     0.077 H 
ATOM     18  H23 EYN d   1     -29.830   2.768   4.188  0.00  0.00     0.088 H 
ENDROOT
BRANCH   6  19
ATOM     19  C30 EYN d   1     -29.113   7.108   3.090  0.00  0.00     0.030 C 
ATOM     20  H16 EYN d   1     -28.742   8.136   3.217  0.00  0.00     0.050 H 
ATOM     21  H17 EYN d   1     -29.760   6.843   3.939  0.00  0.00     0.050 H 
BRANCH  19  22
ATOM     22  C31 EYN d   1     -29.972   7.097   1.860  0.00  0.00     0.219 C 
ATOM     23  O32 EYN d   1     -30.835   7.948   1.715  0.00  0.00    -0.274 OA
ATOM     24  N33 EYN d   1     -29.735   6.082   0.969  0.00  0.00    -0.365 N 
ATOM     25  H26 EYN d   1     -28.992   5.433   1.131  0.00  0.00     0.161 HD
BRANCH  24  26
ATOM     26  C34 EYN d   1     -30.569   5.958  -0.207  0.00  0.00    -0.018 C 
ATOM     27  H18 EYN d   1     -30.237   5.095  -0.803  0.00  0.00     0.056 H 
ATOM     28  H19 EYN d   1     -30.489   6.873  -0.811  0.00  0.00     0.056 H 
ATOM     29  H20 EYN d   1     -31.615   5.811   0.099  0.00  0.00     0.056 H 
ENDBRANCH  24  26
ENDBRANCH  19  22
ENDBRANCH   6  19
BRANCH  12  30
ATOM     30  C19 EYN d   1     -27.314   2.461   2.950  0.00  0.00     0.034 A 
ATOM     31  C20 EYN d   1     -26.625   2.247   4.136  0.00  0.00    -0.065 A 
ATOM     32  C21 EYN d   1     -26.153   0.990   4.492  0.00  0.00    -0.048 A 
ATOM     33  H12 EYN d   1     -26.451   3.084   4.803  0.00  0.00     0.085 H 
ATOM     34  C22 EYN d   1     -26.338  -0.058   3.603  0.00  0.00     0.096 A 
ATOM     35  H13 EYN d   1     -25.653   0.832   5.441  0.00  0.00     0.087 H 
ATOM     36  C23 EYN d   1     -27.012   0.161   2.417  0.00  0.00     0.069 A 
ATOM     37  O29 EYN d   1     -25.813  -1.321   3.930  0.00  0.00    -0.340 OA
ATOM     38  C24 EYN d   1     -27.508   1.405   2.070  0.00  0.00    -0.039 A 
ATOM     39  N25 EYN d   1     -27.178  -0.899   1.501  0.00  0.00    -0.323 N 
ATOM     40  H14 EYN d   1     -28.035   1.552   1.134  0.00  0.00     0.088 H 
ATOM     41  C26 EYN d   1     -26.893  -2.196   1.860  0.00  0.00     0.246 C 
ATOM     42  H15 EYN d   1     -27.508  -0.705   0.577  0.00  0.00     0.169 HD
ATOM     43  O27 EYN d   1     -26.957  -3.132   1.070  0.00  0.00    -0.271 OA
ATOM     44  C28 EYN d   1     -26.596  -2.381   3.332  0.00  0.00     0.100 C 
ATOM     45  H24 EYN d   1     -26.044  -3.325   3.454  0.00  0.00     0.089 H 
ATOM     46  H25 EYN d   1     -27.554  -2.444   3.869  0.00  0.00     0.089 H 
ENDBRANCH  12  30
BRANCH   7  47
ATOM     47  C4  EYN d   1     -30.998   2.107   6.551  0.00  0.00    -0.035 C 
ATOM     48  H21 EYN d   1     -31.453   2.286   7.536  0.00  0.00     0.040 H 
ATOM     49  H22 EYN d   1     -31.781   2.112   5.779  0.00  0.00     0.040 H 
BRANCH  47  50
ATOM     50  C2  EYN d   1     -30.369   0.729   6.570  0.00  0.00    -0.057 C 
ATOM     51  H4  EYN d   1     -29.966   0.507   5.571  0.00  0.00     0.039 H 
BRANCH  50  52
ATOM     52  C1  EYN d   1     -29.269   0.638   7.572  0.00  0.00    -0.073 C 
ATOM     53  H1  EYN d   1     -28.840  -0.375   7.554  0.00  0.00     0.028 H 
ATOM     54  H2  EYN d   1     -29.668   0.850   8.575  0.00  0.00     0.028 H 
ATOM     55  H3  EYN d   1     -28.487   1.372   7.326  0.00  0.00     0.028 H 
ENDBRANCH  50  52
BRANCH  50  56
ATOM     56  C3  EYN d   1     -31.430  -0.301   6.935  0.00  0.00    -0.073 C 
ATOM     57  H5  EYN d   1     -32.254  -0.252   6.208  0.00  0.00     0.028 H 
ATOM     58  H6  EYN d   1     -31.817  -0.088   7.942  0.00  0.00     0.028 H 
ATOM     59  H7  EYN d   1     -30.985  -1.307   6.918  0.00  0.00     0.028 H 
ENDBRANCH  50  56
ENDBRANCH  47  50
ENDBRANCH   7  47
TORSDOF 8
