REMARK  6 active torsions:
REMARK  status: ('A' for Active; 'I' for Inactive)
REMARK    1  A    between atoms: N_1  and  CA_2 
REMARK    2  A    between atoms: CA_2  and  C_3 
REMARK    3  A    between atoms: CA_2  and  CB_5 
REMARK    4  A    between atoms: CB_5  and  CG_6 
REMARK    5  A    between atoms: CG_6  and  CD_7 
REMARK    6  A    between atoms: CD_7  and  NE_8 
REMARK       I    between atoms: NE_8  and  CZ_9 
REMARK       I    between atoms: CZ_9  and  NH1_10 
ROOT
ATOM      1  CG  ARG d   1       9.990  -6.267  40.616  0.00  0.00    -0.047 C 
ATOM      2  H7  ARG d   1      10.469  -5.340  40.962  0.00  0.00     0.035 H 
ATOM      3  H8  ARG d   1      10.748  -6.927  40.169  0.00  0.00     0.035 H 
ENDROOT
BRANCH   1   4
ATOM      4  CB  ARG d   1       8.963  -5.924  39.569  0.00  0.00    -0.028 C 
ATOM      5  H5  ARG d   1       7.989  -6.305  39.910  0.00  0.00     0.036 H 
ATOM      6  H6  ARG d   1       8.918  -4.828  39.483  0.00  0.00     0.036 H 
BRANCH   4   7
ATOM      7  CA  ARG d   1       9.237  -6.503  38.163  0.00  0.00     0.182 C 
ATOM      8  H4  ARG d   1       8.812  -5.812  37.420  0.00  0.00     0.101 H 
BRANCH   7   9
ATOM      9  N   ARG d   1       8.595  -7.805  38.003  0.00  0.00    -0.065 N 
ATOM     10  H1  ARG d   1       7.607  -7.716  38.180  0.00  0.00     0.275 HD
ATOM     11  H2  ARG d   1       8.996  -8.460  38.656  0.00  0.00     0.275 HD
ATOM     12  H3  ARG d   1       8.739  -8.137  37.062  0.00  0.00     0.275 HD
ENDBRANCH   7   9
BRANCH   7  13
ATOM     13  C   ARG d   1      10.735  -6.634  37.895  0.00  0.00     0.204 C 
ATOM     14  O   ARG d   1      11.235  -7.742  37.667  0.00  0.00    -0.646 OA
ATOM     15  OXT ARG d   1      11.477  -5.653  37.892  0.00  0.00    -0.646 OA
ENDBRANCH   7  13
ENDBRANCH   4   7
ENDBRANCH   1   4
BRANCH   1  16
ATOM     16  CD  ARG d   1       9.378  -6.957  41.781  0.00  0.00     0.009 C 
ATOM     17  H9  ARG d   1       9.655  -8.021  41.758  0.00  0.00     0.064 H 
ATOM     18  H10 ARG d   1       8.284  -6.862  41.724  0.00  0.00     0.064 H 
BRANCH  16  19
ATOM     19  NE  ARG d   1       9.847  -6.366  43.029  0.00  0.00    -0.227 N 
ATOM     20  CZ  ARG d   1       9.894  -6.973  44.204  0.00  0.00     0.665 C 
ATOM     21  NH1 ARG d   1      10.344  -6.294  45.233  0.00  0.00    -0.235 N 
ATOM     22  NH2 ARG d   1       9.512  -8.236  44.356  0.00  0.00    -0.235 N 
ATOM     23  H12 ARG d   1      10.393  -6.738  46.161  0.00  0.00     0.174 HD
ATOM     24  H13 ARG d   1      10.648  -5.317  45.112  0.00  0.00     0.174 HD
ATOM     25  H14 ARG d   1       9.159  -8.768  43.548  0.00  0.00     0.174 HD
ATOM     26  H15 ARG d   1       9.569  -8.683  45.282  0.00  0.00     0.174 HD
ATOM     27  H11 ARG d   1      10.171  -5.389  42.993  0.00  0.00     0.177 HD
ENDBRANCH  16  19
ENDBRANCH   1  16
TORSDOF 6
