REMARK  16 active torsions:
REMARK  status: ('A' for Active; 'I' for Inactive)
REMARK    1  A    between atoms: OAC_1  and  CAK_2 
REMARK    2  A    between atoms: CAK_2  and  CAM_3 
REMARK    3  A    between atoms: CAM_3  and  NAS_4 
REMARK    4  A    between atoms: NAS_4  and  CAO_5 
REMARK    5  A    between atoms: CAO_5  and  CAQ_6 
REMARK    6  A    between atoms: CAQ_6  and  NAU_7 
REMARK    7  A    between atoms: NAU_7  and  CAY_8 
REMARK    8  A    between atoms: CAW_15  and  OAE_16 
REMARK    9  A    between atoms: CAX_19  and  OAF_20 
REMARK   10  A    between atoms: CAZ_25  and  NAV_26 
REMARK   11  A    between atoms: NAV_26  and  CAR_27 
REMARK   12  A    between atoms: CAR_27  and  CAP_28 
REMARK   13  A    between atoms: CAP_28  and  NAT_29 
REMARK   14  A    between atoms: NAT_29  and  CAN_30 
REMARK   15  A    between atoms: CAN_30  and  CAL_31 
REMARK   16  A    between atoms: CAL_31  and  OAD_32 
ROOT
ATOM      1  CAY MIX d   1     -98.756  39.325  41.732  0.00  0.00     0.043 A 
ATOM      2  CAI MIX d   1     -97.947  40.147  42.516  0.00  0.00    -0.054 A 
ATOM      3  CAJ MIX d   1     -97.377  41.318  42.010  0.00  0.00    -0.054 A 
ATOM      4  CBE MIX d   1     -99.012  39.678  40.315  0.00  0.00     0.058 A 
ATOM      5  CBA MIX d   1     -99.865  38.822  39.448  0.00  0.00     0.199 A 
ATOM      6  OAA MIX d   1    -100.379  37.774  39.899  0.00  0.00    -0.286 OA
ATOM      7  CBC MIX d   1    -100.096  39.230  38.034  0.00  0.00     0.065 A 
ATOM      8  CAW MIX d   1    -100.931  38.418  37.117  0.00  0.00     0.081 A 
ATOM      9  CAG MIX d   1    -101.121  38.840  35.803  0.00  0.00    -0.047 A 
ATOM     10  CAH MIX d   1    -100.549  40.013  35.304  0.00  0.00    -0.047 A 
ATOM     11  CAX MIX d   1     -99.747  40.842  36.090  0.00  0.00     0.081 A 
ATOM     12  CBD MIX d   1     -99.489  40.474  37.504  0.00  0.00     0.065 A 
ATOM     13  CBB MIX d   1     -98.641  41.332  38.371  0.00  0.00     0.199 A 
ATOM     14  OAB MIX d   1     -98.135  42.380  37.913  0.00  0.00    -0.286 OA
ATOM     15  CBF MIX d   1     -98.410  40.921  39.784  0.00  0.00     0.058 A 
ATOM     16  CAZ MIX d   1     -97.573  41.741  40.691  0.00  0.00     0.043 A 
ATOM     17  H13 MIX d   1     -97.755  39.870  43.546  0.00  0.00     0.087 H 
ATOM     18  H14 MIX d   1     -96.759  41.922  42.665  0.00  0.00     0.087 H 
ATOM     19  H16 MIX d   1    -101.735  38.237  35.144  0.00  0.00     0.087 H 
ATOM     20  H17 MIX d   1    -100.734  40.288  34.272  0.00  0.00     0.087 H 
ENDROOT
BRANCH   1  21
ATOM     21  NAU MIX d   1     -99.300  38.188  42.222  0.00  0.00    -0.388 N 
ATOM     22  H12 MIX d   1     -98.858  37.283  42.006  0.00  0.00     0.159 HD
BRANCH  21  23
ATOM     23  CAQ MIX d   1    -100.495  38.218  43.046  0.00  0.00     0.015 C 
ATOM     24  H10 MIX d   1    -100.206  38.390  44.093  0.00  0.00     0.066 H 
ATOM     25  H11 MIX d   1    -101.146  39.037  42.706  0.00  0.00     0.066 H 
BRANCH  23  26
ATOM     26  CAO MIX d   1    -101.257  36.900  42.948  0.00  0.00     0.096 C 
ATOM     27  H8  MIX d   1    -102.249  37.030  43.405  0.00  0.00     0.078 H 
ATOM     28  H9  MIX d   1    -101.374  36.638  41.886  0.00  0.00     0.078 H 
BRANCH  26  29
ATOM     29  NAS MIX d   1    -100.571  35.814  43.624  0.00  0.00    -0.072 N 
ATOM     30  H6  MIX d   1    -100.489  35.062  42.958  0.00  0.00     0.277 HD
ATOM     31  H7  MIX d   1     -99.652  36.153  43.862  0.00  0.00     0.277 HD
BRANCH  29  32
ATOM     32  CAM MIX d   1    -101.135  35.244  44.834  0.00  0.00     0.101 C 
ATOM     33  H4  MIX d   1    -101.149  36.019  45.615  0.00  0.00     0.079 H 
ATOM     34  H5  MIX d   1    -102.164  34.917  44.623  0.00  0.00     0.079 H 
BRANCH  32  35
ATOM     35  CAK MIX d   1    -100.339  34.049  45.347  0.00  0.00     0.039 C 
ATOM     36  H2  MIX d   1    -100.823  33.648  46.250  0.00  0.00     0.076 H 
ATOM     37  H3  MIX d   1    -100.309  33.270  44.571  0.00  0.00     0.076 H 
BRANCH  35  38
ATOM     38  OAC MIX d   1     -99.002  34.456  45.665  0.00  0.00    -0.399 OA
ATOM     39  H1  MIX d   1     -98.512  33.707  45.984  0.00  0.00     0.209 HD
ENDBRANCH  35  38
ENDBRANCH  32  35
ENDBRANCH  29  32
ENDBRANCH  26  29
ENDBRANCH  23  26
ENDBRANCH  21  23
ENDBRANCH   1  21
BRANCH  16  40
ATOM     40  NAV MIX d   1     -97.028  42.874  40.187  0.00  0.00    -0.388 N 
ATOM     41  H19 MIX d   1     -97.142  43.068  39.182  0.00  0.00     0.159 HD
BRANCH  40  42
ATOM     42  CAR MIX d   1     -96.292  43.825  40.994  0.00  0.00     0.015 C 
ATOM     43  H20 MIX d   1     -95.802  44.544  40.321  0.00  0.00     0.066 H 
ATOM     44  H21 MIX d   1     -95.527  43.277  41.564  0.00  0.00     0.066 H 
BRANCH  42  45
ATOM     45  CAP MIX d   1     -97.156  44.601  41.977  0.00  0.00     0.096 C 
ATOM     46  H22 MIX d   1     -98.113  44.077  42.117  0.00  0.00     0.078 H 
ATOM     47  H23 MIX d   1     -97.345  45.610  41.582  0.00  0.00     0.078 H 
BRANCH  45  48
ATOM     48  NAT MIX d   1     -96.471  44.701  43.246  0.00  0.00    -0.072 N 
ATOM     49  H24 MIX d   1     -96.585  43.816  43.716  0.00  0.00     0.277 HD
ATOM     50  H25 MIX d   1     -96.931  45.425  43.776  0.00  0.00     0.277 HD
BRANCH  48  51
ATOM     51  CAN MIX d   1     -95.055  45.006  43.247  0.00  0.00     0.101 C 
ATOM     52  H26 MIX d   1     -94.789  45.453  42.278  0.00  0.00     0.079 H 
ATOM     53  H27 MIX d   1     -94.492  44.071  43.386  0.00  0.00     0.079 H 
BRANCH  51  54
ATOM     54  CAL MIX d   1     -94.673  45.977  44.355  0.00  0.00     0.039 C 
ATOM     55  H28 MIX d   1     -95.475  46.719  44.484  0.00  0.00     0.076 H 
ATOM     56  H29 MIX d   1     -93.738  46.490  44.086  0.00  0.00     0.076 H 
BRANCH  54  57
ATOM     57  OAD MIX d   1     -94.487  45.260  45.577  0.00  0.00    -0.399 OA
ATOM     58  H30 MIX d   1     -94.249  45.868  46.267  0.00  0.00     0.209 HD
ENDBRANCH  54  57
ENDBRANCH  51  54
ENDBRANCH  48  51
ENDBRANCH  45  48
ENDBRANCH  42  45
ENDBRANCH  40  42
ENDBRANCH  16  40
BRANCH   8  59
ATOM     59  OAE MIX d   1    -101.506  37.268  37.562  0.00  0.00    -0.360 OA
ATOM     60  H15 MIX d   1    -102.086  37.465  38.288  0.00  0.00     0.217 HD
ENDBRANCH   8  59
BRANCH  11  61
ATOM     61  OAF MIX d   1     -99.199  41.982  35.580  0.00  0.00    -0.360 OA
ATOM     62  H18 MIX d   1     -98.688  42.415  36.254  0.00  0.00     0.217 HD
ENDBRANCH  11  61
TORSDOF 16
