REMARK  23 active torsions:
REMARK  status: ('A' for Active; 'I' for Inactive)
REMARK    1  A    between atoms: O02_36  and  C01_1 
REMARK    2  A    between atoms: C04_3  and  C03_2 
REMARK    3  A    between atoms: C03_2  and  O02_36 
REMARK    4  A    between atoms: C08_7  and  C09_8 
REMARK    5  A    between atoms: C10_9  and  O11_37 
REMARK    6  A    between atoms: C12_10  and  O13_38 
REMARK    7  A    between atoms: O13_38  and  C14_11 
REMARK    8  A    between atoms: C16_12  and  C17_13 
REMARK    9  A    between atoms: C17_13  and  O18_40 
REMARK   10  A    between atoms: C19_14  and  C20_15 
REMARK   11  A    between atoms: C19_14  and  C21_16 
REMARK   12  A    between atoms: C19_14  and  C22_17 
REMARK   13  A    between atoms: O18_40  and  C19_14 
REMARK   14  A    between atoms: C24_19  and  O25_41 
REMARK   15  A    between atoms: C26_20  and  O27_42 
REMARK   16  A    between atoms: C28_21  and  O29_43 
REMARK   17  A    between atoms: C39_30  and  C31_23 
REMARK   18  A    between atoms: C33_25  and  O38_44 
REMARK   19  A    between atoms: C34_26  and  C35_27 
REMARK   20  A    between atoms: C39_30  and  C40_31 
REMARK   21  A    between atoms: C41_32  and  C39_30 
REMARK   22  A    between atoms: N42_35  and  C41_32 
REMARK   23  A    between atoms: C43_33  and  C44_34 
REMARK       I    between atoms: C43_33  and  N42_35 
ROOT
ATOM      1  C04 EZ5 d   1     -20.006 -20.310   3.096  0.00  0.00    -0.011 C 
ATOM      2  C05 EZ5 d   1     -19.315 -21.573   3.607  0.00  0.00    -0.056 C 
ATOM      3  C06 EZ5 d   1     -17.922 -21.486   3.039  0.00  0.00    -0.057 C 
ATOM      4  C07 EZ5 d   1     -18.103 -20.924   1.620  0.00  0.00    -0.026 C 
ATOM      5  C08 EZ5 d   1     -18.072 -21.902   0.429  0.00  0.00    -0.023 C 
ATOM      6  C10 EZ5 d   1     -17.261 -21.526  -0.820  0.00  0.00     0.068 C 
ATOM      7  C12 EZ5 d   1     -17.826 -20.318  -1.661  0.00  0.00     0.090 C 
ATOM      8  C30 EZ5 d   1     -17.748 -19.076  -0.823  0.00  0.00    -0.031 C 
ATOM      9  C31 EZ5 d   1     -16.693 -18.312  -0.497  0.00  0.00    -0.066 C 
ATOM     10  C32 EZ5 d   1     -17.155 -16.999   0.072  0.00  0.00    -0.018 C 
ATOM     11  C33 EZ5 d   1     -18.670 -16.954  -0.275  0.00  0.00     0.053 C 
ATOM     12  C34 EZ5 d   1     -19.055 -18.466  -0.270  0.00  0.00     0.026 C 
ATOM     13  C36 EZ5 d   1     -19.601 -18.957   1.046  0.00  0.00    -0.085 C 
ATOM     14  C37 EZ5 d   1     -19.323 -20.054   1.761  0.00  0.00    -0.072 C 
ATOM     15  H6  EZ5 d   1     -19.866 -19.464   3.785  0.00  0.00     0.050 H 
ATOM     16  H7  EZ5 d   1     -19.830 -22.474   3.242  0.00  0.00     0.034 H 
ATOM     17  H8  EZ5 d   1     -19.288 -21.586   4.707  0.00  0.00     0.034 H 
ATOM     18  H9  EZ5 d   1     -17.456 -22.482   3.003  0.00  0.00     0.034 H 
ATOM     19  H10 EZ5 d   1     -17.299 -20.811   3.645  0.00  0.00     0.034 H 
ATOM     20  H11 EZ5 d   1     -17.250 -20.254   1.435  0.00  0.00     0.047 H 
ATOM     21  H12 EZ5 d   1     -17.562 -22.794   0.823  0.00  0.00     0.044 H 
ATOM     22  H16 EZ5 d   1     -16.251 -21.260  -0.476  0.00  0.00     0.088 H 
ATOM     23  H17 EZ5 d   1     -18.874 -20.488  -1.949  0.00  0.00     0.094 H 
ATOM     24  H34 EZ5 d   1     -16.621 -16.160  -0.397  0.00  0.00     0.043 H 
ATOM     25  H35 EZ5 d   1     -17.002 -16.969   1.161  0.00  0.00     0.043 H 
ATOM     26  H36 EZ5 d   1     -18.826 -16.515  -1.272  0.00  0.00     0.085 H 
ATOM     27  H40 EZ5 d   1     -20.352 -18.307   1.493  0.00  0.00     0.079 H 
ENDROOT
BRANCH   7  28
ATOM     28  O13 EZ5 d   1     -17.008 -20.312  -2.809  0.00  0.00    -0.346 OA
BRANCH  28  29
ATOM     29  C14 EZ5 d   1     -17.640 -20.339  -4.060  0.00  0.00     0.159 C 
ATOM     30  C28 EZ5 d   1     -16.672 -20.440  -5.264  0.00  0.00     0.110 C 
ATOM     31  C26 EZ5 d   1     -15.799 -19.181  -5.346  0.00  0.00     0.092 C 
ATOM     32  H33 EZ5 d   1     -17.250 -20.546  -6.194  0.00  0.00     0.094 H 
ATOM     33  C24 EZ5 d   1     -16.731 -17.955  -5.493  0.00  0.00     0.090 C 
ATOM     34  H32 EZ5 d   1     -15.146 -19.082  -4.466  0.00  0.00     0.091 H 
ATOM     35  C16 EZ5 d   1     -17.759 -17.918  -4.335  0.00  0.00     0.089 C 
ATOM     36  H31 EZ5 d   1     -17.237 -17.960  -6.470  0.00  0.00     0.091 H 
ATOM     37  O15 EZ5 d   1     -18.397 -19.173  -4.156  0.00  0.00    -0.348 OA
ATOM     38  H19 EZ5 d   1     -17.259 -17.598  -3.409  0.00  0.00     0.090 H 
ATOM     39  H18 EZ5 d   1     -18.309 -21.211  -4.092  0.00  0.00     0.133 H 
BRANCH  30  40
ATOM     40  O29 EZ5 d   1     -15.865 -21.551  -5.086  0.00  0.00    -0.388 OA
ATOM     41  H54 EZ5 d   1     -15.370 -21.456  -4.281  0.00  0.00     0.210 HD
ENDBRANCH  30  40
BRANCH  31  42
ATOM     42  O27 EZ5 d   1     -15.062 -19.304  -6.526  0.00  0.00    -0.390 OA
ATOM     43  H53 EZ5 d   1     -14.530 -20.090  -6.486  0.00  0.00     0.210 HD
ENDBRANCH  31  42
BRANCH  33  44
ATOM     44  O25 EZ5 d   1     -15.925 -16.827  -5.333  0.00  0.00    -0.390 OA
ATOM     45  H52 EZ5 d   1     -16.457 -16.044  -5.416  0.00  0.00     0.210 HD
ENDBRANCH  33  44
BRANCH  35  46
ATOM     46  C17 EZ5 d   1     -18.950 -16.957  -4.701  0.00  0.00     0.047 C 
ATOM     47  H20 EZ5 d   1     -18.573 -15.937  -4.867  0.00  0.00     0.078 H 
ATOM     48  H21 EZ5 d   1     -19.690 -16.947  -3.887  0.00  0.00     0.078 H 
BRANCH  46  49
ATOM     49  O18 EZ5 d   1     -19.539 -17.452  -5.883  0.00  0.00    -0.374 OA
BRANCH  49  50
ATOM     50  C19 EZ5 d   1     -20.263 -16.538  -6.695  0.00  0.00     0.071 C 
BRANCH  50  51
ATOM     51  C20 EZ5 d   1     -19.327 -15.528  -7.366  0.00  0.00    -0.045 C 
ATOM     52  H22 EZ5 d   1     -19.917 -14.837  -7.986  0.00  0.00     0.032 H 
ATOM     53  H23 EZ5 d   1     -18.604 -16.063  -8.000  0.00  0.00     0.032 H 
ATOM     54  H24 EZ5 d   1     -18.788 -14.959  -6.594  0.00  0.00     0.032 H 
ENDBRANCH  50  51
BRANCH  50  55
ATOM     55  C21 EZ5 d   1     -21.214 -15.773  -5.768  0.00  0.00    -0.045 C 
ATOM     56  H25 EZ5 d   1     -21.896 -16.482  -5.276  0.00  0.00     0.032 H 
ATOM     57  H26 EZ5 d   1     -21.799 -15.051  -6.357  0.00  0.00     0.032 H 
ATOM     58  H27 EZ5 d   1     -20.630 -15.236  -5.006  0.00  0.00     0.032 H 
ENDBRANCH  50  55
BRANCH  50  59
ATOM     59  C22 EZ5 d   1     -21.094 -17.225  -7.740  0.00  0.00    -0.080 C 
ATOM     60  C23 EZ5 d   1     -22.151 -17.962  -7.419  0.00  0.00    -0.122 C 
ATOM     61  H29 EZ5 d   1     -22.734 -18.448  -8.200  0.00  0.00     0.066 H 
ATOM     62  H30 EZ5 d   1     -22.435 -18.081  -6.374  0.00  0.00     0.066 H 
ATOM     63  H28 EZ5 d   1     -20.823 -17.116  -8.789  0.00  0.00     0.080 H 
ENDBRANCH  50  59
ENDBRANCH  49  50
ENDBRANCH  46  49
ENDBRANCH  35  46
ENDBRANCH  28  29
ENDBRANCH   7  28
BRANCH   6  64
ATOM     64  O11 EZ5 d   1     -17.167 -22.586  -1.712  0.00  0.00    -0.392 OA
ATOM     65  H51 EZ5 d   1     -16.580 -22.351  -2.421  0.00  0.00     0.210 HD
ENDBRANCH   6  64
BRANCH   5  66
ATOM     66  C09 EZ5 d   1     -19.466 -22.353   0.068  0.00  0.00    -0.070 C 
ATOM     67  H13 EZ5 d   1     -19.418 -23.049  -0.783  0.00  0.00     0.028 H 
ATOM     68  H14 EZ5 d   1     -20.074 -21.479  -0.207  0.00  0.00     0.028 H 
ATOM     69  H15 EZ5 d   1     -19.922 -22.860   0.931  0.00  0.00     0.028 H 
ENDBRANCH   5  66
BRANCH   9  70
ATOM     70  C39 EZ5 d   1     -15.224 -18.599  -0.600  0.00  0.00    -0.020 C 
ATOM     71  H41 EZ5 d   1     -15.090 -19.596  -1.046  0.00  0.00     0.048 H 
BRANCH  70  72
ATOM     72  C40 EZ5 d   1     -14.553 -18.580   0.765  0.00  0.00    -0.068 C 
ATOM     73  H42 EZ5 d   1     -13.480 -18.794   0.649  0.00  0.00     0.028 H 
ATOM     74  H43 EZ5 d   1     -15.012 -19.344   1.410  0.00  0.00     0.028 H 
ATOM     75  H44 EZ5 d   1     -14.682 -17.588   1.223  0.00  0.00     0.028 H 
ENDBRANCH  70  72
BRANCH  70  76
ATOM     76  C41 EZ5 d   1     -14.556 -17.541  -1.510  0.00  0.00     0.002 C 
ATOM     77  H45 EZ5 d   1     -14.402 -16.621  -0.927  0.00  0.00     0.065 H 
ATOM     78  H46 EZ5 d   1     -15.226 -17.331  -2.357  0.00  0.00     0.065 H 
BRANCH  76  79
ATOM     79  N42 EZ5 d   1     -13.263 -17.986  -2.034  0.00  0.00    -0.361 N 
ATOM     80  C43 EZ5 d   1     -12.244 -17.058  -2.203  0.00  0.00     0.213 C 
ATOM     81  O45 EZ5 d   1     -12.425 -15.872  -1.928  0.00  0.00    -0.274 OA
ATOM     82  H50 EZ5 d   1     -13.116 -18.947  -2.267  0.00  0.00     0.162 HD
BRANCH  80  83
ATOM     83  C44 EZ5 d   1     -10.906 -17.554  -2.754  0.00  0.00    -0.003 C 
ATOM     84  H47 EZ5 d   1     -10.205 -16.709  -2.831  0.00  0.00     0.040 H 
ATOM     85  H48 EZ5 d   1     -11.060 -17.994  -3.750  0.00  0.00     0.040 H 
ATOM     86  H49 EZ5 d   1     -10.490 -18.315  -2.077  0.00  0.00     0.040 H 
ENDBRANCH  80  83
ENDBRANCH  76  79
ENDBRANCH  70  76
ENDBRANCH   9  70
BRANCH  12  87
ATOM     87  C35 EZ5 d   1     -20.207 -18.545  -1.265  0.00  0.00    -0.060 C 
ATOM     88  H37 EZ5 d   1     -20.558 -19.585  -1.337  0.00  0.00     0.029 H 
ATOM     89  H38 EZ5 d   1     -19.863 -18.205  -2.253  0.00  0.00     0.029 H 
ATOM     90  H39 EZ5 d   1     -21.032 -17.902  -0.923  0.00  0.00     0.029 H 
ENDBRANCH  12  87
BRANCH  11  91
ATOM     91  O38 EZ5 d   1     -19.413 -16.225   0.656  0.00  0.00    -0.394 OA
ATOM     92  H55 EZ5 d   1     -20.337 -16.298   0.449  0.00  0.00     0.210 HD
ENDBRANCH  11  91
BRANCH   1  93
ATOM     93  C03 EZ5 d   1     -21.500 -20.589   2.902  0.00  0.00     0.026 C 
ATOM     94  H4  EZ5 d   1     -21.637 -21.468   2.255  0.00  0.00     0.075 H 
ATOM     95  H5  EZ5 d   1     -21.988 -19.716   2.443  0.00  0.00     0.075 H 
BRANCH  93  96
ATOM     96  O02 EZ5 d   1     -22.059 -20.839   4.180  0.00  0.00    -0.395 OA
BRANCH  96  97
ATOM     97  C01 EZ5 d   1     -23.435 -21.099   4.106  0.00  0.00     0.004 C 
ATOM     98  H1  EZ5 d   1     -23.828 -21.287   5.116  0.00  0.00     0.066 H 
ATOM     99  H2  EZ5 d   1     -23.608 -21.983   3.475  0.00  0.00     0.066 H 
ATOM    100  H3  EZ5 d   1     -23.949 -20.231   3.669  0.00  0.00     0.066 H 
ENDBRANCH  96  97
ENDBRANCH  93  96
ENDBRANCH   1  93
TORSDOF 23
