REMARK  22 active torsions:
REMARK  status: ('A' for Active; 'I' for Inactive)
REMARK    1  A    between atoms: C4_1  and  O4_44 
REMARK    2  A    between atoms: C5_2  and  C6_3 
REMARK    3  A    between atoms: C6_3  and  O6_43 
REMARK    4  A    between atoms: C2_46  and  N2_4 
REMARK    5  A    between atoms: C3_5  and  O3_45 
REMARK    6  A    between atoms: CBM_8  and  CAV_9 
REMARK    7  A    between atoms: CAV_9  and  OAE_10 
REMARK    8  A    between atoms: CAZ_14  and  CBO_13 
REMARK    9  A    between atoms: NBF_15  and  CAZ_14 
REMARK       I    between atoms: CBK_16  and  NBF_15 
REMARK   10  A    between atoms: CBW_18  and  CBK_16 
REMARK   11  A    between atoms: CBV_20  and  CBJ_21 
REMARK       I    between atoms: CBJ_21  and  NBE_23 
REMARK   12  A    between atoms: NBE_23  and  CAY_24 
REMARK   13  A    between atoms: CAY_24  and  CBN_25 
REMARK   14  A    between atoms: CBL_28  and  CAU_29 
REMARK   15  A    between atoms: CAU_29  and  OAD_30 
REMARK   16  A    between atoms: CBT_34  and  OBG_35 
REMARK   17  A    between atoms: OBG_35  and  CAX_36 
REMARK   18  A    between atoms: CAX_36  and  CAT_37 
REMARK   19  A    between atoms: O1_40  and  CBU_39 
REMARK   20  A    between atoms: C1_41  and  O1_40 
REMARK   21  A    between atoms: CBP_50  and  CAS_51 
REMARK   22  A    between atoms: CAS_51  and  NAA_52 
ROOT
ATOM      1  CBW EZ8 d   1      11.398 -10.073  10.601  0.00  0.00     0.038 C 
ATOM      2  CBB EZ8 d   1      11.825 -10.843  11.767  0.00  0.00    -0.026 C 
ATOM      3  CBV EZ8 d   1      12.647  -9.563   9.836  0.00  0.00     0.038 C 
ATOM      4  CBA EZ8 d   1      13.427  -8.661  10.677  0.00  0.00    -0.026 C 
ATOM      5  CBT EZ8 d   1      13.875  -9.334  11.918  0.00  0.00     0.064 C 
ATOM      6  CBU EZ8 d   1      12.643  -9.942  12.679  0.00  0.00     0.067 C 
ATOM      7  H16 EZ8 d   1      10.841  -9.192  10.952  0.00  0.00     0.056 H 
ATOM      8  H17 EZ8 d   1      12.440 -11.695  11.442  0.00  0.00     0.038 H 
ATOM      9  H18 EZ8 d   1      10.942 -11.213  12.309  0.00  0.00     0.038 H 
ATOM     10  H19 EZ8 d   1      13.256 -10.413   9.493  0.00  0.00     0.056 H 
ATOM     11  H30 EZ8 d   1      12.806  -7.793  10.944  0.00  0.00     0.038 H 
ATOM     12  H31 EZ8 d   1      14.309  -8.321  10.115  0.00  0.00     0.038 H 
ATOM     13  H32 EZ8 d   1      14.324  -8.567  12.567  0.00  0.00     0.087 H 
ATOM     14  H37 EZ8 d   1      13.003 -10.534  13.534  0.00  0.00     0.087 H 
ENDROOT
BRANCH   6  15
ATOM     15  O1  EZ8 d   1      11.837  -8.873  13.152  0.00  0.00    -0.351 OA
BRANCH  15  16
ATOM     16  C1  EZ8 d   1      11.133  -9.132  14.421  0.00  0.00     0.155 C 
ATOM     17  O5  EZ8 d   1      11.972  -9.064  15.583  0.00  0.00    -0.349 OA
ATOM     18  C5  EZ8 d   1      12.563  -7.787  15.836  0.00  0.00     0.089 C 
ATOM     19  C4  EZ8 d   1      11.482  -6.710  15.963  0.00  0.00     0.089 C 
ATOM     20  H2  EZ8 d   1      13.282  -7.525  15.046  0.00  0.00     0.090 H 
ATOM     21  C3  EZ8 d   1      10.588  -6.752  14.722  0.00  0.00     0.088 C 
ATOM     22  H1  EZ8 d   1      10.874  -6.912  16.857  0.00  0.00     0.091 H 
ATOM     23  C2  EZ8 d   1      10.007  -8.157  14.524  0.00  0.00     0.105 C 
ATOM     24  H5  EZ8 d   1      11.176  -6.484  13.832  0.00  0.00     0.090 H 
ATOM     25  H42 EZ8 d   1       9.405  -8.173  13.604  0.00  0.00     0.087 H 
ATOM     26  H38 EZ8 d   1      10.715 -10.149  14.376  0.00  0.00     0.132 H 
BRANCH  18  27
ATOM     27  C6  EZ8 d   1      13.220  -7.891  17.157  0.00  0.00     0.043 C 
ATOM     28  H3  EZ8 d   1      12.623  -8.504  17.848  0.00  0.00     0.078 H 
ATOM     29  H4  EZ8 d   1      13.383  -6.896  17.597  0.00  0.00     0.078 H 
BRANCH  27  30
ATOM     30  O6  EZ8 d   1      14.442  -8.516  16.853  0.00  0.00    -0.398 OA
ATOM     31  H39 EZ8 d   1      14.273  -9.364  16.460  0.00  0.00     0.209 HD
ENDBRANCH  27  30
ENDBRANCH  18  27
BRANCH  19  32
ATOM     32  O4  EZ8 d   1      12.071  -5.425  16.084  0.00  0.00    -0.390 OA
ATOM     33  H40 EZ8 d   1      12.625  -5.403  16.855  0.00  0.00     0.210 HD
ENDBRANCH  19  32
BRANCH  21  34
ATOM     34  O3  EZ8 d   1       9.595  -5.818  14.915  0.00  0.00    -0.391 OA
ATOM     35  H41 EZ8 d   1       9.016  -5.813  14.162  0.00  0.00     0.210 HD
ENDBRANCH  21  34
BRANCH  23  36
ATOM     36  N2  EZ8 d   1       9.219  -8.559  15.604  0.00  0.00    -0.271 N 
ATOM     37  CAR EZ8 d   1       8.001  -8.975  15.320  0.00  0.00     0.022 A 
ATOM     38  CBP EZ8 d   1       7.411  -9.316  16.456  0.00  0.00     0.094 A 
ATOM     39  H43 EZ8 d   1       7.558  -9.029  14.327  0.00  0.00     0.116 H 
ATOM     40  NBC EZ8 d   1       8.272  -9.118  17.455  0.00  0.00    -0.161 NA
ATOM     41  NBD EZ8 d   1       9.381  -8.644  16.917  0.00  0.00     0.005 NA
BRANCH  38  42
ATOM     42  CAS EZ8 d   1       5.986  -9.862  16.498  0.00  0.00     0.122 C 
ATOM     43  H44 EZ8 d   1       6.016 -10.961  16.527  0.00  0.00     0.085 H 
ATOM     44  H45 EZ8 d   1       5.441  -9.534  15.601  0.00  0.00     0.085 H 
BRANCH  42  45
ATOM     45  NAA EZ8 d   1       5.306  -9.362  17.690  0.00  0.00    -0.074 N 
ATOM     46  H46 EZ8 d   1       4.365  -9.723  17.716  0.00  0.00     0.274 HD
ATOM     47  H47 EZ8 d   1       5.279  -8.355  17.663  0.00  0.00     0.274 HD
ATOM     48  H48 EZ8 d   1       5.805  -9.663  18.513  0.00  0.00     0.274 HD
ENDBRANCH  42  45
ENDBRANCH  38  42
ENDBRANCH  23  36
ENDBRANCH  15  16
ENDBRANCH   6  15
BRANCH   5  49
ATOM     49  OBG EZ8 d   1      14.917 -10.360  11.664  0.00  0.00    -0.382 OA
BRANCH  49  50
ATOM     50  CAX EZ8 d   1      15.801 -10.428  12.770  0.00  0.00     0.032 C 
ATOM     51  H33 EZ8 d   1      15.236 -10.328  13.709  0.00  0.00     0.076 H 
ATOM     52  H34 EZ8 d   1      16.547  -9.623  12.704  0.00  0.00     0.076 H 
BRANCH  50  53
ATOM     53  CAT EZ8 d   1      16.498 -11.792  12.723  0.00  0.00     0.022 C 
ATOM     54 CL1  EZ8 d   1      15.346 -13.117  12.262  0.00  0.00    -0.128 Cl
ATOM     55  H35 EZ8 d   1      16.917 -12.013  13.716  0.00  0.00     0.059 H 
ATOM     56  H36 EZ8 d   1      17.311 -11.752  11.983  0.00  0.00     0.059 H 
ENDBRANCH  50  53
ENDBRANCH  49  50
ENDBRANCH   5  49
BRANCH   1  57
ATOM     57  CBK EZ8 d   1      10.430 -10.921   9.736  0.00  0.00     0.223 C 
ATOM     58  NBF EZ8 d   1      11.014 -11.937   9.031  0.00  0.00    -0.356 N 
ATOM     59  H15 EZ8 d   1      12.001 -12.051   9.143  0.00  0.00     0.162 HD
ATOM     60  OAC EZ8 d   1       9.213 -10.667   9.703  0.00  0.00    -0.273 OA
BRANCH  58  61
ATOM     61  CAZ EZ8 d   1      10.331 -12.890   8.114  0.00  0.00     0.019 C 
ATOM     62  H13 EZ8 d   1       9.412 -12.428   7.724  0.00  0.00     0.071 H 
ATOM     63  H14 EZ8 d   1      11.001 -13.137   7.277  0.00  0.00     0.071 H 
BRANCH  61  64
ATOM     64  CBO EZ8 d   1      10.009 -14.048   8.804  0.00  0.00    -0.041 A 
ATOM     65  CAP EZ8 d   1       8.674 -14.311   9.107  0.00  0.00    -0.075 A 
ATOM     66  CAL EZ8 d   1       8.310 -15.457   9.809  0.00  0.00    -0.074 A 
ATOM     67  H6  EZ8 d   1       7.907 -13.613   8.791  0.00  0.00     0.084 H 
ATOM     68  CBM EZ8 d   1       9.235 -16.392  10.206  0.00  0.00    -0.035 A 
ATOM     69  H7  EZ8 d   1       7.265 -15.616  10.050  0.00  0.00     0.084 H 
ATOM     70  CAM EZ8 d   1      10.577 -16.152   9.906  0.00  0.00    -0.074 A 
ATOM     71  CAQ EZ8 d   1      10.957 -15.000   9.195  0.00  0.00    -0.075 A 
ATOM     72  H11 EZ8 d   1      11.333 -16.860  10.224  0.00  0.00     0.084 H 
ATOM     73  H12 EZ8 d   1      12.001 -14.847   8.946  0.00  0.00     0.084 H 
BRANCH  68  74
ATOM     74  CAV EZ8 d   1       8.780 -17.491  10.927  0.00  0.00     0.040 C 
ATOM     75  H8  EZ8 d   1       7.683 -17.537  10.860  0.00  0.00     0.081 H 
ATOM     76  H9  EZ8 d   1       9.079 -17.380  11.980  0.00  0.00     0.081 H 
BRANCH  74  77
ATOM     77  OAE EZ8 d   1       9.327 -18.696  10.414  0.00  0.00    -0.396 OA
ATOM     78  H10 EZ8 d   1       9.069 -18.798   9.505  0.00  0.00     0.209 HD
ENDBRANCH  74  77
ENDBRANCH  68  74
ENDBRANCH  61  64
ENDBRANCH  58  61
ENDBRANCH   1  57
BRANCH   3  79
ATOM     79  CBJ EZ8 d   1      12.197  -8.689   8.666  0.00  0.00     0.223 C 
ATOM     80  OAB EZ8 d   1      11.454  -7.742   8.898  0.00  0.00    -0.273 OA
ATOM     81  NBE EZ8 d   1      12.707  -8.912   7.420  0.00  0.00    -0.356 N 
ATOM     82  H20 EZ8 d   1      13.395  -9.624   7.282  0.00  0.00     0.162 HD
BRANCH  81  83
ATOM     83  CAY EZ8 d   1      12.237  -8.092   6.260  0.00  0.00     0.019 C 
ATOM     84  H21 EZ8 d   1      11.252  -7.677   6.517  0.00  0.00     0.071 H 
ATOM     85  H22 EZ8 d   1      12.138  -8.760   5.392  0.00  0.00     0.071 H 
BRANCH  83  86
ATOM     86  CBN EZ8 d   1      13.079  -7.015   5.886  0.00  0.00    -0.041 A 
ATOM     87  CAN EZ8 d   1      13.905  -6.366   6.804  0.00  0.00    -0.075 A 
ATOM     88  CAJ EZ8 d   1      14.757  -5.324   6.419  0.00  0.00    -0.074 A 
ATOM     89  H23 EZ8 d   1      13.887  -6.677   7.842  0.00  0.00     0.084 H 
ATOM     90  CBL EZ8 d   1      14.797  -4.905   5.099  0.00  0.00    -0.035 A 
ATOM     91  H24 EZ8 d   1      15.388  -4.843   7.157  0.00  0.00     0.084 H 
ATOM     92  CAK EZ8 d   1      13.974  -5.559   4.158  0.00  0.00    -0.074 A 
ATOM     93  CAO EZ8 d   1      13.127  -6.593   4.551  0.00  0.00    -0.075 A 
ATOM     94  H28 EZ8 d   1      14.001  -5.254   3.118  0.00  0.00     0.084 H 
ATOM     95  H29 EZ8 d   1      12.497  -7.077   3.814  0.00  0.00     0.084 H 
BRANCH  90  96
ATOM     96  CAU EZ8 d   1      15.685  -3.880   4.725  0.00  0.00     0.040 C 
ATOM     97  H25 EZ8 d   1      16.240  -4.184   3.825  0.00  0.00     0.081 H 
ATOM     98  H26 EZ8 d   1      16.393  -3.689   5.545  0.00  0.00     0.081 H 
BRANCH  96  99
ATOM     99  OAD EZ8 d   1      14.949  -2.706   4.453  0.00  0.00    -0.396 OA
ATOM    100  H27 EZ8 d   1      14.470  -2.446   5.231  0.00  0.00     0.209 HD
ENDBRANCH  96  99
ENDBRANCH  90  96
ENDBRANCH  83  86
ENDBRANCH  81  83
ENDBRANCH   3  79
TORSDOF 22
