REMARK  2 active torsions:
REMARK  status: ('A' for Active; 'I' for Inactive)
REMARK    1  A    between atoms: C01_1  and  C02_2 
REMARK    2  A    between atoms: C03_3  and  C13_10 
ROOT
ATOM      1  C02 EZB d   1     -13.681 154.820 161.193  0.00  0.00    -0.033 A 
ATOM      2  C03 EZB d   1     -13.034 153.594 161.453  0.00  0.00    -0.018 A 
ATOM      3  C04 EZB d   1     -13.725 152.398 161.278  0.00  0.00    -0.070 A 
ATOM      4  C05 EZB d   1     -15.052 152.398 160.887  0.00  0.00    -0.056 A 
ATOM      5  C06 EZB d   1     -15.713 153.627 160.642  0.00  0.00     0.045 A 
ATOM      6  C07 EZB d   1     -15.059 154.822 160.787  0.00  0.00     0.065 A 
ATOM      7  C08 EZB d   1     -15.832 156.100 160.511  0.00  0.00     0.255 A 
ATOM      8  C10 EZB d   1     -17.824 154.781 159.974  0.00  0.00     0.054 A 
ATOM      9  N09 EZB d   1     -17.172 156.034 160.121  0.00  0.00    -0.341 N 
ATOM     10  N11 EZB d   1     -17.104 153.569 160.232  0.00  0.00    -0.373 N 
ATOM     11  O12 EZB d   1     -15.336 157.203 160.612  0.00  0.00    -0.268 OA
ATOM     12  H4  EZB d   1     -13.217 151.456 161.450  0.00  0.00     0.085 H 
ATOM     13  H5  EZB d   1     -15.584 151.461 160.768  0.00  0.00     0.087 H 
ATOM     14  H6  EZB d   1     -18.178 154.726 158.934  0.00  0.00     0.096 H 
ATOM     15  H7  EZB d   1     -18.688 154.790 160.655  0.00  0.00     0.096 H 
ATOM     16  H14 EZB d   1     -17.677 156.878 159.943  0.00  0.00     0.164 HD
ATOM     17  H15 EZB d   1     -17.573 152.658 160.127  0.00  0.00     0.161 HD
ENDROOT
BRANCH   2  18
ATOM     18  C13 EZB d   1     -11.691 153.441 161.807  0.00  0.00    -0.013 A 
ATOM     19  C14 EZB d   1     -10.919 152.693 160.917  0.00  0.00    -0.071 A 
ATOM     20  C15 EZB d   1      -9.563 152.462 161.153  0.00  0.00    -0.080 A 
ATOM     21  H8  EZB d   1     -11.381 152.284 160.026  0.00  0.00     0.084 H 
ATOM     22  C16 EZB d   1      -8.969 152.970 162.299  0.00  0.00    -0.054 A 
ATOM     23  H9  EZB d   1      -8.977 151.888 160.444  0.00  0.00     0.083 H 
ATOM     24  C17 EZB d   1      -9.745 153.734 163.214  0.00  0.00     0.067 A 
ATOM     25  H10 EZB d   1      -7.919 152.786 162.496  0.00  0.00     0.087 H 
ATOM     26  C18 EZB d   1     -11.076 153.965 162.986  0.00  0.00     0.004 A 
ATOM     27  N22 EZB d   1      -9.115 154.227 164.338  0.00  0.00    -0.260 NA
ATOM     28  C19 EZB d   1     -11.805 154.728 163.944  0.00  0.00    -0.069 A 
ATOM     29  C20 EZB d   1     -11.143 155.215 165.069  0.00  0.00    -0.065 A 
ATOM     30  H11 EZB d   1     -12.861 154.927 163.799  0.00  0.00     0.085 H 
ATOM     31  C21 EZB d   1      -9.785 154.949 165.253  0.00  0.00     0.003 A 
ATOM     32  H12 EZB d   1     -11.684 155.802 165.803  0.00  0.00     0.085 H 
ATOM     33  H13 EZB d   1      -9.272 155.324 166.131  0.00  0.00     0.114 H 
ENDBRANCH   2  18
BRANCH   1  34
ATOM     34  C01 EZB d   1     -12.949 156.141 161.352  0.00  0.00    -0.049 C 
ATOM     35  H1  EZB d   1     -11.912 155.950 161.666  0.00  0.00     0.033 H 
ATOM     36  H2  EZB d   1     -13.456 156.752 162.114  0.00  0.00     0.033 H 
ATOM     37  H3  EZB d   1     -12.949 156.678 160.392  0.00  0.00     0.033 H 
ENDBRANCH   1  34
TORSDOF 2
