REMARK  3 active torsions:
REMARK  status: ('A' for Active; 'I' for Inactive)
REMARK    1  A    between atoms: C07_5  and  N06_28 
REMARK    2  A    between atoms: N13_29  and  C10_8 
REMARK    3  A    between atoms: C24_19  and  C19_15 
ROOT
ATOM      1  C14 IR2 d   1     -67.430 201.189 146.977  0.00  0.00     0.051 A 
ATOM      2  C16 IR2 d   1     -67.163 200.839 149.376  0.00  0.00     0.048 A 
ATOM      3  C17 IR2 d   1     -66.814 201.397 150.647  0.00  0.00    -0.055 A 
ATOM      4  C18 IR2 d   1     -66.887 200.574 151.760  0.00  0.00    -0.070 A 
ATOM      5  C19 IR2 d   1     -67.308 199.238 151.626  0.00  0.00    -0.024 A 
ATOM      6  C20 IR2 d   1     -67.633 198.729 150.360  0.00  0.00    -0.055 A 
ATOM      7  C21 IR2 d   1     -67.570 199.545 149.214  0.00  0.00     0.060 A 
ATOM      8  C22 IR2 d   1     -67.936 198.996 147.860  0.00  0.00     0.265 A 
ATOM      9  N13 IR2 d   1     -67.864 199.865 146.782  0.00  0.00    -0.274 N 
ATOM     10  N15 IR2 d   1     -67.090 201.707 148.257  0.00  0.00    -0.351 N 
ATOM     11  O23 IR2 d   1     -68.289 197.840 147.672  0.00  0.00    -0.267 OA
ATOM     12  H13 IR2 d   1     -67.351 201.845 146.111  0.00  0.00     0.141 H 
ATOM     13  H14 IR2 d   1     -66.502 202.431 150.737  0.00  0.00     0.087 H 
ATOM     14  H15 IR2 d   1     -66.619 200.961 152.737  0.00  0.00     0.084 H 
ATOM     15  H16 IR2 d   1     -67.937 197.693 150.262  0.00  0.00     0.086 H 
ATOM     16  H23 IR2 d   1     -66.798 202.688 148.369  0.00  0.00     0.166 HD
ENDROOT
BRANCH   9  17
ATOM     17  C10 IR2 d   1     -68.104 199.516 145.435  0.00  0.00     0.043 A 
ATOM     18  C09 IR2 d   1     -68.540 200.498 144.560  0.00  0.00    -0.054 A 
ATOM     19  C08 IR2 d   1     -68.685 200.204 143.212  0.00  0.00    -0.055 A 
ATOM     20  H10 IR2 d   1     -68.767 201.492 144.927  0.00  0.00     0.087 H 
ATOM     21  C07 IR2 d   1     -68.381 198.930 142.729  0.00  0.00     0.030 A 
ATOM     22  H9  IR2 d   1     -69.037 200.969 142.529  0.00  0.00     0.087 H 
ATOM     23  C12 IR2 d   1     -67.897 197.959 143.603  0.00  0.00    -0.055 A 
ATOM     24  C11 IR2 d   1     -67.736 198.262 144.949  0.00  0.00    -0.054 A 
ATOM     25  H12 IR2 d   1     -67.647 196.971 143.234  0.00  0.00     0.087 H 
ATOM     26  H11 IR2 d   1     -67.323 197.521 145.624  0.00  0.00     0.087 H 
BRANCH  21  27
ATOM     27  N06 IR2 d   1     -68.535 198.666 141.322  0.00  0.00    -0.377 N 
ATOM     28  C01 IR2 d   1     -68.032 197.438 140.832  0.00  0.00     0.015 C 
ATOM     29  C02 IR2 d   1     -66.688 197.477 140.118  0.00  0.00     0.034 C 
ATOM     30  H1  IR2 d   1     -67.933 196.755 141.688  0.00  0.00     0.067 H 
ATOM     31  H2  IR2 d   1     -68.772 197.035 140.125  0.00  0.00     0.067 H 
ATOM     32  O03 IR2 d   1     -66.230 198.787 139.883  0.00  0.00    -0.388 OA
ATOM     33  H3  IR2 d   1     -66.789 196.962 139.151  0.00  0.00     0.076 H 
ATOM     34  H4  IR2 d   1     -65.946 196.952 140.738  0.00  0.00     0.076 H 
ATOM     35  C04 IR2 d   1     -67.258 199.686 139.486  0.00  0.00     0.034 C 
ATOM     36  C05 IR2 d   1     -68.417 199.776 140.458  0.00  0.00     0.015 C 
ATOM     37  H5  IR2 d   1     -66.817 200.689 139.381  0.00  0.00     0.076 H 
ATOM     38  H6  IR2 d   1     -67.649 199.354 138.513  0.00  0.00     0.076 H 
ATOM     39  H7  IR2 d   1     -69.348 199.862 139.878  0.00  0.00     0.067 H 
ATOM     40  H8  IR2 d   1     -68.283 200.679 141.072  0.00  0.00     0.067 H 
ENDBRANCH  21  27
ENDBRANCH   9  17
BRANCH   5  41
ATOM     41  C24 IR2 d   1     -67.352 198.417 152.764  0.00  0.00    -0.012 A 
ATOM     42  C25 IR2 d   1     -68.029 198.876 153.883  0.00  0.00    -0.054 A 
ATOM     43  C26 IR2 d   1     -68.092 198.097 155.057  0.00  0.00     0.004 A 
ATOM     44  H17 IR2 d   1     -68.515 199.844 153.856  0.00  0.00     0.087 H 
ATOM     45  N27 IR2 d   1     -67.467 196.902 155.067  0.00  0.00    -0.260 NA
ATOM     46  H18 IR2 d   1     -68.629 198.450 155.930  0.00  0.00     0.114 H 
ATOM     47  C28 IR2 d   1     -66.752 196.400 153.979  0.00  0.00     0.067 A 
ATOM     48  C29 IR2 d   1     -66.095 195.124 154.061  0.00  0.00    -0.054 A 
ATOM     49  C33 IR2 d   1     -66.671 197.129 152.828  0.00  0.00     0.004 A 
ATOM     50  C30 IR2 d   1     -65.387 194.590 152.981  0.00  0.00    -0.081 A 
ATOM     51  H19 IR2 d   1     -66.150 194.561 154.986  0.00  0.00     0.087 H 
ATOM     52  C31 IR2 d   1     -65.268 195.320 151.797  0.00  0.00    -0.082 A 
ATOM     53  H20 IR2 d   1     -64.931 193.610 153.062  0.00  0.00     0.083 H 
ATOM     54  C32 IR2 d   1     -65.905 196.576 151.746  0.00  0.00    -0.070 A 
ATOM     55  H21 IR2 d   1     -64.709 194.936 150.952  0.00  0.00     0.083 H 
ATOM     56  H22 IR2 d   1     -65.811 197.159 150.837  0.00  0.00     0.084 H 
ENDBRANCH   5  41
TORSDOF 3
