REMARK  3 active torsions:
REMARK  status: ('A' for Active; 'I' for Inactive)
REMARK    1  A    between atoms: C20_2  and  C21_1 
REMARK    2  A    between atoms: C09_19  and  C10_3 
REMARK    3  A    between atoms: C02_13  and  C01_12 
ROOT
ATOM      1  C20 EUN d   1     -41.944   5.844 -12.465  0.00  0.00    -0.033 A 
ATOM      2  C02 EUN d   1     -43.429   2.225 -14.303  0.00  0.00     0.074 A 
ATOM      3  C04 EUN d   1     -43.841   4.589 -13.737  0.00  0.00     0.256 A 
ATOM      4  C05 EUN d   1     -42.474   4.659 -13.083  0.00  0.00     0.065 A 
ATOM      5  C06 EUN d   1     -41.705   3.535 -13.085  0.00  0.00     0.046 A 
ATOM      6  C07 EUN d   1     -40.417   3.537 -12.493  0.00  0.00    -0.056 A 
ATOM      7  C08 EUN d   1     -39.902   4.673 -11.911  0.00  0.00    -0.070 A 
ATOM      8  C09 EUN d   1     -40.659   5.828 -11.878  0.00  0.00    -0.018 A 
ATOM      9  N03 EUN d   1     -44.268   3.380 -14.323  0.00  0.00    -0.336 N 
ATOM     10  N22 EUN d   1     -42.150   2.290 -13.687  0.00  0.00    -0.368 N 
ATOM     11  O23 EUN d   1     -44.577   5.560 -13.759  0.00  0.00    -0.268 OA
ATOM     12  H13 EUN d   1     -42.992   2.535 -15.264  0.00  0.00     0.106 H 
ATOM     13  H14 EUN d   1     -39.827   2.628 -12.499  0.00  0.00     0.087 H 
ATOM     14  H15 EUN d   1     -38.907   4.661 -11.481  0.00  0.00     0.085 H 
ATOM     15  H16 EUN d   1     -45.168   3.331 -14.757  0.00  0.00     0.164 HD
ATOM     16  H17 EUN d   1     -41.542   1.459 -13.668  0.00  0.00     0.161 HD
ENDROOT
BRANCH   8  17
ATOM     17  C10 EUN d   1     -40.100   6.961 -11.287  0.00  0.00    -0.011 A 
ATOM     18  C11 EUN d   1     -38.979   7.515 -11.883  0.00  0.00    -0.054 A 
ATOM     19  C12 EUN d   1     -38.382   8.664 -11.348  0.00  0.00     0.004 A 
ATOM     20  H4  EUN d   1     -38.560   7.056 -12.771  0.00  0.00     0.087 H 
ATOM     21  N13 EUN d   1     -38.911   9.240 -10.252  0.00  0.00    -0.260 NA
ATOM     22  H5  EUN d   1     -37.499   9.087 -11.814  0.00  0.00     0.114 H 
ATOM     23  C14 EUN d   1     -40.037   8.718  -9.637  0.00  0.00     0.067 A 
ATOM     24  C15 EUN d   1     -40.552   9.369  -8.483  0.00  0.00    -0.054 A 
ATOM     25  C19 EUN d   1     -40.635   7.594 -10.117  0.00  0.00     0.004 A 
ATOM     26  C16 EUN d   1     -41.673   8.868  -7.835  0.00  0.00    -0.081 A 
ATOM     27  H6  EUN d   1     -40.066  10.262  -8.107  0.00  0.00     0.087 H 
ATOM     28  C17 EUN d   1     -42.289   7.721  -8.325  0.00  0.00    -0.082 A 
ATOM     29  H7  EUN d   1     -42.065   9.366  -6.955  0.00  0.00     0.083 H 
ATOM     30  C18 EUN d   1     -41.782   7.084  -9.459  0.00  0.00    -0.070 A 
ATOM     31  H8  EUN d   1     -43.164   7.321  -7.825  0.00  0.00     0.083 H 
ATOM     32  H9  EUN d   1     -42.269   6.193  -9.839  0.00  0.00     0.084 H 
ENDBRANCH   8  17
BRANCH   1  33
ATOM     33  C21 EUN d   1     -42.762   7.116 -12.447  0.00  0.00    -0.049 C 
ATOM     34  H1  EUN d   1     -43.726   6.939 -12.946  0.00  0.00     0.033 H 
ATOM     35  H2  EUN d   1     -42.216   7.911 -12.976  0.00  0.00     0.033 H 
ATOM     36  H3  EUN d   1     -42.939   7.423 -11.406  0.00  0.00     0.033 H 
ENDBRANCH   1  33
BRANCH   2  37
ATOM     37  C01 EUN d   1     -43.854   0.919 -14.918  0.00  0.00    -0.042 C 
ATOM     38  H10 EUN d   1     -44.859   1.028 -15.351  0.00  0.00     0.032 H 
ATOM     39  H11 EUN d   1     -43.871   0.138 -14.144  0.00  0.00     0.032 H 
ATOM     40  H12 EUN d   1     -43.143   0.637 -15.708  0.00  0.00     0.032 H 
ENDBRANCH   2  37
TORSDOF 3
