REMARK  6 active torsions:
REMARK  status: ('A' for Active; 'I' for Inactive)
REMARK    1  A    between atoms: P1_2  and  C6_5 
REMARK    2  A    between atoms: C6_5  and  C7_6 
REMARK    3  A    between atoms: C6_5  and  P_7 
REMARK    4  A    between atoms: C6_5  and  O_11 
REMARK    5  A    between atoms: O_11  and  C5_12 
REMARK    6  A    between atoms: C2_16  and  O7_17 
ROOT
ATOM      1  C6  L69 d   1       5.607  52.259 313.600  0.00  0.00     0.289 C 
ENDROOT
BRANCH   1   2
ATOM      2  P1  L69 d   1       7.148  51.913 312.657  0.00  0.00     0.310 P 
ATOM      3  O5  L69 d   1       7.928  53.184 312.658  0.00  0.00    -0.637 OA
ATOM      4  O4  L69 d   1       7.915  50.837 313.475  0.00  0.00    -0.637 OA
ATOM      5  O6  L69 d   1       6.731  51.357 311.325  0.00  0.00    -0.637 OA
ENDBRANCH   1   2
BRANCH   1   6
ATOM      6  C7  L69 d   1       4.685  51.024 313.634  0.00  0.00    -0.022 C 
ATOM      7  H1  L69 d   1       5.238  50.165 314.041  0.00  0.00     0.033 H 
ATOM      8  H2  L69 d   1       4.345  50.792 312.614  0.00  0.00     0.033 H 
ATOM      9  H3  L69 d   1       3.814  51.234 314.272  0.00  0.00     0.033 H 
ENDBRANCH   1   6
BRANCH   1  10
ATOM     10  P   L69 d   1       4.752  53.743 312.930  0.00  0.00     0.310 P 
ATOM     11  O3  L69 d   1       4.442  53.495 311.480  0.00  0.00    -0.637 OA
ATOM     12  O2  L69 d   1       3.507  53.961 313.788  0.00  0.00    -0.637 OA
ATOM     13  O1  L69 d   1       5.753  54.887 313.067  0.00  0.00    -0.637 OA
ENDBRANCH   1  10
BRANCH   1  14
ATOM     14  O   L69 d   1       6.123  52.748 314.872  0.00  0.00    -0.314 OA
BRANCH  14  15
ATOM     15  C5  L69 d   1       5.804  52.119 316.090  0.00  0.00     0.071 A 
ATOM     16  C   L69 d   1       4.572  52.366 316.667  0.00  0.00    -0.048 A 
ATOM     17  C1  L69 d   1       4.236  51.747 317.858  0.00  0.00    -0.048 A 
ATOM     18  H4  L69 d   1       3.872  53.042 316.188  0.00  0.00     0.087 H 
ATOM     19  C2  L69 d   1       5.138  50.898 318.480  0.00  0.00     0.065 A 
ATOM     20  H8  L69 d   1       3.265  51.926 318.306  0.00  0.00     0.087 H 
ATOM     21  C3  L69 d   1       6.370  50.646 317.895  0.00  0.00    -0.048 A 
ATOM     22  C4  L69 d   1       6.703  51.251 316.694  0.00  0.00    -0.048 A 
ATOM     23  H6  L69 d   1       7.072  49.976 318.377  0.00  0.00     0.087 H 
ATOM     24  H5  L69 d   1       7.661  51.048 316.228  0.00  0.00     0.087 H 
BRANCH  19  25
ATOM     25  O7  L69 d   1       4.806  50.370 319.703  0.00  0.00    -0.361 OA
ATOM     26  H7  L69 d   1       4.835  49.422 319.656  0.00  0.00     0.217 HD
ENDBRANCH  19  25
ENDBRANCH  14  15
ENDBRANCH   1  14
TORSDOF 6
