REMARK  2 active torsions:
REMARK  status: ('A' for Active; 'I' for Inactive)
REMARK    1  A    between atoms: C8_6  and  C1_14 
REMARK    2  A    between atoms: C16_18  and  C9_23 
ROOT
ATOM      1  N1  F0N d   1     -21.701 -26.007 -14.244  0.00  0.00    -0.357 N 
ATOM      2  C8  F0N d   1     -21.683 -26.580 -16.470  0.00  0.00     0.006 A 
ATOM      3  C10 F0N d   1     -21.545 -24.839 -14.912  0.00  0.00     0.043 A 
ATOM      4  C13 F0N d   1     -21.257 -22.777 -16.807  0.00  0.00    -0.082 A 
ATOM      5  C15 F0N d   1     -21.529 -25.109 -16.369  0.00  0.00     0.001 A 
ATOM      6  C11 F0N d   1     -21.413 -23.519 -14.487  0.00  0.00    -0.056 A 
ATOM      7  C12 F0N d   1     -21.274 -22.505 -15.436  0.00  0.00    -0.081 A 
ATOM      8  C14 F0N d   1     -21.385 -24.080 -17.291  0.00  0.00    -0.070 A 
ATOM      9  C9  F0N d   1     -21.779 -27.072 -15.078  0.00  0.00     0.050 A 
ATOM     10  H1  F0N d   1     -21.754 -26.078 -13.218  0.00  0.00     0.166 HD
ATOM     11  H6  F0N d   1     -21.142 -21.959 -17.509  0.00  0.00     0.083 H 
ATOM     12  H11 F0N d   1     -21.418 -23.282 -13.429  0.00  0.00     0.086 H 
ATOM     13  H12 F0N d   1     -21.177 -21.479 -15.101  0.00  0.00     0.083 H 
ATOM     14  H13 F0N d   1     -21.372 -24.283 -18.356  0.00  0.00     0.084 H 
ENDROOT
BRANCH   2  15
ATOM     15  C1  F0N d   1     -21.722 -27.284 -17.785  0.00  0.00     0.067 A 
ATOM     16  N   F0N d   1     -23.011 -27.046 -18.469  0.00  0.00    -0.344 N 
ATOM     17  C   F0N d   1     -22.729 -26.577 -19.706  0.00  0.00     0.253 A 
ATOM     18  H9  F0N d   1     -23.922 -27.203 -18.088  0.00  0.00     0.163 HD
ATOM     19  O   F0N d   1     -23.640 -26.277 -20.561  0.00  0.00    -0.268 OA
ATOM     20  C3  F0N d   1     -21.286 -26.436 -20.001  0.00  0.00     0.040 A 
ATOM     21  C4  F0N d   1     -20.518 -26.019 -21.069  0.00  0.00    -0.067 A 
ATOM     22  C2  F0N d   1     -20.691 -26.889 -18.746  0.00  0.00    -0.015 A 
ATOM     23  C5  F0N d   1     -19.137 -26.055 -20.885  0.00  0.00    -0.082 A 
ATOM     24  H2  F0N d   1     -20.963 -25.683 -21.998  0.00  0.00     0.085 H 
ATOM     25  C6  F0N d   1     -18.550 -26.495 -19.692  0.00  0.00    -0.082 A 
ATOM     26  H3  F0N d   1     -18.494 -25.731 -21.695  0.00  0.00     0.083 H 
ATOM     27  C7  F0N d   1     -19.318 -26.922 -18.606  0.00  0.00    -0.073 A 
ATOM     28  H4  F0N d   1     -17.469 -26.505 -19.609  0.00  0.00     0.083 H 
ATOM     29  H5  F0N d   1     -18.854 -27.266 -17.689  0.00  0.00     0.084 H 
ATOM     30  H10 F0N d   1     -21.611 -28.360 -17.583  0.00  0.00     0.088 H 
ENDBRANCH   2  15
BRANCH   9  31
ATOM     31  C16 F0N d   1     -21.963 -28.484 -14.678  0.00  0.00     0.142 C 
ATOM     32  C17 F0N d   1     -20.913 -28.932 -13.682  0.00  0.00    -0.032 C 
ATOM     33  C18 F0N d   1     -21.629 -29.960 -12.816  0.00  0.00    -0.040 C 
ATOM     34  H7  F0N d   1     -20.566 -28.084 -13.073  0.00  0.00     0.036 H 
ATOM     35  H8  F0N d   1     -20.055 -29.387 -14.199  0.00  0.00     0.036 H 
ATOM     36  C19 F0N d   1     -23.117 -29.658 -12.941  0.00  0.00     0.083 C 
ATOM     37  H15 F0N d   1     -21.308 -29.866 -11.768  0.00  0.00     0.035 H 
ATOM     38  H16 F0N d   1     -21.415 -30.977 -13.176  0.00  0.00     0.035 H 
ATOM     39  N2  F0N d   1     -23.267 -28.632 -13.996  0.00  0.00    -0.066 N 
ATOM     40  H17 F0N d   1     -23.506 -29.276 -11.986  0.00  0.00     0.075 H 
ATOM     41  H18 F0N d   1     -23.665 -30.570 -13.221  0.00  0.00     0.075 H 
ATOM     42  H19 F0N d   1     -23.969 -28.923 -14.659  0.00  0.00     0.278 HD
ATOM     43  H20 F0N d   1     -23.539 -27.754 -13.583  0.00  0.00     0.278 HD
ATOM     44  H14 F0N d   1     -21.924 -29.122 -15.573  0.00  0.00     0.094 H 
ENDBRANCH   9  31
TORSDOF 2
