REMARK  13 active torsions:
REMARK  status: ('A' for Active; 'I' for Inactive)
REMARK    1  A    between atoms: C3_2  and  C2_1 
REMARK    2  A    between atoms: C2_1  and  O1_24 
REMARK    3  A    between atoms: C3_2  and  C4_25 
REMARK    4  A    between atoms: N12_29  and  C3_2 
REMARK    5  A    between atoms: C19_11  and  C15_9 
REMARK    6  A    between atoms: N24_34  and  C23_13 
REMARK    7  A    between atoms: C25_14  and  N24_34 
REMARK    8  A    between atoms: C32_38  and  C31_17 
REMARK       I    between atoms: N34_40  and  C35_18 
REMARK    9  A    between atoms: C35_18  and  O37_42 
REMARK   10  A    between atoms: O37_42  and  C38_19 
REMARK   11  A    between atoms: C30_37  and  C29_36 
REMARK   12  A    between atoms: C33_39  and  C32_38 
REMARK   13  A    between atoms: C33_39  and  N34_40 
ROOT
ATOM      1  C25 F0H d   1      12.565   8.826  41.936  0.00  0.00     0.053 A 
ATOM      2  C26 F0H d   1      11.431   9.203  41.219  0.00  0.00    -0.040 A 
ATOM      3  C27 F0H d   1      11.474  10.340  40.429  0.00  0.00     0.006 A 
ATOM      4  N28 F0H d   1      12.572  11.107  40.304  0.00  0.00    -0.252 NA
ATOM      5  C29 F0H d   1      13.671  10.731  40.992  0.00  0.00     0.111 A 
ATOM      6  C46 F0H d   1      13.705   9.607  41.804  0.00  0.00    -0.021 A 
ATOM      7  H11 F0H d   1      10.524   8.612  41.279  0.00  0.00     0.089 H 
ATOM      8  H12 F0H d   1      10.580  10.625  39.886  0.00  0.00     0.114 H 
ATOM      9  H34 F0H d   1      14.614   9.341  42.331  0.00  0.00     0.091 H 
ENDROOT
BRANCH   1  10
ATOM     10  N24 F0H d   1      12.693   7.678  42.751  0.00  0.00    -0.188 N 
ATOM     11  H22 F0H d   1      13.660   7.329  42.809  0.00  0.00     0.184 HD
BRANCH  10  12
ATOM     12  C23 F0H d   1      11.815   6.938  43.473  0.00  0.00     0.727 A 
ATOM     13  N22 F0H d   1      12.288   5.809  44.043  0.00  0.00    -0.075 NA
ATOM     14  C21 F0H d   1      11.393   5.092  44.739  0.00  0.00     0.023 A 
ATOM     15  C20 F0H d   1      10.087   5.483  44.874  0.00  0.00    -0.036 A 
ATOM     16  H10 F0H d   1      11.714   4.171  45.211  0.00  0.00     0.115 H 
ATOM     17  C19 F0H d   1       9.688   6.671  44.286  0.00  0.00     0.087 A 
ATOM     18  H21 F0H d   1       9.382   4.875  45.429  0.00  0.00     0.089 H 
ATOM     19  N47 F0H d   1      10.554   7.402  43.571  0.00  0.00    -0.062 NA
BRANCH  17  20
ATOM     20  C15 F0H d   1       8.288   7.166  44.342  0.00  0.00    -0.000 A 
ATOM     21  C14 F0H d   1       7.921   8.323  43.659  0.00  0.00    -0.056 A 
ATOM     22  C13 F0H d   1       6.625   8.762  43.681  0.00  0.00    -0.015 A 
ATOM     23  H8  F0H d   1       8.671   8.883  43.103  0.00  0.00     0.086 H 
ATOM     24  N12 F0H d   1       5.643   8.068  44.353  0.00  0.00    -0.313 N 
ATOM     25  H7  F0H d   1       6.364   9.680  43.156  0.00  0.00     0.111 H 
ATOM     26  C17 F0H d   1       5.935   6.869  45.034  0.00  0.00     0.248 A 
ATOM     27  C16 F0H d   1       7.299   6.453  44.994  0.00  0.00    -0.005 A 
ATOM     28  O18 F0H d   1       5.023   6.275  45.639  0.00  0.00    -0.268 OA
ATOM     29  H9  F0H d   1       7.574   5.530  45.501  0.00  0.00     0.093 H 
BRANCH  24  30
ATOM     30  C3  F0H d   1       4.213   8.523  44.359  0.00  0.00     0.065 C 
ATOM     31  H3  F0H d   1       3.591   7.618  44.423  0.00  0.00     0.084 H 
BRANCH  30  32
ATOM     32  C2  F0H d   1       3.845   9.235  43.049  0.00  0.00     0.040 C 
ATOM     33  H1  F0H d   1       4.274  10.248  43.061  0.00  0.00     0.077 H 
ATOM     34  H2  F0H d   1       2.749   9.302  42.976  0.00  0.00     0.077 H 
BRANCH  32  35
ATOM     35  O1  F0H d   1       4.341   8.538  41.912  0.00  0.00    -0.398 OA
ATOM     36  H20 F0H d   1       4.095   9.006  41.123  0.00  0.00     0.209 HD
ENDBRANCH  32  35
ENDBRANCH  30  32
BRANCH  30  37
ATOM     37  C4  F0H d   1       3.866   9.384  45.563  0.00  0.00    -0.030 A 
ATOM     38  C5  F0H d   1       2.716   9.086  46.295  0.00  0.00    -0.073 A 
ATOM     39  C6  F0H d   1       2.350   9.856  47.385  0.00  0.00    -0.058 A 
ATOM     40  H4  F0H d   1       2.102   8.241  46.006  0.00  0.00     0.084 H 
ATOM     41  C7  F0H d   1       3.126  10.940  47.747  0.00  0.00     0.072 A 
ATOM     42  H5  F0H d   1       1.459   9.610  47.952  0.00  0.00     0.086 H 
ATOM     43 CL8  F0H d   1       2.643  11.898  49.110  0.00  0.00    -0.081 Cl
ATOM     44  C9  F0H d   1       4.256  11.249  47.019  0.00  0.00     0.138 A 
ATOM     45  C11 F0H d   1       4.628  10.494  45.931  0.00  0.00    -0.036 A 
ATOM     46  F10 F0H d   1       4.997  12.321  47.393  0.00  0.00    -0.204 F 
ATOM     47  H6  F0H d   1       5.511  10.760  45.361  0.00  0.00     0.089 H 
ENDBRANCH  30  37
ENDBRANCH  24  30
ENDBRANCH  17  20
ENDBRANCH  10  12
ENDBRANCH   1  10
BRANCH   5  48
ATOM     48  C30 F0H d   1      14.848  11.547  40.863  0.00  0.00    -0.047 C 
ATOM     49  C31 F0H d   1      15.830  12.219  40.759  0.00  0.00    -0.098 C 
BRANCH  49  50
ATOM     50  C32 F0H d   1      17.036  13.042  40.632  0.00  0.00     0.006 C 
ATOM     51  H23 F0H d   1      17.260  13.495  41.609  0.00  0.00     0.054 H 
ATOM     52  H24 F0H d   1      16.846  13.836  39.895  0.00  0.00     0.054 H 
BRANCH  50  53
ATOM     53  C33 F0H d   1      18.246  12.231  40.179  0.00  0.00     0.007 C 
ATOM     54  H25 F0H d   1      18.271  12.216  39.079  0.00  0.00     0.065 H 
ATOM     55  H26 F0H d   1      18.146  11.203  40.557  0.00  0.00     0.065 H 
BRANCH  53  56
ATOM     56  N34 F0H d   1      19.496  12.791  40.669  0.00  0.00    -0.336 N 
ATOM     57  C35 F0H d   1      20.660  12.125  40.622  0.00  0.00     0.360 C 
ATOM     58  O36 F0H d   1      20.811  11.011  40.158  0.00  0.00    -0.239 OA
ATOM     59  H27 F0H d   1      19.488  13.712  41.058  0.00  0.00     0.164 HD
BRANCH  57  60
ATOM     60  O37 F0H d   1      21.631  12.885  41.165  0.00  0.00    -0.299 OA
BRANCH  60  61
ATOM     61  C38 F0H d   1      22.986  12.348  41.275  0.00  0.00     0.050 C 
ATOM     62  C39 F0H d   1      23.600  13.054  42.499  0.00  0.00    -0.040 C 
ATOM     63  C40 F0H d   1      25.096  13.382  42.463  0.00  0.00    -0.060 C 
ATOM     64  H14 F0H d   1      23.428  12.406  43.371  0.00  0.00     0.036 H 
ATOM     65  H15 F0H d   1      23.060  14.003  42.635  0.00  0.00     0.036 H 
ATOM     66  C41 F0H d   1      25.481  14.775  41.958  0.00  0.00    -0.050 C 
ATOM     67  H16 F0H d   1      25.584  12.644  41.810  0.00  0.00     0.033 H 
ATOM     68  H17 F0H d   1      25.485  13.279  43.487  0.00  0.00     0.033 H 
ATOM     69  C42 F0H d   1      25.953  14.814  40.536  0.00  0.00    -0.107 C 
ATOM     70  H28 F0H d   1      26.288  15.161  42.598  0.00  0.00     0.038 H 
ATOM     71  H29 F0H d   1      24.600  15.427  42.045  0.00  0.00     0.038 H 
ATOM     72  C43 F0H d   1      25.248  14.492  39.466  0.00  0.00    -0.106 C 
ATOM     73  H18 F0H d   1      26.978  15.140  40.368  0.00  0.00     0.076 H 
ATOM     74  C44 F0H d   1      23.829  14.010  39.451  0.00  0.00    -0.048 C 
ATOM     75  H19 F0H d   1      25.746  14.586  38.502  0.00  0.00     0.076 H 
ATOM     76  C45 F0H d   1      23.657  12.560  39.908  0.00  0.00    -0.037 C 
ATOM     77  H30 F0H d   1      23.446  14.096  38.423  0.00  0.00     0.038 H 
ATOM     78  H31 F0H d   1      23.238  14.655  40.118  0.00  0.00     0.038 H 
ATOM     79  H32 F0H d   1      23.049  12.041  39.153  0.00  0.00     0.037 H 
ATOM     80  H33 F0H d   1      24.656  12.102  39.951  0.00  0.00     0.037 H 
ATOM     81  H13 F0H d   1      22.959  11.267  41.477  0.00  0.00     0.084 H 
ENDBRANCH  60  61
ENDBRANCH  57  60
ENDBRANCH  53  56
ENDBRANCH  50  53
ENDBRANCH  49  50
ENDBRANCH   5  48
TORSDOF 13
