REMARK  14 active torsions:
REMARK  status: ('A' for Active; 'I' for Inactive)
REMARK    1  A    between atoms: C03_10  and  C02_9 
REMARK       I    between atoms: C02_9  and  N19_45 
REMARK    2  A    between atoms: N04_11  and  C03_10 
REMARK    3  A    between atoms: C09_16  and  C07_14 
REMARK       I    between atoms: N0B_18  and  C09_16 
REMARK    4  A    between atoms: C0C_19  and  N0B_18 
REMARK    5  A    between atoms: C0J_26  and  C0I_25 
REMARK    6  A    between atoms: C0P_32  and  C0N_30 
REMARK       I    between atoms: N0R_34  and  C0P_32 
REMARK    7  A    between atoms: C0S_35  and  N0R_34 
REMARK    8  A    between atoms: C0T_36  and  C0S_35 
REMARK    9  A    between atoms: C0U_37  and  C0T_36 
REMARK   10  A    between atoms: N0V_38  and  C0U_37 
REMARK       I    between atoms: C0W_39  and  N0V_38 
REMARK   11  A    between atoms: O0Y_41  and  C0W_39 
REMARK   12  A    between atoms: O0Y_41  and  C0Z_42 
REMARK   13  A    between atoms: N1C_48  and  C1F_51 
REMARK   14  A    between atoms: C1I_54  and  C1L_57 
ROOT
ATOM      1  C0C F0E d   1       8.234   6.768  44.527  0.00  0.00     0.035 A 
ATOM      2  C0D F0E d   1       8.521   5.655  45.311  0.00  0.00    -0.055 A 
ATOM      3  C0E F0E d   1       9.782   5.097  45.275  0.00  0.00    -0.053 A 
ATOM      4  C0F F0E d   1      10.773   5.712  44.515  0.00  0.00     0.062 A 
ATOM      5  N0G F0E d   1      12.085   5.400  44.338  0.00  0.00    -0.277 N 
ATOM      6  N0H F0E d   1      12.677   6.273  43.497  0.00  0.00    -0.173 NA
ATOM      7  C0I F0E d   1      11.741   7.160  43.131  0.00  0.00     0.100 A 
ATOM      8  C17 F0E d   1      10.531   6.838  43.767  0.00  0.00     0.025 A 
ATOM      9  C18 F0E d   1       9.238   7.377  43.784  0.00  0.00    -0.043 A 
ATOM     10  H26 F0E d   1       7.756   5.227  45.949  0.00  0.00     0.087 H 
ATOM     11  H27 F0E d   1       9.998   4.192  45.831  0.00  0.00     0.087 H 
ATOM     12  H28 F0E d   1      12.562   4.604  44.786  0.00  0.00     0.189 HD
ATOM     13  H41 F0E d   1       9.020   8.273  43.215  0.00  0.00     0.088 H 
ENDROOT
BRANCH   1  14
ATOM     14  N0B F0E d   1       6.946   7.341  44.526  0.00  0.00    -0.327 N 
ATOM     15  C09 F0E d   1       5.795   6.795  44.950  0.00  0.00     0.228 C 
ATOM     16  O0A F0E d   1       5.697   5.669  45.415  0.00  0.00    -0.273 OA
ATOM     17  H25 F0E d   1       6.881   8.271  44.164  0.00  0.00     0.169 HD
BRANCH  15  18
ATOM     18  C07 F0E d   1       4.574   7.696  44.818  0.00  0.00     0.049 C 
ATOM     19  C06 F0E d   1       4.612   8.840  45.838  0.00  0.00    -0.029 C 
ATOM     20  C05 F0E d   1       3.355   8.639  46.686  0.00  0.00     0.085 C 
ATOM     21  H20 F0E d   1       5.516   8.775  46.461  0.00  0.00     0.036 H 
ATOM     22  H21 F0E d   1       4.586   9.815  45.330  0.00  0.00     0.036 H 
ATOM     23  N04 F0E d   1       3.039   7.221  46.529  0.00  0.00    -0.062 N 
ATOM     24  H18 F0E d   1       3.554   8.880  47.741  0.00  0.00     0.076 H 
ATOM     25  H19 F0E d   1       2.530   9.266  46.316  0.00  0.00     0.076 H 
ATOM     26  C08 F0E d   1       3.263   6.973  45.100  0.00  0.00     0.095 C 
ATOM     27  H17 F0E d   1       3.690   6.677  47.073  0.00  0.00     0.280 HD
ATOM     28  H23 F0E d   1       2.445   7.391  44.495  0.00  0.00     0.077 H 
ATOM     29  H24 F0E d   1       3.356   5.896  44.897  0.00  0.00     0.077 H 
ATOM     30  H22 F0E d   1       4.557   8.105  43.797  0.00  0.00     0.057 H 
BRANCH  23  31
ATOM     31  C03 F0E d   1       1.694   6.840  46.950  0.00  0.00     0.156 C 
ATOM     32  H15 F0E d   1       0.981   7.565  46.531  0.00  0.00     0.090 H 
ATOM     33  H16 F0E d   1       1.476   5.838  46.551  0.00  0.00     0.090 H 
BRANCH  31  34
ATOM     34  C02 F0E d   1       1.514   6.806  48.454  0.00  0.00     0.245 C 
ATOM     35  O01 F0E d   1       2.497   6.954  49.175  0.00  0.00    -0.272 OA
ATOM     36  N19 F0E d   1       0.270   6.618  48.947  0.00  0.00    -0.348 N 
ATOM     37  C1A F0E d   1      -0.022   6.755  50.367  0.00  0.00     0.009 C 
ATOM     38  C1E F0E d   1      -0.968   6.788  48.186  0.00  0.00     0.009 C 
ATOM     39  C1B F0E d   1      -0.503   8.163  50.638  0.00  0.00    -0.002 C 
ATOM     40  H42 F0E d   1       0.889   6.558  50.951  0.00  0.00     0.066 H 
ATOM     41  H43 F0E d   1      -0.804   6.037  50.654  0.00  0.00     0.066 H 
ATOM     42  N1C F0E d   1      -1.678   8.520  49.815  0.00  0.00    -0.280 NA
ATOM     43  H44 F0E d   1       0.313   8.866  50.414  0.00  0.00     0.058 H 
ATOM     44  H45 F0E d   1      -0.776   8.246  51.700  0.00  0.00     0.058 H 
ATOM     45  C1D F0E d   1      -1.504   8.199  48.381  0.00  0.00    -0.002 C 
ATOM     46  H46 F0E d   1      -0.796   8.915  47.938  0.00  0.00     0.058 H 
ATOM     47  H47 F0E d   1      -2.477   8.285  47.875  0.00  0.00     0.058 H 
ATOM     48  H48 F0E d   1      -1.716   6.062  48.538  0.00  0.00     0.066 H 
ATOM     49  H49 F0E d   1      -0.766   6.619  47.118  0.00  0.00     0.066 H 
BRANCH  42  50
ATOM     50  C1F F0E d   1      -2.052   9.899  50.107  0.00  0.00     0.010 A 
ATOM     51  C1G F0E d   1      -2.557  10.752  49.120  0.00  0.00    -0.061 A 
ATOM     52  C1H F0E d   1      -2.898  12.064  49.431  0.00  0.00    -0.068 A 
ATOM     53  H50 F0E d   1      -2.683  10.388  48.107  0.00  0.00     0.086 H 
ATOM     54  C1I F0E d   1      -2.736  12.560  50.727  0.00  0.00     0.012 A 
ATOM     55  H51 F0E d   1      -3.295  12.711  48.657  0.00  0.00     0.085 H 
ATOM     56  C1J F0E d   1      -2.203  11.715  51.698  0.00  0.00    -0.068 A 
ATOM     57  C1K F0E d   1      -1.882  10.409  51.402  0.00  0.00    -0.061 A 
ATOM     58  H52 F0E d   1      -2.039  12.091  52.701  0.00  0.00     0.085 H 
ATOM     59  H53 F0E d   1      -1.492   9.765  52.182  0.00  0.00     0.086 H 
BRANCH  54  60
ATOM     60  C1L F0E d   1      -3.040  13.974  51.061  0.00  0.00     0.159 A 
ATOM     61  N1M F0E d   1      -3.830  14.652  50.217  0.00  0.00    -0.241 NA
ATOM     62  C1N F0E d   1      -4.062  15.937  50.525  0.00  0.00     0.006 A 
ATOM     63  C1O F0E d   1      -3.517  16.522  51.642  0.00  0.00    -0.049 A 
ATOM     64  H54 F0E d   1      -4.696  16.529  49.875  0.00  0.00     0.114 H 
ATOM     65  C1P F0E d   1      -2.710  15.759  52.448  0.00  0.00     0.006 A 
ATOM     66  H55 F0E d   1      -3.719  17.560  51.881  0.00  0.00     0.087 H 
ATOM     67  N1Q F0E d   1      -2.457  14.475  52.164  0.00  0.00    -0.241 NA
ATOM     68  H56 F0E d   1      -2.268  16.204  53.332  0.00  0.00     0.114 H 
ENDBRANCH  54  60
ENDBRANCH  42  50
ENDBRANCH  31  34
ENDBRANCH  23  31
ENDBRANCH  15  18
ENDBRANCH   1  14
BRANCH   7  69
ATOM     69  C0J F0E d   1      12.061   8.268  42.215  0.00  0.00    -0.001 A 
ATOM     70  C0K F0E d   1      11.099   8.792  41.355  0.00  0.00    -0.054 A 
ATOM     71  C0L F0E d   1      11.418   9.837  40.516  0.00  0.00     0.004 A 
ATOM     72  H29 F0E d   1      10.098   8.377  41.346  0.00  0.00     0.087 H 
ATOM     73  N0M F0E d   1      12.640  10.386  40.473  0.00  0.00    -0.255 NA
ATOM     74  H30 F0E d   1      10.648  10.232  39.863  0.00  0.00     0.114 H 
ATOM     75  C0N F0E d   1      13.577   9.871  41.285  0.00  0.00     0.124 A 
ATOM     76  C0O F0E d   1      13.334   8.829  42.164  0.00  0.00    -0.037 A 
ATOM     77  H31 F0E d   1      14.125   8.455  42.804  0.00  0.00     0.088 H 
BRANCH  75  78
ATOM     78  C0P F0E d   1      14.926  10.536  41.241  0.00  0.00     0.270 C 
ATOM     79  O0Q F0E d   1      15.017  11.700  40.847  0.00  0.00    -0.266 OA
ATOM     80  N0R F0E d   1      15.976   9.809  41.643  0.00  0.00    -0.356 N 
ATOM     81  H32 F0E d   1      15.821   8.876  41.968  0.00  0.00     0.162 HD
BRANCH  80  82
ATOM     82  C0S F0E d   1      17.337  10.330  41.623  0.00  0.00    -0.003 C 
ATOM     83  H33 F0E d   1      17.387  11.212  42.279  0.00  0.00     0.064 H 
ATOM     84  H34 F0E d   1      17.587  10.624  40.593  0.00  0.00     0.064 H 
BRANCH  82  85
ATOM     85  C0T F0E d   1      18.356   9.308  42.100  0.00  0.00    -0.035 C 
ATOM     86  H35 F0E d   1      18.274   8.413  41.466  0.00  0.00     0.037 H 
ATOM     87  H36 F0E d   1      18.122   9.043  43.141  0.00  0.00     0.037 H 
BRANCH  85  88
ATOM     88  C0U F0E d   1      19.798   9.812  42.042  0.00  0.00    -0.001 C 
ATOM     89  H37 F0E d   1      19.868  10.607  41.285  0.00  0.00     0.064 H 
ATOM     90  H38 F0E d   1      20.457   8.978  41.760  0.00  0.00     0.064 H 
BRANCH  88  91
ATOM     91  N0V F0E d   1      20.231  10.343  43.326  0.00  0.00    -0.337 N 
ATOM     92  C0W F0E d   1      21.076   9.695  44.177  0.00  0.00     0.360 C 
ATOM     93  O0X F0E d   1      21.025   9.895  45.385  0.00  0.00    -0.239 OA
ATOM     94  H39 F0E d   1      19.887  11.241  43.602  0.00  0.00     0.164 HD
BRANCH  92  95
ATOM     95  O0Y F0E d   1      21.978   8.806  43.603  0.00  0.00    -0.299 OA
BRANCH  95  96
ATOM     96  C0Z F0E d   1      21.618   7.412  43.505  0.00  0.00     0.050 C 
ATOM     97  C10 F0E d   1      22.034   6.713  44.807  0.00  0.00    -0.040 C 
ATOM     98  C11 F0E d   1      23.523   6.407  45.000  0.00  0.00    -0.063 C 
ATOM     99  H1  F0E d   1      21.719   7.356  45.642  0.00  0.00     0.036 H 
ATOM    100  H2  F0E d   1      21.492   5.757  44.856  0.00  0.00     0.036 H 
ATOM    101  C12 F0E d   1      23.957   4.961  44.762  0.00  0.00    -0.065 C 
ATOM    102  H3  F0E d   1      23.787   6.669  46.035  0.00  0.00     0.033 H 
ATOM    103  H4  F0E d   1      24.088   7.045  44.304  0.00  0.00     0.033 H 
ATOM    104  C13 F0E d   1      23.734   4.493  43.356  0.00  0.00    -0.065 C 
ATOM    105  H5  F0E d   1      23.386   4.310  45.440  0.00  0.00     0.033 H 
ATOM    106  H6  F0E d   1      25.030   4.877  44.991  0.00  0.00     0.033 H 
ATOM    107  C14 F0E d   1      22.562   4.370  42.760  0.00  0.00    -0.065 C 
ATOM    108  H7  F0E d   1      24.189   3.493  43.308  0.00  0.00     0.033 H 
ATOM    109  H8  F0E d   1      24.308   5.188  42.725  0.00  0.00     0.033 H 
ATOM    110  C15 F0E d   1      21.892   5.390  41.888  0.00  0.00    -0.063 C 
ATOM    111  H9  F0E d   1      21.847   4.176  43.573  0.00  0.00     0.033 H 
ATOM    112  H10 F0E d   1      22.654   3.473  42.130  0.00  0.00     0.033 H 
ATOM    113  C16 F0E d   1      22.215   6.853  42.204  0.00  0.00    -0.040 C 
ATOM    114  H11 F0E d   1      20.805   5.256  41.986  0.00  0.00     0.033 H 
ATOM    115  H12 F0E d   1      22.193   5.195  40.848  0.00  0.00     0.033 H 
ATOM    116  H13 F0E d   1      21.841   7.467  41.372  0.00  0.00     0.036 H 
ATOM    117  H14 F0E d   1      23.309   6.949  42.268  0.00  0.00     0.036 H 
ATOM    118  H40 F0E d   1      20.524   7.330  43.425  0.00  0.00     0.084 H 
ENDBRANCH  95  96
ENDBRANCH  92  95
ENDBRANCH  88  91
ENDBRANCH  85  88
ENDBRANCH  82  85
ENDBRANCH  80  82
ENDBRANCH  75  78
ENDBRANCH   7  69
TORSDOF 14
