REMARK  10 active torsions:
REMARK  status: ('A' for Active; 'I' for Inactive)
REMARK       I    between atoms: C4_2  and  N_3 
REMARK       I    between atoms: C4_2  and  N1_10 
REMARK    1  A    between atoms: N_3  and  C3_4 
REMARK    2  A    between atoms: C3_4  and  C2_5 
REMARK    3  A    between atoms: C2_5  and  O_7 
REMARK    4  A    between atoms: O_7  and  C1_8 
REMARK    5  A    between atoms: C1_8  and  C_9 
REMARK    6  A    between atoms: N1_10  and  C5_11 
REMARK    7  A    between atoms: N1_10  and  C8_14 
REMARK    8  A    between atoms: C5_11  and  C6_12 
REMARK    9  A    between atoms: C8_14  and  C9_15 
REMARK   10  A    between atoms: C12_18  and  N2_19 
ROOT
ATOM      1  C6  F1Z d   1      -1.084  20.602  -3.987  0.00  0.00    -0.098 C 
ATOM      2  C7  F1Z d   1      -0.046  21.166  -3.501  0.00  0.00    -0.152 C 
ATOM      3  H11 F1Z d   1       0.812  21.632  -3.099  0.00  0.00     0.166 H 
ENDROOT
BRANCH   1   4
ATOM      4  C5  F1Z d   1      -2.226  19.910  -4.614  0.00  0.00     0.054 C 
ATOM      5  H9  F1Z d   1      -2.743  19.287  -3.869  0.00  0.00     0.084 H 
ATOM      6  H10 F1Z d   1      -2.930  20.646  -5.028  0.00  0.00     0.084 H 
BRANCH   4   7
ATOM      7  N1  F1Z d   1      -1.697  19.075  -5.680  0.00  0.00    -0.319 N 
ATOM      8  C4  F1Z d   1      -1.117  17.901  -5.454  0.00  0.00     0.319 C 
ATOM      9  O2  F1Z d   1      -0.437  17.298  -6.227  0.00  0.00    -0.247 OA
ATOM     10  N   F1Z d   1      -1.307  17.405  -4.262  0.00  0.00    -0.334 N 
ATOM     11  H1  F1Z d   1      -1.860  17.937  -3.621  0.00  0.00     0.164 HD
BRANCH  10  12
ATOM     12  C3  F1Z d   1      -0.782  16.156  -3.805  0.00  0.00     0.077 C 
ATOM     13  H2  F1Z d   1      -0.935  16.085  -2.718  0.00  0.00     0.079 H 
ATOM     14  H3  F1Z d   1       0.295  16.124  -4.026  0.00  0.00     0.079 H 
BRANCH  12  15
ATOM     15  C2  F1Z d   1      -1.443  14.981  -4.461  0.00  0.00     0.276 C 
ATOM     16  O1  F1Z d   1      -2.549  15.018  -4.892  0.00  0.00    -0.263 OA
BRANCH  15  17
ATOM     17  O   F1Z d   1      -0.635  13.808  -4.522  0.00  0.00    -0.321 OA
BRANCH  17  18
ATOM     18  C1  F1Z d   1      -1.096  12.556  -4.978  0.00  0.00     0.025 C 
ATOM     19  H4  F1Z d   1      -1.238  12.573  -6.069  0.00  0.00     0.074 H 
ATOM     20  H5  F1Z d   1      -2.046  12.294  -4.488  0.00  0.00     0.074 H 
BRANCH  18  21
ATOM     21  C   F1Z d   1      -0.015  11.563  -4.601  0.00  0.00    -0.056 C 
ATOM     22  H6  F1Z d   1      -0.311  10.556  -4.930  0.00  0.00     0.030 H 
ATOM     23  H7  F1Z d   1       0.122  11.567  -3.510  0.00  0.00     0.030 H 
ATOM     24  H8  F1Z d   1       0.929  11.845  -5.090  0.00  0.00     0.030 H 
ENDBRANCH  18  21
ENDBRANCH  17  18
ENDBRANCH  15  17
ENDBRANCH  12  15
ENDBRANCH  10  12
BRANCH   7  25
ATOM     25  C8  F1Z d   1      -1.871  19.702  -6.943  0.00  0.00     0.024 C 
ATOM     26  H12 F1Z d   1      -1.277  19.164  -7.697  0.00  0.00     0.071 H 
ATOM     27  H13 F1Z d   1      -1.525  20.744  -6.878  0.00  0.00     0.071 H 
BRANCH  25  28
ATOM     28  C9  F1Z d   1      -3.314  19.688  -7.353  0.00  0.00    -0.040 A 
ATOM     29  C14 F1Z d   1      -3.977  18.494  -7.398  0.00  0.00    -0.073 A 
ATOM     30  C13 F1Z d   1      -5.292  18.454  -7.819  0.00  0.00    -0.057 A 
ATOM     31  H14 F1Z d   1      -3.472  17.581  -7.104  0.00  0.00     0.084 H 
ATOM     32  C12 F1Z d   1      -5.945  19.598  -8.194  0.00  0.00     0.025 A 
ATOM     33  H15 F1Z d   1      -5.814  17.505  -7.853  0.00  0.00     0.086 H 
ATOM     34  C11 F1Z d   1      -5.279  20.804  -8.139  0.00  0.00    -0.057 A 
ATOM     35  C10 F1Z d   1      -3.956  20.849  -7.729  0.00  0.00    -0.073 A 
ATOM     36  H18 F1Z d   1      -5.791  21.718  -8.417  0.00  0.00     0.086 H 
ATOM     37  H19 F1Z d   1      -3.427  21.795  -7.704  0.00  0.00     0.084 H 
BRANCH  32  38
ATOM     38  N2  F1Z d   1      -7.211  19.568  -8.623  0.00  0.00    -0.399 N 
ATOM     39  H16 F1Z d   1      -7.682  20.441  -8.900  0.00  0.00     0.156 HD
ATOM     40  H17 F1Z d   1      -7.715  18.672  -8.677  0.00  0.00     0.156 HD
ENDBRANCH  32  38
ENDBRANCH  25  28
ENDBRANCH   7  25
ENDBRANCH   4   7
ENDBRANCH   1   4
TORSDOF 10
