REMARK  8 active torsions:
REMARK  status: ('A' for Active; 'I' for Inactive)
REMARK    1  A    between atoms: O2_19  and  C1_1 
REMARK    2  A    between atoms: C3_2  and  O2_19 
REMARK    3  A    between atoms: N7_20  and  C6_5 
REMARK       I    between atoms: N10_8  and  C8_6 
REMARK       I    between atoms: C8_6  and  N7_20 
REMARK    4  A    between atoms: C12_10  and  C14_21 
REMARK    5  A    between atoms: C18_13  and  N15_22 
REMARK    6  A    between atoms: C29_30  and  C30_17 
REMARK    7  A    between atoms: C20_24  and  N21_25 
REMARK    8  A    between atoms: N27_28  and  C28_29 
ROOT
ATOM      1  C8  EMW d   1     -41.084 -10.700   5.868  0.00  0.00     0.323 C 
ATOM      2  O9  EMW d   1     -41.555 -11.677   6.432  0.00  0.00    -0.247 OA
ATOM      3  N10 EMW d   1     -39.822 -10.841   5.323  0.00  0.00    -0.330 N 
ATOM      4  C11 EMW d   1     -39.139  -9.751   4.579  0.00  0.00     0.018 C 
ATOM      5  C12 EMW d   1     -38.815 -10.244   3.171  0.00  0.00     0.025 C 
ATOM      6  C16 EMW d   1     -38.425 -12.529   4.081  0.00  0.00     0.012 C 
ATOM      7  C17 EMW d   1     -38.994 -12.095   5.435  0.00  0.00     0.014 C 
ATOM      8  N7  EMW d   1     -41.808  -9.523   5.795  0.00  0.00    -0.308 N 
ATOM      9  N15 EMW d   1     -37.845 -11.338   3.384  0.00  0.00    -0.357 N 
ATOM     10  H6  EMW d   1     -38.209  -9.476   5.098  0.00  0.00     0.067 H 
ATOM     11  H7  EMW d   1     -39.799  -8.873   4.520  0.00  0.00     0.067 H 
ATOM     12  H8  EMW d   1     -38.300  -9.437   2.629  0.00  0.00     0.074 H 
ATOM     13  H9  EMW d   1     -39.229 -12.960   3.466  0.00  0.00     0.066 H 
ATOM     14  H10 EMW d   1     -37.639 -13.282   4.237  0.00  0.00     0.066 H 
ATOM     15  H11 EMW d   1     -39.626 -12.904   5.830  0.00  0.00     0.067 H 
ATOM     16  H12 EMW d   1     -38.160 -11.909   6.128  0.00  0.00     0.067 H 
ATOM     17  H17 EMW d   1     -41.373  -8.772   5.299  0.00  0.00     0.170 HD
ENDROOT
BRANCH   8  18
ATOM     18  C6  EMW d   1     -43.093  -9.248   6.337  0.00  0.00     0.042 A 
ATOM     19  C5  EMW d   1     -43.511  -9.794   7.573  0.00  0.00    -0.054 A 
ATOM     20  C4  EMW d   1     -44.763  -9.531   8.091  0.00  0.00    -0.049 A 
ATOM     21  H5  EMW d   1     -42.833 -10.434   8.126  0.00  0.00     0.087 H 
ATOM     22  C3  EMW d   1     -45.644  -8.693   7.424  0.00  0.00     0.068 A 
ATOM     23  H4  EMW d   1     -45.061  -9.984   9.030  0.00  0.00     0.087 H 
ATOM     24  C31 EMW d   1     -45.255  -8.124   6.205  0.00  0.00    -0.043 A 
ATOM     25  C29 EMW d   1     -43.992  -8.384   5.650  0.00  0.00    -0.033 A 
ATOM     26  H16 EMW d   1     -45.942  -7.470   5.680  0.00  0.00     0.088 H 
BRANCH  22  27
ATOM     27  O2  EMW d   1     -46.866  -8.471   7.985  0.00  0.00    -0.356 OA
BRANCH  27  28
ATOM     28  C1  EMW d   1     -47.174  -7.143   8.405  0.00  0.00     0.010 C 
ATOM     29  H1  EMW d   1     -48.186  -7.120   8.835  0.00  0.00     0.066 H 
ATOM     30  H2  EMW d   1     -47.127  -6.465   7.540  0.00  0.00     0.066 H 
ATOM     31  H3  EMW d   1     -46.446  -6.820   9.164  0.00  0.00     0.066 H 
ENDBRANCH  27  28
ENDBRANCH  22  27
BRANCH  25  32
ATOM     32  C30 EMW d   1     -43.667  -7.721   4.319  0.00  0.00    -0.049 C 
ATOM     33  H13 EMW d   1     -44.520  -7.105   3.998  0.00  0.00     0.033 H 
ATOM     34  H14 EMW d   1     -43.468  -8.495   3.563  0.00  0.00     0.033 H 
ATOM     35  H15 EMW d   1     -42.778  -7.084   4.434  0.00  0.00     0.033 H 
ENDBRANCH  25  32
ENDBRANCH   8  18
BRANCH   5  36
ATOM     36  C14 EMW d   1     -40.059 -10.590   2.339  0.00  0.00    -0.056 C 
ATOM     37  H18 EMW d   1     -39.749 -10.936   1.342  0.00  0.00     0.030 H 
ATOM     38  H19 EMW d   1     -40.692  -9.696   2.236  0.00  0.00     0.030 H 
ATOM     39  H20 EMW d   1     -40.627 -11.386   2.843  0.00  0.00     0.030 H 
ENDBRANCH   5  36
BRANCH   9  40
ATOM     40  C18 EMW d   1     -36.472 -11.218   3.073  0.00  0.00     0.161 A 
ATOM     41  C24 EMW d   1     -35.843 -10.346   2.106  0.00  0.00     0.078 A 
ATOM     42  C23 EMW d   1     -34.421 -10.408   2.000  0.00  0.00     0.180 A 
ATOM     43  C25 EMW d   1     -36.225  -9.361   1.150  0.00  0.00     0.039 A 
ATOM     44  N22 EMW d   1     -33.712 -11.247   2.777  0.00  0.00    -0.043 NA
ATOM     45  N27 EMW d   1     -34.054  -9.515   1.047  0.00  0.00    -0.256 N 
ATOM     46  C20 EMW d   1     -34.334 -12.036   3.642  0.00  0.00     0.724 A 
ATOM     47  N19 EMW d   1     -35.649 -12.001   3.776  0.00  0.00    -0.044 NA
ATOM     48  N26 EMW d   1     -35.180  -8.877   0.552  0.00  0.00    -0.182 NA
ATOM     49  H23 EMW d   1     -37.251  -9.057   0.949  0.00  0.00     0.119 H 
BRANCH  46  50
ATOM     50  N21 EMW d   1     -33.631 -12.923   4.435  0.00  0.00    -0.231 N 
ATOM     51  H21 EMW d   1     -32.605 -12.980   4.360  0.00  0.00     0.174 HD
ATOM     52  H22 EMW d   1     -34.133 -13.527   5.101  0.00  0.00     0.174 HD
ENDBRANCH  46  50
BRANCH  45  53
ATOM     53  C28 EMW d   1     -32.695  -9.234   0.635  0.00  0.00     0.004 C 
ATOM     54  H24 EMW d   1     -32.702  -8.467  -0.154  0.00  0.00     0.059 H 
ATOM     55  H25 EMW d   1     -32.231 -10.154   0.248  0.00  0.00     0.059 H 
ATOM     56  H26 EMW d   1     -32.119  -8.867   1.497  0.00  0.00     0.059 H 
ENDBRANCH  45  53
ENDBRANCH   9  40
TORSDOF 8
