REMARK  3 active torsions:
REMARK  status: ('A' for Active; 'I' for Inactive)
REMARK    1  A    between atoms: C03_4  and  C02_3 
REMARK    2  A    between atoms: C02_3  and  O01_13 
REMARK    3  A    between atoms: C06_7  and  N09_12 
ROOT
ATOM      1  C03 F4K d   1      37.136  54.194  10.505  0.00  0.00    -0.035 A 
ATOM      2  C04 F4K d   1      36.279  55.269  10.750  0.00  0.00    -0.073 A 
ATOM      3  C05 F4K d   1      36.186  56.279   9.787  0.00  0.00    -0.056 A 
ATOM      4  C06 F4K d   1      36.953  56.186   8.618  0.00  0.00     0.038 A 
ATOM      5  C07 F4K d   1      37.816  55.115   8.391  0.00  0.00    -0.056 A 
ATOM      6  C08 F4K d   1      37.905  54.117   9.343  0.00  0.00    -0.073 A 
ATOM      7  H5  F4K d   1      35.700  55.319  11.665  0.00  0.00     0.084 H 
ATOM      8  H6  F4K d   1      35.527  57.125   9.943  0.00  0.00     0.087 H 
ATOM      9  H7  F4K d   1      38.407  55.066   7.484  0.00  0.00     0.087 H 
ATOM     10  H8  F4K d   1      38.571  53.276   9.187  0.00  0.00     0.084 H 
ENDROOT
BRANCH   4  11
ATOM     11  N09 F4K d   1      36.892  57.137   7.683  0.00  0.00    -0.333 N 
ATOM     12  C10 F4K d   1      36.495  56.963   6.423  0.00  0.00    -0.015 A 
ATOM     13  C11 F4K d   1      36.606  58.190   5.790  0.00  0.00    -0.066 A 
ATOM     14  H1  F4K d   1      36.149  56.032   5.976  0.00  0.00     0.112 H 
ATOM     15  C12 F4K d   1      37.097  59.111   6.699  0.00  0.00    -0.066 A 
ATOM     16  H9  F4K d   1      36.350  58.395   4.752  0.00  0.00     0.085 H 
ATOM     17  C13 F4K d   1      37.273  58.409   7.868  0.00  0.00    -0.015 A 
ATOM     18  H10 F4K d   1      37.300  60.167   6.525  0.00  0.00     0.085 H 
ATOM     19  H2  F4K d   1      37.661  58.822   8.798  0.00  0.00     0.112 H 
ENDBRANCH   4  11
BRANCH   1  20
ATOM     20  C02 F4K d   1      37.307  53.100  11.475  0.00  0.00     0.040 C 
ATOM     21  H3  F4K d   1      36.686  52.243  11.176  0.00  0.00     0.081 H 
ATOM     22  H4  F4K d   1      37.001  53.443  12.474  0.00  0.00     0.081 H 
BRANCH  20  23
ATOM     23  O01 F4K d   1      38.632  52.722  11.503  0.00  0.00    -0.396 OA
ATOM     24  H11 F4K d   1      38.746  52.016  12.128  0.00  0.00     0.209 HD
ENDBRANCH  20  23
ENDBRANCH   1  20
TORSDOF 3
