REMARK  0 active torsions:
REMARK  status: ('A' for Active; 'I' for Inactive)
ROOT
ATOM      1  C02 F7B d   1      -4.295  -8.357  24.598  0.00  0.00     0.161 C 
ATOM      2  C03 F7B d   1      -3.045  -8.415  25.467  0.00  0.00     0.003 C 
ATOM      3  C04 F7B d   1      -2.151  -9.617  25.319  0.00  0.00    -0.012 C 
ATOM      4  C06 F7B d   1      -3.595 -10.085  22.883  0.00  0.00     0.014 A 
ATOM      5  C07 F7B d   1      -4.561  -9.256  23.420  0.00  0.00     0.028 A 
ATOM      6  C08 F7B d   1      -5.810  -9.235  22.823  0.00  0.00    -0.047 A 
ATOM      7  C09 F7B d   1      -6.071 -10.033  21.723  0.00  0.00     0.035 A 
ATOM      8  C11 F7B d   1      -5.099 -10.868  21.186  0.00  0.00    -0.061 A 
ATOM      9  C12 F7B d   1      -3.842 -10.896  21.776  0.00  0.00    -0.064 A 
ATOM     10  O01 F7B d   1      -5.143  -7.516  24.854  0.00  0.00    -0.292 OA
ATOM     11  S05 F7B d   1      -2.032 -10.102  23.631  0.00  0.00    -0.129 SA
ATOM     12 CL1  F7B d   1      -7.641  -9.996  21.006  0.00  0.00    -0.084 Cl
ATOM     13  H1  F7B d   1      -3.371  -8.374  26.517  0.00  0.00     0.046 H 
ATOM     14  H2  F7B d   1      -2.441  -7.525  25.236  0.00  0.00     0.046 H 
ATOM     15  H3  F7B d   1      -2.566 -10.450  25.905  0.00  0.00     0.050 H 
ATOM     16  H4  F7B d   1      -1.147  -9.369  25.695  0.00  0.00     0.050 H 
ATOM     17  H5  F7B d   1      -6.587  -8.591  23.219  0.00  0.00     0.087 H 
ATOM     18  H6  F7B d   1      -5.318 -11.486  20.323  0.00  0.00     0.086 H 
ATOM     19  H7  F7B d   1      -3.064 -11.539  21.381  0.00  0.00     0.085 H 
ENDROOT
TORSDOF 0
