REMARK  8 active torsions:
REMARK  status: ('A' for Active; 'I' for Inactive)
REMARK    1  A    between atoms: C1_3  and  C7_2 
REMARK    2  A    between atoms: C4_6  and  N8_9 
REMARK    3  A    between atoms: C6_8  and  S9_12 
REMARK    4  A    between atoms: S9_12  and  N12_14 
REMARK    5  A    between atoms: N12_14  and  C13_15 
REMARK    6  A    between atoms: N12_14  and  N14_16 
REMARK    7  A    between atoms: N14_16  and  C15_17 
REMARK    8  A    between atoms: C15_17  and  C17_18 
ROOT
ATOM      1  N12 F4N d   1     -12.820  -6.828 -29.803  0.00  0.00    -0.196 N 
ENDROOT
BRANCH   1   2
ATOM      2  S9  F4N d   1     -11.169  -6.644 -30.099  0.00  0.00     0.280 S 
ATOM      3  O11 F4N d   1     -10.855  -6.972 -31.558  0.00  0.00    -0.199 OA
ATOM      4  O10 F4N d   1     -10.416  -7.638 -29.216  0.00  0.00    -0.199 OA
BRANCH   2   5
ATOM      5  C6  F4N d   1     -10.619  -5.029 -29.726  0.00  0.00     0.089 A 
ATOM      6  C1  F4N d   1     -11.106  -3.876 -30.339  0.00  0.00    -0.038 A 
ATOM      7  C2  F4N d   1     -10.579  -2.644 -29.945  0.00  0.00    -0.073 A 
ATOM      8  C3  F4N d   1      -9.588  -2.555 -28.959  0.00  0.00    -0.050 A 
ATOM      9  H4  F4N d   1     -10.945  -1.737 -30.412  0.00  0.00     0.084 H 
ATOM     10  C4  F4N d   1      -9.109  -3.707 -28.331  0.00  0.00     0.104 A 
ATOM     11  H5  F4N d   1      -9.190  -1.586 -28.681  0.00  0.00     0.087 H 
ATOM     12  C5  F4N d   1      -9.639  -4.929 -28.738  0.00  0.00    -0.028 A 
ATOM     13  H6  F4N d   1      -9.276  -5.837 -28.269  0.00  0.00     0.089 H 
BRANCH   6  14
ATOM     14  C7  F4N d   1     -12.085  -3.936 -31.325  0.00  0.00    -0.050 C 
ATOM     15  H1  F4N d   1     -12.321  -2.918 -31.670  0.00  0.00     0.033 H 
ATOM     16  H2  F4N d   1     -12.992  -4.403 -30.913  0.00  0.00     0.033 H 
ATOM     17  H3  F4N d   1     -11.716  -4.534 -32.172  0.00  0.00     0.033 H 
ENDBRANCH   6  14
BRANCH  10  18
ATOM     18  N8  F4N d   1      -8.157  -3.659 -27.372  0.00  0.00    -0.116 N 
ATOM     19  O22 F4N d   1      -7.641  -2.479 -26.990  0.00  0.00    -0.532 OA
ATOM     20  O21 F4N d   1      -7.672  -4.899 -26.753  0.00  0.00    -0.532 OA
ENDBRANCH  10  18
ENDBRANCH   2   5
ENDBRANCH   1   2
BRANCH   1  21
ATOM     21  C13 F4N d   1     -13.713  -7.068 -30.973  0.00  0.00     0.013 C 
ATOM     22  H7  F4N d   1     -14.752  -7.167 -30.627  0.00  0.00     0.060 H 
ATOM     23  H8  F4N d   1     -13.407  -7.993 -31.484  0.00  0.00     0.060 H 
ATOM     24  H9  F4N d   1     -13.638  -6.221 -31.671  0.00  0.00     0.060 H 
ENDBRANCH   1  21
BRANCH   1  25
ATOM     25  N14 F4N d   1     -13.150  -6.227 -28.767  0.00  0.00    -0.173 NA
BRANCH  25  26
ATOM     26  C15 F4N d   1     -14.376  -6.402 -28.226  0.00  0.00     0.050 C 
ATOM     27  H10 F4N d   1     -15.097  -7.069 -28.696  0.00  0.00     0.121 H 
BRANCH  26  28
ATOM     28  C17 F4N d   1     -14.693  -5.742 -27.101  0.00  0.00     0.077 C 
ATOM     29  C16 F4N d   1     -15.970  -5.655 -26.781  0.00  0.00     0.032 C 
ATOM     30  N20 F4N d   1     -16.105  -4.865 -25.727  0.00  0.00    -0.240 NA
ATOM     31  H11 F4N d   1     -16.785  -6.155 -27.302  0.00  0.00     0.118 H 
ATOM     32  C19 F4N d   1     -14.895  -4.401 -25.421  0.00  0.00     0.134 A 
ATOM     33  N18 F4N d   1     -14.005  -4.863 -26.309  0.00  0.00    -0.303 N 
ATOM     34  C26 F4N d   1     -14.495  -3.587 -24.449  0.00  0.00    -0.037 A 
ATOM     35  C23 F4N d   1     -12.636  -4.598 -26.229  0.00  0.00     0.004 A 
ATOM     36  C24 F4N d   1     -12.223  -3.738 -25.216  0.00  0.00     0.027 A 
ATOM     37  H12 F4N d   1     -11.927  -5.043 -26.925  0.00  0.00     0.114 H 
ATOM     38 BR2  F4N d   1     -10.423  -3.238 -25.012  0.00  0.00    -0.050 Br
ATOM     39  C25 F4N d   1     -13.161  -3.230 -24.327  0.00  0.00    -0.061 A 
ATOM     40  H13 F4N d   1     -12.849  -2.551 -23.534  0.00  0.00     0.085 H 
ATOM     41  H14 F4N d   1     -15.224  -3.196 -23.740  0.00  0.00     0.089 H 
ENDBRANCH  26  28
ENDBRANCH  25  26
ENDBRANCH   1  25
TORSDOF 8
