REMARK  9 active torsions:
REMARK  status: ('A' for Active; 'I' for Inactive)
REMARK    1  A    between atoms: C4_1  and  C6_2 
REMARK    2  A    between atoms: C4_1  and  O5_12 
REMARK    3  A    between atoms: C8_4  and  C7_3 
REMARK    4  A    between atoms: C7_3  and  C16_16 
REMARK    5  A    between atoms: C8_4  and  O15_18 
REMARK    6  A    between atoms: C9_19  and  C8_4 
REMARK    7  A    between atoms: C1_9  and  C21_7 
REMARK    8  A    between atoms: C2_10  and  C1_9 
REMARK    9  A    between atoms: C3_11  and  C2_10 
ROOT
ATOM      1  C4  F6K d   1      62.766-137.594  41.848  0.00  0.00     0.100 C 
ATOM      2  C7  F6K d   1      62.720-136.128  42.264  0.00  0.00     0.144 C 
ATOM      3  C3  F6K d   1      61.760-137.637  40.686  0.00  0.00     0.056 C 
ATOM      4  C19 F6K d   1      60.802-136.691  41.069  0.00  0.00     0.226 C 
ATOM      5  O20 F6K d   1      59.650-136.633  40.634  0.00  0.00    -0.273 OA
ATOM      6  N18 F6K d   1      61.288-135.826  41.959  0.00  0.00    -0.340 N 
ATOM      7  H14 F6K d   1      62.246-137.312  39.754  0.00  0.00     0.059 H 
ATOM      8  H16 F6K d   1      60.766-135.077  42.367  0.00  0.00     0.163 HD
ENDROOT
BRANCH   2   9
ATOM      9  C8  F6K d   1      63.621-135.152  41.415  0.00  0.00     0.075 C 
ATOM     10  H4  F6K d   1      64.590-135.653  41.270  0.00  0.00     0.088 H 
BRANCH   9  11
ATOM     11  O15 F6K d   1      63.060-134.902  40.112  0.00  0.00    -0.392 OA
ATOM     12  H18 F6K d   1      63.629-134.312  39.632  0.00  0.00     0.210 HD
ENDBRANCH   9  11
BRANCH   9  13
ATOM     13  C9  F6K d   1      63.898-133.805  42.139  0.00  0.00    -0.010 C 
ATOM     14  C10 F6K d   1      62.773-133.098  42.613  0.00  0.00    -0.100 C 
ATOM     15  C11 F6K d   1      62.726-131.727  42.705  0.00  0.00    -0.106 C 
ATOM     16  H5  F6K d   1      61.897-133.667  42.922  0.00  0.00     0.077 H 
ATOM     17  C12 F6K d   1      63.735-130.946  42.167  0.00  0.00    -0.050 C 
ATOM     18  H24 F6K d   1      61.886-131.250  43.207  0.00  0.00     0.076 H 
ATOM     19  C13 F6K d   1      65.003-131.682  41.980  0.00  0.00    -0.061 C 
ATOM     20  H22 F6K d   1      63.402-130.569  41.189  0.00  0.00     0.038 H 
ATOM     21  H23 F6K d   1      63.919-130.098  42.843  0.00  0.00     0.038 H 
ATOM     22  C14 F6K d   1      64.780-132.999  41.256  0.00  0.00    -0.056 C 
ATOM     23  H6  F6K d   1      65.693-131.061  41.389  0.00  0.00     0.033 H 
ATOM     24  H7  F6K d   1      65.446-131.886  42.966  0.00  0.00     0.033 H 
ATOM     25  H20 F6K d   1      65.738-133.516  41.098  0.00  0.00     0.034 H 
ATOM     26  H21 F6K d   1      64.293-132.824  40.285  0.00  0.00     0.034 H 
ATOM     27  H19 F6K d   1      64.483-134.051  43.038  0.00  0.00     0.050 H 
ENDBRANCH   9  13
ENDBRANCH   2   9
BRANCH   2  28
ATOM     28  C16 F6K d   1      62.950-136.052  43.662  0.00  0.00     0.120 C 
ATOM     29  O17 F6K d   1      62.112-135.554  44.422  0.00  0.00    -0.304 OA
ATOM     30  H17 F6K d   1      63.881-136.439  44.073  0.00  0.00     0.147 H 
ENDBRANCH   2  28
BRANCH   1  31
ATOM     31  C6  F6K d   1      64.127-138.155  41.415  0.00  0.00    -0.044 C 
ATOM     32  H1  F6K d   1      64.017-139.215  41.143  0.00  0.00     0.031 H 
ATOM     33  H2  F6K d   1      64.843-138.062  42.245  0.00  0.00     0.031 H 
ATOM     34  H3  F6K d   1      64.497-137.590  40.546  0.00  0.00     0.031 H 
ENDBRANCH   1  31
BRANCH   1  35
ATOM     35  O5  F6K d   1      62.356-138.371  43.000  0.00  0.00    -0.386 OA
ATOM     36  H15 F6K d   1      62.953-138.206  43.721  0.00  0.00     0.210 HD
ENDBRANCH   1  35
BRANCH   3  37
ATOM     37  C2  F6K d   1      61.198-139.056  40.454  0.00  0.00    -0.050 C 
ATOM     38  H12 F6K d   1      60.640-139.068  39.506  0.00  0.00     0.034 H 
ATOM     39  H13 F6K d   1      62.036-139.766  40.395  0.00  0.00     0.034 H 
BRANCH  37  40
ATOM     40  C1  F6K d   1      60.255-139.490  41.595  0.00  0.00    -0.052 C 
ATOM     41  H10 F6K d   1      60.756-139.293  42.554  0.00  0.00     0.034 H 
ATOM     42  H11 F6K d   1      59.335-138.891  41.532  0.00  0.00     0.034 H 
BRANCH  40  43
ATOM     43  C21 F6K d   1      59.879-140.945  41.546  0.00  0.00     0.002 C 
ATOM     44 CL   F6K d   1      59.144-141.286  43.156  0.00  0.00    -0.130 Cl
ATOM     45  H8  F6K d   1      59.152-141.130  40.741  0.00  0.00     0.056 H 
ATOM     46  H9  F6K d   1      60.770-141.570  41.387  0.00  0.00     0.056 H 
ENDBRANCH  40  43
ENDBRANCH  37  40
ENDBRANCH   3  37
TORSDOF 9
