REMARK  8 active torsions:
REMARK  status: ('A' for Active; 'I' for Inactive)
REMARK    1  A    between atoms: C1_1  and  C7_7 
REMARK    2  A    between atoms: C1_1  and  O1_8 
REMARK    3  A    between atoms: C2_2  and  O2_9 
REMARK    4  A    between atoms: C3_3  and  O3_10 
REMARK    5  A    between atoms: C4_4  and  O4_11 
REMARK    6  A    between atoms: C5_5  and  C6_6 
REMARK    7  A    between atoms: C6_6  and  O6_13 
REMARK    8  A    between atoms: O1_8  and  P_14 
ROOT
ATOM      1  C1  H2P d   1      33.483  23.008  27.832  0.00  0.00     0.202 C 
ATOM      2  C2  H2P d   1      33.687  23.171  26.331  0.00  0.00     0.116 C 
ATOM      3  C3  H2P d   1      32.477  22.615  25.591  0.00  0.00     0.092 C 
ATOM      4  C4  H2P d   1      32.301  21.140  25.921  0.00  0.00     0.090 C 
ATOM      5  C5  H2P d   1      32.112  20.969  27.424  0.00  0.00     0.089 C 
ATOM      6  O5  H2P d   1      33.243  21.587  28.134  0.00  0.00    -0.342 OA
ATOM      7  H1  H2P d   1      34.587  22.619  26.024  0.00  0.00     0.095 H 
ATOM      8  H2  H2P d   1      31.577  23.165  25.903  0.00  0.00     0.091 H 
ATOM      9  H3  H2P d   1      33.197  20.587  25.603  0.00  0.00     0.091 H 
ATOM     10  H4  H2P d   1      31.177  21.462  27.727  0.00  0.00     0.090 H 
ENDROOT
BRANCH   1  11
ATOM     11  C7  H2P d   1      34.700  23.475  28.616  0.00  0.00    -0.022 C 
ATOM     12  H7  H2P d   1      34.516  23.342  29.692  0.00  0.00     0.035 H 
ATOM     13  H8  H2P d   1      34.887  24.538  28.404  0.00  0.00     0.035 H 
ATOM     14  H9  H2P d   1      35.578  22.882  28.318  0.00  0.00     0.035 H 
ENDBRANCH   1  11
BRANCH   1  15
ATOM     15  O1  H2P d   1      32.322  23.833  28.198  0.00  0.00    -0.242 OA
BRANCH  15  16
ATOM     16  P   H2P d   1      31.512  25.030  27.503  0.00  0.00     0.424 P 
ATOM     17  OP1 H2P d   1      30.386  24.483  26.524  0.00  0.00    -0.617 OA
ATOM     18  OP2 H2P d   1      30.824  25.866  28.677  0.00  0.00    -0.617 OA
ATOM     19  OP3 H2P d   1      32.515  25.948  26.681  0.00  0.00    -0.617 OA
ENDBRANCH  15  16
ENDBRANCH   1  15
BRANCH   2  20
ATOM     20  O2  H2P d   1      33.855  24.590  26.003  0.00  0.00    -0.387 OA
ATOM     21  H10 H2P d   1      33.077  25.069  26.265  0.00  0.00     0.210 HD
ENDBRANCH   2  20
BRANCH   3  22
ATOM     22  O3  H2P d   1      32.669  22.780  24.144  0.00  0.00    -0.390 OA
ATOM     23  H11 H2P d   1      32.778  23.702  23.943  0.00  0.00     0.210 HD
ENDBRANCH   3  22
BRANCH   5  24
ATOM     24  C6  H2P d   1      32.040  19.493  27.790  0.00  0.00     0.043 C 
ATOM     25  H5  H2P d   1      31.192  19.031  27.264  0.00  0.00     0.078 H 
ATOM     26  H6  H2P d   1      31.895  19.396  28.876  0.00  0.00     0.078 H 
BRANCH  24  27
ATOM     27  O6  H2P d   1      33.281  18.805  27.405  0.00  0.00    -0.398 OA
ATOM     28  H13 H2P d   1      34.015  19.201  27.860  0.00  0.00     0.209 HD
ENDBRANCH  24  27
ENDBRANCH   5  24
BRANCH   4  29
ATOM     29  O4  H2P d   1      31.129  20.614  25.211  0.00  0.00    -0.390 OA
ATOM     30  H12 H2P d   1      30.354  21.088  25.487  0.00  0.00     0.210 HD
ENDBRANCH   4  29
TORSDOF 8
