REMARK  13 active torsions:
REMARK  status: ('A' for Active; 'I' for Inactive)
REMARK    1  A    between atoms: C1_1  and  C2_2 
REMARK    2  A    between atoms: C3_3  and  C1_1 
REMARK    3  A    between atoms: C1_1  and  C_35 
REMARK    4  A    between atoms: N3_27  and  C7_5 
REMARK    5  A    between atoms: C10_8  and  N4_26 
REMARK    6  A    between atoms: N4_26  and  C13_11 
REMARK    7  A    between atoms: C20_16  and  C21_17 
REMARK    8  A    between atoms: O1_22  and  C20_16 
REMARK    9  A    between atoms: C21_17  and  O2_23 
REMARK   10  A    between atoms: O2_23  and  C22_18 
REMARK   11  A    between atoms: C17_21  and  O1_22 
REMARK       I    between atoms: C6_28  and  N3_27 
REMARK   12  A    between atoms: C5_30  and  C6_28 
REMARK   13  A    between atoms: N_31  and  C5_30 
ROOT
ATOM      1  C7  F8H d   1      32.795  98.643   8.297  0.00  0.00     0.034 A 
ATOM      2  C8  F8H d   1      34.094  98.575   7.818  0.00  0.00    -0.055 A 
ATOM      3  C9  F8H d   1      34.860  97.450   8.042  0.00  0.00    -0.055 A 
ATOM      4  C10 F8H d   1      34.340  96.374   8.759  0.00  0.00     0.033 A 
ATOM      5  C11 F8H d   1      33.040  96.442   9.252  0.00  0.00    -0.055 A 
ATOM      6  C12 F8H d   1      32.272  97.570   9.023  0.00  0.00    -0.055 A 
ATOM      7  H5  F8H d   1      34.510  99.410   7.265  0.00  0.00     0.087 H 
ATOM      8  H6  F8H d   1      35.873  97.403   7.658  0.00  0.00     0.087 H 
ATOM      9  H7  F8H d   1      32.630  95.612   9.815  0.00  0.00     0.087 H 
ATOM     10  H8  F8H d   1      31.260  97.621   9.409  0.00  0.00     0.087 H 
ENDROOT
BRANCH   4  11
ATOM     11  N4  F8H d   1      35.173  95.268   8.959  0.00  0.00    -0.340 N 
ATOM     12  H19 F8H d   1      34.864  94.362   8.579  0.00  0.00     0.167 HD
BRANCH  11  13
ATOM     13  C13 F8H d   1      36.363  95.304   9.621  0.00  0.00     0.145 A 
ATOM     14  N6  F8H d   1      36.909  96.496   9.900  0.00  0.00    -0.223 NA
ATOM     15  C23 F8H d   1      38.077  96.491  10.551  0.00  0.00     0.089 A 
ATOM     16  N5  F8H d   1      38.785  95.465  10.964  0.00  0.00    -0.241 NA
ATOM     17  H18 F8H d   1      38.497  97.467  10.767  0.00  0.00     0.146 H 
ATOM     18  C15 F8H d   1      38.245  94.230  10.698  0.00  0.00     0.077 A 
ATOM     19  C14 F8H d   1      37.004  94.064  10.010  0.00  0.00     0.077 A 
ATOM     20  C16 F8H d   1      38.963  93.090  11.128  0.00  0.00    -0.022 A 
ATOM     21  C19 F8H d   1      36.572  92.733   9.796  0.00  0.00     0.135 A 
ATOM     22  F   F8H d   1      35.406  92.543   9.145  0.00  0.00    -0.205 F 
ATOM     23  C18 F8H d   1      37.255  91.636  10.212  0.00  0.00    -0.012 A 
ATOM     24  C17 F8H d   1      38.458  91.831  10.880  0.00  0.00     0.074 A 
ATOM     25  H17 F8H d   1      36.873  90.638  10.029  0.00  0.00     0.092 H 
ATOM     26  H9  F8H d   1      39.906  93.205  11.650  0.00  0.00     0.091 H 
BRANCH  24  27
ATOM     27  O1  F8H d   1      39.095  90.678  11.268  0.00  0.00    -0.349 OA
BRANCH  27  28
ATOM     28  C20 F8H d   1      40.353  90.794  11.963  0.00  0.00     0.046 C 
ATOM     29  H10 F8H d   1      41.126  91.157  11.269  0.00  0.00     0.078 H 
ATOM     30  H11 F8H d   1      40.249  91.502  12.798  0.00  0.00     0.078 H 
BRANCH  28  31
ATOM     31  C21 F8H d   1      40.742  89.456  12.488  0.00  0.00     0.039 C 
ATOM     32  H12 F8H d   1      41.737  89.515  12.953  0.00  0.00     0.077 H 
ATOM     33  H13 F8H d   1      40.764  88.727  11.665  0.00  0.00     0.077 H 
BRANCH  31  34
ATOM     34  O2  F8H d   1      39.787  89.057  13.454  0.00  0.00    -0.394 OA
BRANCH  34  35
ATOM     35  C22 F8H d   1      40.187  87.914  14.196  0.00  0.00     0.004 C 
ATOM     36  H14 F8H d   1      39.404  87.658  14.925  0.00  0.00     0.066 H 
ATOM     37  H15 F8H d   1      41.126  88.131  14.726  0.00  0.00     0.066 H 
ATOM     38  H16 F8H d   1      40.341  87.067  13.511  0.00  0.00     0.066 H 
ENDBRANCH  34  35
ENDBRANCH  31  34
ENDBRANCH  28  31
ENDBRANCH  27  28
ENDBRANCH  24  27
ENDBRANCH  11  13
ENDBRANCH   4  11
BRANCH   1  39
ATOM     39  N3  F8H d   1      32.109  99.847   8.025  0.00  0.00    -0.326 N 
ATOM     40  C6  F8H d   1      31.452 100.580   8.958  0.00  0.00     0.242 C 
ATOM     41  O   F8H d   1      31.258 100.189  10.107  0.00  0.00    -0.271 OA
ATOM     42  H20 F8H d   1      32.108 100.181   7.082  0.00  0.00     0.169 HD
BRANCH  40  43
ATOM     43  C5  F8H d   1      30.922 101.920   8.474  0.00  0.00     0.091 C 
ATOM     44  H21 F8H d   1      30.486 101.793   7.472  0.00  0.00     0.082 H 
ATOM     45  H22 F8H d   1      31.754 102.638   8.423  0.00  0.00     0.082 H 
BRANCH  43  46
ATOM     46  N   F8H d   1      29.902 102.438   9.374  0.00  0.00    -0.252 N 
ATOM     47  C4  F8H d   1      30.017 102.843  10.649  0.00  0.00     0.026 A 
ATOM     48  C3  F8H d   1      28.764 103.222  11.014  0.00  0.00     0.079 A 
ATOM     49  H23 F8H d   1      30.919 102.863  11.259  0.00  0.00     0.117 H 
ATOM     50  N2  F8H d   1      27.941 103.033   9.958  0.00  0.00    -0.135 NA
ATOM     51  N1  F8H d   1      28.634 102.553   8.954  0.00  0.00    -0.066 NA
BRANCH  48  52
ATOM     52  C1  F8H d   1      28.226 103.779  12.334  0.00  0.00    -0.015 C 
ATOM     53  H1  F8H d   1      27.171 104.050  12.179  0.00  0.00     0.048 H 
BRANCH  52  54
ATOM     54  C2  F8H d   1      28.284 102.761  13.462  0.00  0.00    -0.068 C 
ATOM     55  H2  F8H d   1      27.887 103.212  14.383  0.00  0.00     0.028 H 
ATOM     56  H3  F8H d   1      29.327 102.453  13.625  0.00  0.00     0.028 H 
ATOM     57  H4  F8H d   1      27.680 101.882  13.194  0.00  0.00     0.028 H 
ENDBRANCH  52  54
BRANCH  52  58
ATOM     58  C   F8H d   1      28.977 105.018  12.722  0.00  0.00    -0.068 C 
ATOM     59  H24 F8H d   1      28.930 105.748  11.900  0.00  0.00     0.028 H 
ATOM     60  H25 F8H d   1      30.027 104.762  12.925  0.00  0.00     0.028 H 
ATOM     61  H26 F8H d   1      28.525 105.453  13.626  0.00  0.00     0.028 H 
ENDBRANCH  52  58
ENDBRANCH  48  52
ENDBRANCH  43  46
ENDBRANCH  40  43
ENDBRANCH   1  39
TORSDOF 13
