REMARK  3 active torsions:
REMARK  status: ('A' for Active; 'I' for Inactive)
REMARK    1  A    between atoms: C02_2  and  C04_4 
REMARK    2  A    between atoms: C04_4  and  O05_5 
REMARK    3  A    between atoms: O05_5  and  C06_6 
ROOT
ATOM      1  C06 F52 d   1      42.908  -0.726   6.319  0.00  0.00     0.092 A 
ATOM      2  C07 F52 d   1      42.088   0.363   6.194  0.00  0.00    -0.026 A 
ATOM      3  C08 F52 d   1      42.062   1.328   7.160  0.00  0.00     0.058 A 
ATOM      4 CL1  F52 d   1      41.007   2.650   6.936  0.00  0.00    -0.082 Cl
ATOM      5  C10 F52 d   1      42.868   1.232   8.289  0.00  0.00     0.057 A 
ATOM      6 CL2  F52 d   1      42.843   2.458   9.502  0.00  0.00    -0.082 Cl
ATOM      7  C12 F52 d   1      43.721   0.129   8.438  0.00  0.00    -0.036 A 
ATOM      8  C13 F52 d   1      43.724  -0.844   7.434  0.00  0.00     0.069 A 
ATOM      9 CL3  F52 d   1      44.763  -2.222   7.587  0.00  0.00    -0.081 Cl
ATOM     10  H3  F52 d   1      41.454   0.460   5.320  0.00  0.00     0.090 H 
ATOM     11  H4  F52 d   1      44.361   0.033   9.308  0.00  0.00     0.088 H 
ENDROOT
BRANCH   1  12
ATOM     12  O05 F52 d   1      42.975  -1.716   5.375  0.00  0.00    -0.339 OA
BRANCH  12  13
ATOM     13  C04 F52 d   1      44.010  -1.594   4.424  0.00  0.00     0.106 C 
ATOM     14  H1  F52 d   1      44.970  -1.496   4.953  0.00  0.00     0.091 H 
ATOM     15  H2  F52 d   1      44.027  -2.499   3.798  0.00  0.00     0.091 H 
BRANCH  13  16
ATOM     16  C02 F52 d   1      43.816  -0.392   3.538  0.00  0.00     0.198 C 
ATOM     17  O01 F52 d   1      42.589  -0.035   3.298  0.00  0.00    -0.646 OA
ATOM     18  O03 F52 d   1      44.792   0.210   3.072  0.00  0.00    -0.646 OA
ENDBRANCH  13  16
ENDBRANCH  12  13
ENDBRANCH   1  12
TORSDOF 3
