REMARK  0 active torsions:
REMARK  status: ('A' for Active; 'I' for Inactive)
ROOT
ATOM      1  C01 F4Z d   1       0.618  -0.568 -23.248  0.00  0.00    -0.052 A 
ATOM      2  C02 F4Z d   1       1.123  -0.541 -21.998  0.00  0.00     0.102 A 
ATOM      3  C03 F4Z d   1       0.338  -0.196 -20.848  0.00  0.00     0.289 A 
ATOM      4  O04 F4Z d   1       0.739  -0.160 -19.693  0.00  0.00    -0.264 OA
ATOM      5  N05 F4Z d   1      -0.950   0.093 -21.131  0.00  0.00    -0.199 NA
ATOM      6  C06 F4Z d   1      -1.441   0.055 -22.356  0.00  0.00     0.129 A 
ATOM      7  C07 F4Z d   1      -0.738  -0.257 -23.451  0.00  0.00     0.089 A 
ATOM      8 CL8  F4Z d   1      -1.426  -0.287 -25.029  0.00  0.00    -0.113 Cl
ATOM      9 CL9  F4Z d   1      -3.104   0.450 -22.496  0.00  0.00    -0.065 Cl
ATOM     10 CL1  F4Z d   1       2.802  -0.912 -21.726  0.00  0.00    -0.079 Cl
ATOM     11  H1  F4Z d   1       1.254  -0.828 -24.092  0.00  0.00     0.082 H 
ATOM     12  H2  F4Z d   1      -0.486   0.804 -23.597  0.00  0.00     0.082 H 
ENDROOT
TORSDOF 0
