REMARK  9 active torsions:
REMARK  status: ('A' for Active; 'I' for Inactive)
REMARK    1  A    between atoms: N12_2  and  C13_3 
REMARK    2  A    between atoms: C11_19  and  N12_2 
REMARK    3  A    between atoms: C13_3  and  C14_20 
REMARK    4  A    between atoms: C26_8  and  C27_28 
REMARK    5  A    between atoms: C27_28  and  C28_9 
REMARK    6  A    between atoms: C28_9  and  O29_29 
REMARK    7  A    between atoms: C02_11  and  C01_10 
REMARK    8  A    between atoms: C03_12  and  C02_11 
REMARK    9  A    between atoms: C09_18  and  N21_25 
ROOT
ATOM      1  C10 1QK d   1      23.804  22.123  -1.332  0.00  0.00     0.005 A 
ATOM      2  C03 1QK d   1      20.004  22.025  -2.767  0.00  0.00     0.009 A 
ATOM      3  C04 1QK d   1      19.899  23.383  -2.981  0.00  0.00     0.032 A 
ATOM      4  N05 1QK d   1      21.020  24.040  -2.685  0.00  0.00    -0.176 NA
ATOM      5  N06 1QK d   1      21.868  23.067  -2.226  0.00  0.00    -0.199 N 
ATOM      6  C07 1QK d   1      21.282  21.809  -2.272  0.00  0.00     0.163 A 
ATOM      7  N08 1QK d   1      21.933  20.700  -1.849  0.00  0.00    -0.211 NA
ATOM      8  C09 1QK d   1      23.197  20.858  -1.383  0.00  0.00     0.132 A 
ATOM      9  C11 1QK d   1      23.132  23.258  -1.767  0.00  0.00     0.131 A 
ATOM     10  H1  1QK d   1      24.818  22.216  -0.945  0.00  0.00     0.095 H 
ATOM     11  H19 1QK d   1      18.997  23.867  -3.352  0.00  0.00     0.118 H 
ENDROOT
BRANCH   8  12
ATOM     12  N21 1QK d   1      23.876  19.739  -0.946  0.00  0.00    -0.361 N 
ATOM     13  C22 1QK d   1      25.192  19.847  -0.295  0.00  0.00    -0.003 C 
ATOM     14  C23 1QK d   1      25.901  18.523  -0.251  0.00  0.00    -0.050 C 
ATOM     15  H7  1QK d   1      25.052  20.211   0.734  0.00  0.00     0.064 H 
ATOM     16  H8  1QK d   1      25.810  20.564  -0.856  0.00  0.00     0.064 H 
ATOM     17  C24 1QK d   1      25.664  17.786  -1.525  0.00  0.00    -0.062 C 
ATOM     18  H22 1QK d   1      25.517  17.930   0.592  0.00  0.00     0.035 H 
ATOM     19  H23 1QK d   1      26.980  18.690  -0.120  0.00  0.00     0.035 H 
ATOM     20  C25 1QK d   1      24.214  17.340  -1.571  0.00  0.00    -0.046 C 
ATOM     21  H9  1QK d   1      26.323  16.906  -1.571  0.00  0.00     0.033 H 
ATOM     22  H10 1QK d   1      25.875  18.447  -2.379  0.00  0.00     0.033 H 
ATOM     23  C26 1QK d   1      23.255  18.394  -1.024  0.00  0.00     0.015 C 
ATOM     24  H24 1QK d   1      24.109  16.424  -0.972  0.00  0.00     0.036 H 
ATOM     25  H25 1QK d   1      23.944  17.128  -2.616  0.00  0.00     0.036 H 
ATOM     26  H11 1QK d   1      22.427  18.464  -1.745  0.00  0.00     0.072 H 
BRANCH  23  27
ATOM     27  C27 1QK d   1      22.637  18.012   0.324  0.00  0.00    -0.026 C 
ATOM     28  H26 1QK d   1      22.903  18.781   1.064  0.00  0.00     0.039 H 
ATOM     29  H27 1QK d   1      23.049  17.042   0.639  0.00  0.00     0.039 H 
BRANCH  27  30
ATOM     30  C28 1QK d   1      21.133  17.901   0.260  0.00  0.00     0.019 C 
ATOM     31  H12 1QK d   1      20.755  17.675   1.268  0.00  0.00     0.074 H 
ATOM     32  H13 1QK d   1      20.870  17.079  -0.423  0.00  0.00     0.074 H 
BRANCH  30  33
ATOM     33  O29 1QK d   1      20.509  19.093  -0.203  0.00  0.00    -0.401 OA
ATOM     34  H28 1QK d   1      20.822  19.294  -1.077  0.00  0.00     0.209 HD
ENDBRANCH  30  33
ENDBRANCH  27  30
ENDBRANCH  23  27
ENDBRANCH   8  12
BRANCH   9  35
ATOM     35  N12 1QK d   1      23.683  24.523  -1.784  0.00  0.00    -0.370 N 
ATOM     36  H2  1QK d   1      23.134  25.283  -2.211  0.00  0.00     0.161 HD
BRANCH  35  37
ATOM     37  C13 1QK d   1      24.984  24.850  -1.239  0.00  0.00     0.019 C 
ATOM     38  H3  1QK d   1      25.147  24.219  -0.353  0.00  0.00     0.071 H 
ATOM     39  H4  1QK d   1      24.968  25.908  -0.938  0.00  0.00     0.071 H 
BRANCH  37  40
ATOM     40  C14 1QK d   1      26.156  24.651  -2.171  0.00  0.00    -0.022 A 
ATOM     41  C15 1QK d   1      27.066  23.629  -1.947  0.00  0.00    -0.072 A 
ATOM     42  C16 1QK d   1      28.214  23.547  -2.723  0.00  0.00    -0.065 A 
ATOM     43  H5  1QK d   1      26.882  22.897  -1.169  0.00  0.00     0.084 H 
ATOM     44  C17 1QK d   1      28.441  24.475  -3.708  0.00  0.00     0.010 A 
ATOM     45  H20 1QK d   1      28.930  22.751  -2.551  0.00  0.00     0.085 H 
ATOM     46  N18 1QK d   1      27.541  25.452  -3.935  0.00  0.00    -0.211 N 
ATOM     47  H6  1QK d   1      29.345  24.422  -4.304  0.00  0.00     0.115 H 
ATOM     48  C19 1QK d   1      26.387  25.510  -3.228  0.00  0.00     0.018 A 
ATOM     49  O20 1QK d   1      27.792  26.356  -4.859  0.00  0.00    -0.082 OA
ATOM     50  H21 1QK d   1      25.633  26.242  -3.496  0.00  0.00     0.116 H 
ENDBRANCH  37  40
ENDBRANCH  35  37
ENDBRANCH   9  35
BRANCH   2  51
ATOM     51  C02 1QK d   1      19.004  20.942  -3.048  0.00  0.00    -0.039 C 
ATOM     52  H17 1QK d   1      18.554  21.144  -4.031  0.00  0.00     0.039 H 
ATOM     53  H18 1QK d   1      19.544  19.984  -3.081  0.00  0.00     0.039 H 
BRANCH  51  54
ATOM     54  C01 1QK d   1      17.877  20.808  -2.038  0.00  0.00    -0.072 C 
ATOM     55  H14 1QK d   1      17.208  19.989  -2.341  0.00  0.00     0.028 H 
ATOM     56  H15 1QK d   1      17.309  21.749  -1.996  0.00  0.00     0.028 H 
ATOM     57  H16 1QK d   1      18.298  20.589  -1.046  0.00  0.00     0.028 H 
ENDBRANCH  51  54
ENDBRANCH   2  51
TORSDOF 9
