REMARK  9 active torsions:
REMARK  status: ('A' for Active; 'I' for Inactive)
REMARK    1  A    between atoms: C5_3  and  C4_1 
REMARK    2  A    between atoms: N3_15  and  C8_7 
REMARK    3  A    between atoms: C9_8  and  N3_15 
REMARK    4  A    between atoms: C12_10  and  S1_18 
REMARK    5  A    between atoms: S1_18  and  C13_11 
REMARK    6  A    between atoms: C2_17  and  C1_16 
REMARK    7  A    between atoms: N5_23  and  C16_24 
REMARK    8  A    between atoms: C16_24  and  C17_25 
REMARK    9  A    between atoms: C16_24  and  C18_26 
ROOT
ATOM      1  C5  FB8 d   1      33.045  12.710  12.511  0.00  0.00     0.105 A 
ATOM      2  C6  FB8 d   1      33.497  11.407  12.335  0.00  0.00    -0.035 A 
ATOM      3  C7  FB8 d   1      34.704  11.233  11.687  0.00  0.00     0.023 A 
ATOM      4  C8  FB8 d   1      34.957  13.498  11.470  0.00  0.00     0.727 A 
ATOM      5  N2  FB8 d   1      35.450  12.252  11.253  0.00  0.00    -0.075 NA
ATOM      6  N4  FB8 d   1      33.791  13.757  12.104  0.00  0.00    -0.061 NA
ATOM      7  H2  FB8 d   1      32.923  10.560  12.693  0.00  0.00     0.089 H 
ATOM      8  H4  FB8 d   1      35.062  10.223  11.523  0.00  0.00     0.115 H 
ENDROOT
BRANCH   1   9
ATOM      9  C4  FB8 d   1      31.785  12.985  13.208  0.00  0.00     0.083 A 
ATOM     10  C3  FB8 d   1      31.224  12.271  14.230  0.00  0.00     0.032 A 
ATOM     11  N1  FB8 d   1      30.041  12.828  14.643  0.00  0.00    -0.245 NA
ATOM     12  H9  FB8 d   1      31.662  11.372  14.662  0.00  0.00     0.118 H 
ATOM     13  C2  FB8 d   1      29.860  13.894  13.875  0.00  0.00     0.102 A 
ATOM     14  N5  FB8 d   1      30.895  14.045  12.950  0.00  0.00    -0.328 N 
BRANCH  13  15
ATOM     15  C1  FB8 d   1      28.700  14.815  13.982  0.00  0.00    -0.021 C 
ATOM     16  H11 FB8 d   1      28.033  14.473  14.787  0.00  0.00     0.037 H 
ATOM     17  H12 FB8 d   1      28.150  14.824  13.029  0.00  0.00     0.037 H 
ATOM     18  H13 FB8 d   1      29.058  15.830  14.209  0.00  0.00     0.037 H 
ENDBRANCH  13  15
BRANCH  14  19
ATOM     19  C16 FB8 d   1      31.020  15.113  11.950  0.00  0.00     0.011 C 
ATOM     20  H15 FB8 d   1      31.957  14.925  11.405  0.00  0.00     0.072 H 
BRANCH  19  21
ATOM     21  C17 FB8 d   1      31.176  16.473  12.616  0.00  0.00    -0.057 C 
ATOM     22  H16 FB8 d   1      31.267  17.251  11.844  0.00  0.00     0.030 H 
ATOM     23  H17 FB8 d   1      32.079  16.472  13.244  0.00  0.00     0.030 H 
ATOM     24  H18 FB8 d   1      30.295  16.678  13.241  0.00  0.00     0.030 H 
ENDBRANCH  19  21
BRANCH  19  25
ATOM     25  C18 FB8 d   1      29.906  15.067  10.908  0.00  0.00    -0.057 C 
ATOM     26  H19 FB8 d   1      30.046  15.885  10.185  0.00  0.00     0.030 H 
ATOM     27  H20 FB8 d   1      28.932  15.181  11.407  0.00  0.00     0.030 H 
ATOM     28  H21 FB8 d   1      29.937  14.102  10.380  0.00  0.00     0.030 H 
ENDBRANCH  19  25
ENDBRANCH  14  19
ENDBRANCH   1   9
BRANCH   4  29
ATOM     29  N3  FB8 d   1      35.764  14.509  11.019  0.00  0.00    -0.188 N 
ATOM     30  H10 FB8 d   1      36.768  14.279  11.018  0.00  0.00     0.184 HD
BRANCH  29  31
ATOM     31  C9  FB8 d   1      35.466  15.813  10.554  0.00  0.00     0.049 A 
ATOM     32  C10 FB8 d   1      34.203  16.213  10.095  0.00  0.00    -0.055 A 
ATOM     33  C11 FB8 d   1      33.991  17.504   9.648  0.00  0.00    -0.060 A 
ATOM     34  H5  FB8 d   1      33.384  15.503  10.091  0.00  0.00     0.087 H 
ATOM     35  C12 FB8 d   1      35.043  18.406   9.645  0.00  0.00     0.059 A 
ATOM     36  H3  FB8 d   1      33.010  17.808   9.303  0.00  0.00     0.085 H 
ATOM     37  C14 FB8 d   1      36.305  18.024  10.071  0.00  0.00    -0.060 A 
ATOM     38  C15 FB8 d   1      36.515  16.740  10.528  0.00  0.00    -0.055 A 
ATOM     39  H1  FB8 d   1      37.125  18.733  10.045  0.00  0.00     0.085 H 
ATOM     40  H14 FB8 d   1      37.501  16.446  10.870  0.00  0.00     0.087 H 
BRANCH  35  41
ATOM     41  S1  FB8 d   1      34.795  20.062   9.077  0.00  0.00     0.171 S 
ATOM     42  O1  FB8 d   1      35.522  20.204   7.854  0.00  0.00    -0.223 OA
ATOM     43  O2  FB8 d   1      33.391  20.352   9.072  0.00  0.00    -0.223 OA
BRANCH  41  44
ATOM     44  C13 FB8 d   1      35.556  21.067  10.294  0.00  0.00     0.020 C 
ATOM     45  H6  FB8 d   1      35.447  22.126  10.016  0.00  0.00     0.049 H 
ATOM     46  H7  FB8 d   1      36.624  20.814  10.363  0.00  0.00     0.049 H 
ATOM     47  H8  FB8 d   1      35.074  20.892  11.267  0.00  0.00     0.049 H 
ENDBRANCH  41  44
ENDBRANCH  35  41
ENDBRANCH  29  31
ENDBRANCH   4  29
TORSDOF 9
