REMARK  6 active torsions:
REMARK  status: ('A' for Active; 'I' for Inactive)
REMARK    1  A    between atoms: C4_1  and  C5_3 
REMARK    2  A    between atoms: C6_4  and  O1_16 
REMARK    3  A    between atoms: C8_7  and  O2_17 
REMARK    4  A    between atoms: C12_10  and  C13_11 
REMARK    5  A    between atoms: N1_12  and  C1_14 
REMARK    6  A    between atoms: C20_26  and  O5_27 
ROOT
ATOM      1  C5  F9Z d   1      -8.151 -20.860  21.074  0.00  0.00     0.017 A 
ATOM      2  C6  F9Z d   1      -9.239 -20.268  20.393  0.00  0.00     0.077 A 
ATOM      3  C11 F9Z d   1      -8.827 -23.122  24.602  0.00  0.00    -0.000 C 
ATOM      4  C7  F9Z d   1     -10.542 -20.379  20.884  0.00  0.00    -0.017 A 
ATOM      5  C8  F9Z d   1     -10.784 -21.103  22.037  0.00  0.00     0.085 A 
ATOM      6  C9  F9Z d   1      -9.719 -21.724  22.726  0.00  0.00     0.082 A 
ATOM      7  C10 F9Z d   1      -9.968 -22.487  23.963  0.00  0.00     0.190 C 
ATOM      8  C12 F9Z d   1      -7.593 -23.062  24.008  0.00  0.00     0.091 C 
ATOM      9  O3  F9Z d   1     -11.093 -22.542  24.457  0.00  0.00    -0.287 OA
ATOM     10  O4  F9Z d   1      -7.366 -22.246  22.883  0.00  0.00    -0.308 OA
ATOM     11  C19 F9Z d   1      -8.411 -21.607  22.226  0.00  0.00     0.102 A 
ATOM     12  H3  F9Z d   1      -8.952 -23.644  25.550  0.00  0.00     0.094 H 
ATOM     13  H4  F9Z d   1     -11.362 -19.899  20.362  0.00  0.00     0.092 H 
ENDROOT
BRANCH   1  14
ATOM     14  C4  F9Z d   1      -6.727 -20.725  20.546  0.00  0.00     0.005 C 
ATOM     15  C3  F9Z d   1      -6.218 -21.986  19.856  0.00  0.00    -0.033 C 
ATOM     16  C2  F9Z d   1      -4.742 -21.859  19.513  0.00  0.00     0.084 C 
ATOM     17  H6  F9Z d   1      -6.790 -22.146  18.930  0.00  0.00     0.036 H 
ATOM     18  H7  F9Z d   1      -6.359 -22.846  20.527  0.00  0.00     0.036 H 
ATOM     19  N1  F9Z d   1      -4.359 -20.598  18.846  0.00  0.00    -0.072 N 
ATOM     20  H11 F9Z d   1      -4.167 -21.938  20.448  0.00  0.00     0.076 H 
ATOM     21  H12 F9Z d   1      -4.474 -22.692  18.846  0.00  0.00     0.076 H 
ATOM     22  C21 F9Z d   1      -4.865 -19.456  19.601  0.00  0.00     0.107 C 
ATOM     23  H5  F9Z d   1      -4.775 -20.585  17.928  0.00  0.00     0.279 HD
ATOM     24  C20 F9Z d   1      -6.366 -19.610  19.572  0.00  0.00     0.066 C 
ATOM     25  H20 F9Z d   1      -4.563 -18.512  19.124  0.00  0.00     0.080 H 
ATOM     26  H21 F9Z d   1      -4.493 -19.480  20.636  0.00  0.00     0.080 H 
ATOM     27  H18 F9Z d   1      -6.692 -19.919  18.568  0.00  0.00     0.086 H 
ATOM     28  H1  F9Z d   1      -6.113 -20.562  21.444  0.00  0.00     0.051 H 
BRANCH  19  29
ATOM     29  C1  F9Z d   1      -2.910 -20.505  18.695  0.00  0.00     0.066 C 
ATOM     30  H8  F9Z d   1      -2.544 -21.372  18.125  0.00  0.00     0.068 H 
ATOM     31  H9  F9Z d   1      -2.438 -20.494  19.688  0.00  0.00     0.068 H 
ATOM     32  H10 F9Z d   1      -2.656 -19.579  18.158  0.00  0.00     0.068 H 
ENDBRANCH  19  29
BRANCH  24  33
ATOM     33  O5  F9Z d   1      -6.907 -18.348  19.832  0.00  0.00    -0.393 OA
ATOM     34  H19 F9Z d   1      -7.855 -18.403  19.821  0.00  0.00     0.210 HD
ENDBRANCH  24  33
ENDBRANCH   1  14
BRANCH   2  35
ATOM     35  O1  F9Z d   1      -9.110 -19.542  19.245  0.00  0.00    -0.360 OA
ATOM     36  H13 F9Z d   1      -8.196 -19.520  18.987  0.00  0.00     0.217 HD
ENDBRANCH   2  35
BRANCH   5  37
ATOM     37  O2  F9Z d   1     -12.056 -21.231  22.475  0.00  0.00    -0.360 OA
ATOM     38  H14 F9Z d   1     -12.123 -20.880  23.355  0.00  0.00     0.217 HD
ENDBRANCH   5  37
BRANCH   8  39
ATOM     39  C13 F9Z d   1      -6.403 -23.851  24.451  0.00  0.00     0.020 A 
ATOM     40  C14 F9Z d   1      -6.572 -25.139  24.958  0.00  0.00    -0.069 A 
ATOM     41  C15 F9Z d   1      -5.486 -25.905  25.363  0.00  0.00    -0.082 A 
ATOM     42  H2  F9Z d   1      -7.571 -25.551  25.038  0.00  0.00     0.085 H 
ATOM     43  C16 F9Z d   1      -4.208 -25.394  25.305  0.00  0.00    -0.081 A 
ATOM     44  H15 F9Z d   1      -5.646 -26.913  25.728  0.00  0.00     0.083 H 
ATOM     45  C17 F9Z d   1      -4.010 -24.124  24.835  0.00  0.00    -0.061 A 
ATOM     46  H16 F9Z d   1      -3.365 -25.994  25.629  0.00  0.00     0.083 H 
ATOM     47  C18 F9Z d   1      -5.099 -23.369  24.417  0.00  0.00     0.047 A 
ATOM     48  H17 F9Z d   1      -3.009 -23.709  24.789  0.00  0.00     0.086 H 
ATOM     49 CL1  F9Z d   1      -4.748 -21.813  23.824  0.00  0.00    -0.083 Cl
ENDBRANCH   8  39
TORSDOF 6
