REMARK  7 active torsions:
REMARK  status: ('A' for Active; 'I' for Inactive)
REMARK    1  A    between atoms: CAM_7  and  N6_8 
REMARK    2  A    between atoms: N6_8  and  C6_9 
REMARK    3  A    between atoms: N9_14  and  CAZ_15 
REMARK    4  A    between atoms: CAZ_15  and  CBA_16 
REMARK    5  A    between atoms: C2_19  and  N2_20 
REMARK    6  A    between atoms: N2_20  and  CAG_21 
REMARK    7  A    between atoms: CAA_26  and  NAB_27 
ROOT
ATOM      1  C6  23D d   1      -7.506 -24.049  24.543  0.00  0.00     0.180 A 
ATOM      2  N1  23D d   1      -6.363 -23.697  23.906  0.00  0.00    -0.043 NA
ATOM      3  C5  23D d   1      -8.673 -23.355  24.218  0.00  0.00     0.151 A 
ATOM      4  N7  23D d   1      -9.974 -23.475  24.661  0.00  0.00    -0.236 NA
ATOM      5  C8  23D d   1     -10.606 -22.547  23.983  0.00  0.00     0.068 A 
ATOM      6  N9  23D d   1      -9.809 -21.833  23.140  0.00  0.00    -0.324 N 
ATOM      7  C4  23D d   1      -8.563 -22.353  23.279  0.00  0.00     0.182 A 
ATOM      8  N3  23D d   1      -7.456 -21.975  22.630  0.00  0.00    -0.042 NA
ATOM      9  C2  23D d   1      -6.379 -22.695  22.991  0.00  0.00     0.726 A 
ATOM     10  H6  23D d   1     -11.675 -22.363  24.085  0.00  0.00     0.143 H 
ENDROOT
BRANCH   9  11
ATOM     11  N2  23D d   1      -5.233 -22.371  22.388  0.00  0.00    -0.216 N 
ATOM     12  H12 23D d   1      -5.289 -21.747  21.571  0.00  0.00     0.178 HD
BRANCH  11  13
ATOM     13  CAG 23D d   1      -3.910 -22.828  22.791  0.00  0.00     0.053 C 
ATOM     14  CAF 23D d   1      -2.890 -21.742  22.458  0.00  0.00    -0.044 C 
ATOM     15  CAE 23D d   1      -1.453 -22.257  22.450  0.00  0.00    -0.063 C 
ATOM     16  H14 23D d   1      -2.972 -20.942  23.209  0.00  0.00     0.036 H 
ATOM     17  H15 23D d   1      -3.123 -21.336  21.462  0.00  0.00     0.036 H 
ATOM     18  CAD 23D d   1      -1.316 -23.634  23.061  0.00  0.00    -0.063 C 
ATOM     19  H16 23D d   1      -0.826 -21.556  23.021  0.00  0.00     0.033 H 
ATOM     20  H17 23D d   1      -1.101 -22.299  21.409  0.00  0.00     0.033 H 
ATOM     21  CAC 23D d   1      -2.162 -24.642  22.300  0.00  0.00    -0.037 C 
ATOM     22  H18 23D d   1      -1.649 -23.600  24.109  0.00  0.00     0.033 H 
ATOM     23  H19 23D d   1      -0.261 -23.944  23.022  0.00  0.00     0.033 H 
ATOM     24  CAA 23D d   1      -3.609 -24.172  22.117  0.00  0.00     0.120 C 
ATOM     25  H20 23D d   1      -2.167 -25.591  22.857  0.00  0.00     0.036 H 
ATOM     26  H21 23D d   1      -1.714 -24.801  21.308  0.00  0.00     0.036 H 
ATOM     27  H22 23D d   1      -4.266 -24.928  22.571  0.00  0.00     0.087 H 
ATOM     28  H13 23D d   1      -3.902 -22.983  23.880  0.00  0.00     0.076 H 
BRANCH  24  29
ATOM     29  NAB 23D d   1      -3.927 -24.081  20.661  0.00  0.00    -0.073 N 
ATOM     30  H23 23D d   1      -4.879 -23.772  20.544  0.00  0.00     0.274 HD
ATOM     31  H24 23D d   1      -3.813 -24.987  20.235  0.00  0.00     0.274 HD
ATOM     32  H25 23D d   1      -3.303 -23.422  20.221  0.00  0.00     0.274 HD
ENDBRANCH  24  29
ENDBRANCH  11  13
ENDBRANCH   9  11
BRANCH   1  33
ATOM     33  N6  23D d   1      -7.568 -25.033  25.482  0.00  0.00    -0.338 N 
ATOM     34  H5  23D d   1      -8.517 -25.280  25.797  0.00  0.00     0.167 HD
BRANCH  33  35
ATOM     35  CAM 23D d   1      -6.524 -25.766  26.089  0.00  0.00     0.035 A 
ATOM     36  CAS 23D d   1      -5.510 -26.232  25.260  0.00  0.00    -0.036 A 
ATOM     37  CAQ 23D d   1      -4.483 -26.955  25.811  0.00  0.00     0.036 A 
ATOM     38  H1  23D d   1      -5.531 -26.027  24.196  0.00  0.00     0.089 H 
ATOM     39 CL1  23D d   1      -3.271 -27.534  24.712  0.00  0.00    -0.084 Cl
ATOM     40  CAP 23D d   1      -4.403 -27.235  27.161  0.00  0.00    -0.062 A 
ATOM     41  CAO 23D d   1      -5.397 -26.749  27.986  0.00  0.00    -0.079 A 
ATOM     42  H2  23D d   1      -3.583 -27.820  27.561  0.00  0.00     0.086 H 
ATOM     43  CAN 23D d   1      -6.466 -26.036  27.456  0.00  0.00    -0.057 A 
ATOM     44  H3  23D d   1      -5.344 -26.924  29.054  0.00  0.00     0.083 H 
ATOM     45  H4  23D d   1      -7.259 -25.688  28.108  0.00  0.00     0.086 H 
ENDBRANCH  33  35
ENDBRANCH   1  33
BRANCH   6  46
ATOM     46  CAZ 23D d   1     -10.235 -20.762  22.237  0.00  0.00    -0.001 C 
ATOM     47  H7  23D d   1     -11.288 -20.525  22.447  0.00  0.00     0.064 H 
ATOM     48  H8  23D d   1     -10.139 -21.119  21.201  0.00  0.00     0.064 H 
BRANCH  46  49
ATOM     49  CBA 23D d   1      -9.422 -19.505  22.388  0.00  0.00    -0.061 C 
ATOM     50  H9  23D d   1      -9.791 -18.743  21.685  0.00  0.00     0.029 H 
ATOM     51  H10 23D d   1      -8.366 -19.723  22.171  0.00  0.00     0.029 H 
ATOM     52  H11 23D d   1      -9.515 -19.130  23.418  0.00  0.00     0.029 H 
ENDBRANCH  46  49
ENDBRANCH   6  46
TORSDOF 7
