REMARK  11 active torsions:
REMARK  status: ('A' for Active; 'I' for Inactive)
REMARK    1  A    between atoms: C4_1  and  C2_17 
REMARK    2  A    between atoms: C12_10  and  C11_5 
REMARK    3  A    between atoms: C11_5  and  N6_21 
REMARK    4  A    between atoms: C7_6  and  S1_18 
REMARK    5  A    between atoms: C8_7  and  C9_8 
REMARK    6  A    between atoms: S1_18  and  C8_7 
REMARK    7  A    between atoms: C9_8  and  N4_19 
REMARK    8  A    between atoms: N6_21  and  C10_9 
REMARK    9  A    between atoms: C2_17  and  C3_14 
REMARK   10  A    between atoms: C2_17  and  C1_16 
REMARK   11  A    between atoms: C15_22  and  C18_25 
ROOT
ATOM      1  C4  FCQ d   1      19.236  24.859 -24.940  0.00  0.00     0.062 A 
ATOM      2  C5  FCQ d   1      17.192  25.521 -24.378  0.00  0.00     0.153 A 
ATOM      3  C6  FCQ d   1      18.540  25.611 -24.042  0.00  0.00     0.118 A 
ATOM      4  C7  FCQ d   1      18.028  26.968 -22.290  0.00  0.00     0.191 A 
ATOM      5  C10 FCQ d   1      16.259  26.201 -23.584  0.00  0.00     0.160 A 
ATOM      6  N1  FCQ d   1      18.388  24.298 -25.797  0.00  0.00    -0.279 N 
ATOM      7  N2  FCQ d   1      17.148  24.705 -25.448  0.00  0.00    -0.168 NA
ATOM      8  N3  FCQ d   1      18.980  26.348 -22.993  0.00  0.00    -0.218 NA
ATOM      9  N5  FCQ d   1      16.697  26.919 -22.531  0.00  0.00    -0.203 NA
ATOM     10  H9  FCQ d   1      18.631  23.672 -26.578  0.00  0.00     0.189 HD
ENDROOT
BRANCH   5  11
ATOM     11  N6  FCQ d   1      14.909  26.125 -23.800  0.00  0.00    -0.368 N 
ATOM     12  H20 FCQ d   1      14.576  25.811 -24.723  0.00  0.00     0.161 HD
BRANCH  11  13
ATOM     13  C11 FCQ d   1      13.918  26.470 -22.780  0.00  0.00     0.018 C 
ATOM     14  H2  FCQ d   1      13.054  25.795 -22.870  0.00  0.00     0.071 H 
ATOM     15  H3  FCQ d   1      14.369  26.357 -21.783  0.00  0.00     0.071 H 
BRANCH  13  16
ATOM     16  C12 FCQ d   1      13.458  27.896 -22.961  0.00  0.00    -0.041 A 
ATOM     17  C13 FCQ d   1      13.498  28.817 -21.928  0.00  0.00    -0.074 A 
ATOM     18  C14 FCQ d   1      13.040  30.109 -22.119  0.00  0.00    -0.070 A 
ATOM     19  H8  FCQ d   1      13.891  28.524 -20.961  0.00  0.00     0.084 H 
ATOM     20  C15 FCQ d   1      12.531  30.513 -23.352  0.00  0.00    -0.007 A 
ATOM     21  H1  FCQ d   1      13.078  30.816 -21.299  0.00  0.00     0.084 H 
ATOM     22  C16 FCQ d   1      12.515  29.584 -24.390  0.00  0.00    -0.070 A 
ATOM     23  C17 FCQ d   1      12.961  28.296 -24.187  0.00  0.00    -0.074 A 
ATOM     24  H21 FCQ d   1      12.148  29.877 -25.367  0.00  0.00     0.084 H 
ATOM     25  H22 FCQ d   1      12.921  27.584 -25.003  0.00  0.00     0.084 H 
BRANCH  20  26
ATOM     26  C18 FCQ d   1      12.116  31.918 -23.584  0.00  0.00     0.066 A 
ATOM     27  N7  FCQ d   1      12.646  32.841 -22.745  0.00  0.00    -0.260 NA
ATOM     28  C19 FCQ d   1      12.328  34.131 -22.937  0.00  0.00     0.003 A 
ATOM     29  C20 FCQ d   1      11.523  34.562 -23.961  0.00  0.00    -0.066 A 
ATOM     30  H23 FCQ d   1      12.727  34.868 -22.249  0.00  0.00     0.114 H 
ATOM     31  C21 FCQ d   1      11.019  33.623 -24.832  0.00  0.00    -0.079 A 
ATOM     32  H24 FCQ d   1      11.290  35.614 -24.081  0.00  0.00     0.085 H 
ATOM     33  C22 FCQ d   1      11.326  32.290 -24.654  0.00  0.00    -0.054 A 
ATOM     34  H25 FCQ d   1      10.383  33.930 -25.655  0.00  0.00     0.083 H 
ATOM     35  H26 FCQ d   1      10.952  31.544 -25.345  0.00  0.00     0.087 H 
ENDBRANCH  20  26
ENDBRANCH  13  16
ENDBRANCH  11  13
ENDBRANCH   5  11
BRANCH   4  36
ATOM     36  S1  FCQ d   1      18.527  27.970 -20.942  0.00  0.00    -0.088 SA
BRANCH  36  37
ATOM     37  C8  FCQ d   1      16.957  28.323 -20.096  0.00  0.00     0.006 C 
ATOM     38  H4  FCQ d   1      17.077  29.227 -19.481  0.00  0.00     0.052 H 
ATOM     39  H5  FCQ d   1      16.175  28.494 -20.850  0.00  0.00     0.052 H 
BRANCH  37  40
ATOM     40  C9  FCQ d   1      16.540  27.174 -19.206  0.00  0.00     0.088 C 
ATOM     41  H6  FCQ d   1      16.758  26.231 -19.729  0.00  0.00     0.076 H 
ATOM     42  H7  FCQ d   1      15.458  27.250 -19.022  0.00  0.00     0.076 H 
BRANCH  40  43
ATOM     43  N4  FCQ d   1      17.235  27.159 -17.906  0.00  0.00    -0.079 N 
ATOM     44  H17 FCQ d   1      16.914  26.373 -17.363  0.00  0.00     0.274 HD
ATOM     45  H18 FCQ d   1      17.038  28.014 -17.410  0.00  0.00     0.274 HD
ATOM     46  H19 FCQ d   1      18.229  27.080 -18.057  0.00  0.00     0.274 HD
ENDBRANCH  40  43
ENDBRANCH  37  40
ENDBRANCH  36  37
ENDBRANCH   4  36
BRANCH   1  47
ATOM     47  C2  FCQ d   1      20.716  24.597 -25.001  0.00  0.00    -0.017 C 
ATOM     48  H16 FCQ d   1      20.940  24.226 -26.012  0.00  0.00     0.048 H 
BRANCH  47  49
ATOM     49  C3  FCQ d   1      21.539  25.867 -24.797  0.00  0.00    -0.068 C 
ATOM     50  H10 FCQ d   1      22.610  25.622 -24.850  0.00  0.00     0.028 H 
ATOM     51  H11 FCQ d   1      21.310  26.298 -23.811  0.00  0.00     0.028 H 
ATOM     52  H12 FCQ d   1      21.290  26.596 -25.582  0.00  0.00     0.028 H 
ENDBRANCH  47  49
BRANCH  47  53
ATOM     53  C1  FCQ d   1      21.114  23.497 -24.012  0.00  0.00    -0.068 C 
ATOM     54  H13 FCQ d   1      20.500  22.602 -24.192  0.00  0.00     0.028 H 
ATOM     55  H14 FCQ d   1      20.952  23.852 -22.984  0.00  0.00     0.028 H 
ATOM     56  H15 FCQ d   1      22.176  23.246 -24.150  0.00  0.00     0.028 H 
ENDBRANCH  47  53
ENDBRANCH   1  47
TORSDOF 11
