REMARK  7 active torsions:
REMARK  status: ('A' for Active; 'I' for Inactive)
REMARK    1  A    between atoms: C8_4  and  N11_13 
REMARK    2  A    between atoms: C10_5  and  C3_10 
REMARK    3  A    between atoms: N12_14  and  C20_20 
REMARK    4  A    between atoms: C16_16  and  C23_23 
REMARK    5  A    between atoms: C18_18  and  N24_24 
REMARK    6  A    between atoms: C20_20  and  C21_21 
REMARK    7  A    between atoms: C20_20  and  C22_22 
ROOT
ATOM      1  C10 FCZ d   1     -17.295 147.153  28.616  0.00  0.00     0.103 A 
ATOM      2  C14 FCZ d   1     -17.984 148.952  29.782  0.00  0.00     0.180 A 
ATOM      3  C15 FCZ d   1     -16.825 148.357  29.234  0.00  0.00     0.068 A 
ATOM      4  N12 FCZ d   1     -19.026 148.132  29.487  0.00  0.00    -0.246 N 
ATOM      5  N13 FCZ d   1     -18.606 147.032  28.774  0.00  0.00    -0.169 NA
ATOM      6  C16 FCZ d   1     -15.654 149.127  29.478  0.00  0.00     0.066 A 
ATOM      7  N17 FCZ d   1     -15.690 150.287  30.158  0.00  0.00    -0.067 NA
ATOM      8  C18 FCZ d   1     -16.878 150.734  30.624  0.00  0.00     0.722 A 
ATOM      9  N19 FCZ d   1     -18.057 150.107  30.466  0.00  0.00    -0.043 NA
ENDROOT
BRANCH   1  10
ATOM     10  C3  FCZ d   1     -16.605 146.069  27.867  0.00  0.00    -0.002 A 
ATOM     11  C4  FCZ d   1     -15.791 146.364  26.773  0.00  0.00    -0.040 A 
ATOM     12  C6  FCZ d   1     -15.169 145.305  26.107  0.00  0.00     0.096 A 
ATOM     13  H1  FCZ d   1     -15.645 147.388  26.448  0.00  0.00     0.088 H 
ATOM     14  C5  FCZ d   1     -15.373 144.013  26.540  0.00  0.00     0.108 A 
ATOM     15  N7  FCZ d   1     -14.313 145.283  25.002  0.00  0.00    -0.206 NA
ATOM     16  C1  FCZ d   1     -16.172 143.696  27.616  0.00  0.00    -0.047 A 
ATOM     17  O9  FCZ d   1     -14.656 143.164  25.723  0.00  0.00    -0.276 OA
ATOM     18  C2  FCZ d   1     -16.788 144.744  28.276  0.00  0.00    -0.068 A 
ATOM     19  H2  FCZ d   1     -16.312 142.669  27.932  0.00  0.00     0.087 H 
ATOM     20  H3  FCZ d   1     -17.425 144.534  29.127  0.00  0.00     0.085 H 
ATOM     21  C8  FCZ d   1     -14.054 144.007  24.833  0.00  0.00     0.245 A 
BRANCH  21  22
ATOM     22  N11 FCZ d   1     -13.282 143.439  23.909  0.00  0.00    -0.363 N 
ATOM     23  H4  FCZ d   1     -12.801 144.023  23.210  0.00  0.00     0.159 HD
ATOM     24  H5  FCZ d   1     -13.166 142.416  23.893  0.00  0.00     0.159 HD
ENDBRANCH  21  22
ENDBRANCH   1  10
BRANCH   6  25
ATOM     25  C23 FCZ d   1     -14.302 148.696  28.992  0.00  0.00    -0.034 C 
ATOM     26  H13 FCZ d   1     -13.550 149.440  29.294  0.00  0.00     0.035 H 
ATOM     27  H14 FCZ d   1     -14.316 148.613  27.895  0.00  0.00     0.035 H 
ATOM     28  H15 FCZ d   1     -14.049 147.720  29.431  0.00  0.00     0.035 H 
ENDBRANCH   6  25
BRANCH   4  29
ATOM     29  C20 FCZ d   1     -20.466 148.255  29.809  0.00  0.00     0.029 C 
ATOM     30  H6  FCZ d   1     -20.833 149.209  29.403  0.00  0.00     0.074 H 
BRANCH  29  31
ATOM     31  C21 FCZ d   1     -20.668 148.276  31.322  0.00  0.00    -0.056 C 
ATOM     32  H7  FCZ d   1     -21.741 148.368  31.547  0.00  0.00     0.030 H 
ATOM     33  H8  FCZ d   1     -20.128 149.133  31.752  0.00  0.00     0.030 H 
ATOM     34  H9  FCZ d   1     -20.280 147.343  31.757  0.00  0.00     0.030 H 
ENDBRANCH  29  31
BRANCH  29  35
ATOM     35  C22 FCZ d   1     -21.249 147.126  29.146  0.00  0.00    -0.056 C 
ATOM     36  H10 FCZ d   1     -22.317 147.227  29.392  0.00  0.00     0.030 H 
ATOM     37  H11 FCZ d   1     -20.878 146.158  29.513  0.00  0.00     0.030 H 
ATOM     38  H12 FCZ d   1     -21.117 147.179  28.055  0.00  0.00     0.030 H 
ENDBRANCH  29  35
ENDBRANCH   4  29
BRANCH   8  39
ATOM     39  N24 FCZ d   1     -16.886 151.885  31.295  0.00  0.00    -0.231 N 
ATOM     40  H16 FCZ d   1     -16.007 152.402  31.442  0.00  0.00     0.174 HD
ATOM     41  H17 FCZ d   1     -17.771 152.258  31.667  0.00  0.00     0.174 HD
ENDBRANCH   8  39
TORSDOF 7
