REMARK  6 active torsions:
REMARK  status: ('A' for Active; 'I' for Inactive)
REMARK    1  A    between atoms: C9_5  and  C14_10 
REMARK    2  A    between atoms: C10_6  and  C11_7 
REMARK    3  A    between atoms: C10_6  and  C12_8 
REMARK    4  A    between atoms: C10_6  and  N7_12 
REMARK    5  A    between atoms: C2_11  and  N13_14 
REMARK    6  A    between atoms: C22_22  and  N24_24 
ROOT
ATOM      1  C4  FDH d   1     -15.879 147.726  28.844  0.00  0.00     0.161 A 
ATOM      2  C5  FDH d   1     -16.972 146.861  28.601  0.00  0.00     0.085 A 
ATOM      3  C6  FDH d   1     -18.127 147.374  29.230  0.00  0.00     0.181 A 
ATOM      4  N1  FDH d   1     -15.877 148.851  29.542  0.00  0.00    -0.050 NA
ATOM      5  C9  FDH d   1     -17.413 145.649  27.968  0.00  0.00     0.104 A 
ATOM      6  N3  FDH d   1     -18.218 148.500  29.954  0.00  0.00    -0.043 NA
ATOM      7  C2  FDH d   1     -17.068 149.200  30.079  0.00  0.00     0.723 A 
ATOM      8  N7  FDH d   1     -19.142 146.507  28.965  0.00  0.00    -0.246 N 
ATOM      9  N8  FDH d   1     -18.706 145.452  28.193  0.00  0.00    -0.169 NA
ATOM     10 CL   FDH d   1     -14.341 147.312  28.173  0.00  0.00    -0.061 Cl
ENDROOT
BRANCH   5  11
ATOM     11  C14 FDH d   1     -16.689 144.635  27.144  0.00  0.00    -0.002 A 
ATOM     12  C16 FDH d   1     -15.822 145.045  26.129  0.00  0.00    -0.040 A 
ATOM     13  C20 FDH d   1     -15.164 144.066  25.380  0.00  0.00     0.096 A 
ATOM     14  H10 FDH d   1     -15.663 146.098  25.927  0.00  0.00     0.088 H 
ATOM     15  C19 FDH d   1     -15.382 142.732  25.656  0.00  0.00     0.108 A 
ATOM     16  N21 FDH d   1     -14.257 144.170  24.324  0.00  0.00    -0.206 NA
ATOM     17  C17 FDH d   1     -16.234 142.294  26.655  0.00  0.00    -0.047 A 
ATOM     18  O23 FDH d   1     -14.618 141.985  24.781  0.00  0.00    -0.276 OA
ATOM     19  C18 FDH d   1     -16.887 143.265  27.397  0.00  0.00    -0.068 A 
ATOM     20  H11 FDH d   1     -16.384 141.238  26.848  0.00  0.00     0.087 H 
ATOM     21  H12 FDH d   1     -17.564 142.963  28.188  0.00  0.00     0.085 H 
ATOM     22  C22 FDH d   1     -13.980 142.924  24.024  0.00  0.00     0.245 A 
BRANCH  22  23
ATOM     23  N24 FDH d   1     -13.163 142.471  23.083  0.00  0.00    -0.363 N 
ATOM     24  H13 FDH d   1     -12.654 143.133  22.480  0.00  0.00     0.159 HD
ATOM     25  H14 FDH d   1     -13.037 141.457  22.955  0.00  0.00     0.159 HD
ENDBRANCH  22  23
ENDBRANCH   5  11
BRANCH   8  26
ATOM     26  C10 FDH d   1     -20.565 146.543  29.371  0.00  0.00     0.029 C 
ATOM     27  H1  FDH d   1     -20.975 147.521  29.080  0.00  0.00     0.074 H 
BRANCH  26  28
ATOM     28  C11 FDH d   1     -21.359 145.472  28.626  0.00  0.00    -0.056 C 
ATOM     29  H2  FDH d   1     -22.413 145.513  28.939  0.00  0.00     0.030 H 
ATOM     30  H3  FDH d   1     -20.945 144.480  28.859  0.00  0.00     0.030 H 
ATOM     31  H4  FDH d   1     -21.291 145.652  27.543  0.00  0.00     0.030 H 
ENDBRANCH  26  28
BRANCH  26  32
ATOM     32  C12 FDH d   1     -20.693 146.425  30.887  0.00  0.00    -0.056 C 
ATOM     33  H5  FDH d   1     -20.103 147.219  31.368  0.00  0.00     0.030 H 
ATOM     34  H6  FDH d   1     -20.319 145.443  31.211  0.00  0.00     0.030 H 
ATOM     35  H7  FDH d   1     -21.750 146.528  31.175  0.00  0.00     0.030 H 
ENDBRANCH  26  32
ENDBRANCH   8  26
BRANCH   7  36
ATOM     36  N13 FDH d   1     -17.117 150.326  30.791  0.00  0.00    -0.231 N 
ATOM     37  H8  FDH d   1     -16.267 150.894  30.915  0.00  0.00     0.174 HD
ATOM     38  H9  FDH d   1     -18.005 150.628  31.217  0.00  0.00     0.174 HD
ENDBRANCH   7  36
TORSDOF 6
