REMARK  6 active torsions:
REMARK  status: ('A' for Active; 'I' for Inactive)
REMARK    1  A    between atoms: N1_6  and  C6_7 
REMARK    2  A    between atoms: C6_7  and  C7_8 
REMARK    3  A    between atoms: C7_8  and  O1_9 
REMARK    4  A    between atoms: O1_9  and  C8_10 
REMARK    5  A    between atoms: C13_15  and  C14_16 
REMARK    6  A    between atoms: C19_24  and  C20_25 
ROOT
ATOM      1  C8  TAK d   1       4.770  -5.624   0.364  0.00  0.00     0.068 A 
ATOM      2  C9  TAK d   1       3.467  -5.548   0.841  0.00  0.00    -0.050 A 
ATOM      3  C10 TAK d   1       2.804  -6.705   1.230  0.00  0.00    -0.070 A 
ATOM      4  C11 TAK d   1       5.416  -6.851   0.285  0.00  0.00    -0.050 A 
ATOM      5  C12 TAK d   1       4.752  -8.008   0.674  0.00  0.00    -0.070 A 
ATOM      6  C13 TAK d   1       3.442  -7.936   1.134  0.00  0.00    -0.023 A 
ATOM      7  H16 TAK d   1       2.969  -4.588   0.909  0.00  0.00     0.087 H 
ATOM      8  H17 TAK d   1       1.790  -6.648   1.608  0.00  0.00     0.085 H 
ATOM      9  H18 TAK d   1       6.436  -6.906  -0.079  0.00  0.00     0.087 H 
ATOM     10  H19 TAK d   1       5.255  -8.966   0.619  0.00  0.00     0.085 H 
ENDROOT
BRANCH   1  11
ATOM     11  O1  TAK d   1       5.425  -4.482  -0.010  0.00  0.00    -0.350 OA
BRANCH  11  12
ATOM     12  C7  TAK d   1       6.513  -4.048   0.801  0.00  0.00     0.049 C 
ATOM     13  H14 TAK d   1       6.263  -4.213   1.859  0.00  0.00     0.077 H 
ATOM     14  H15 TAK d   1       7.411  -4.628   0.541  0.00  0.00     0.077 H 
BRANCH  12  15
ATOM     15  C6  TAK d   1       6.793  -2.567   0.579  0.00  0.00     0.103 C 
ATOM     16  H12 TAK d   1       7.140  -2.405  -0.452  0.00  0.00     0.079 H 
ATOM     17  H13 TAK d   1       5.876  -1.985   0.753  0.00  0.00     0.079 H 
BRANCH  15  18
ATOM     18  N1  TAK d   1       7.835  -2.146   1.526  0.00  0.00    -0.069 N 
ATOM     19  C1  TAK d   1       8.183  -0.737   1.291  0.00  0.00     0.084 C 
ATOM     20  C2  TAK d   1       9.337  -0.347   2.208  0.00  0.00    -0.042 C 
ATOM     21  H1  TAK d   1       8.485  -0.603   0.242  0.00  0.00     0.076 H 
ATOM     22  H2  TAK d   1       7.311  -0.102   1.506  0.00  0.00     0.076 H 
ATOM     23  C3  TAK d   1       8.959  -0.568   3.668  0.00  0.00    -0.062 C 
ATOM     24  H3  TAK d   1       9.579   0.715   2.054  0.00  0.00     0.035 H 
ATOM     25  H4  TAK d   1      10.216  -0.962   1.965  0.00  0.00     0.035 H 
ATOM     26  C4  TAK d   1       8.461  -1.992   3.881  0.00  0.00    -0.042 C 
ATOM     27  H5  TAK d   1       8.164   0.139   3.947  0.00  0.00     0.033 H 
ATOM     28  H6  TAK d   1       9.842  -0.395   4.301  0.00  0.00     0.033 H 
ATOM     29  C5  TAK d   1       7.341  -2.314   2.900  0.00  0.00     0.084 C 
ATOM     30  H7  TAK d   1       8.083  -2.094   4.909  0.00  0.00     0.035 H 
ATOM     31  H8  TAK d   1       9.293  -2.694   3.725  0.00  0.00     0.035 H 
ATOM     32  H9  TAK d   1       6.495  -1.633   3.072  0.00  0.00     0.076 H 
ATOM     33  H10 TAK d   1       7.011  -3.353   3.047  0.00  0.00     0.076 H 
ATOM     34  H11 TAK d   1       8.655  -2.717   1.394  0.00  0.00     0.280 HD
ENDBRANCH  15  18
ENDBRANCH  12  15
ENDBRANCH  11  12
ENDBRANCH   1  11
BRANCH   6  35
ATOM     35  C14 TAK d   1       2.741  -9.169   1.575  0.00  0.00     0.009 A 
ATOM     36  C15 TAK d   1       1.534  -9.055   2.259  0.00  0.00     0.018 A 
ATOM     37  N3  TAK d   1       0.939 -10.177   2.663  0.00  0.00    -0.225 N 
ATOM     38  H20 TAK d   1       1.090  -8.081   2.458  0.00  0.00     0.116 H 
ATOM     39  C17 TAK d   1       1.481 -11.352   2.421  0.00  0.00     0.162 A 
ATOM     40  N4  TAK d   1      -0.267 -10.245   3.353  0.00  0.00    -0.178 NA
ATOM     41  N2  TAK d   1       2.656 -11.524   1.770  0.00  0.00    -0.240 NA
ATOM     42  C19 TAK d   1       0.616 -12.294   2.967  0.00  0.00     0.041 A 
ATOM     43  C16 TAK d   1       3.298 -10.428   1.343  0.00  0.00     0.017 A 
ATOM     44  H21 TAK d   1       4.248 -10.519   0.818  0.00  0.00     0.116 H 
ATOM     45  C18 TAK d   1      -0.449 -11.581   3.535  0.00  0.00     0.037 A 
ATOM     46  H22 TAK d   1      -1.298 -12.031   4.047  0.00  0.00     0.118 H 
BRANCH  42  47
ATOM     47  C20 TAK d   1       0.774 -13.777   2.981  0.00  0.00    -0.018 A 
ATOM     48  C21 TAK d   1       1.623 -14.432   2.099  0.00  0.00    -0.055 A 
ATOM     49  C22 TAK d   1       1.739 -15.816   2.166  0.00  0.00     0.003 A 
ATOM     50  H23 TAK d   1       2.190 -13.870   1.365  0.00  0.00     0.087 H 
ATOM     51  N5  TAK d   1       1.046 -16.515   3.075  0.00  0.00    -0.273 NA
ATOM     52  H24 TAK d   1       2.396 -16.334   1.477  0.00  0.00     0.114 H 
ATOM     53  C23 TAK d   1       0.227 -15.907   3.942  0.00  0.00     0.003 A 
ATOM     54  C24 TAK d   1       0.073 -14.526   3.917  0.00  0.00    -0.055 A 
ATOM     55  H25 TAK d   1      -0.320 -16.496   4.669  0.00  0.00     0.114 H 
ATOM     56  H26 TAK d   1      -0.589 -14.037   4.623  0.00  0.00     0.087 H 
ENDBRANCH  42  47
ENDBRANCH   6  35
TORSDOF 6
