REMARK  9 active torsions:
REMARK  status: ('A' for Active; 'I' for Inactive)
REMARK    1  A    between atoms: C3_3  and  O3_4 
REMARK    2  A    between atoms: C7_8  and  O7_9 
REMARK    3  A    between atoms: C10_12  and  C19_21 
REMARK    4  A    between atoms: C13_15  and  C18_20 
REMARK    5  A    between atoms: C17_19  and  C20_22 
REMARK    6  A    between atoms: C20_22  and  C21_23 
REMARK    7  A    between atoms: C20_22  and  C22_24 
REMARK    8  A    between atoms: C22_24  and  C23_25 
REMARK    9  A    between atoms: C23_25  and  C24_26 
REMARK       I    between atoms: C24_26  and  N25_28 
ROOT
ATOM      1  C1  CHO d   1     -49.220  -0.624 -14.115  0.00  0.00    -0.055 C 
ATOM      2  C2  CHO d   1     -50.587  -0.522 -13.431  0.00  0.00    -0.040 C 
ATOM      3  C3  CHO d   1     -50.877   0.922 -13.065  0.00  0.00     0.036 C 
ATOM      4  C4  CHO d   1     -49.792   1.414 -12.143  0.00  0.00    -0.037 C 
ATOM      5  C5  CHO d   1     -48.420   1.384 -12.811  0.00  0.00    -0.042 C 
ATOM      6  C6  CHO d   1     -47.346   2.010 -11.915  0.00  0.00    -0.037 C 
ATOM      7  C7  CHO d   1     -46.848   1.135 -10.770  0.00  0.00     0.040 C 
ATOM      8  C8  CHO d   1     -46.624  -0.325 -11.188  0.00  0.00    -0.021 C 
ATOM      9  C9  CHO d   1     -47.766  -0.895 -12.036  0.00  0.00    -0.041 C 
ATOM     10  C10 CHO d   1     -48.051  -0.037 -13.299  0.00  0.00    -0.036 C 
ATOM     11  C11 CHO d   1     -47.526  -2.366 -12.390  0.00  0.00    -0.060 C 
ATOM     12  C12 CHO d   1     -47.167  -3.217 -11.186  0.00  0.00    -0.057 C 
ATOM     13  C13 CHO d   1     -45.995  -2.640 -10.371  0.00  0.00    -0.036 C 
ATOM     14  C14 CHO d   1     -46.406  -1.237  -9.978  0.00  0.00    -0.041 C 
ATOM     15  C15 CHO d   1     -45.385  -0.828  -8.901  0.00  0.00    -0.060 C 
ATOM     16  C16 CHO d   1     -45.081  -2.145  -8.157  0.00  0.00    -0.060 C 
ATOM     17  C17 CHO d   1     -45.754  -3.269  -8.972  0.00  0.00    -0.044 C 
ATOM     18  H1  CHO d   1     -49.274  -0.086 -15.073  0.00  0.00     0.034 H 
ATOM     19  H2  CHO d   1     -49.008  -1.687 -14.303  0.00  0.00     0.034 H 
ATOM     20  H3  CHO d   1     -50.584  -1.136 -12.518  0.00  0.00     0.036 H 
ATOM     21  H4  CHO d   1     -51.366  -0.888 -14.117  0.00  0.00     0.036 H 
ATOM     22  H5  CHO d   1     -50.878   1.537 -13.977  0.00  0.00     0.082 H 
ATOM     23  H7  CHO d   1     -49.767   0.773 -11.250  0.00  0.00     0.037 H 
ATOM     24  H8  CHO d   1     -50.020   2.448 -11.845  0.00  0.00     0.037 H 
ATOM     25  H9  CHO d   1     -48.488   2.016 -13.709  0.00  0.00     0.041 H 
ATOM     26  H10 CHO d   1     -47.763   2.930 -11.480  0.00  0.00     0.037 H 
ATOM     27  H11 CHO d   1     -46.482   2.262 -12.548  0.00  0.00     0.037 H 
ATOM     28  H12 CHO d   1     -45.887   1.543 -10.424  0.00  0.00     0.083 H 
ATOM     29  H14 CHO d   1     -45.710  -0.349 -11.800  0.00  0.00     0.045 H 
ATOM     30  H15 CHO d   1     -48.673  -0.858 -11.415  0.00  0.00     0.042 H 
ATOM     31  H16 CHO d   1     -46.702  -2.421 -13.116  0.00  0.00     0.033 H 
ATOM     32  H17 CHO d   1     -48.442  -2.771 -12.844  0.00  0.00     0.033 H 
ATOM     33  H18 CHO d   1     -46.889  -4.222 -11.537  0.00  0.00     0.034 H 
ATOM     34  H19 CHO d   1     -48.048  -3.288 -10.531  0.00  0.00     0.034 H 
ATOM     35  H20 CHO d   1     -47.385  -1.294  -9.480  0.00  0.00     0.042 H 
ATOM     36  H21 CHO d   1     -45.816  -0.083  -8.216  0.00  0.00     0.033 H 
ATOM     37  H22 CHO d   1     -44.473  -0.419  -9.361  0.00  0.00     0.033 H 
ATOM     38  H23 CHO d   1     -45.496  -2.112  -7.139  0.00  0.00     0.033 H 
ATOM     39  H24 CHO d   1     -43.995  -2.311  -8.105  0.00  0.00     0.033 H 
ATOM     40  H25 CHO d   1     -46.747  -3.471  -8.543  0.00  0.00     0.041 H 
ENDROOT
BRANCH  17  41
ATOM     41  C20 CHO d   1     -44.967  -4.583  -8.823  0.00  0.00    -0.053 C 
ATOM     42  H32 CHO d   1     -43.931  -4.388  -9.136  0.00  0.00     0.040 H 
BRANCH  41  43
ATOM     43  C21 CHO d   1     -45.480  -5.752  -9.653  0.00  0.00    -0.072 C 
ATOM     44  H33 CHO d   1     -44.849  -6.635  -9.472  0.00  0.00     0.028 H 
ATOM     45  H34 CHO d   1     -45.444  -5.488 -10.720  0.00  0.00     0.028 H 
ATOM     46  H35 CHO d   1     -46.518  -5.978  -9.366  0.00  0.00     0.028 H 
ENDBRANCH  41  43
BRANCH  41  47
ATOM     47  C22 CHO d   1     -44.972  -4.972  -7.334  0.00  0.00    -0.054 C 
ATOM     48  H36 CHO d   1     -45.957  -5.399  -7.094  0.00  0.00     0.034 H 
ATOM     49  H37 CHO d   1     -44.813  -4.060  -6.740  0.00  0.00     0.034 H 
BRANCH  47  50
ATOM     50  C23 CHO d   1     -43.910  -5.982  -6.945  0.00  0.00     0.009 C 
ATOM     51  H38 CHO d   1     -42.950  -5.458  -6.826  0.00  0.00     0.047 H 
ATOM     52  H39 CHO d   1     -43.823  -6.730  -7.747  0.00  0.00     0.047 H 
BRANCH  50  53
ATOM     53  C24 CHO d   1     -44.239  -6.693  -5.651  0.00  0.00     0.215 C 
ATOM     54  O24 CHO d   1     -43.948  -7.873  -5.501  0.00  0.00    -0.274 OA
ATOM     55  N25 CHO d   1     -44.853  -5.981  -4.712  0.00  0.00    -0.370 N 
ATOM     56  H40 CHO d   1     -45.092  -6.406  -3.839  0.00  0.00     0.159 HD
ATOM     57  H41 CHO d   1     -45.076  -5.021  -4.879  0.00  0.00     0.159 HD
ENDBRANCH  50  53
ENDBRANCH  47  50
ENDBRANCH  41  47
ENDBRANCH  17  41
BRANCH  13  58
ATOM     58  C18 CHO d   1     -44.700  -2.630 -11.211  0.00  0.00    -0.068 C 
ATOM     59  H26 CHO d   1     -44.904  -2.179 -12.194  0.00  0.00     0.028 H 
ATOM     60  H27 CHO d   1     -44.343  -3.662 -11.348  0.00  0.00     0.028 H 
ATOM     61  H28 CHO d   1     -43.930  -2.042 -10.691  0.00  0.00     0.028 H 
ENDBRANCH  13  58
BRANCH   7  62
ATOM     62  O7  CHO d   1     -47.781   1.177  -9.688  0.00  0.00    -0.395 OA
ATOM     63  H13 CHO d   1     -47.871   2.072  -9.384  0.00  0.00     0.210 HD
ENDBRANCH   7  62
BRANCH  10  64
ATOM     64  C19 CHO d   1     -46.817   0.010 -14.227  0.00  0.00    -0.068 C 
ATOM     65  H29 CHO d   1     -47.046   0.623 -15.111  0.00  0.00     0.028 H 
ATOM     66  H30 CHO d   1     -46.559  -1.011 -14.545  0.00  0.00     0.028 H 
ATOM     67  H31 CHO d   1     -45.968   0.452 -13.685  0.00  0.00     0.028 H 
ENDBRANCH  10  64
BRANCH   3  68
ATOM     68  O3  CHO d   1     -52.165   1.009 -12.446  0.00  0.00    -0.396 OA
ATOM     69  H6  CHO d   1     -52.345   1.913 -12.218  0.00  0.00     0.210 HD
ENDBRANCH   3  68
TORSDOF 9
