REMARK  2 active torsions:
REMARK  status: ('A' for Active; 'I' for Inactive)
REMARK       I    between atoms: C02_2  and  N03_3 
REMARK    1  A    between atoms: C02_2  and  C05_5 
REMARK    2  A    between atoms: N03_3  and  O04_4 
ROOT
ATOM      1  C05 FF2 d   1      46.100  33.292  85.569  0.00  0.00     0.076 A 
ATOM      2  C06 FF2 d   1      45.437  34.300  86.253  0.00  0.00    -0.048 A 
ATOM      3  C07 FF2 d   1      44.546  35.077  85.455  0.00  0.00     0.004 A 
ATOM      4  C08 FF2 d   1      43.762  36.158  85.936  0.00  0.00     0.045 A 
ATOM      5 CL1  FF2 d   1      43.862  36.622  87.659  0.00  0.00    -0.083 Cl
ATOM      6  C10 FF2 d   1      42.932  36.850  85.072  0.00  0.00    -0.061 A 
ATOM      7  C11 FF2 d   1      42.853  36.489  83.728  0.00  0.00    -0.080 A 
ATOM      8  C12 FF2 d   1      43.623  35.426  83.249  0.00  0.00    -0.066 A 
ATOM      9  C13 FF2 d   1      44.465  34.729  84.125  0.00  0.00     0.017 A 
ATOM     10  S14 FF2 d   1      45.547  33.380  83.926  0.00  0.00    -0.084 SA
ATOM     11  H3  FF2 d   1      45.585  34.484  87.316  0.00  0.00     0.087 H 
ATOM     12  H4  FF2 d   1      42.339  37.678  85.443  0.00  0.00     0.086 H 
ATOM     13  H5  FF2 d   1      42.197  37.031  83.057  0.00  0.00     0.083 H 
ATOM     14  H6  FF2 d   1      43.569  35.142  82.204  0.00  0.00     0.085 H 
ENDROOT
BRANCH   1  15
ATOM     15  C02 FF2 d   1      47.116  32.257  86.061  0.00  0.00     0.281 C 
ATOM     16  O01 FF2 d   1      47.826  32.448  86.998  0.00  0.00    -0.265 OA
ATOM     17  N03 FF2 d   1      47.183  31.024  85.294  0.00  0.00    -0.233 N 
ATOM     18  H1  FF2 d   1      46.567  30.925  84.513  0.00  0.00     0.197 HD
BRANCH  17  19
ATOM     19  O04 FF2 d   1      48.053  29.968  85.578  0.00  0.00    -0.287 OA
ATOM     20  H2  FF2 d   1      47.920  29.271  84.946  0.00  0.00     0.244 HD
ENDBRANCH  17  19
ENDBRANCH   1  15
TORSDOF 2
