REMARK  3 active torsions:
REMARK  status: ('A' for Active; 'I' for Inactive)
REMARK    1  A    between atoms: C05_7  and  C04_8 
REMARK    2  A    between atoms: C03_9  and  C02_10 
REMARK       I    between atoms: C02_10  and  N12_12 
REMARK    3  A    between atoms: N12_12  and  O13_13 
ROOT
ATOM      1 CL1  TB8 d   1      46.553  36.723  83.974  0.00  0.00    -0.083 Cl
ATOM      2  C10 TB8 d   1      44.905  36.088  83.637  0.00  0.00     0.044 A 
ATOM      3  C09 TB8 d   1      44.004  36.840  82.889  0.00  0.00    -0.061 A 
ATOM      4  C08 TB8 d   1      42.731  36.343  82.630  0.00  0.00    -0.081 A 
ATOM      5  C07 TB8 d   1      42.354  35.099  83.119  0.00  0.00    -0.082 A 
ATOM      6  C06 TB8 d   1      43.253  34.351  83.867  0.00  0.00    -0.071 A 
ATOM      7  C05 TB8 d   1      44.528  34.845  84.125  0.00  0.00    -0.014 A 
ATOM      8  H1  TB8 d   1      44.294  37.813  82.508  0.00  0.00     0.086 H 
ATOM      9  H2  TB8 d   1      42.031  36.928  82.045  0.00  0.00     0.083 H 
ATOM     10  H3  TB8 d   1      41.361  34.713  82.917  0.00  0.00     0.083 H 
ATOM     11  H4  TB8 d   1      42.961  33.380  84.251  0.00  0.00     0.084 H 
ENDROOT
BRANCH   7  12
ATOM     12  C04 TB8 d   1      45.488  34.041  84.919  0.00  0.00    -0.066 C 
ATOM     13  C03 TB8 d   1      45.776  32.802  84.521  0.00  0.00    -0.015 C 
ATOM     14  H6  TB8 d   1      45.298  32.407  83.626  0.00  0.00     0.092 H 
ATOM     15  H5  TB8 d   1      45.950  34.456  85.813  0.00  0.00     0.085 H 
BRANCH  13  16
ATOM     16  C02 TB8 d   1      46.728  31.950  85.264  0.00  0.00     0.264 C 
ATOM     17  O01 TB8 d   1      47.351  32.402  86.213  0.00  0.00    -0.266 OA
ATOM     18  N12 TB8 d   1      46.883  30.689  84.879  0.00  0.00    -0.234 N 
ATOM     19  H7  TB8 d   1      46.084  30.139  84.637  0.00  0.00     0.197 HD
BRANCH  18  20
ATOM     20  O13 TB8 d   1      48.156  30.133  84.812  0.00  0.00    -0.287 OA
ATOM     21  H8  TB8 d   1      48.091  29.231  84.522  0.00  0.00     0.244 HD
ENDBRANCH  18  20
ENDBRANCH  13  16
ENDBRANCH   7  12
TORSDOF 3
