REMARK  5 active torsions:
REMARK  status: ('A' for Active; 'I' for Inactive)
REMARK    1  A    between atoms: C1_1  and  C_9 
REMARK    2  A    between atoms: C3_3  and  C2_2 
REMARK       I    between atoms: C_9  and  N_8 
REMARK    3  A    between atoms: N_8  and  O1_18 
REMARK    4  A    between atoms: S_19  and  C8_10 
REMARK    5  A    between atoms: C9_16  and  S_19 
ROOT
ATOM      1  C3  FG8 d   1      44.635  35.347  85.046  0.00  0.00    -0.019 A 
ATOM      2  C4  FG8 d   1      43.753  34.909  84.050  0.00  0.00    -0.072 A 
ATOM      3  C5  FG8 d   1      42.801  35.761  83.521  0.00  0.00    -0.082 A 
ATOM      4  C6  FG8 d   1      42.704  37.056  83.973  0.00  0.00    -0.082 A 
ATOM      5  C7  FG8 d   1      43.564  37.521  84.955  0.00  0.00    -0.066 A 
ATOM      6  C8  FG8 d   1      44.534  36.677  85.497  0.00  0.00     0.015 A 
ATOM      7  H3  FG8 d   1      43.818  33.889  83.689  0.00  0.00     0.084 H 
ATOM      8  H4  FG8 d   1      42.129  35.407  82.748  0.00  0.00     0.083 H 
ATOM      9  H5  FG8 d   1      41.951  37.717  83.559  0.00  0.00     0.083 H 
ATOM     10  H6  FG8 d   1      43.483  38.544  85.303  0.00  0.00     0.085 H 
ENDROOT
BRANCH   6  11
ATOM     11  S   FG8 d   1      45.671  37.307  86.715  0.00  0.00    -0.090 SA
BRANCH  11  12
ATOM     12  C9  FG8 d   1      44.682  37.463  88.180  0.00  0.00     0.005 A 
ATOM     13  C10 FG8 d   1      45.285  37.909  89.346  0.00  0.00    -0.065 A 
ATOM     14  C11 FG8 d   1      44.557  38.001  90.518  0.00  0.00    -0.061 A 
ATOM     15  H8  FG8 d   1      46.333  38.187  89.339  0.00  0.00     0.085 H 
ATOM     16  C12 FG8 d   1      43.231  37.633  90.515  0.00  0.00     0.034 A 
ATOM     17  H9  FG8 d   1      45.025  38.359  91.428  0.00  0.00     0.086 H 
ATOM     18  C13 FG8 d   1      42.607  37.211  89.363  0.00  0.00    -0.061 A 
ATOM     19 CL   FG8 d   1      42.353  37.605  92.019  0.00  0.00    -0.084 Cl
ATOM     20  C14 FG8 d   1      43.337  37.125  88.192  0.00  0.00    -0.065 A 
ATOM     21  H10 FG8 d   1      41.555  36.949  89.374  0.00  0.00     0.086 H 
ATOM     22  H11 FG8 d   1      42.856  36.792  87.279  0.00  0.00     0.085 H 
ENDBRANCH  11  12
ENDBRANCH   6  11
BRANCH   1  23
ATOM     23  C2  FG8 d   1      45.599  34.398  85.613  0.00  0.00    -0.067 C 
ATOM     24  C1  FG8 d   1      45.787  33.144  85.243  0.00  0.00    -0.015 C 
ATOM     25  H1  FG8 d   1      45.380  32.800  84.293  0.00  0.00     0.092 H 
ATOM     26  H2  FG8 d   1      46.225  34.766  86.424  0.00  0.00     0.085 H 
BRANCH  24  27
ATOM     27  C   FG8 d   1      46.540  32.199  86.094  0.00  0.00     0.264 C 
ATOM     28  N   FG8 d   1      46.714  31.001  85.550  0.00  0.00    -0.234 N 
ATOM     29  H7  FG8 d   1      46.019  30.619  84.942  0.00  0.00     0.197 HD
ATOM     30  O   FG8 d   1      46.988  32.507  87.210  0.00  0.00    -0.266 OA
BRANCH  28  31
ATOM     31  O1  FG8 d   1      47.870  30.281  85.832  0.00  0.00    -0.287 OA
ATOM     32  H12 FG8 d   1      47.845  29.451  85.371  0.00  0.00     0.244 HD
ENDBRANCH  28  31
ENDBRANCH  24  27
ENDBRANCH   1  23
TORSDOF 5
