REMARK  6 active torsions:
REMARK  status: ('A' for Active; 'I' for Inactive)
REMARK    1  A    between atoms: C1_1  and  C_18 
REMARK    2  A    between atoms: C2_2  and  C3_3 
REMARK    3  A    between atoms: C8_8  and  O1_10 
REMARK    4  A    between atoms: O1_10  and  C9_9 
REMARK    5  A    between atoms: C9_9  and  C10_11 
REMARK       I    between atoms: C_18  and  N_17 
REMARK    6  A    between atoms: N_17  and  O2_20 
ROOT
ATOM      1  C3  FGN d   1      43.973  35.440  84.853  0.00  0.00    -0.003 A 
ATOM      2  C4  FGN d   1      43.486  35.179  83.565  0.00  0.00    -0.070 A 
ATOM      3  C5  FGN d   1      42.391  35.865  83.069  0.00  0.00    -0.082 A 
ATOM      4  C6  FGN d   1      41.760  36.816  83.841  0.00  0.00    -0.080 A 
ATOM      5  C7  FGN d   1      42.223  37.102  85.116  0.00  0.00    -0.050 A 
ATOM      6  C8  FGN d   1      43.328  36.424  85.616  0.00  0.00     0.079 A 
ATOM      7  H3  FGN d   1      43.973  34.431  82.950  0.00  0.00     0.084 H 
ATOM      8  H4  FGN d   1      42.029  35.653  82.070  0.00  0.00     0.083 H 
ATOM      9  H5  FGN d   1      40.897  37.343  83.450  0.00  0.00     0.083 H 
ATOM     10  H6  FGN d   1      41.725  37.852  85.720  0.00  0.00     0.087 H 
ENDROOT
BRANCH   6  11
ATOM     11  O1  FGN d   1      43.868  36.672  86.853  0.00  0.00    -0.346 OA
BRANCH  11  12
ATOM     12  C9  FGN d   1      43.081  37.442  87.777  0.00  0.00     0.053 C 
ATOM     13  H7  FGN d   1      42.674  36.785  88.560  0.00  0.00     0.082 H 
ATOM     14  H8  FGN d   1      42.254  37.933  87.244  0.00  0.00     0.082 H 
BRANCH  12  15
ATOM     15  C10 FGN d   1      43.979  38.481  88.397  0.00  0.00     0.009 A 
ATOM     16  C11 FGN d   1      44.077  38.631  89.791  0.00  0.00     0.044 A 
ATOM     17  C12 FGN d   1      44.837  39.623  90.387  0.00  0.00    -0.061 A 
ATOM     18 CL   FGN d   1      43.212  37.545  90.833  0.00  0.00    -0.084 Cl
ATOM     19  C13 FGN d   1      45.536  40.512  89.593  0.00  0.00    -0.080 A 
ATOM     20  H9  FGN d   1      44.883  39.702  91.467  0.00  0.00     0.086 H 
ATOM     21  C14 FGN d   1      45.484  40.405  88.216  0.00  0.00    -0.061 A 
ATOM     22  H10 FGN d   1      46.127  41.296  90.052  0.00  0.00     0.083 H 
ATOM     23  C15 FGN d   1      44.723  39.401  87.639  0.00  0.00     0.044 A 
ATOM     24  H11 FGN d   1      46.034  41.101  87.593  0.00  0.00     0.086 H 
ATOM     25 CL1  FGN d   1      44.720  39.289  85.906  0.00  0.00    -0.084 Cl
ENDBRANCH  12  15
ENDBRANCH  11  12
ENDBRANCH   6  11
BRANCH   1  26
ATOM     26  C2  FGN d   1      45.110  34.678  85.391  0.00  0.00    -0.065 C 
ATOM     27  C1  FGN d   1      45.781  33.706  84.772  0.00  0.00    -0.015 C 
ATOM     28  H1  FGN d   1      45.660  33.580  83.697  0.00  0.00     0.092 H 
ATOM     29  H2  FGN d   1      45.437  34.934  86.398  0.00  0.00     0.085 H 
BRANCH  27  30
ATOM     30  C   FGN d   1      46.686  32.793  85.506  0.00  0.00     0.264 C 
ATOM     31  N   FGN d   1      47.160  31.795  84.770  0.00  0.00    -0.234 N 
ATOM     32  H12 FGN d   1      47.744  31.986  83.981  0.00  0.00     0.197 HD
ATOM     33  O   FGN d   1      46.933  32.908  86.721  0.00  0.00    -0.266 OA
BRANCH  31  34
ATOM     34  O2  FGN d   1      46.840  30.481  85.102  0.00  0.00    -0.287 OA
ATOM     35  H13 FGN d   1      47.253  29.890  84.484  0.00  0.00     0.244 HD
ENDBRANCH  31  34
ENDBRANCH  27  30
ENDBRANCH   1  26
TORSDOF 6
