REMARK  2 active torsions:
REMARK  status: ('A' for Active; 'I' for Inactive)
REMARK    1  A    between atoms: C01_1  and  C02_2 
REMARK    2  A    between atoms: C07_11  and  C08_12 
ROOT
ATOM      1  C02 FFN d   1      -2.259   0.282  24.540  0.00  0.00     0.104 A 
ATOM      2  N03 FFN d   1      -3.182  -0.259  23.770  0.00  0.00    -0.228 NA
ATOM      3  N18 FFN d   1      -1.794  -0.419  25.622  0.00  0.00    -0.311 N 
ATOM      4  C16 FFN d   1      -2.298  -1.686  25.858  0.00  0.00     0.260 A 
ATOM      5  O17 FFN d   1      -1.846  -2.275  26.820  0.00  0.00    -0.267 OA
ATOM      6  C15 FFN d   1      -3.242  -2.218  25.058  0.00  0.00     0.079 A 
ATOM      7  C04 FFN d   1      -3.664  -1.470  23.995  0.00  0.00     0.116 A 
ATOM      8  S05 FFN d   1      -4.745  -2.261  23.147  0.00  0.00    -0.080 SA
ATOM      9  C06 FFN d   1      -4.753  -3.587  24.085  0.00  0.00    -0.031 A 
ATOM     10  C07 FFN d   1      -3.852  -3.431  25.065  0.00  0.00    -0.001 A 
ATOM     11  H4  FFN d   1      -1.105  -0.023  26.229  0.00  0.00     0.170 HD
ATOM     12  H5  FFN d   1      -5.387  -4.460  23.941  0.00  0.00     0.096 H 
ENDROOT
BRANCH  10  13
ATOM     13  C08 FFN d   1      -3.758  -4.414  25.974  0.00  0.00    -0.024 A 
ATOM     14  C09 FFN d   1      -4.013  -4.143  27.314  0.00  0.00    -0.069 A 
ATOM     15  C10 FFN d   1      -4.003  -5.155  28.278  0.00  0.00    -0.045 A 
ATOM     16  H6  FFN d   1      -4.224  -3.124  27.618  0.00  0.00     0.085 H 
ATOM     17  C11 FFN d   1      -3.772  -6.471  27.927  0.00  0.00     0.116 A 
ATOM     18  H7  FFN d   1      -4.179  -4.903  29.317  0.00  0.00     0.088 H 
ATOM     19  F12 FFN d   1      -3.768  -7.450  28.853  0.00  0.00    -0.206 F 
ATOM     20  C13 FFN d   1      -3.551  -6.745  26.588  0.00  0.00    -0.045 A 
ATOM     21  C14 FFN d   1      -3.560  -5.740  25.639  0.00  0.00    -0.069 A 
ATOM     22  H8  FFN d   1      -3.367  -7.767  26.278  0.00  0.00     0.088 H 
ATOM     23  H9  FFN d   1      -3.407  -6.000  24.598  0.00  0.00     0.085 H 
ENDBRANCH  10  13
BRANCH   1  24
ATOM     24  C01 FFN d   1      -1.798   1.546  24.257  0.00  0.00    -0.021 C 
ATOM     25  H1  FFN d   1      -2.298   1.925  23.353  0.00  0.00     0.037 H 
ATOM     26  H2  FFN d   1      -0.712   1.511  24.088  0.00  0.00     0.037 H 
ATOM     27  H3  FFN d   1      -2.016   2.214  25.104  0.00  0.00     0.037 H 
ENDBRANCH   1  24
TORSDOF 2
