REMARK  6 active torsions:
REMARK  status: ('A' for Active; 'I' for Inactive)
REMARK    1  A    between atoms: C3_3  and  C7_4 
REMARK    2  A    between atoms: C8_5  and  C13_10 
REMARK    3  A    between atoms: C9_6  and  N18_12 
REMARK    4  A    between atoms: C11_8  and  C14_11 
REMARK       I    between atoms: N18_12  and  C11_8 
REMARK    5  A    between atoms: C6_15  and  S24_24 
REMARK    6  A    between atoms: S24_24  and  N17_18 
ROOT
ATOM      1  C1  FGE d   1       9.732 -45.683 -25.118  0.00  0.00    -0.063 A 
ATOM      2  C2  FGE d   1       8.821 -46.930 -23.296  0.00  0.00    -0.048 A 
ATOM      3  C3  FGE d   1       8.648 -46.303 -24.518  0.00  0.00    -0.015 A 
ATOM      4  C10 FGE d   1      12.517 -46.170 -22.897  0.00  0.00     0.254 A 
ATOM      5  C12 FGE d   1      12.227 -45.094 -24.981  0.00  0.00     0.020 A 
ATOM      6  C4  FGE d   1      11.122 -46.318 -23.301  0.00  0.00     0.063 A 
ATOM      7  C5  FGE d   1      10.963 -45.696 -24.504  0.00  0.00    -0.022 A 
ATOM      8  C6  FGE d   1      10.059 -46.938 -22.681  0.00  0.00     0.096 A 
ATOM      9  N16 FGE d   1      13.125 -45.482 -23.922  0.00  0.00    -0.353 N 
ATOM     10  O19 FGE d   1      13.006 -46.569 -21.851  0.00  0.00    -0.268 OA
ATOM     11  H1  FGE d   1       9.610 -45.186 -26.074  0.00  0.00     0.085 H 
ATOM     12  H2  FGE d   1       7.979 -47.418 -22.818  0.00  0.00     0.087 H 
ATOM     13  H3  FGE d   1      12.148 -44.000 -25.065  0.00  0.00     0.071 H 
ATOM     14  H4  FGE d   1      12.536 -45.515 -25.949  0.00  0.00     0.071 H 
ATOM     15  H12 FGE d   1      14.102 -45.270 -23.931  0.00  0.00     0.163 HD
ENDROOT
BRANCH   3  16
ATOM     16  C7  FGE d   1       7.355 -46.303 -25.181  0.00  0.00     0.043 A 
ATOM     17  C8  FGE d   1       6.836 -45.474 -26.157  0.00  0.00     0.051 A 
ATOM     18  N15 FGE d   1       5.574 -45.764 -26.598  0.00  0.00    -0.228 NA
ATOM     19  C9  FGE d   1       5.095 -46.814 -25.980  0.00  0.00     0.174 A 
ATOM     20  S23 FGE d   1       6.172 -47.499 -24.821  0.00  0.00    -0.049 SA
BRANCH  17  21
ATOM     21  C13 FGE d   1       7.469 -44.319 -26.794  0.00  0.00    -0.034 C 
ATOM     22  H5  FGE d   1       6.778 -43.882 -27.530  0.00  0.00     0.035 H 
ATOM     23  H6  FGE d   1       8.391 -44.639 -27.301  0.00  0.00     0.035 H 
ATOM     24  H7  FGE d   1       7.713 -43.567 -26.029  0.00  0.00     0.035 H 
ENDBRANCH  17  21
BRANCH  19  25
ATOM     25  N18 FGE d   1       3.828 -47.314 -26.258  0.00  0.00    -0.306 N 
ATOM     26  C11 FGE d   1       3.148 -48.253 -25.520  0.00  0.00     0.219 C 
ATOM     27  O20 FGE d   1       3.545 -48.858 -24.538  0.00  0.00    -0.274 OA
ATOM     28  H11 FGE d   1       3.368 -46.957 -27.071  0.00  0.00     0.171 HD
BRANCH  26  29
ATOM     29  C14 FGE d   1       1.774 -48.477 -26.060  0.00  0.00    -0.002 C 
ATOM     30  H8  FGE d   1       1.258 -49.232 -25.448  0.00  0.00     0.040 H 
ATOM     31  H9  FGE d   1       1.842 -48.831 -27.099  0.00  0.00     0.040 H 
ATOM     32  H10 FGE d   1       1.210 -47.533 -26.030  0.00  0.00     0.040 H 
ENDBRANCH  26  29
ENDBRANCH  19  25
ENDBRANCH   3  16
BRANCH   8  33
ATOM     33  S24 FGE d   1      10.231 -47.752 -21.120  0.00  0.00     0.257 S 
ATOM     34  O21 FGE d   1      11.073 -48.909 -21.349  0.00  0.00    -0.201 OA
ATOM     35  O22 FGE d   1      10.582 -46.725 -20.159  0.00  0.00    -0.201 OA
BRANCH  33  36
ATOM     36  N17 FGE d   1       8.614 -48.238 -20.880  0.00  0.00    -0.324 N 
ATOM     37  H13 FGE d   1       8.361 -48.744 -20.055  0.00  0.00     0.169 HD
ATOM     38  H14 FGE d   1       7.919 -48.017 -21.564  0.00  0.00     0.169 HD
ENDBRANCH  33  36
ENDBRANCH   8  33
TORSDOF 6
