REMARK  4 active torsions:
REMARK  status: ('A' for Active; 'I' for Inactive)
REMARK    1  A    between atoms: S11_22  and  C4_1 
REMARK    2  A    between atoms: C15_7  and  C18_13 
REMARK    3  A    between atoms: C1_9  and  O22_21 
REMARK    4  A    between atoms: C12_10  and  S11_22 
ROOT
ATOM      1  C4  FGQ d   1      12.689  -6.271 -22.050  0.00  0.00     0.080 A 
ATOM      2  C5  FGQ d   1      13.707  -5.644 -21.297  0.00  0.00     0.018 A 
ATOM      3  C6  FGQ d   1      14.924  -6.327 -21.034  0.00  0.00     0.104 A 
ATOM      4  C8  FGQ d   1      15.747  -4.516 -19.844  0.00  0.00     0.003 A 
ATOM      5  C10 FGQ d   1      13.566  -4.345 -20.788  0.00  0.00    -0.068 A 
ATOM      6  C1  FGQ d   1      15.068  -7.620 -21.536  0.00  0.00     0.134 A 
ATOM      7  C2  FGQ d   1      14.045  -8.223 -22.278  0.00  0.00     0.153 A 
ATOM      8  C3  FGQ d   1      12.853  -7.561 -22.543  0.00  0.00    -0.021 A 
ATOM      9  C9  FGQ d   1      14.599  -3.775 -20.051  0.00  0.00    -0.065 A 
ATOM     10  F21 FGQ d   1      14.192  -9.461 -22.751  0.00  0.00    -0.203 F 
ATOM     11  N7  FGQ d   1      15.927  -5.771 -20.321  0.00  0.00    -0.257 NA
ATOM     12  H1  FGQ d   1      16.548  -4.068 -19.268  0.00  0.00     0.114 H 
ATOM     13  H2  FGQ d   1      12.655  -3.787 -20.968  0.00  0.00     0.085 H 
ATOM     14  H10 FGQ d   1      12.069  -8.038 -23.120  0.00  0.00     0.090 H 
ATOM     15  H11 FGQ d   1      14.506  -2.773 -19.648  0.00  0.00     0.085 H 
ENDROOT
BRANCH   1  16
ATOM     16  S11 FGQ d   1      11.145  -5.444 -22.414  0.00  0.00     0.207 S 
ATOM     17  O19 FGQ d   1      10.347  -6.347 -23.230  0.00  0.00    -0.217 OA
ATOM     18  O20 FGQ d   1      11.469  -4.079 -22.782  0.00  0.00    -0.217 OA
BRANCH  16  19
ATOM     19  C12 FGQ d   1      10.273  -5.373 -20.879  0.00  0.00     0.064 A 
ATOM     20  C13 FGQ d   1      10.230  -4.162 -20.184  0.00  0.00    -0.061 A 
ATOM     21  C14 FGQ d   1       9.536  -4.134 -18.976  0.00  0.00    -0.076 A 
ATOM     22  H3  FGQ d   1      10.719  -3.275 -20.571  0.00  0.00     0.085 H 
ATOM     23  C15 FGQ d   1       8.911  -5.283 -18.482  0.00  0.00    -0.062 A 
ATOM     24  H5  FGQ d   1       9.480  -3.210 -18.412  0.00  0.00     0.084 H 
ATOM     25  C16 FGQ d   1       8.974  -6.482 -19.199  0.00  0.00    -0.076 A 
ATOM     26  C17 FGQ d   1       9.657  -6.541 -20.417  0.00  0.00    -0.061 A 
ATOM     27  H6  FGQ d   1       8.491  -7.370 -18.808  0.00  0.00     0.084 H 
ATOM     28  H4  FGQ d   1       9.708  -7.463 -20.986  0.00  0.00     0.085 H 
BRANCH  23  29
ATOM     29  C18 FGQ d   1       8.175  -5.216 -17.180  0.00  0.00    -0.051 C 
ATOM     30  H7  FGQ d   1       8.240  -4.196 -16.774  0.00  0.00     0.033 H 
ATOM     31  H8  FGQ d   1       8.625  -5.923 -16.468  0.00  0.00     0.033 H 
ATOM     32  H9  FGQ d   1       7.119  -5.480 -17.341  0.00  0.00     0.033 H 
ENDBRANCH  23  29
ENDBRANCH  16  19
ENDBRANCH   1  16
BRANCH   6  33
ATOM     33  O22 FGQ d   1      16.245  -8.313 -21.286  0.00  0.00    -0.356 OA
ATOM     34  H12 FGQ d   1      16.047  -9.107 -20.803  0.00  0.00     0.218 HD
ENDBRANCH   6  33
TORSDOF 4
