REMARK WARNING: 32 MAX_TORS EXCEEDED!!!
REMARK  49 active torsions:
REMARK  status: ('A' for Active; 'I' for Inactive)
REMARK    1  A    between atoms: N_1  and  CA_2 
REMARK    2  A    between atoms: CA_2  and  C_3 
REMARK    3  A    between atoms: CA_2  and  CB_5 
REMARK       I    between atoms: C_3  and  N_9 
REMARK    4  A    between atoms: CB_5  and  CG_6 
REMARK    5  A    between atoms: CG_6  and  CD1_7 
REMARK    6  A    between atoms: CG_6  and  CD2_8 
REMARK    7  A    between atoms: N_9  and  CA_10 
REMARK    8  A    between atoms: CA_10  and  C_11 
REMARK       I    between atoms: C_11  and  N_13 
REMARK    9  A    between atoms: N_13  and  CA_14 
REMARK   10  A    between atoms: CA_14  and  C_15 
REMARK   11  A    between atoms: CA_14  and  CB_17 
REMARK       I    between atoms: C_15  and  N_21 
REMARK   12  A    between atoms: CB_17  and  CG_18 
REMARK   13  A    between atoms: CG_18  and  CD1_19 
REMARK   14  A    between atoms: CG_18  and  CD2_20 
REMARK   15  A    between atoms: CA_22  and  C_23 
REMARK       I    between atoms: C_23  and  N_28 
REMARK   16  A    between atoms: N_28  and  CA_29 
REMARK   17  A    between atoms: CA_29  and  C_30 
REMARK   18  A    between atoms: CA_29  and  CB_32 
REMARK       I    between atoms: C_30  and  N_36 
REMARK   19  A    between atoms: CB_32  and  CG_33 
REMARK   20  A    between atoms: N_36  and  CA_37 
REMARK   21  A    between atoms: CA_37  and  C_38 
REMARK   22  A    between atoms: CA_37  and  CB_40 
REMARK       I    between atoms: C_38  and  N_44 
REMARK   23  A    between atoms: CB_40  and  CG_41 
REMARK   24  A    between atoms: CG_41  and  CD1_42 
REMARK   25  A    between atoms: CG_41  and  CD2_43 
REMARK   26  A    between atoms: N_44  and  CA_45 
REMARK   27  A    between atoms: CA_45  and  C_46 
REMARK   28  A    between atoms: CA_45  and  CB_48 
REMARK       I    between atoms: C_46  and  N_51 
REMARK   29  A    between atoms: CB_48  and  CG1_49 
REMARK   30  A    between atoms: CB_48  and  CG2_50 
REMARK   31  A    between atoms: N_51  and  CA_52 
REMARK   32  A    between atoms: CA_52  and  C_53 
REMARK   33  A    between atoms: CA_52  and  CB_55 
REMARK       I    between atoms: C_53  and  N_56 
REMARK   34  A    between atoms: N_56  and  CA_57 
REMARK   35  A    between atoms: CA_57  and  C_58 
REMARK   36  A    between atoms: CA_57  and  CB_60 
REMARK       I    between atoms: C_58  and  N_65 
REMARK   37  A    between atoms: CB_60  and  CG_61 
REMARK   38  A    between atoms: CG_61  and  CD_62 
REMARK   39  A    between atoms: CD_62  and  CE_63 
REMARK   40  A    between atoms: CE_63  and  NZ_64 
REMARK   41  A    between atoms: N_65  and  CA_66 
REMARK   42  A    between atoms: CA_66  and  C_67 
REMARK   43  A    between atoms: CA_66  and  CB_69 
REMARK       I    between atoms: C_67  and  N_77 
REMARK   44  A    between atoms: CB_69  and  CG_70 
REMARK   45  A    between atoms: CZ_75  and  OH_76 
REMARK   46  A    between atoms: N_77  and  CA_78 
REMARK   47  A    between atoms: CA_78  and  C_79 
REMARK   48  A    between atoms: CA_78  and  CB_81 
REMARK   49  A    between atoms: CB_81  and  CG_82 
REMARK       I    between atoms: CG_82  and  ND2_84 
ROOT
ATOM      1  CA  LEU d   1       4.074  -6.198 -16.811  0.00  0.00     0.089 C 
ATOM      2  H40 LEU d   1       4.866  -6.812 -16.358  0.00  0.00     0.087 H 
ENDROOT
BRANCH   1   3
ATOM      3  N   LEU d   1       3.537  -6.908 -17.940  0.00  0.00    -0.346 N 
ATOM      4  C   LEU d   1       2.879  -8.059 -17.772  0.00  0.00     0.241 C 
ATOM      5  O   LEU d   1       2.717  -8.592 -16.668  0.00  0.00    -0.271 OA
ATOM      6  H39 LEU d   1       3.657  -6.537 -18.861  0.00  0.00     0.163 HD
BRANCH   4   7
ATOM      7  CA  LEU d   1       2.342  -8.685 -19.054  0.00  0.00     0.098 C 
ATOM      8  H36 LEU d   1       1.437  -9.251 -18.788  0.00  0.00     0.088 H 
BRANCH   7   9
ATOM      9  N   LEU d   1       1.964  -7.718 -20.054  0.00  0.00    -0.346 N 
ATOM     10  C   LEU d   1       1.078  -6.776 -19.788  0.00  0.00     0.241 C 
ATOM     11  O   LEU d   1       0.501  -6.671 -18.696  0.00  0.00    -0.271 OA
ATOM     12  H35 LEU d   1       2.379  -7.761 -20.963  0.00  0.00     0.163 HD
BRANCH  10  13
ATOM     13  CA  LEU d   1       0.801  -5.794 -20.963  0.00  0.00     0.091 C 
ATOM     14  N   LEU d   1      -0.602  -5.377 -20.945  0.00  0.00    -0.337 N 
ATOM     15  C   LEU d   1      -1.541  -6.303 -21.080  0.00  0.00     0.243 C 
ATOM     16  CD  LEU d   1      -0.727  -3.914 -20.899  0.00  0.00    -0.001 C 
ATOM     17  O   LEU d   1      -1.265  -7.486 -21.278  0.00  0.00    -0.271 OA
ATOM     18  CG  LEU d   1       0.674  -3.420 -20.981  0.00  0.00    -0.048 C 
ATOM     19  H33 LEU d   1      -1.198  -3.593 -19.958  0.00  0.00     0.064 H 
ATOM     20  H34 LEU d   1      -1.319  -3.547 -21.750  0.00  0.00     0.064 H 
ATOM     21  CB  LEU d   1       1.579  -4.516 -20.679  0.00  0.00    -0.036 C 
ATOM     22  H31 LEU d   1       0.874  -3.045 -21.995  0.00  0.00     0.035 H 
ATOM     23  H32 LEU d   1       0.822  -2.608 -20.254  0.00  0.00     0.035 H 
ATOM     24  H29 LEU d   1       2.472  -4.462 -21.319  0.00  0.00     0.036 H 
ATOM     25  H30 LEU d   1       1.883  -4.480 -19.622  0.00  0.00     0.036 H 
ATOM     26  H28 LEU d   1       1.078  -6.244 -21.928  0.00  0.00     0.087 H 
BRANCH  15  27
ATOM     27  CA  LEU d   1      -2.998  -5.879 -20.931  0.00  0.00     0.090 C 
ATOM     28  H18 LEU d   1      -3.094  -4.811 -21.175  0.00  0.00     0.087 H 
BRANCH  27  29
ATOM     29  N   LEU d   1      -3.828  -6.653 -21.836  0.00  0.00    -0.346 N 
ATOM     30  C   LEU d   1      -3.634  -6.619 -23.146  0.00  0.00     0.236 C 
ATOM     31  O   LEU d   1      -2.873  -5.807 -23.691  0.00  0.00    -0.272 OA
ATOM     32  H17 LEU d   1      -4.560  -7.223 -21.463  0.00  0.00     0.163 HD
BRANCH  30  33
ATOM     33  CA  LEU d   1      -4.391  -7.652 -23.954  0.00  0.00     0.069 C 
ATOM     34  H15 LEU d   1      -3.781  -8.566 -24.016  0.00  0.00     0.078 H 
ATOM     35  H16 LEU d   1      -5.337  -7.876 -23.439  0.00  0.00     0.078 H 
BRANCH  33  36
ATOM     36  N   LEU d   1      -4.690  -7.204 -25.297  0.00  0.00    -0.351 N 
ATOM     37  C   LEU d   1      -3.858  -7.430 -26.308  0.00  0.00     0.248 C 
ATOM     38  O   LEU d   1      -2.801  -8.056 -26.181  0.00  0.00    -0.271 OA
ATOM     39  H14 LEU d   1      -5.544  -6.712 -25.468  0.00  0.00     0.163 HD
BRANCH  37  40
ATOM     40  CA  LEU d   1      -4.262  -6.871 -27.663  0.00  0.00     0.176 C 
ATOM     41  H4  LEU d   1      -4.145  -5.777 -27.645  0.00  0.00     0.099 H 
BRANCH  40  42
ATOM     42  N   LEU d   1      -3.383  -7.420 -28.691  0.00  0.00    -0.066 N 
ATOM     43  H1  LEU d   1      -3.648  -7.052 -29.591  0.00  0.00     0.275 HD
ATOM     44  H2  LEU d   1      -3.465  -8.425 -28.702  0.00  0.00     0.275 HD
ATOM     45  H3  LEU d   1      -2.429  -7.163 -28.490  0.00  0.00     0.275 HD
ENDBRANCH  40  42
BRANCH  40  46
ATOM     46  CB  LEU d   1      -5.724  -7.197 -27.964  0.00  0.00    -0.028 C 
ATOM     47  H5  LEU d   1      -6.346  -6.724 -27.189  0.00  0.00     0.037 H 
ATOM     48  H6  LEU d   1      -5.847  -8.289 -27.917  0.00  0.00     0.037 H 
BRANCH  46  49
ATOM     49  CG  LEU d   1      -6.223  -6.722 -29.328  0.00  0.00    -0.059 C 
ATOM     50  H7  LEU d   1      -5.617  -7.207 -30.108  0.00  0.00     0.038 H 
BRANCH  49  51
ATOM     51  CD1 LEU d   1      -7.669  -7.132 -29.521  0.00  0.00    -0.073 C 
ATOM     52  H8  LEU d   1      -8.020  -6.786 -30.505  0.00  0.00     0.028 H 
ATOM     53  H9  LEU d   1      -8.287  -6.679 -28.732  0.00  0.00     0.028 H 
ATOM     54  H10 LEU d   1      -7.750  -8.228 -29.467  0.00  0.00     0.028 H 
ENDBRANCH  49  51
BRANCH  49  55
ATOM     55  CD2 LEU d   1      -6.065  -5.218 -29.470  0.00  0.00    -0.073 C 
ATOM     56  H11 LEU d   1      -5.009  -4.945 -29.326  0.00  0.00     0.028 H 
ATOM     57  H12 LEU d   1      -6.681  -4.711 -28.712  0.00  0.00     0.028 H 
ATOM     58  H13 LEU d   1      -6.390  -4.908 -30.474  0.00  0.00     0.028 H 
ENDBRANCH  49  55
ENDBRANCH  46  49
ENDBRANCH  40  46
ENDBRANCH  37  40
ENDBRANCH  33  36
ENDBRANCH  30  33
ENDBRANCH  27  29
BRANCH  27  59
ATOM     59  CB  LEU d   1      -3.447  -6.110 -19.491  0.00  0.00    -0.035 C 
ATOM     60  H19 LEU d   1      -2.761  -5.555 -18.835  0.00  0.00     0.037 H 
ATOM     61  H20 LEU d   1      -3.362  -7.187 -19.284  0.00  0.00     0.037 H 
BRANCH  59  62
ATOM     62  CG  LEU d   1      -4.869  -5.683 -19.140  0.00  0.00    -0.059 C 
ATOM     63  H21 LEU d   1      -5.559  -6.092 -19.892  0.00  0.00     0.038 H 
BRANCH  62  64
ATOM     64  CD1 LEU d   1      -5.266  -6.223 -17.773  0.00  0.00    -0.073 C 
ATOM     65  H22 LEU d   1      -6.293  -5.905 -17.537  0.00  0.00     0.028 H 
ATOM     66  H23 LEU d   1      -4.577  -5.832 -17.010  0.00  0.00     0.028 H 
ATOM     67  H24 LEU d   1      -5.215  -7.322 -17.784  0.00  0.00     0.028 H 
ENDBRANCH  62  64
BRANCH  62  68
ATOM     68  CD2 LEU d   1      -4.957  -4.172 -19.168  0.00  0.00    -0.073 C 
ATOM     69  H25 LEU d   1      -4.666  -3.806 -20.164  0.00  0.00     0.028 H 
ATOM     70  H26 LEU d   1      -4.280  -3.751 -18.410  0.00  0.00     0.028 H 
ATOM     71  H27 LEU d   1      -5.989  -3.861 -18.950  0.00  0.00     0.028 H 
ENDBRANCH  62  68
ENDBRANCH  59  62
ENDBRANCH  27  59
ENDBRANCH  15  27
ENDBRANCH  10  13
ENDBRANCH   7   9
BRANCH   7  72
ATOM     72  CB  LEU d   1       3.363  -9.670 -19.623  0.00  0.00     0.043 C 
ATOM     73  H37 LEU d   1       4.281  -9.124 -19.884  0.00  0.00     0.052 H 
ATOM     74  H38 LEU d   1       2.945 -10.138 -20.526  0.00  0.00     0.052 H 
BRANCH  72  75
ATOM     75  CG  LEU d   1       3.702 -10.754 -18.616  0.00  0.00     0.175 C 
ATOM     76  OD1 LEU d   1       2.883 -11.643 -18.390  0.00  0.00    -0.648 OA
ATOM     77  OD2 LEU d   1       4.795 -10.691 -18.017  0.00  0.00    -0.648 OA
ENDBRANCH  72  75
ENDBRANCH   7  72
ENDBRANCH   4   7
ENDBRANCH   1   3
BRANCH   1  78
ATOM     78  C   LEU d   1       3.042  -5.883 -15.738  0.00  0.00     0.241 C 
ATOM     79  O   LEU d   1       3.337  -5.927 -14.537  0.00  0.00    -0.271 OA
ATOM     80  N   LEU d   1       1.836  -5.519 -16.171  0.00  0.00    -0.346 N 
ATOM     81  H50 LEU d   1       1.614  -5.636 -17.139  0.00  0.00     0.163 HD
BRANCH  80  82
ATOM     82  CA  LEU d   1       0.832  -4.957 -15.281  0.00  0.00     0.092 C 
ATOM     83  H51 LEU d   1       1.357  -4.775 -14.332  0.00  0.00     0.088 H 
BRANCH  82  84
ATOM     84  C   LEU d   1      -0.390  -5.751 -14.919  0.00  0.00     0.241 C 
ATOM     85  O   LEU d   1      -1.049  -5.428 -13.942  0.00  0.00    -0.271 OA
ATOM     86  N   LEU d   1      -0.727  -6.756 -15.688  0.00  0.00    -0.346 N 
ATOM     87  H59 LEU d   1      -0.166  -6.992 -16.482  0.00  0.00     0.163 HD
BRANCH  86  88
ATOM     88  CA  LEU d   1      -1.931  -7.532 -15.378  0.00  0.00     0.086 C 
ATOM     89  H60 LEU d   1      -2.785  -6.839 -15.342  0.00  0.00     0.086 H 
BRANCH  88  90
ATOM     90  C   LEU d   1      -1.806  -8.209 -14.010  0.00  0.00     0.240 C 
ATOM     91  O   LEU d   1      -0.715  -8.636 -13.603  0.00  0.00    -0.271 OA
ATOM     92  N   LEU d   1      -2.922  -8.307 -13.296  0.00  0.00    -0.346 N 
ATOM     93  H64 LEU d   1      -3.781  -7.964 -13.677  0.00  0.00     0.163 HD
BRANCH  92  94
ATOM     94  CA  LEU d   1      -2.917  -8.906 -11.966  0.00  0.00     0.089 C 
ATOM     95  H65 LEU d   1      -2.122  -8.424 -11.378  0.00  0.00     0.087 H 
BRANCH  94  96
ATOM     96  C   LEU d   1      -2.641 -10.401 -12.008  0.00  0.00     0.241 C 
ATOM     97  O   LEU d   1      -2.919 -11.068 -13.008  0.00  0.00    -0.271 OA
ATOM     98  N   LEU d   1      -2.110 -10.932 -10.909  0.00  0.00    -0.346 N 
ATOM     99  H77 LEU d   1      -1.842 -10.334 -10.154  0.00  0.00     0.163 HD
BRANCH  98 100
ATOM    100  CA  LEU d   1      -1.913 -12.375 -10.789  0.00  0.00     0.093 C 
ATOM    101  H78 LEU d   1      -2.004 -12.800 -11.800  0.00  0.00     0.088 H 
BRANCH 100 102
ATOM    102  C   LEU d   1      -2.933 -13.086  -9.907  0.00  0.00     0.241 C 
ATOM    103  O   LEU d   1      -3.009 -14.317  -9.898  0.00  0.00    -0.271 OA
ATOM    104  N   LEU d   1      -3.711 -12.323  -9.153  0.00  0.00    -0.344 N 
ATOM    105  H86 LEU d   1      -3.651 -11.327  -9.220  0.00  0.00     0.163 HD
BRANCH 104 106
ATOM    106  CA  LEU d   1      -4.657 -12.937  -8.223  0.00  0.00     0.104 C 
ATOM    107  H87 LEU d   1      -4.234 -13.909  -7.931  0.00  0.00     0.090 H 
BRANCH 106 108
ATOM    108  C   LEU d   1      -6.043 -13.212  -8.817  0.00  0.00     0.197 C 
ATOM    109  O   LEU d   1      -6.242 -13.313 -10.033  0.00  0.00    -0.646 OA
ATOM    110  OXT LEU d   1      -7.009 -13.369  -8.067  0.00  0.00    -0.646 OA
ENDBRANCH 106 108
BRANCH 106 111
ATOM    111  CB  LEU d   1      -4.789 -12.083  -6.956  0.00  0.00     0.037 C 
ATOM    112  H88 LEU d   1      -3.808 -12.037  -6.460  0.00  0.00     0.051 H 
ATOM    113  H89 LEU d   1      -5.517 -12.562  -6.285  0.00  0.00     0.051 H 
BRANCH 111 114
ATOM    114  CG  LEU d   1      -5.252 -10.670  -7.242  0.00  0.00     0.217 C 
ATOM    115  OD1 LEU d   1      -4.770 -10.019  -8.167  0.00  0.00    -0.274 OA
ATOM    116  ND2 LEU d   1      -6.193 -10.185  -6.440  0.00  0.00    -0.370 N 
ATOM    117  H90 LEU d   1      -6.539  -9.257  -6.579  0.00  0.00     0.159 HD
ATOM    118  H91 LEU d   1      -6.555 -10.748  -5.697  0.00  0.00     0.159 HD
ENDBRANCH 111 114
ENDBRANCH 106 111
ENDBRANCH 104 106
ENDBRANCH 100 102
BRANCH 100 119
ATOM    119  CB  LEU d   1      -0.501 -12.668 -10.273  0.00  0.00    -0.014 C 
ATOM    120  H79 LEU d   1      -0.455 -13.716  -9.941  0.00  0.00     0.043 H 
ATOM    121  H80 LEU d   1      -0.289 -12.004  -9.422  0.00  0.00     0.043 H 
BRANCH 119 122
ATOM    122  CG  LEU d   1       0.547 -12.448 -11.333  0.00  0.00    -0.056 A 
ATOM    123  CD1 LEU d   1       1.124 -11.202 -11.520  0.00  0.00    -0.074 A 
ATOM    124  CE1 LEU d   1       2.069 -11.002 -12.505  0.00  0.00    -0.051 A 
ATOM    125  H81 LEU d   1       0.829 -10.375 -10.885  0.00  0.00     0.084 H 
ATOM    126  CZ  LEU d   1       2.442 -12.063 -13.319  0.00  0.00     0.065 A 
ATOM    127  H83 LEU d   1       2.517 -10.024 -12.642  0.00  0.00     0.087 H 
ATOM    128  CE2 LEU d   1       1.888 -13.302 -13.155  0.00  0.00    -0.051 A 
ATOM    129  CD2 LEU d   1       0.938 -13.488 -12.171  0.00  0.00    -0.074 A 
ATOM    130  H84 LEU d   1       2.191 -14.127 -13.789  0.00  0.00     0.087 H 
ATOM    131  H82 LEU d   1       0.486 -14.466 -12.048  0.00  0.00     0.084 H 
BRANCH 126 132
ATOM    132  OH  LEU d   1       3.393 -11.890 -14.302  0.00  0.00    -0.361 OA
ATOM    133  H85 LEU d   1       3.687 -10.987 -14.301  0.00  0.00     0.217 HD
ENDBRANCH 126 132
ENDBRANCH 119 122
ENDBRANCH 100 119
ENDBRANCH  98 100
ENDBRANCH  94  96
BRANCH  94 134
ATOM    134  CB  LEU d   1      -4.256  -8.669 -11.268  0.00  0.00    -0.038 C 
ATOM    135  H66 LEU d   1      -4.167  -9.025 -10.231  0.00  0.00     0.036 H 
ATOM    136  H67 LEU d   1      -5.022  -9.258 -11.793  0.00  0.00     0.036 H 
BRANCH 134 137
ATOM    137  CG  LEU d   1      -4.721  -7.220 -11.230  0.00  0.00    -0.061 C 
ATOM    138  H68 LEU d   1      -5.690  -7.170 -10.713  0.00  0.00     0.033 H 
ATOM    139  H69 LEU d   1      -4.837  -6.855 -12.261  0.00  0.00     0.033 H 
BRANCH 137 140
ATOM    140  CD  LEU d   1      -3.725  -6.329 -10.500  0.00  0.00    -0.043 C 
ATOM    141  H70 LEU d   1      -2.832  -6.194 -11.128  0.00  0.00     0.035 H 
ATOM    142  H71 LEU d   1      -3.438  -6.808  -9.552  0.00  0.00     0.035 H 
BRANCH 140 143
ATOM    143  CE  LEU d   1      -4.343  -4.969 -10.208  0.00  0.00     0.080 C 
ATOM    144  H72 LEU d   1      -5.205  -5.109  -9.539  0.00  0.00     0.075 H 
ATOM    145  H73 LEU d   1      -4.683  -4.525 -11.155  0.00  0.00     0.075 H 
BRANCH 143 146
ATOM    146  NZ  LEU d   1      -3.383  -4.036  -9.561  0.00  0.00    -0.079 N 
ATOM    147  H74 LEU d   1      -3.837  -3.153  -9.389  0.00  0.00     0.274 HD
ATOM    148  H75 LEU d   1      -2.591  -3.894 -10.169  0.00  0.00     0.274 HD
ATOM    149  H76 LEU d   1      -3.070  -4.429  -8.687  0.00  0.00     0.274 HD
ENDBRANCH 143 146
ENDBRANCH 140 143
ENDBRANCH 137 140
ENDBRANCH 134 137
ENDBRANCH  94 134
ENDBRANCH  92  94
ENDBRANCH  88  90
BRANCH  88 150
ATOM    150  CB  LEU d   1      -2.203  -8.566 -16.463  0.00  0.00    -0.049 C 
ATOM    151  H61 LEU d   1      -3.110  -9.135 -16.209  0.00  0.00     0.030 H 
ATOM    152  H62 LEU d   1      -1.348  -9.254 -16.537  0.00  0.00     0.030 H 
ATOM    153  H63 LEU d   1      -2.348  -8.056 -17.427  0.00  0.00     0.030 H 
ENDBRANCH  88 150
ENDBRANCH  86  88
ENDBRANCH  82  84
BRANCH  82 154
ATOM    154  CB  LEU d   1       0.354  -3.569 -15.837  0.00  0.00    -0.033 C 
ATOM    155  H52 LEU d   1      -0.148  -3.050 -15.008  0.00  0.00     0.042 H 
BRANCH 154 156
ATOM    156  CG1 LEU d   1       1.511  -2.686 -16.264  0.00  0.00    -0.071 C 
ATOM    157  H53 LEU d   1       1.122  -1.730 -16.644  0.00  0.00     0.028 H 
ATOM    158  H54 LEU d   1       2.084  -3.190 -17.057  0.00  0.00     0.028 H 
ATOM    159  H55 LEU d   1       2.167  -2.498 -15.401  0.00  0.00     0.028 H 
ENDBRANCH 154 156
BRANCH 154 160
ATOM    160  CG2 LEU d   1      -0.684  -3.743 -16.943  0.00  0.00    -0.071 C 
ATOM    161  H56 LEU d   1      -1.498  -4.389 -16.583  0.00  0.00     0.028 H 
ATOM    162  H57 LEU d   1      -0.210  -4.205 -17.821  0.00  0.00     0.028 H 
ATOM    163  H58 LEU d   1      -1.092  -2.760 -17.221  0.00  0.00     0.028 H 
ENDBRANCH 154 160
ENDBRANCH  82 154
ENDBRANCH  80  82
ENDBRANCH   1  78
BRANCH   1 164
ATOM    164  CB  LEU d   1       4.677  -4.884 -17.324  0.00  0.00    -0.035 C 
ATOM    165  H41 LEU d   1       3.932  -4.411 -17.981  0.00  0.00     0.037 H 
ATOM    166  H42 LEU d   1       5.574  -5.136 -17.909  0.00  0.00     0.037 H 
BRANCH 164 167
ATOM    167  CG  LEU d   1       5.083  -3.861 -16.283  0.00  0.00    -0.059 C 
ATOM    168  H43 LEU d   1       4.272  -3.785 -15.543  0.00  0.00     0.038 H 
BRANCH 167 169
ATOM    169  CD1 LEU d   1       6.354  -4.281 -15.520  0.00  0.00    -0.073 C 
ATOM    170  H44 LEU d   1       6.608  -3.510 -14.778  0.00  0.00     0.028 H 
ATOM    171  H45 LEU d   1       7.187  -4.396 -16.230  0.00  0.00     0.028 H 
ATOM    172  H46 LEU d   1       6.175  -5.238 -15.008  0.00  0.00     0.028 H 
ENDBRANCH 167 169
BRANCH 167 173
ATOM    173  CD2 LEU d   1       5.213  -2.494 -16.984  0.00  0.00    -0.073 C 
ATOM    174  H47 LEU d   1       4.274  -2.259 -17.506  0.00  0.00     0.028 H 
ATOM    175  H48 LEU d   1       6.037  -2.532 -17.711  0.00  0.00     0.028 H 
ATOM    176  H49 LEU d   1       5.420  -1.716 -16.235  0.00  0.00     0.028 H 
ENDBRANCH 167 173
ENDBRANCH 164 167
ENDBRANCH   1 164
TORSDOF 49
