REMARK  12 active torsions:
REMARK  status: ('A' for Active; 'I' for Inactive)
REMARK    1  A    between atoms: CG2_1  and  CB_2 
REMARK    2  A    between atoms: CB_2  and  CG1_3 
REMARK    3  A    between atoms: CB_2  and  CA_4 
REMARK    4  A    between atoms: CA_4  and  N_5 
REMARK    5  A    between atoms: CA_4  and  C_6 
REMARK    6  A    between atoms: C_6  and  OAO_8 
REMARK    7  A    between atoms: OAO_8  and  CAI_9 
REMARK    8  A    between atoms: CAI_9  and  CAH_10 
REMARK    9  A    between atoms: CAH_10  and  OAN_11 
REMARK   10  A    between atoms: OAN_11  and  CAJ_12 
REMARK   11  A    between atoms: CAJ_12  and  N9_13 
REMARK   12  A    between atoms: C2_19  and  N2_20 
ROOT
ATOM      1  CAH TXC d   1      -0.182   1.481 -18.509  0.00  0.00     0.042 C 
ATOM      2  H14 TXC d   1      -0.721   0.563 -18.232  0.00  0.00     0.077 H 
ATOM      3  H15 TXC d   1       0.875   1.243 -18.700  0.00  0.00     0.077 H 
ENDROOT
BRANCH   1   4
ATOM      4  CAI TXC d   1      -0.262   2.456 -17.365  0.00  0.00     0.049 C 
ATOM      5  H12 TXC d   1      -0.990   3.244 -17.608  0.00  0.00     0.078 H 
ATOM      6  H13 TXC d   1      -0.584   1.926 -16.457  0.00  0.00     0.078 H 
BRANCH   4   7
ATOM      7  OAO TXC d   1       1.040   3.059 -17.134  0.00  0.00    -0.318 OA
BRANCH   7   8
ATOM      8  C   TXC d   1       1.230   3.653 -15.949  0.00  0.00     0.290 C 
ATOM      9  O   TXC d   1       0.415   3.669 -15.065  0.00  0.00    -0.263 OA
BRANCH   8  10
ATOM     10  CA  TXC d   1       2.631   4.383 -15.891  0.00  0.00     0.185 C 
ATOM     11  H8  TXC d   1       2.971   4.547 -16.924  0.00  0.00     0.100 H 
BRANCH  10  12
ATOM     12  CB  TXC d   1       3.739   3.535 -15.224  0.00  0.00    -0.025 C 
ATOM     13  H4  TXC d   1       3.856   2.635 -15.846  0.00  0.00     0.042 H 
BRANCH  12  14
ATOM     14  CG2 TXC d   1       5.114   4.197 -15.155  0.00  0.00    -0.071 C 
ATOM     15  H1  TXC d   1       5.825   3.515 -14.666  0.00  0.00     0.028 H 
ATOM     16  H2  TXC d   1       5.043   5.130 -14.576  0.00  0.00     0.028 H 
ATOM     17  H3  TXC d   1       5.464   4.423 -16.173  0.00  0.00     0.028 H 
ENDBRANCH  12  14
BRANCH  12  18
ATOM     18  CG1 TXC d   1       3.314   3.079 -13.844  0.00  0.00    -0.071 C 
ATOM     19  H5  TXC d   1       2.324   2.604 -13.904  0.00  0.00     0.028 H 
ATOM     20  H6  TXC d   1       3.264   3.947 -13.170  0.00  0.00     0.028 H 
ATOM     21  H7  TXC d   1       4.045   2.355 -13.456  0.00  0.00     0.028 H 
ENDBRANCH  12  18
ENDBRANCH  10  12
BRANCH  10  22
ATOM     22  N   TXC d   1       2.339   5.696 -15.323  0.00  0.00    -0.066 N 
ATOM     23  H9  TXC d   1       1.602   6.135 -15.852  0.00  0.00     0.275 HD
ATOM     24  H10 TXC d   1       3.167   6.270 -15.360  0.00  0.00     0.275 HD
ATOM     25  H11 TXC d   1       2.047   5.590 -14.364  0.00  0.00     0.275 HD
ENDBRANCH  10  22
ENDBRANCH   8  10
ENDBRANCH   7   8
ENDBRANCH   4   7
ENDBRANCH   1   4
BRANCH   1  26
ATOM     26  OAN TXC d   1      -0.754   2.007 -19.694  0.00  0.00    -0.369 OA
BRANCH  26  27
ATOM     27  CAJ TXC d   1      -2.029   1.499 -19.971  0.00  0.00     0.086 C 
ATOM     28  H16 TXC d   1      -2.110   0.489 -19.543  0.00  0.00     0.107 H 
ATOM     29  H17 TXC d   1      -2.161   1.447 -21.062  0.00  0.00     0.107 H 
BRANCH  27  30
ATOM     30  N9  TXC d   1      -3.089   2.339 -19.405  0.00  0.00    -0.303 N 
ATOM     31  C8  TXC d   1      -3.198   2.760 -18.115  0.00  0.00     0.070 A 
ATOM     32  N7  TXC d   1      -4.190   3.594 -17.917  0.00  0.00    -0.234 NA
ATOM     33  H18 TXC d   1      -2.525   2.435 -17.323  0.00  0.00     0.144 H 
ATOM     34  C5  TXC d   1      -4.785   3.716 -19.165  0.00  0.00     0.171 A 
ATOM     35  C4  TXC d   1      -4.124   2.937 -20.076  0.00  0.00     0.160 A 
ATOM     36  C6  TXC d   1      -5.957   4.472 -19.588  0.00  0.00     0.292 A 
ATOM     37  N3  TXC d   1      -4.529   2.800 -21.385  0.00  0.00    -0.174 N 
ATOM     38  C2  TXC d   1      -5.658   3.487 -21.744  0.00  0.00     0.680 A 
ATOM     39  H19 TXC d   1      -4.012   2.214 -22.056  0.00  0.00     0.186 HD
ATOM     40  N1  TXC d   1      -6.323   4.287 -20.912  0.00  0.00    -0.154 N 
ATOM     41  H22 TXC d   1      -7.123   4.777 -21.259  0.00  0.00     0.187 HD
ATOM     42  O6  TXC d   1      -6.582   5.235 -18.837  0.00  0.00    -0.265 OA
BRANCH  38  43
ATOM     43  N2  TXC d   1      -6.130   3.270 -22.970  0.00  0.00    -0.234 N 
ATOM     44  H20 TXC d   1      -6.977   3.761 -23.290  0.00  0.00     0.174 HD
ATOM     45  H21 TXC d   1      -5.648   2.611 -23.598  0.00  0.00     0.174 HD
ENDBRANCH  38  43
ENDBRANCH  27  30
ENDBRANCH  26  27
ENDBRANCH   1  26
TORSDOF 12
