REMARK  7 active torsions:
REMARK  status: ('A' for Active; 'I' for Inactive)
REMARK    1  A    between atoms: C7_5  and  C8_16 
REMARK    2  A    between atoms: C4_7  and  N1_8 
REMARK    3  A    between atoms: N1_8  and  C3_9 
REMARK    4  A    between atoms: C_14  and  N_15 
REMARK    5  A    between atoms: N3_19  and  C14_20 
REMARK    6  A    between atoms: C9_21  and  C10_22 
REMARK    7  A    between atoms: C10_22  and  C11_23 
ROOT
ATOM      1  F   LCI d   1     -37.492  38.604  46.523  0.00  0.00    -0.202 F 
ATOM      2  C6  LCI d   1     -38.625  39.289  46.407  0.00  0.00     0.164 A 
ATOM      3  C5  LCI d   1     -38.578  40.669  46.441  0.00  0.00     0.060 A 
ATOM      4  N2  LCI d   1     -39.732  41.419  46.322  0.00  0.00    -0.072 NA
ATOM      5  C7  LCI d   1     -39.847  38.648  46.254  0.00  0.00     0.129 A 
ATOM      6  N5  LCI d   1     -40.995  39.411  46.136  0.00  0.00    -0.059 NA
ATOM      7  C4  LCI d   1     -40.950  40.790  46.172  0.00  0.00     0.723 A 
ATOM      8  H1  LCI d   1     -37.624  41.169  46.562  0.00  0.00     0.120 H 
ENDROOT
BRANCH   7   9
ATOM      9  N1  LCI d   1     -42.128  41.554  46.039  0.00  0.00    -0.218 N 
ATOM     10  H2  LCI d   1     -42.083  42.580  46.114  0.00  0.00     0.178 HD
BRANCH   9  11
ATOM     11  C3  LCI d   1     -43.422  40.894  45.794  0.00  0.00     0.026 C 
ATOM     12  C2  LCI d   1     -44.559  41.842  46.176  0.00  0.00    -0.044 C 
ATOM     13  C1  LCI d   1     -45.910  41.140  45.986  0.00  0.00    -0.037 C 
ATOM     14  H4  LCI d   1     -44.519  42.736  45.536  0.00  0.00     0.036 H 
ATOM     15  H5  LCI d   1     -44.448  42.140  47.229  0.00  0.00     0.036 H 
ATOM     16  C   LCI d   1     -46.078  40.665  44.533  0.00  0.00     0.100 C 
ATOM     17  H6  LCI d   1     -46.720  41.843  46.232  0.00  0.00     0.036 H 
ATOM     18  H7  LCI d   1     -45.963  40.271  46.658  0.00  0.00     0.036 H 
ATOM     19  C17 LCI d   1     -44.916  39.742  44.128  0.00  0.00    -0.037 C 
ATOM     20  H12 LCI d   1     -46.093  41.539  43.865  0.00  0.00     0.083 H 
ATOM     21  C16 LCI d   1     -43.571  40.457  44.324  0.00  0.00    -0.044 C 
ATOM     22  H10 LCI d   1     -44.939  38.836  44.751  0.00  0.00     0.036 H 
ATOM     23  H11 LCI d   1     -45.027  39.462  43.070  0.00  0.00     0.036 H 
ATOM     24  H8  LCI d   1     -42.752  39.772  44.062  0.00  0.00     0.036 H 
ATOM     25  H9  LCI d   1     -43.530  41.343  43.674  0.00  0.00     0.036 H 
ATOM     26  H3  LCI d   1     -43.480  39.998  46.429  0.00  0.00     0.073 H 
BRANCH  16  27
ATOM     27  N   LCI d   1     -47.350  39.935  44.414  0.00  0.00    -0.075 N 
ATOM     28  H13 LCI d   1     -48.111  40.540  44.679  0.00  0.00     0.274 HD
ATOM     29  H14 LCI d   1     -47.334  39.130  45.021  0.00  0.00     0.274 HD
ATOM     30  H15 LCI d   1     -47.477  39.634  43.460  0.00  0.00     0.274 HD
ENDBRANCH  16  27
ENDBRANCH   9  11
ENDBRANCH   7   9
BRANCH   5  31
ATOM     31  C8  LCI d   1     -39.955  37.170  46.210  0.00  0.00     0.040 A 
ATOM     32  C15 LCI d   1     -38.900  36.315  46.451  0.00  0.00     0.036 A 
ATOM     33  N4  LCI d   1     -39.371  35.064  46.321  0.00  0.00    -0.184 NA
ATOM     34  H16 LCI d   1     -37.879  36.600  46.700  0.00  0.00     0.118 H 
ATOM     35  N3  LCI d   1     -40.590  35.094  46.029  0.00  0.00    -0.278 N 
ATOM     36  C9  LCI d   1     -41.037  36.361  45.940  0.00  0.00     0.044 A 
BRANCH  35  37
ATOM     37  C14 LCI d   1     -41.382  33.871  45.820  0.00  0.00     0.003 C 
ATOM     38  H17 LCI d   1     -42.419  34.143  45.575  0.00  0.00     0.059 H 
ATOM     39  H18 LCI d   1     -41.369  33.264  46.737  0.00  0.00     0.059 H 
ATOM     40  H19 LCI d   1     -40.950  33.291  44.991  0.00  0.00     0.059 H 
ENDBRANCH  35  37
BRANCH  36  41
ATOM     41  C10 LCI d   1     -42.457  36.782  45.607  0.00  0.00    -0.021 C 
ATOM     42  H20 LCI d   1     -42.711  36.434  44.595  0.00  0.00     0.043 H 
ATOM     43  H21 LCI d   1     -42.529  37.879  45.646  0.00  0.00     0.043 H 
BRANCH  41  44
ATOM     44  C11 LCI d   1     -43.443  36.175  46.612  0.00  0.00    -0.049 A 
ATOM     45  C13 LCI d   1     -44.520  37.184  47.020  0.00  0.00    -0.061 A 
ATOM     46  C12 LCI d   1     -44.827  36.125  45.963  0.00  0.00    -0.061 A 
ATOM     47  H23 LCI d   1     -44.423  38.240  46.728  0.00  0.00     0.033 H 
ATOM     48  H24 LCI d   1     -44.986  37.120  48.014  0.00  0.00     0.033 H 
ATOM     49  H25 LCI d   1     -45.514  35.298  46.197  0.00  0.00     0.033 H 
ATOM     50  H26 LCI d   1     -44.951  36.419  44.910  0.00  0.00     0.033 H 
ATOM     51  H22 LCI d   1     -43.025  35.408  47.281  0.00  0.00     0.040 H 
ENDBRANCH  41  44
ENDBRANCH  36  41
ENDBRANCH   5  31
TORSDOF 7
