REMARK WARNING: 32 MAX_TORS EXCEEDED!!!
REMARK  58 active torsions:
REMARK  status: ('A' for Active; 'I' for Inactive)
REMARK    1  A    between atoms: CA_2  and  C_3 
REMARK       I    between atoms: C_3  and  N_8 
REMARK    2  A    between atoms: N_8  and  CA_9 
REMARK    3  A    between atoms: CA_9  and  C_10 
REMARK    4  A    between atoms: CA_9  and  CB_12 
REMARK       I    between atoms: C_10  and  N_15 
REMARK    5  A    between atoms: CB_12  and  OG1_13 
REMARK    6  A    between atoms: CB_12  and  CG2_14 
REMARK    7  A    between atoms: N_15  and  CA_16 
REMARK    8  A    between atoms: CA_16  and  C_17 
REMARK    9  A    between atoms: CA_16  and  CB_19 
REMARK       I    between atoms: C_17  and  N_24 
REMARK   10  A    between atoms: CB_19  and  CG_20 
REMARK   11  A    between atoms: CG_20  and  CD_21 
REMARK   12  A    between atoms: CD_21  and  CE_22 
REMARK   13  A    between atoms: CE_22  and  NZ_23 
REMARK   14  A    between atoms: N_24  and  CA_25 
REMARK   15  A    between atoms: CA_25  and  C_26 
REMARK   16  A    between atoms: CA_25  and  CB_28 
REMARK       I    between atoms: C_26  and  N_32 
REMARK   17  A    between atoms: CB_28  and  CG_29 
REMARK   18  A    between atoms: N_32  and  CA_33 
REMARK   19  A    between atoms: CA_33  and  C_34 
REMARK   20  A    between atoms: CA_33  and  CB_36 
REMARK       I    between atoms: C_34  and  N_38 
REMARK   21  A    between atoms: CB_36  and  OG_37 
REMARK   22  A    between atoms: N_38  and  CA_39 
REMARK   23  A    between atoms: CA_39  and  C_40 
REMARK   24  A    between atoms: CA_39  and  CB_42 
REMARK       I    between atoms: C_40  and  N_50 
REMARK   25  A    between atoms: CB_42  and  CG_43 
REMARK   26  A    between atoms: CZ_48  and  OH_49 
REMARK   27  A    between atoms: N_50  and  CA_51 
REMARK   28  A    between atoms: CA_51  and  C_52 
REMARK   29  A    between atoms: CA_51  and  CB_54 
REMARK       I    between atoms: C_52  and  N_57 
REMARK   30  A    between atoms: CB_54  and  OG1_55 
REMARK   31  A    between atoms: CB_54  and  CG2_56 
REMARK   32  A    between atoms: N_57  and  CA_58 
REMARK   33  A    between atoms: CA_58  and  C_59 
REMARK   34  A    between atoms: CA_58  and  CB_61 
REMARK       I    between atoms: C_59  and  N_65 
REMARK   35  A    between atoms: CB_61  and  CG_62 
REMARK   36  A    between atoms: CG_62  and  CD1_63 
REMARK   37  A    between atoms: CG_62  and  CD2_64 
REMARK   38  A    between atoms: N_65  and  CA_66 
REMARK   39  A    between atoms: CA_66  and  C_67 
REMARK   40  A    between atoms: CA_66  and  CB_69 
REMARK       I    between atoms: C_67  and  N_72 
REMARK   41  A    between atoms: CB_69  and  OG1_70 
REMARK   42  A    between atoms: CB_69  and  CG2_71 
REMARK   43  A    between atoms: N_72  and  CA_73 
REMARK   44  A    between atoms: CA_73  and  C_74 
REMARK   45  A    between atoms: CA_73  and  CB_76 
REMARK       I    between atoms: C_74  and  N_81 
REMARK   46  A    between atoms: CB_76  and  CG_77 
REMARK   47  A    between atoms: CG_77  and  CD_78 
REMARK   48  A    between atoms: N_81  and  CA_82 
REMARK   49  A    between atoms: CA_82  and  C_83 
REMARK   50  A    between atoms: CA_82  and  CB_85 
REMARK       I    between atoms: C_83  and  N_90 
REMARK   51  A    between atoms: CB_85  and  CG_86 
REMARK   52  A    between atoms: CG_86  and  CD_87 
REMARK   53  A    between atoms: N_90  and  CA_91 
REMARK   54  A    between atoms: CA_91  and  C_92 
REMARK   55  A    between atoms: CA_91  and  CB_94 
REMARK   56  A    between atoms: CB_94  and  CG_95 
REMARK   57  A    between atoms: CG_95  and  CD1_96 
REMARK   58  A    between atoms: CG_95  and  CD2_97 
ROOT
ATOM      1  N   THR d   1      13.187 -17.768 -19.571  0.00  0.00    -0.344 N 
ATOM      2  H48 THR d   1      13.618 -17.108 -20.187  0.00  0.00     0.163 HD
ATOM      3  C   TYR d   1      13.550 -19.052 -19.653  0.00  0.00     0.241 C 
ATOM      4  O   TYR d   1      13.377 -19.862 -18.741  0.00  0.00    -0.271 OA
ENDROOT
BRANCH   1   5
ATOM      5  CA  THR d   1      12.189 -17.288 -18.621  0.00  0.00     0.113 C 
ATOM      6  H49 THR d   1      11.578 -18.147 -18.306  0.00  0.00     0.091 H 
BRANCH   5   7
ATOM      7  C   THR d   1      11.303 -16.258 -19.314  0.00  0.00     0.243 C 
ATOM      8  O   THR d   1      11.742 -15.565 -20.242  0.00  0.00    -0.271 OA
ATOM      9  N   LEU d   1      10.056 -16.147 -18.834  0.00  0.00    -0.346 N 
ATOM     10  H55 LEU d   1       9.747 -16.803 -18.145  0.00  0.00     0.163 HD
BRANCH   9  11
ATOM     11  CA  LEU d   1       9.133 -15.109 -19.275  0.00  0.00     0.089 C 
ATOM     12  H56 LEU d   1       9.715 -14.244 -19.626  0.00  0.00     0.087 H 
BRANCH  11  13
ATOM     13  C   LEU d   1       8.260 -14.670 -18.103  0.00  0.00     0.241 C 
ATOM     14  O   LEU d   1       7.863 -15.495 -17.283  0.00  0.00    -0.271 OA
ATOM     15  N   THR d   1       7.972 -13.375 -18.011  0.00  0.00    -0.344 N 
ATOM     16  H66 THR d   1       8.381 -12.731 -18.657  0.00  0.00     0.163 HD
BRANCH  15  17
ATOM     17  CA  THR d   1       7.065 -12.883 -16.978  0.00  0.00     0.113 C 
ATOM     18  H67 THR d   1       7.253 -13.455 -16.057  0.00  0.00     0.091 H 
BRANCH  17  19
ATOM     19  C   THR d   1       5.619 -13.071 -17.394  0.00  0.00     0.243 C 
ATOM     20  O   THR d   1       5.288 -13.184 -18.578  0.00  0.00    -0.271 OA
ATOM     21  N   GLU d   1       4.751 -13.074 -16.389  0.00  0.00    -0.346 N 
ATOM     22  H73 GLU d   1       5.092 -13.038 -15.450  0.00  0.00     0.163 HD
BRANCH  21  23
ATOM     23  CA  GLU d   1       3.319 -13.128 -16.620  0.00  0.00     0.090 C 
ATOM     24  H74 GLU d   1       3.092 -13.995 -17.257  0.00  0.00     0.087 H 
BRANCH  23  25
ATOM     25  C   GLU d   1       2.863 -11.864 -17.330  0.00  0.00     0.241 C 
ATOM     26  O   GLU d   1       3.424 -10.779 -17.145  0.00  0.00    -0.271 OA
ATOM     27  N   GLU d   1       1.846 -12.012 -18.163  0.00  0.00    -0.346 N 
ATOM     28  H79 GLU d   1       1.397 -12.902 -18.248  0.00  0.00     0.163 HD
BRANCH  27  29
ATOM     29  CA  GLU d   1       1.379 -10.886 -18.955  0.00  0.00     0.090 C 
ATOM     30  H80 GLU d   1       2.246 -10.417 -19.442  0.00  0.00     0.087 H 
BRANCH  29  31
ATOM     31  C   GLU d   1       0.708  -9.849 -18.064  0.00  0.00     0.241 C 
ATOM     32  O   GLU d   1      -0.018 -10.186 -17.122  0.00  0.00    -0.271 OA
ATOM     33  N   LEU d   1       0.969  -8.581 -18.357  0.00  0.00    -0.345 N 
ATOM     34  H85 LEU d   1       1.589  -8.372 -19.113  0.00  0.00     0.163 HD
BRANCH  33  35
ATOM     35  CA  LEU d   1       0.374  -7.488 -17.603  0.00  0.00     0.096 C 
ATOM     36  H86 LEU d   1      -0.476  -7.885 -17.028  0.00  0.00     0.089 H 
BRANCH  35  37
ATOM     37  C   LEU d   1      -0.144  -6.414 -18.554  0.00  0.00     0.196 C 
ATOM     38  O   LEU d   1      -1.277  -5.954 -18.423  0.00  0.00    -0.646 OA
ATOM     39  OXT LEU d   1       0.563  -5.991 -19.467  0.00  0.00    -0.646 OA
ENDBRANCH  35  37
BRANCH  35  40
ATOM     40  CB  LEU d   1       1.386  -6.889 -16.619  0.00  0.00    -0.034 C 
ATOM     41  H87 LEU d   1       0.927  -5.976 -16.213  0.00  0.00     0.037 H 
ATOM     42  H88 LEU d   1       2.276  -6.621 -17.207  0.00  0.00     0.037 H 
BRANCH  40  43
ATOM     43  CG  LEU d   1       1.883  -7.702 -15.417  0.00  0.00    -0.059 C 
ATOM     44  H89 LEU d   1       2.524  -8.510 -15.799  0.00  0.00     0.038 H 
BRANCH  43  45
ATOM     45  CD1 LEU d   1       2.738  -6.810 -14.503  0.00  0.00    -0.073 C 
ATOM     46  H90 LEU d   1       3.091  -7.398 -13.643  0.00  0.00     0.028 H 
ATOM     47  H91 LEU d   1       2.132  -5.965 -14.145  0.00  0.00     0.028 H 
ATOM     48  H92 LEU d   1       3.602  -6.429 -15.067  0.00  0.00     0.028 H 
ENDBRANCH  43  45
BRANCH  43  49
ATOM     49  CD2 LEU d   1       0.727  -8.356 -14.637  0.00  0.00    -0.073 C 
ATOM     50  H93 LEU d   1       0.136  -8.986 -15.318  0.00  0.00     0.028 H 
ATOM     51  H94 LEU d   1       0.083  -7.573 -14.210  0.00  0.00     0.028 H 
ATOM     52  H95 LEU d   1       1.137  -8.976 -13.826  0.00  0.00     0.028 H 
ENDBRANCH  43  49
ENDBRANCH  40  43
ENDBRANCH  35  40
ENDBRANCH  33  35
ENDBRANCH  29  31
BRANCH  29  53
ATOM     53  CB  GLU d   1       0.418 -11.370 -20.037  0.00  0.00    -0.029 C 
ATOM     54  H81 GLU d   1      -0.512 -11.700 -19.552  0.00  0.00     0.037 H 
ATOM     55  H82 GLU d   1       0.882 -12.221 -20.557  0.00  0.00     0.037 H 
BRANCH  53  56
ATOM     56  CG  GLU d   1       0.072 -10.319 -21.062  0.00  0.00     0.018 C 
ATOM     57  H83 GLU d   1       0.963 -10.111 -21.673  0.00  0.00     0.049 H 
ATOM     58  H84 GLU d   1      -0.238  -9.401 -20.541  0.00  0.00     0.049 H 
BRANCH  56  59
ATOM     59  CD  GLU d   1      -1.047 -10.768 -21.967  0.00  0.00     0.172 C 
ATOM     60  OE1 GLU d   1      -1.553  -9.939 -22.761  0.00  0.00    -0.648 OA
ATOM     61  OE2 GLU d   1      -1.422 -11.956 -21.874  0.00  0.00    -0.648 OA
ENDBRANCH  56  59
ENDBRANCH  53  56
ENDBRANCH  29  53
ENDBRANCH  27  29
ENDBRANCH  23  25
BRANCH  23  62
ATOM     62  CB  GLU d   1       2.583 -13.287 -15.290  0.00  0.00    -0.029 C 
ATOM     63  H75 GLU d   1       1.508 -13.390 -15.497  0.00  0.00     0.037 H 
ATOM     64  H76 GLU d   1       2.755 -12.384 -14.687  0.00  0.00     0.037 H 
BRANCH  62  65
ATOM     65  CG  GLU d   1       3.040 -14.504 -14.482  0.00  0.00     0.018 C 
ATOM     66  H77 GLU d   1       2.567 -14.468 -13.490  0.00  0.00     0.049 H 
ATOM     67  H78 GLU d   1       4.133 -14.463 -14.368  0.00  0.00     0.049 H 
BRANCH  65  68
ATOM     68  CD  GLU d   1       2.667 -15.815 -15.154  0.00  0.00     0.172 C 
ATOM     69  OE1 GLU d   1       3.485 -16.769 -15.123  0.00  0.00    -0.648 OA
ATOM     70  OE2 GLU d   1       1.550 -15.873 -15.723  0.00  0.00    -0.648 OA
ENDBRANCH  65  68
ENDBRANCH  62  65
ENDBRANCH  23  62
ENDBRANCH  21  23
ENDBRANCH  17  19
BRANCH  17  71
ATOM     71  CB  THR d   1       7.262 -11.394 -16.683  0.00  0.00     0.060 C 
ATOM     72  H68 THR d   1       6.397 -11.034 -16.107  0.00  0.00     0.086 H 
BRANCH  71  73
ATOM     73  OG1 THR d   1       7.323 -10.668 -17.919  0.00  0.00    -0.393 OA
ATOM     74  H69 THR d   1       8.052 -10.989 -18.438  0.00  0.00     0.210 HD
ENDBRANCH  71  73
BRANCH  71  75
ATOM     75  CG2 THR d   1       8.527 -11.158 -15.848  0.00  0.00    -0.050 C 
ATOM     76  H70 THR d   1       8.642 -10.082 -15.652  0.00  0.00     0.031 H 
ATOM     77  H71 THR d   1       9.405 -11.526 -16.400  0.00  0.00     0.031 H 
ATOM     78  H72 THR d   1       8.442 -11.697 -14.893  0.00  0.00     0.031 H 
ENDBRANCH  71  75
ENDBRANCH  17  71
ENDBRANCH  15  17
ENDBRANCH  11  13
BRANCH  11  79
ATOM     79  CB  LEU d   1       8.270 -15.612 -20.425  0.00  0.00    -0.035 C 
ATOM     80  H57 LEU d   1       7.593 -16.382 -20.026  0.00  0.00     0.037 H 
ATOM     81  H58 LEU d   1       8.937 -16.063 -21.174  0.00  0.00     0.037 H 
BRANCH  79  82
ATOM     82  CG  LEU d   1       7.422 -14.568 -21.127  0.00  0.00    -0.059 C 
ATOM     83  H59 LEU d   1       6.749 -14.116 -20.384  0.00  0.00     0.038 H 
BRANCH  82  84
ATOM     84  CD1 LEU d   1       8.287 -13.430 -21.732  0.00  0.00    -0.073 C 
ATOM     85  H60 LEU d   1       7.634 -12.698 -22.230  0.00  0.00     0.028 H 
ATOM     86  H61 LEU d   1       8.989 -13.853 -22.466  0.00  0.00     0.028 H 
ATOM     87  H62 LEU d   1       8.851 -12.932 -20.930  0.00  0.00     0.028 H 
ENDBRANCH  82  84
BRANCH  82  88
ATOM     88  CD2 LEU d   1       6.562 -15.259 -22.198  0.00  0.00    -0.073 C 
ATOM     89  H63 LEU d   1       5.966 -16.057 -21.731  0.00  0.00     0.028 H 
ATOM     90  H64 LEU d   1       7.215 -15.693 -22.969  0.00  0.00     0.028 H 
ATOM     91  H65 LEU d   1       5.889 -14.521 -22.660  0.00  0.00     0.028 H 
ENDBRANCH  82  88
ENDBRANCH  79  82
ENDBRANCH  11  79
ENDBRANCH   9  11
ENDBRANCH   5   7
BRANCH   5  92
ATOM     92  CB  THR d   1      12.770 -16.612 -17.355  0.00  0.00     0.060 C 
ATOM     93  H50 THR d   1      11.978 -16.542 -16.595  0.00  0.00     0.086 H 
BRANCH  92  94
ATOM     94  OG1 THR d   1      13.217 -15.298 -17.695  0.00  0.00    -0.393 OA
ATOM     95  H51 THR d   1      13.888 -15.356 -18.365  0.00  0.00     0.210 HD
ENDBRANCH  92  94
BRANCH  92  96
ATOM     96  CG2 THR d   1      13.922 -17.396 -16.783  0.00  0.00    -0.050 C 
ATOM     97  H52 THR d   1      14.305 -16.884 -15.888  0.00  0.00     0.031 H 
ATOM     98  H53 THR d   1      14.723 -17.471 -17.533  0.00  0.00     0.031 H 
ATOM     99  H54 THR d   1      13.579 -18.405 -16.510  0.00  0.00     0.031 H 
ENDBRANCH  92  96
ENDBRANCH   5  92
ENDBRANCH   1   5
BRANCH   3 100
ATOM    100  CA  TYR d   1      14.173 -19.495 -20.968  0.00  0.00     0.093 C 
ATOM    101  H40 TYR d   1      14.754 -18.672 -21.408  0.00  0.00     0.088 H 
BRANCH 100 102
ATOM    102  N   TYR d   1      15.054 -20.627 -20.722  0.00  0.00    -0.346 N 
ATOM    103  C   SER d   1      16.383 -20.581 -20.552  0.00  0.00     0.243 C 
ATOM    104  O   SER d   1      17.075 -19.570 -20.737  0.00  0.00    -0.271 OA
ATOM    105  H39 TYR d   1      14.625 -21.529 -20.675  0.00  0.00     0.163 HD
BRANCH 103 106
ATOM    106  CA  SER d   1      17.018 -21.894 -20.120  0.00  0.00     0.109 C 
ATOM    107  H35 SER d   1      16.405 -22.723 -20.504  0.00  0.00     0.090 H 
BRANCH 106 108
ATOM    108  N   SER d   1      18.358 -22.022 -20.678  0.00  0.00    -0.344 N 
ATOM    109  C   ASP d   1      18.816 -23.203 -21.115  0.00  0.00     0.241 C 
ATOM    110  O   ASP d   1      18.121 -24.226 -21.136  0.00  0.00    -0.271 OA
ATOM    111  H34 SER d   1      18.946 -21.215 -20.736  0.00  0.00     0.163 HD
BRANCH 109 112
ATOM    112  CA  ASP d   1      20.261 -23.228 -21.605  0.00  0.00     0.098 C 
ATOM    113  H31 ASP d   1      20.787 -22.357 -21.187  0.00  0.00     0.088 H 
BRANCH 112 114
ATOM    114  N   ASP d   1      20.946 -24.436 -21.163  0.00  0.00    -0.346 N 
ATOM    115  C   LYS d   1      21.781 -24.478 -20.121  0.00  0.00     0.241 C 
ATOM    116  O   LYS d   1      22.015 -23.505 -19.400  0.00  0.00    -0.271 OA
ATOM    117  H30 ASP d   1      20.781 -25.283 -21.669  0.00  0.00     0.163 HD
BRANCH 115 118
ATOM    118  CA  LYS d   1      22.466 -25.818 -19.866  0.00  0.00     0.089 C 
ATOM    119  H18 LYS d   1      22.600 -26.338 -20.826  0.00  0.00     0.087 H 
BRANCH 118 120
ATOM    120  N   LYS d   1      23.773 -25.553 -19.282  0.00  0.00    -0.346 N 
ATOM    121  C   THR d   1      24.759 -26.445 -19.261  0.00  0.00     0.243 C 
ATOM    122  O   THR d   1      24.665 -27.559 -19.776  0.00  0.00    -0.271 OA
ATOM    123  H17 LYS d   1      23.938 -24.654 -18.876  0.00  0.00     0.163 HD
BRANCH 121 124
ATOM    124  CA  THR d   1      26.032 -25.977 -18.562  0.00  0.00     0.113 C 
ATOM    125  H11 THR d   1      25.759 -25.608 -17.562  0.00  0.00     0.091 H 
BRANCH 124 126
ATOM    126  N   THR d   1      26.980 -27.069 -18.397  0.00  0.00    -0.344 N 
ATOM    127  C   PRO d   1      27.293 -27.588 -17.214  0.00  0.00     0.249 C 
ATOM    128  O   PRO d   1      26.667 -27.355 -16.186  0.00  0.00    -0.271 OA
ATOM    129  H10 THR d   1      27.417 -27.447 -19.213  0.00  0.00     0.163 HD
BRANCH 127 130
ATOM    130  CA  PRO d   1      28.473 -28.547 -17.156  0.00  0.00     0.178 C 
ATOM    131  N   PRO d   1      29.507 -28.077 -16.221  0.00  0.00    -0.062 N 
ATOM    132  CD  PRO d   1      29.549 -28.886 -14.988  0.00  0.00     0.083 C 
ATOM    133  H1  PRO d   1      29.312 -27.119 -15.975  0.00  0.00     0.278 HD
ATOM    134  H2  PRO d   1      30.405 -28.131 -16.676  0.00  0.00     0.278 HD
ATOM    135  CG  PRO d   1      28.327 -29.786 -15.114  0.00  0.00    -0.040 C 
ATOM    136  H8  PRO d   1      29.477 -28.247 -14.095  0.00  0.00     0.075 H 
ATOM    137  H9  PRO d   1      30.473 -29.481 -14.939  0.00  0.00     0.075 H 
ATOM    138  CB  PRO d   1      28.052 -29.907 -16.573  0.00  0.00    -0.028 C 
ATOM    139  H6  PRO d   1      28.535 -30.776 -14.681  0.00  0.00     0.035 H 
ATOM    140  H7  PRO d   1      27.466 -29.335 -14.599  0.00  0.00     0.035 H 
ATOM    141  H4  PRO d   1      28.646 -30.721 -17.015  0.00  0.00     0.036 H 
ATOM    142  H5  PRO d   1      26.983 -30.094 -16.753  0.00  0.00     0.036 H 
ATOM    143  H3  PRO d   1      28.890 -28.668 -18.167  0.00  0.00     0.099 H 
ENDBRANCH 127 130
ENDBRANCH 124 126
BRANCH 124 144
ATOM    144  CB  THR d   1      26.670 -24.821 -19.348  0.00  0.00     0.060 C 
ATOM    145  H12 THR d   1      25.979 -23.965 -19.337  0.00  0.00     0.086 H 
BRANCH 144 146
ATOM    146  OG1 THR d   1      26.904 -25.213 -20.713  0.00  0.00    -0.393 OA
ATOM    147  H13 THR d   1      26.078 -25.447 -21.120  0.00  0.00     0.210 HD
ENDBRANCH 144 146
BRANCH 144 148
ATOM    148  CG2 THR d   1      27.992 -24.394 -18.707  0.00  0.00    -0.050 C 
ATOM    149  H14 THR d   1      28.430 -23.567 -19.285  0.00  0.00     0.031 H 
ATOM    150  H15 THR d   1      28.688 -25.246 -18.701  0.00  0.00     0.031 H 
ATOM    151  H16 THR d   1      27.809 -24.062 -17.674  0.00  0.00     0.031 H 
ENDBRANCH 144 148
ENDBRANCH 124 144
ENDBRANCH 121 124
ENDBRANCH 118 120
BRANCH 118 152
ATOM    152  CB  LYS d   1      21.632 -26.715 -18.943  0.00  0.00    -0.038 C 
ATOM    153  H19 LYS d   1      21.722 -26.328 -17.917  0.00  0.00     0.036 H 
ATOM    154  H20 LYS d   1      22.047 -27.733 -18.989  0.00  0.00     0.036 H 
BRANCH 152 155
ATOM    155  CG  LYS d   1      20.166 -26.792 -19.287  0.00  0.00    -0.061 C 
ATOM    156  H21 LYS d   1      20.057 -27.242 -20.285  0.00  0.00     0.033 H 
ATOM    157  H22 LYS d   1      19.748 -25.774 -19.296  0.00  0.00     0.033 H 
BRANCH 155 158
ATOM    158  CD  LYS d   1      19.394 -27.632 -18.281  0.00  0.00    -0.043 C 
ATOM    159  H23 LYS d   1      19.801 -27.453 -17.275  0.00  0.00     0.035 H 
ATOM    160  H24 LYS d   1      19.507 -28.695 -18.538  0.00  0.00     0.035 H 
BRANCH 158 161
ATOM    161  CE  LYS d   1      17.907 -27.271 -18.290  0.00  0.00     0.080 C 
ATOM    162  H25 LYS d   1      17.340 -28.085 -17.814  0.00  0.00     0.075 H 
ATOM    163  H26 LYS d   1      17.575 -27.154 -19.332  0.00  0.00     0.075 H 
BRANCH 161 164
ATOM    164  NZ  LYS d   1      17.640 -25.999 -17.552  0.00  0.00    -0.079 N 
ATOM    165  H27 LYS d   1      16.653 -25.795 -17.580  0.00  0.00     0.274 HD
ATOM    166  H28 LYS d   1      18.151 -25.246 -17.985  0.00  0.00     0.274 HD
ATOM    167  H29 LYS d   1      17.936 -26.098 -16.593  0.00  0.00     0.274 HD
ENDBRANCH 161 164
ENDBRANCH 158 161
ENDBRANCH 155 158
ENDBRANCH 152 155
ENDBRANCH 118 152
ENDBRANCH 115 118
ENDBRANCH 112 114
BRANCH 112 168
ATOM    168  CB  ASP d   1      20.289 -23.134 -23.127  0.00  0.00     0.043 C 
ATOM    169  H32 ASP d   1      19.717 -22.247 -23.436  0.00  0.00     0.052 H 
ATOM    170  H33 ASP d   1      19.819 -24.037 -23.544  0.00  0.00     0.052 H 
BRANCH 168 171
ATOM    171  CG  ASP d   1      21.696 -23.020 -23.680  0.00  0.00     0.175 C 
ATOM    172  OD1 ASP d   1      21.829 -22.842 -24.913  0.00  0.00    -0.648 OA
ATOM    173  OD2 ASP d   1      22.668 -23.099 -22.889  0.00  0.00    -0.648 OA
ENDBRANCH 168 171
ENDBRANCH 112 168
ENDBRANCH 109 112
ENDBRANCH 106 108
BRANCH 106 174
ATOM    174  CB  SER d   1      17.036 -21.974 -18.583  0.00  0.00     0.044 C 
ATOM    175  H36 SER d   1      16.017 -21.808 -18.204  0.00  0.00     0.077 H 
ATOM    176  H37 SER d   1      17.704 -21.193 -18.192  0.00  0.00     0.077 H 
BRANCH 174 177
ATOM    177  OG  SER d   1      17.498 -23.250 -18.134  0.00  0.00    -0.398 OA
ATOM    178  H38 SER d   1      16.922 -23.929 -18.465  0.00  0.00     0.209 HD
ENDBRANCH 174 177
ENDBRANCH 106 174
ENDBRANCH 103 106
ENDBRANCH 100 102
BRANCH 100 179
ATOM    179  CB  TYR d   1      13.024 -19.872 -21.904  0.00  0.00    -0.014 C 
ATOM    180  H41 TYR d   1      12.279 -19.065 -21.846  0.00  0.00     0.043 H 
ATOM    181  H42 TYR d   1      12.585 -20.805 -21.521  0.00  0.00     0.043 H 
BRANCH 179 182
ATOM    182  CG  TYR d   1      13.332 -20.091 -23.363  0.00  0.00    -0.056 A 
ATOM    183  CD1 TYR d   1      13.701 -21.344 -23.845  0.00  0.00    -0.074 A 
ATOM    184  CE1 TYR d   1      13.946 -21.538 -25.202  0.00  0.00    -0.051 A 
ATOM    185  H43 TYR d   1      13.799 -22.176 -23.157  0.00  0.00     0.084 H 
ATOM    186  CZ  TYR d   1      13.800 -20.473 -26.077  0.00  0.00     0.065 A 
ATOM    187  H45 TYR d   1      14.248 -22.512 -25.570  0.00  0.00     0.087 H 
ATOM    188  CE2 TYR d   1      13.417 -19.236 -25.617  0.00  0.00    -0.051 A 
ATOM    189  CD2 TYR d   1      13.181 -19.054 -24.277  0.00  0.00    -0.074 A 
ATOM    190  H46 TYR d   1      13.302 -18.409 -26.308  0.00  0.00     0.087 H 
ATOM    191  H44 TYR d   1      12.869 -18.078 -23.923  0.00  0.00     0.084 H 
BRANCH 186 192
ATOM    192  OH  TYR d   1      14.039 -20.627 -27.419  0.00  0.00    -0.361 OA
ATOM    193  H47 TYR d   1      13.250 -20.420 -27.906  0.00  0.00     0.217 HD
ENDBRANCH 186 192
ENDBRANCH 179 182
ENDBRANCH 100 179
ENDBRANCH   3 100
TORSDOF 58
