REMARK  7 active torsions:
REMARK  status: ('A' for Active; 'I' for Inactive)
REMARK    1  A    between atoms: C7_13  and  C_1 
REMARK       I    between atoms: C_1  and  NA_17 
REMARK    2  A    between atoms: C1_3  and  C2_9 
REMARK    3  A    between atoms: NA_17  and  C1_3 
REMARK    4  A    between atoms: C2_9  and  C3_10 
REMARK    5  A    between atoms: C3_10  and  C4_11 
REMARK    6  A    between atoms: C4_11  and  O4_20 
REMARK    7  A    between atoms: O4_20  and  C6_12 
ROOT
ATOM      1  C   FHH d   1     144.101 116.975  40.747  0.00  0.00     0.257 C 
ATOM      2  O   FHH d   1     144.676 118.048  40.570  0.00  0.00    -0.267 OA
ATOM      3  NA  FHH d   1     143.355 116.425  39.786  0.00  0.00    -0.357 N 
ATOM      4  H18 FHH d   1     142.900 115.555  39.977  0.00  0.00     0.162 HD
ENDROOT
BRANCH   1   5
ATOM      5  C7  FHH d   1     144.258 116.243  42.066  0.00  0.00     0.100 A 
ATOM      6  C12 FHH d   1     143.265 115.272  42.511  0.00  0.00     0.261 A 
ATOM      7  N11 FHH d   1     143.527 114.655  43.727  0.00  0.00    -0.326 N 
ATOM      8  O13 FHH d   1     142.233 114.988  41.887  0.00  0.00    -0.267 OA
ATOM      9  C10 FHH d   1     144.650 114.930  44.455  0.00  0.00     0.018 A 
ATOM     10  H17 FHH d   1     142.872 113.987  44.082  0.00  0.00     0.169 HD
ATOM     11  C14 FHH d   1     144.981 114.293  45.767  0.00  0.00    -0.026 A 
ATOM     12  C9  FHH d   1     145.596 115.832  44.045  0.00  0.00    -0.034 A 
ATOM     13  C13 FHH d   1     146.321 114.959  46.125  0.00  0.00    -0.056 A 
ATOM     14  H7  FHH d   1     145.092 113.204  45.664  0.00  0.00     0.042 H 
ATOM     15  H8  FHH d   1     144.212 114.513  46.522  0.00  0.00     0.042 H 
ATOM     16  C11 FHH d   1     146.724 115.947  45.025  0.00  0.00    -0.039 A 
ATOM     17  H5  FHH d   1     146.217 115.498  47.078  0.00  0.00     0.034 H 
ATOM     18  H6  FHH d   1     147.097 114.186  46.223  0.00  0.00     0.034 H 
ATOM     19  H3  FHH d   1     147.680 115.658  44.564  0.00  0.00     0.040 H 
ATOM     20  H4  FHH d   1     146.802 116.970  45.421  0.00  0.00     0.040 H 
ATOM     21  C8  FHH d   1     145.380 116.494  42.817  0.00  0.00    -0.054 A 
ATOM     22  H16 FHH d   1     146.114 117.215  42.460  0.00  0.00     0.086 H 
ENDBRANCH   1   5
BRANCH   3  23
ATOM     23  C1  FHH d   1     143.169 117.035  38.459  0.00  0.00    -0.004 C 
ATOM     24  H1  FHH d   1     144.161 117.317  38.077  0.00  0.00     0.064 H 
ATOM     25  H2  FHH d   1     142.724 116.276  37.799  0.00  0.00     0.064 H 
BRANCH  23  26
ATOM     26  C2  FHH d   1     142.268 118.292  38.409  0.00  0.00    -0.042 C 
ATOM     27  H9  FHH d   1     141.550 118.165  37.585  0.00  0.00     0.036 H 
ATOM     28  H10 FHH d   1     142.908 119.163  38.206  0.00  0.00     0.036 H 
BRANCH  26  29
ATOM     29  C3  FHH d   1     141.482 118.570  39.682  0.00  0.00     0.017 C 
ATOM     30  H11 FHH d   1     141.594 117.704  40.351  0.00  0.00     0.048 H 
ATOM     31  H12 FHH d   1     140.422 118.691  39.413  0.00  0.00     0.048 H 
BRANCH  29  32
ATOM     32  C4  FHH d   1     141.922 119.801  40.427  0.00  0.00     0.258 C 
ATOM     33  O2  FHH d   1     141.127 120.521  41.056  0.00  0.00    -0.265 OA
BRANCH  32  34
ATOM     34  O4  FHH d   1     143.250 120.111  40.392  0.00  0.00    -0.326 OA
BRANCH  34  35
ATOM     35  C6  FHH d   1     143.819 120.601  41.631  0.00  0.00     0.013 C 
ATOM     36  H13 FHH d   1     144.888 120.817  41.484  0.00  0.00     0.067 H 
ATOM     37  H14 FHH d   1     143.703 119.838  42.415  0.00  0.00     0.067 H 
ATOM     38  H15 FHH d   1     143.298 121.521  41.935  0.00  0.00     0.067 H 
ENDBRANCH  34  35
ENDBRANCH  32  34
ENDBRANCH  29  32
ENDBRANCH  26  29
ENDBRANCH  23  26
ENDBRANCH   3  23
TORSDOF 7
