REMARK WARNING: 32 MAX_TORS EXCEEDED!!!
REMARK  41 active torsions:
REMARK  status: ('A' for Active; 'I' for Inactive)
REMARK    1  A    between atoms: N_1  and  CA_2 
REMARK    2  A    between atoms: CA_2  and  C_3 
REMARK    3  A    between atoms: CA_2  and  CB_5 
REMARK       I    between atoms: C_3  and  N_6 
REMARK    4  A    between atoms: N_6  and  CA_7 
REMARK    5  A    between atoms: CA_7  and  C_8 
REMARK    6  A    between atoms: CA_7  and  CB_10 
REMARK       I    between atoms: C_8  and  N_13 
REMARK    7  A    between atoms: CB_10  and  OG1_11 
REMARK    8  A    between atoms: CB_10  and  CG2_12 
REMARK    9  A    between atoms: N_13  and  CA_14 
REMARK   10  A    between atoms: CA_14  and  C_15 
REMARK       I    between atoms: C_15  and  N_17 
REMARK   11  A    between atoms: N_17  and  CA_18 
REMARK   12  A    between atoms: CA_18  and  C_19 
REMARK   13  A    between atoms: CA_18  and  CB_21 
REMARK       I    between atoms: C_19  and  N_22 
REMARK   14  A    between atoms: N_22  and  CA_23 
REMARK   15  A    between atoms: CA_23  and  C_24 
REMARK       I    between atoms: C_24  and  N_26 
REMARK   16  A    between atoms: N_26  and  CA_27 
REMARK   17  A    between atoms: CA_27  and  C_28 
REMARK   18  A    between atoms: CA_27  and  CB_30 
REMARK       I    between atoms: C_28  and  N_31 
REMARK   19  A    between atoms: N_31  and  CA_32 
REMARK   20  A    between atoms: CA_32  and  C_33 
REMARK       I    between atoms: C_33  and  N_35 
REMARK   21  A    between atoms: N_35  and  CA_36 
REMARK   22  A    between atoms: CA_36  and  C_37 
REMARK   23  A    between atoms: CA_36  and  CB_39 
REMARK       I    between atoms: C_37  and  N_40 
REMARK   24  A    between atoms: N_40  and  CA_41 
REMARK   25  A    between atoms: CA_41  and  C_42 
REMARK       I    between atoms: C_42  and  N_44 
REMARK   26  A    between atoms: N_44  and  CA_45 
REMARK   27  A    between atoms: CA_45  and  C_46 
REMARK   28  A    between atoms: CA_45  and  CB_48 
REMARK       I    between atoms: C_46  and  N_51 
REMARK   29  A    between atoms: CB_48  and  OG1_49 
REMARK   30  A    between atoms: CB_48  and  CG2_50 
REMARK   31  A    between atoms: N_51  and  CA_52 
REMARK   32  A    between atoms: CA_52  and  C_53 
REMARK   33  A    between atoms: CA_52  and  CB_55 
REMARK       I    between atoms: C_53  and  N_58 
REMARK   34  A    between atoms: CB_55  and  OG1_56 
REMARK   35  A    between atoms: CB_55  and  CG2_57 
REMARK   36  A    between atoms: CA_59  and  C_60 
REMARK       I    between atoms: C_60  and  N_65 
REMARK   37  A    between atoms: N_65  and  CA_66 
REMARK   38  A    between atoms: CA_66  and  C_67 
REMARK       I    between atoms: C_67  and  N_69 
REMARK   39  A    between atoms: CA_70  and  C_71 
REMARK       I    between atoms: C_71  and  N_76 
REMARK   40  A    between atoms: N_76  and  CA_77 
REMARK   41  A    between atoms: CA_77  and  C_78 
ROOT
ATOM      1  C   ALA d   1      29.751 -35.489  38.745  0.00  0.00     0.240 C 
ATOM      2  O   ALA d   1      28.663 -35.037  38.328  0.00  0.00    -0.271 OA
ATOM      3  N   GLY d   1      30.889 -34.774  38.722  0.00  0.00    -0.351 N 
ATOM      4  H39 GLY d   1      31.741 -35.203  39.022  0.00  0.00     0.163 HD
ENDROOT
BRANCH   3   5
ATOM      5  CA  GLY d   1      30.909 -33.366  38.263  0.00  0.00     0.069 C 
ATOM      6  H40 GLY d   1      31.945 -32.996  38.273  0.00  0.00     0.078 H 
ATOM      7  H41 GLY d   1      30.295 -32.755  38.941  0.00  0.00     0.078 H 
BRANCH   5   8
ATOM      8  C   GLY d   1      30.347 -33.259  36.836  0.00  0.00     0.236 C 
ATOM      9  O   GLY d   1      30.462 -34.217  36.028  0.00  0.00    -0.272 OA
ATOM     10  N   THR d   1      29.694 -32.136  36.532  0.00  0.00    -0.344 N 
ATOM     11  H42 THR d   1      29.531 -31.468  37.258  0.00  0.00     0.163 HD
BRANCH  10  12
ATOM     12  CA  THR d   1      29.199 -31.834  35.166  0.00  0.00     0.113 C 
ATOM     13  H43 THR d   1      29.665 -32.539  34.461  0.00  0.00     0.091 H 
BRANCH  12  14
ATOM     14  C   THR d   1      29.568 -30.396  34.780  0.00  0.00     0.243 C 
ATOM     15  O   THR d   1      29.877 -29.560  35.648  0.00  0.00    -0.271 OA
ATOM     16  N   THR d   1      29.492 -30.116  33.481  0.00  0.00    -0.344 N 
ATOM     17  H49 THR d   1      29.319 -30.860  32.836  0.00  0.00     0.163 HD
BRANCH  16  18
ATOM     18  CA  THR d   1      29.654 -28.750  32.961  0.00  0.00     0.114 C 
ATOM     19  H50 THR d   1      30.131 -28.099  33.709  0.00  0.00     0.091 H 
BRANCH  18  20
ATOM     20  C   THR d   1      28.225 -28.281  32.663  0.00  0.00     0.245 C 
ATOM     21  O   THR d   1      27.533 -28.930  31.904  0.00  0.00    -0.271 OA
ATOM     22  N   PRO d   1      27.765 -27.168  33.297  0.00  0.00    -0.337 N 
ATOM     23  CA  PRO d   1      26.362 -26.746  33.115  0.00  0.00     0.091 C 
ATOM     24  CD  PRO d   1      28.532 -26.184  34.096  0.00  0.00    -0.001 C 
ATOM     25  CB  PRO d   1      26.186 -25.656  34.179  0.00  0.00    -0.036 C 
ATOM     26  H56 PRO d   1      25.684 -27.592  33.300  0.00  0.00     0.087 H 
ATOM     27  CG  PRO d   1      27.550 -25.034  34.274  0.00  0.00    -0.048 C 
ATOM     28  H57 PRO d   1      25.885 -26.093  35.143  0.00  0.00     0.036 H 
ATOM     29  H58 PRO d   1      25.437 -24.915  33.862  0.00  0.00     0.036 H 
ATOM     30  H59 PRO d   1      27.689 -24.558  35.256  0.00  0.00     0.035 H 
ATOM     31  H60 PRO d   1      27.687 -24.284  33.481  0.00  0.00     0.035 H 
ATOM     32  H61 PRO d   1      29.432 -25.854  33.556  0.00  0.00     0.064 H 
ATOM     33  H62 PRO d   1      28.823 -26.608  35.069  0.00  0.00     0.064 H 
BRANCH  23  34
ATOM     34  C   PRO d   1      26.060 -26.157  31.712  0.00  0.00     0.241 C 
ATOM     35  O   PRO d   1      26.951 -25.513  31.095  0.00  0.00    -0.271 OA
ATOM     36  N   GLY d   1      24.836 -26.389  31.222  0.00  0.00    -0.351 N 
ATOM     37  H63 GLY d   1      24.206 -26.966  31.741  0.00  0.00     0.163 HD
BRANCH  36  38
ATOM     38  CA  GLY d   1      24.393 -25.820  29.944  0.00  0.00     0.069 C 
ATOM     39  H64 GLY d   1      23.547 -26.406  29.556  0.00  0.00     0.078 H 
ATOM     40  H65 GLY d   1      25.223 -25.851  29.222  0.00  0.00     0.078 H 
BRANCH  38  41
ATOM     41  C   GLY d   1      23.958 -24.383  30.152  0.00  0.00     0.238 C 
ATOM     42  O   GLY d   1      23.686 -23.992  31.307  0.00  0.00    -0.272 OA
ATOM     43  N   PRO d   1      23.915 -23.573  29.055  0.00  0.00    -0.337 N 
ATOM     44  CA  PRO d   1      23.592 -22.149  29.193  0.00  0.00     0.091 C 
ATOM     45  CD  PRO d   1      24.246 -23.908  27.661  0.00  0.00    -0.001 C 
ATOM     46  CB  PRO d   1      23.851 -21.575  27.782  0.00  0.00    -0.036 C 
ATOM     47  H66 PRO d   1      24.288 -21.695  29.914  0.00  0.00     0.087 H 
ATOM     48  CG  PRO d   1      23.704 -22.737  26.902  0.00  0.00    -0.048 C 
ATOM     49  H67 PRO d   1      24.865 -21.154  27.710  0.00  0.00     0.036 H 
ATOM     50  H68 PRO d   1      23.113 -20.799  27.533  0.00  0.00     0.036 H 
ATOM     51  H69 PRO d   1      24.275 -22.587  25.974  0.00  0.00     0.035 H 
ATOM     52  H70 PRO d   1      22.644 -22.899  26.658  0.00  0.00     0.035 H 
ATOM     53  H71 PRO d   1      23.756 -24.843  27.351  0.00  0.00     0.064 H 
ATOM     54  H72 PRO d   1      25.333 -24.001  27.523  0.00  0.00     0.064 H 
BRANCH  44  55
ATOM     55  C   PRO d   1      22.167 -21.830  29.665  0.00  0.00     0.241 C 
ATOM     56  O   PRO d   1      21.963 -20.739  30.184  0.00  0.00    -0.271 OA
ATOM     57  N   GLY d   1      21.210 -22.734  29.487  0.00  0.00    -0.349 N 
ATOM     58  H73 GLY d   1      21.451 -23.640  29.140  0.00  0.00     0.163 HD
BRANCH  57  59
ATOM     59  CA  GLY d   1      19.792 -22.428  29.791  0.00  0.00     0.075 C 
ATOM     60  H74 GLY d   1      19.176 -23.263  29.425  0.00  0.00     0.080 H 
ATOM     61  H75 GLY d   1      19.518 -21.508  29.254  0.00  0.00     0.080 H 
BRANCH  59  62
ATOM     62  C   GLY d   1      19.481 -22.223  31.273  0.00  0.00     0.191 C 
ATOM     63  O   GLY d   1      19.931 -22.995  32.123  0.00  0.00    -0.647 OA
ATOM     64  OXT GLY d   1      18.775 -21.282  31.643  0.00  0.00    -0.647 OA
ENDBRANCH  59  62
ENDBRANCH  57  59
ENDBRANCH  44  55
ENDBRANCH  38  41
ENDBRANCH  36  38
ENDBRANCH  23  34
ENDBRANCH  18  20
BRANCH  18  65
ATOM     65  CB  THR d   1      30.498 -28.770  31.680  0.00  0.00     0.060 C 
ATOM     66  H51 THR d   1      29.962 -29.366  30.927  0.00  0.00     0.086 H 
BRANCH  65  67
ATOM     67  OG1 THR d   1      31.775 -29.415  31.930  0.00  0.00    -0.393 OA
ATOM     68  H52 THR d   1      32.243 -28.937  32.604  0.00  0.00     0.210 HD
ENDBRANCH  65  67
BRANCH  65  69
ATOM     69  CG2 THR d   1      30.661 -27.378  31.131  0.00  0.00    -0.050 C 
ATOM     70  H53 THR d   1      31.268 -27.414  30.214  0.00  0.00     0.031 H 
ATOM     71  H54 THR d   1      31.163 -26.745  31.878  0.00  0.00     0.031 H 
ATOM     72  H55 THR d   1      29.672 -26.957  30.899  0.00  0.00     0.031 H 
ENDBRANCH  65  69
ENDBRANCH  18  65
ENDBRANCH  16  18
ENDBRANCH  12  14
BRANCH  12  73
ATOM     73  CB  THR d   1      27.666 -31.944  35.054  0.00  0.00     0.060 C 
ATOM     74  H44 THR d   1      27.365 -31.640  34.040  0.00  0.00     0.086 H 
BRANCH  73  75
ATOM     75  OG1 THR d   1      27.076 -31.049  36.008  0.00  0.00    -0.393 OA
ATOM     76  H45 THR d   1      26.129 -31.106  35.951  0.00  0.00     0.210 HD
ENDBRANCH  73  75
BRANCH  73  77
ATOM     77  CG2 THR d   1      27.147 -33.411  35.307  0.00  0.00    -0.050 C 
ATOM     78  H46 THR d   1      26.051 -33.433  35.215  0.00  0.00     0.031 H 
ATOM     79  H47 THR d   1      27.437 -33.733  36.318  0.00  0.00     0.031 H 
ATOM     80  H48 THR d   1      27.591 -34.090  34.564  0.00  0.00     0.031 H 
ENDBRANCH  73  77
ENDBRANCH  12  73
ENDBRANCH  10  12
ENDBRANCH   5   8
ENDBRANCH   3   5
BRANCH   1  81
ATOM     81  CA  ALA d   1      29.821 -36.931  39.343  0.00  0.00     0.086 C 
ATOM     82  H35 ALA d   1      29.792 -37.647  38.508  0.00  0.00     0.086 H 
BRANCH  81  83
ATOM     83  N   ALA d   1      31.067 -37.143  40.087  0.00  0.00    -0.347 N 
ATOM     84  C   GLY d   1      32.007 -38.020  39.720  0.00  0.00     0.236 C 
ATOM     85  O   GLY d   1      31.914 -38.724  38.717  0.00  0.00    -0.272 OA
ATOM     86  H34 ALA d   1      31.222 -36.602  40.914  0.00  0.00     0.163 HD
BRANCH  84  87
ATOM     87  CA  GLY d   1      33.248 -38.133  40.590  0.00  0.00     0.069 C 
ATOM     88  H32 GLY d   1      33.360 -39.189  40.879  0.00  0.00     0.078 H 
ATOM     89  H33 GLY d   1      34.112 -37.825  39.983  0.00  0.00     0.078 H 
BRANCH  87  90
ATOM     90  N   GLY d   1      33.257 -37.334  41.813  0.00  0.00    -0.351 N 
ATOM     91  C   ALA d   1      32.743 -37.791  42.953  0.00  0.00     0.240 C 
ATOM     92  O   ALA d   1      32.139 -38.880  43.046  0.00  0.00    -0.271 OA
ATOM     93  H31 GLY d   1      33.660 -36.419  41.793  0.00  0.00     0.163 HD
BRANCH  91  94
ATOM     94  CA  ALA d   1      32.936 -36.879  44.171  0.00  0.00     0.086 C 
ATOM     95  H27 ALA d   1      32.875 -35.840  43.816  0.00  0.00     0.086 H 
BRANCH  94  96
ATOM     96  N   ALA d   1      31.912 -37.046  45.211  0.00  0.00    -0.347 N 
ATOM     97  C   GLY d   1      30.595 -36.980  44.987  0.00  0.00     0.236 C 
ATOM     98  O   GLY d   1      30.087 -36.914  43.861  0.00  0.00    -0.272 OA
ATOM     99  H26 ALA d   1      32.219 -37.220  46.147  0.00  0.00     0.163 HD
BRANCH  97 100
ATOM    100  CA  GLY d   1      29.721 -36.979  46.231  0.00  0.00     0.069 C 
ATOM    101  H24 GLY d   1      28.698 -37.290  45.974  0.00  0.00     0.078 H 
ATOM    102  H25 GLY d   1      30.135 -37.666  46.984  0.00  0.00     0.078 H 
BRANCH 100 103
ATOM    103  N   GLY d   1      29.714 -35.611  46.750  0.00  0.00    -0.351 N 
ATOM    104  C   ALA d   1      28.591 -34.942  47.022  0.00  0.00     0.240 C 
ATOM    105  O   ALA d   1      27.515 -35.514  47.237  0.00  0.00    -0.271 OA
ATOM    106  H23 GLY d   1      30.590 -35.156  46.908  0.00  0.00     0.163 HD
BRANCH 104 107
ATOM    107  CA  ALA d   1      28.672 -33.397  47.138  0.00  0.00     0.086 C 
ATOM    108  H19 ALA d   1      27.963 -32.994  46.400  0.00  0.00     0.086 H 
BRANCH 107 109
ATOM    109  N   ALA d   1      28.238 -32.906  48.454  0.00  0.00    -0.347 N 
ATOM    110  C   GLY d   1      28.751 -33.325  49.612  0.00  0.00     0.236 C 
ATOM    111  O   GLY d   1      29.706 -34.099  49.702  0.00  0.00    -0.272 OA
ATOM    112  H18 ALA d   1      27.515 -32.216  48.483  0.00  0.00     0.163 HD
BRANCH 110 113
ATOM    113  CA  GLY d   1      28.093 -32.782  50.861  0.00  0.00     0.069 C 
ATOM    114  H16 GLY d   1      28.738 -32.004  51.295  0.00  0.00     0.078 H 
ATOM    115  H17 GLY d   1      27.120 -32.344  50.591  0.00  0.00     0.078 H 
BRANCH 113 116
ATOM    116  N   GLY d   1      27.882 -33.832  51.854  0.00  0.00    -0.350 N 
ATOM    117  C   THR d   1      26.852 -34.681  51.801  0.00  0.00     0.243 C 
ATOM    118  O   THR d   1      26.017 -34.666  50.890  0.00  0.00    -0.271 OA
ATOM    119  H15 GLY d   1      28.536 -33.919  52.605  0.00  0.00     0.163 HD
BRANCH 117 120
ATOM    120  CA  THR d   1      26.669 -35.660  52.980  0.00  0.00     0.113 C 
ATOM    121  H9  THR d   1      25.994 -36.440  52.599  0.00  0.00     0.091 H 
BRANCH 120 122
ATOM    122  N   THR d   1      27.876 -36.405  53.422  0.00  0.00    -0.344 N 
ATOM    123  C   ALA d   1      28.996 -35.863  53.905  0.00  0.00     0.248 C 
ATOM    124  O   ALA d   1      29.137 -34.654  54.142  0.00  0.00    -0.271 OA
ATOM    125  H8  THR d   1      27.847 -37.402  53.351  0.00  0.00     0.163 HD
BRANCH 123 126
ATOM    126  CA  ALA d   1      30.133 -36.847  54.179  0.00  0.00     0.172 C 
ATOM    127  H4  ALA d   1      31.009 -36.270  54.509  0.00  0.00     0.098 H 
BRANCH 126 128
ATOM    128  N   ALA d   1      29.775 -37.809  55.275  0.00  0.00    -0.067 N 
ATOM    129  H1  ALA d   1      30.544 -38.442  55.431  0.00  0.00     0.275 HD
ATOM    130  H2  ALA d   1      28.957 -38.333  55.008  0.00  0.00     0.275 HD
ATOM    131  H3  ALA d   1      29.585 -37.297  56.122  0.00  0.00     0.275 HD
ENDBRANCH 126 128
BRANCH 126 132
ATOM    132  CB  ALA d   1      30.512 -37.595  52.900  0.00  0.00    -0.042 C 
ATOM    133  H5  ALA d   1      30.770 -36.870  52.114  0.00  0.00     0.030 H 
ATOM    134  H6  ALA d   1      29.662 -38.209  52.568  0.00  0.00     0.030 H 
ATOM    135  H7  ALA d   1      31.378 -38.244  53.098  0.00  0.00     0.030 H 
ENDBRANCH 126 132
ENDBRANCH 123 126
ENDBRANCH 120 122
BRANCH 120 136
ATOM    136  CB  THR d   1      25.886 -34.963  54.148  0.00  0.00     0.060 C 
ATOM    137  H10 THR d   1      24.827 -34.916  53.853  0.00  0.00     0.086 H 
BRANCH 136 138
ATOM    138  OG1 THR d   1      26.335 -33.605  54.363  0.00  0.00    -0.393 OA
ATOM    139  H11 THR d   1      27.259 -33.609  54.584  0.00  0.00     0.210 HD
ENDBRANCH 136 138
BRANCH 136 140
ATOM    140  CG2 THR d   1      25.970 -35.788  55.441  0.00  0.00    -0.050 C 
ATOM    141  H12 THR d   1      25.413 -35.276  56.240  0.00  0.00     0.031 H 
ATOM    142  H13 THR d   1      27.023 -35.896  55.739  0.00  0.00     0.031 H 
ATOM    143  H14 THR d   1      25.534 -36.783  55.270  0.00  0.00     0.031 H 
ENDBRANCH 136 140
ENDBRANCH 120 136
ENDBRANCH 117 120
ENDBRANCH 113 116
ENDBRANCH 110 113
ENDBRANCH 107 109
BRANCH 107 144
ATOM    144  CB  ALA d   1      30.054 -32.834  46.773  0.00  0.00    -0.049 C 
ATOM    145  H20 ALA d   1      30.356 -33.215  45.786  0.00  0.00     0.030 H 
ATOM    146  H21 ALA d   1      30.789 -33.148  47.528  0.00  0.00     0.030 H 
ATOM    147  H22 ALA d   1      30.006 -31.735  46.743  0.00  0.00     0.030 H 
ENDBRANCH 107 144
ENDBRANCH 104 107
ENDBRANCH 100 103
ENDBRANCH  97 100
ENDBRANCH  94  96
BRANCH  94 148
ATOM    148  CB  ALA d   1      34.326 -37.099  44.764  0.00  0.00    -0.049 C 
ATOM    149  H28 ALA d   1      35.084 -36.972  43.977  0.00  0.00     0.030 H 
ATOM    150  H29 ALA d   1      34.392 -38.117  45.176  0.00  0.00     0.030 H 
ATOM    151  H30 ALA d   1      34.503 -36.367  45.566  0.00  0.00     0.030 H 
ENDBRANCH  94 148
ENDBRANCH  91  94
ENDBRANCH  87  90
ENDBRANCH  84  87
ENDBRANCH  81  83
BRANCH  81 152
ATOM    152  CB  ALA d   1      28.610 -37.210  40.267  0.00  0.00    -0.049 C 
ATOM    153  H36 ALA d   1      27.677 -37.050  39.707  0.00  0.00     0.030 H 
ATOM    154  H37 ALA d   1      28.642 -36.527  41.129  0.00  0.00     0.030 H 
ATOM    155  H38 ALA d   1      28.651 -38.251  40.621  0.00  0.00     0.030 H 
ENDBRANCH  81 152
ENDBRANCH   1  81
TORSDOF 41
