REMARK  6 active torsions:
REMARK  status: ('A' for Active; 'I' for Inactive)
REMARK    1  A    between atoms: C2_1  and  C3_2 
REMARK    2  A    between atoms: C2_1  and  C1_8 
REMARK    3  A    between atoms: C3_2  and  C4_5 
REMARK       I    between atoms: C4_5  and  N1_7 
REMARK    4  A    between atoms: C15_14  and  N9_15 
REMARK    5  A    between atoms: C14_17  and  N3_18 
REMARK    6  A    between atoms: N3_18  and  C13_19 
ROOT
ATOM      1  C3  FKB d   1      -3.414 -28.065 -13.483  0.00  0.00     0.113 C 
ATOM      2  C5  FKB d   1      -4.756 -27.760 -13.115  0.00  0.00     0.074 C 
ATOM      3  N2  FKB d   1      -5.741 -27.459 -12.761  0.00  0.00    -0.196 NA
ATOM      4  H3  FKB d   1      -3.340 -29.102 -13.842  0.00  0.00     0.078 H 
ENDROOT
BRANCH   1   5
ATOM      5  C2  FKB d   1      -2.928 -27.122 -14.570  0.00  0.00     0.015 C 
ATOM      6  H1  FKB d   1      -1.917 -27.410 -14.895  0.00  0.00     0.047 H 
ATOM      7  H2  FKB d   1      -2.911 -26.089 -14.193  0.00  0.00     0.047 H 
BRANCH   5   8
ATOM      8  C1  FKB d   1      -3.906 -27.238 -15.736  0.00  0.00     0.143 A 
ATOM      9  N7  FKB d   1      -4.344 -26.205 -16.458  0.00  0.00    -0.123 NA
ATOM     10  N5  FKB d   1      -5.135 -26.732 -17.413  0.00  0.00     0.119 N 
ATOM     11  C16 FKB d   1      -5.154 -28.057 -17.258  0.00  0.00     0.759 A 
ATOM     12  C15 FKB d   1      -5.770 -26.098 -18.372  0.00  0.00     0.752 A 
ATOM     13  N8  FKB d   1      -4.398 -28.384 -16.204  0.00  0.00    -0.172 N 
ATOM     14  N6  FKB d   1      -5.877 -28.769 -18.122  0.00  0.00     0.131 NA
ATOM     15  H6  FKB d   1      -4.231 -29.329 -15.831  0.00  0.00     0.185 HD
ATOM     16  C14 FKB d   1      -6.556 -28.166 -19.111  0.00  0.00     0.754 A 
ATOM     17  N4  FKB d   1      -6.502 -26.825 -19.237  0.00  0.00     0.131 NA
BRANCH  16  18
ATOM     18  N3  FKB d   1      -7.275 -28.916 -19.962  0.00  0.00    -0.217 N 
ATOM     19  H9  FKB d   1      -7.804 -28.454 -20.715  0.00  0.00     0.178 HD
BRANCH  18  20
ATOM     20  C13 FKB d   1      -7.325 -30.405 -19.841  0.00  0.00     0.026 C 
ATOM     21  C12 FKB d   1      -6.326 -31.104 -20.761  0.00  0.00    -0.046 C 
ATOM     22  C11 FKB d   1      -6.384 -32.557 -20.423  0.00  0.00    -0.063 C 
ATOM     23  H11 FKB d   1      -5.312 -30.714 -20.588  0.00  0.00     0.036 H 
ATOM     24  H12 FKB d   1      -6.604 -30.947 -21.814  0.00  0.00     0.036 H 
ATOM     25  C10 FKB d   1      -7.666 -33.106 -21.031  0.00  0.00    -0.065 C 
ATOM     26  H13 FKB d   1      -6.397 -32.690 -19.331  0.00  0.00     0.033 H 
ATOM     27  H14 FKB d   1      -5.512 -33.078 -20.846  0.00  0.00     0.033 H 
ATOM     28  C9  FKB d   1      -8.909 -32.480 -20.398  0.00  0.00    -0.063 C 
ATOM     29  H15 FKB d   1      -7.697 -34.194 -20.874  0.00  0.00     0.033 H 
ATOM     30  H16 FKB d   1      -7.669 -32.891 -22.110  0.00  0.00     0.033 H 
ATOM     31  C8  FKB d   1      -8.737 -30.957 -20.102  0.00  0.00    -0.046 C 
ATOM     32  H17 FKB d   1      -9.121 -33.000 -19.452  0.00  0.00     0.033 H 
ATOM     33  H18 FKB d   1      -9.757 -32.610 -21.086  0.00  0.00     0.033 H 
ATOM     34  H19 FKB d   1      -9.142 -30.412 -20.968  0.00  0.00     0.036 H 
ATOM     35  H20 FKB d   1      -9.342 -30.731 -19.211  0.00  0.00     0.036 H 
ATOM     36  H10 FKB d   1      -7.054 -30.655 -18.805  0.00  0.00     0.073 H 
ENDBRANCH  18  20
ENDBRANCH  16  18
BRANCH  12  37
ATOM     37  N9  FKB d   1      -5.665 -24.791 -18.445  0.00  0.00    -0.230 N 
ATOM     38  H7  FKB d   1      -6.155 -24.276 -19.190  0.00  0.00     0.174 HD
ATOM     39  H8  FKB d   1      -5.092 -24.281 -17.757  0.00  0.00     0.174 HD
ENDBRANCH  12  37
ENDBRANCH   5   8
ENDBRANCH   1   5
BRANCH   1  40
ATOM     40  C4  FKB d   1      -2.616 -27.889 -12.224  0.00  0.00     0.233 C 
ATOM     41  O1  FKB d   1      -2.211 -26.776 -11.899  0.00  0.00    -0.272 OA
ATOM     42  N1  FKB d   1      -2.495 -29.004 -11.513  0.00  0.00    -0.369 N 
ATOM     43  H4  FKB d   1      -1.982 -28.997 -10.655  0.00  0.00     0.159 HD
ATOM     44  H5  FKB d   1      -2.917 -29.851 -11.836  0.00  0.00     0.159 HD
ENDBRANCH   1  40
TORSDOF 6
