REMARK  10 active torsions:
REMARK  status: ('A' for Active; 'I' for Inactive)
REMARK    1  A    between atoms: CAT_18  and  CAW_21 
REMARK    2  A    between atoms: NBD_42  and  CAT_18 
REMARK    3  A    between atoms: CAW_21  and  NBW_46 
REMARK    4  A    between atoms: CAX_22  and  CBJ_26 
REMARK    5  A    between atoms: OBG_49  and  CAX_22 
REMARK    6  A    between atoms: CBK_27  and  CAY_23 
REMARK    7  A    between atoms: CAY_23  and  OBG_49 
REMARK       I    between atoms: NBE_43  and  CBH_24 
REMARK       I    between atoms: CBH_24  and  NBF_44 
REMARK    8  A    between atoms: CBL_28  and  NBE_43 
REMARK    9  A    between atoms: NBF_44  and  CBM_29 
REMARK   10  A    between atoms: CBO_31  and  NBD_42 
ROOT
ATOM      1  CAX FJK d   1      84.695 209.195  70.486  0.00  0.00     0.044 C 
ATOM      2  H28 FJK d   1      85.529 209.382  69.794  0.00  0.00     0.081 H 
ATOM      3  H29 FJK d   1      85.081 208.741  71.411  0.00  0.00     0.081 H 
ENDROOT
BRANCH   1   4
ATOM      4  CBJ FJK d   1      83.776 208.351  69.896  0.00  0.00    -0.030 A 
ATOM      5  CAK FJK d   1      83.354 208.575  68.595  0.00  0.00    -0.058 A 
ATOM      6  CAH FJK d   1      82.432 207.707  68.034  0.00  0.00     0.005 A 
ATOM      7  H9  FJK d   1      83.739 209.414  68.027  0.00  0.00     0.086 H 
ATOM      8  NAZ FJK d   1      81.933 206.633  68.789  0.00  0.00    -0.243 NA
ATOM      9  H6  FJK d   1      82.096 207.856  67.014  0.00  0.00     0.114 H 
ATOM     10  CBL FJK d   1      82.349 206.424  70.051  0.00  0.00     0.131 A 
ATOM     11  CAP FJK d   1      83.269 207.285  70.623  0.00  0.00    -0.030 A 
ATOM     12  H14 FJK d   1      83.595 207.125  71.644  0.00  0.00     0.090 H 
BRANCH  10  13
ATOM     13  NBE FJK d   1      81.896 205.412  70.791  0.00  0.00    -0.293 N 
ATOM     14  CBH FJK d   1      80.750 204.864  70.407  0.00  0.00     0.326 C 
ATOM     15  NBF FJK d   1      80.230 205.384  69.294  0.00  0.00    -0.308 N 
ATOM     16  OAA FJK d   1      80.228 203.938  71.030  0.00  0.00    -0.247 OA
ATOM     17  H35 FJK d   1      80.754 206.056  68.771  0.00  0.00     0.170 HD
ATOM     18  H34 FJK d   1      82.394 205.083  71.594  0.00  0.00     0.172 HD
BRANCH  15  19
ATOM     19  CBM FJK d   1      79.029 205.022  68.874  0.00  0.00     0.045 A 
ATOM     20  CAI FJK d   1      78.597 203.742  68.539  0.00  0.00    -0.056 A 
ATOM     21  CAG FJK d   1      77.269 203.628  68.138  0.00  0.00    -0.080 A 
ATOM     22  H7  FJK d   1      79.257 202.883  68.588  0.00  0.00     0.086 H 
ATOM     23  CAJ FJK d   1      76.471 204.776  68.096  0.00  0.00    -0.067 A 
ATOM     24  H5  FJK d   1      76.859 202.663  67.862  0.00  0.00     0.083 H 
ATOM     25  CBN FJK d   1      76.973 205.973  68.431  0.00  0.00     0.042 A 
ATOM     26  H8  FJK d   1      75.434 204.697  67.789  0.00  0.00     0.085 H 
ATOM     27  CBI FJK d   1      76.460 207.203  68.510  0.00  0.00     0.255 C 
ATOM     28  CBP FJK d   1      78.236 206.081  68.814  0.00  0.00     0.007 A 
ATOM     29  NBV FJK d   1      77.307 208.085  69.007  0.00  0.00    -0.339 N 
ATOM     30  OAB FJK d   1      75.291 207.483  68.311  0.00  0.00    -0.267 OA
ATOM     31  CAV FJK d   1      77.273 209.551  69.235  0.00  0.00    -0.001 C 
ATOM     32  CBU FJK d   1      78.529 207.418  69.120  0.00  0.00     0.043 C 
ATOM     33  CAS FJK d   1      78.661 210.021  69.589  0.00  0.00    -0.050 C 
ATOM     34  H24 FJK d   1      76.933 210.059  68.321  0.00  0.00     0.064 H 
ATOM     35  H25 FJK d   1      76.583 209.781  70.061  0.00  0.00     0.064 H 
ATOM     36  CAR FJK d   1      79.603 209.557  68.481  0.00  0.00    -0.061 C 
ATOM     37  H18 FJK d   1      78.678 211.119  69.661  0.00  0.00     0.035 H 
ATOM     38  H19 FJK d   1      78.970 209.586  70.551  0.00  0.00     0.035 H 
ATOM     39  CAU FJK d   1      79.278 208.114  68.018  0.00  0.00    -0.042 C 
ATOM     40  H16 FJK d   1      80.636 209.586  68.856  0.00  0.00     0.033 H 
ATOM     41  H17 FJK d   1      79.505 210.237  67.622  0.00  0.00     0.033 H 
ATOM     42  H22 FJK d   1      80.212 207.573  67.805  0.00  0.00     0.036 H 
ATOM     43  H23 FJK d   1      78.657 208.146  67.110  0.00  0.00     0.036 H 
ATOM     44  H32 FJK d   1      79.018 207.516  70.100  0.00  0.00     0.080 H 
ENDBRANCH  15  19
ENDBRANCH  10  13
ENDBRANCH   1   4
BRANCH   1  45
ATOM     45  OBG FJK d   1      84.034 210.416  70.787  0.00  0.00    -0.381 OA
BRANCH  45  46
ATOM     46  CAY FJK d   1      85.064 211.357  71.067  0.00  0.00     0.063 C 
ATOM     47  H30 FJK d   1      84.613 212.306  71.392  0.00  0.00     0.084 H 
ATOM     48  H31 FJK d   1      85.710 210.965  71.866  0.00  0.00     0.084 H 
BRANCH  46  49
ATOM     49  CBK FJK d   1      85.902 211.597  69.807  0.00  0.00     0.099 A 
ATOM     50  CAQ FJK d   1      85.449 212.093  68.667  0.00  0.00     0.028 A 
ATOM     51  NBW FJK d   1      86.526 212.132  67.885  0.00  0.00    -0.259 N 
ATOM     52  H15 FJK d   1      84.432 212.398  68.425  0.00  0.00     0.117 H 
ATOM     53  NBB FJK d   1      87.539 211.697  68.519  0.00  0.00    -0.066 NA
ATOM     54  NBA FJK d   1      87.204 211.355  69.684  0.00  0.00    -0.133 NA
BRANCH  51  55
ATOM     55  CAW FJK d   1      86.527 212.622  66.497  0.00  0.00     0.032 C 
ATOM     56  H26 FJK d   1      87.471 212.349  66.002  0.00  0.00     0.070 H 
ATOM     57  H27 FJK d   1      85.683 212.185  65.943  0.00  0.00     0.070 H 
BRANCH  55  58
ATOM     58  CAT FJK d   1      86.387 214.132  66.550  0.00  0.00     0.009 C 
ATOM     59  H20 FJK d   1      86.023 214.416  67.548  0.00  0.00     0.066 H 
ATOM     60  H21 FJK d   1      85.655 214.443  65.790  0.00  0.00     0.066 H 
BRANCH  58  61
ATOM     61  NBD FJK d   1      87.664 214.840  66.294  0.00  0.00    -0.387 N 
ATOM     62  H33 FJK d   1      88.129 214.657  65.393  0.00  0.00     0.159 HD
BRANCH  61  63
ATOM     63  CBO FJK d   1      88.272 215.703  67.136  0.00  0.00     0.053 A 
ATOM     64  CBS FJK d   1      87.577 216.749  67.774  0.00  0.00     0.020 A 
ATOM     65  CAN FJK d   1      86.212 217.018  67.616  0.00  0.00    -0.069 A 
ATOM     66  CBQ FJK d   1      88.320 217.572  68.624  0.00  0.00     0.070 A 
ATOM     67  CAE FJK d   1      85.579 218.061  68.289  0.00  0.00    -0.082 A 
ATOM     68  H12 FJK d   1      85.629 216.394  66.948  0.00  0.00     0.085 H 
ATOM     69  CAC FJK d   1      86.336 218.872  69.131  0.00  0.00    -0.081 A 
ATOM     70  H3  FJK d   1      84.517 218.238  68.160  0.00  0.00     0.083 H 
ATOM     71  CAL FJK d   1      87.695 218.625  69.286  0.00  0.00    -0.054 A 
ATOM     72  H1  FJK d   1      85.868 219.692  69.663  0.00  0.00     0.083 H 
ATOM     73  H10 FJK d   1      88.280 219.266  69.936  0.00  0.00     0.087 H 
ATOM     74  NBC FJK d   1      89.642 217.366  68.807  0.00  0.00    -0.247 NA
ATOM     75  CBR FJK d   1      90.308 216.366  68.190  0.00  0.00     0.070 A 
ATOM     76  CAM FJK d   1      91.462 216.211  68.348  0.00  0.00    -0.054 C 
ATOM     77  CBT FJK d   1      89.651 215.539  67.342  0.00  0.00     0.020 A 
ATOM     78  CAD FJK d   1      91.913 215.265  67.800  0.00  0.00    -0.081 C 
ATOM     79  H11 FJK d   1      92.066 216.882  68.948  0.00  0.00     0.087 H 
ATOM     80  CAF FJK d   1      91.400 214.974  66.761  0.00  0.00    -0.082 C 
ATOM     81  H2  FJK d   1      92.739 214.698  68.214  0.00  0.00     0.083 H 
ATOM     82  CAO FJK d   1      90.259 214.708  66.841  0.00  0.00    -0.069 C 
ATOM     83  H4  FJK d   1      91.942 214.957  65.823  0.00  0.00     0.083 H 
ATOM     84  H13 FJK d   1      89.830 213.780  66.481  0.00  0.00     0.085 H 
ENDBRANCH  61  63
ENDBRANCH  58  61
ENDBRANCH  55  58
ENDBRANCH  51  55
ENDBRANCH  46  49
ENDBRANCH  45  46
ENDBRANCH   1  45
TORSDOF 10
