REMARK  11 active torsions:
REMARK  status: ('A' for Active; 'I' for Inactive)
REMARK    1  A    between atoms: NAP_40  and  CAG_7 
REMARK    2  A    between atoms: CAQ_15  and  CAO_14 
REMARK    3  A    between atoms: CAO_14  and  NAP_40 
REMARK    4  A    between atoms: NAT_41  and  CAQ_15 
REMARK    5  A    between atoms: CAW_18  and  CAR_16 
REMARK    6  A    between atoms: NBW_48  and  CAW_18 
REMARK    7  A    between atoms: CAY_20  and  CAX_19 
REMARK    8  A    between atoms: CAX_19  and  NBW_48 
REMARK    9  A    between atoms: NBF_45  and  CBB_23 
REMARK       I    between atoms: CBE_25  and  NBF_45 
REMARK       I    between atoms: NBH_46  and  CBE_25 
REMARK   10  A    between atoms: CBI_26  and  NBH_46 
REMARK   11  A    between atoms: NBW_48  and  CBX_38 
ROOT
ATOM      1  NBW FJN d   1     -38.931 157.600  79.598  0.00  0.00    -0.066 N 
ATOM      2  H39 FJN d   1     -39.459 157.324  80.411  0.00  0.00     0.280 HD
ENDROOT
BRANCH   1   3
ATOM      3  CAW FJN d   1     -39.151 159.022  79.317  0.00  0.00     0.126 C 
ATOM      4  H14 FJN d   1     -38.191 159.555  79.262  0.00  0.00     0.086 H 
ATOM      5  H15 FJN d   1     -39.694 159.146  78.369  0.00  0.00     0.086 H 
BRANCH   3   6
ATOM      6  CAR FJN d   1     -39.977 159.542  80.469  0.00  0.00     0.101 A 
ATOM      7  CAS FJN d   1     -39.496 159.905  81.645  0.00  0.00     0.027 A 
ATOM      8  NAT FJN d   1     -40.583 160.253  82.328  0.00  0.00    -0.259 N 
ATOM      9  H13 FJN d   1     -38.459 159.917  81.976  0.00  0.00     0.117 H 
ATOM     10  NAU FJN d   1     -41.621 160.079  81.580  0.00  0.00    -0.066 NA
ATOM     11  NAV FJN d   1     -41.296 159.650  80.465  0.00  0.00    -0.134 NA
BRANCH   8  12
ATOM     12  CAQ FJN d   1     -40.627 160.740  83.719  0.00  0.00     0.032 C 
ATOM     13  H11 FJN d   1     -41.536 160.357  84.206  0.00  0.00     0.070 H 
ATOM     14  H12 FJN d   1     -39.740 160.373  84.257  0.00  0.00     0.070 H 
BRANCH  12  15
ATOM     15  CAO FJN d   1     -40.642 162.252  83.763  0.00  0.00     0.009 C 
ATOM     16  H9  FJN d   1     -40.169 162.641  82.849  0.00  0.00     0.066 H 
ATOM     17  H10 FJN d   1     -40.074 162.590  84.642  0.00  0.00     0.066 H 
BRANCH  15  18
ATOM     18  NAP FJN d   1     -42.024 162.776  83.851  0.00  0.00    -0.387 N 
ATOM     19  H36 FJN d   1     -42.589 162.424  84.637  0.00  0.00     0.159 HD
BRANCH  18  20
ATOM     20  CAG FJN d   1     -42.640 163.661  83.028  0.00  0.00     0.053 A 
ATOM     21  CAF FJN d   1     -44.029 163.508  82.883  0.00  0.00     0.020 A 
ATOM     22  CAA FJN d   1     -44.692 162.463  83.549  0.00  0.00    -0.069 C 
ATOM     23  CAE FJN d   1     -44.721 164.392  82.042  0.00  0.00     0.070 A 
ATOM     24  CAB FJN d   1     -46.193 162.736  83.665  0.00  0.00    -0.082 C 
ATOM     25  H1  FJN d   1     -44.202 161.575  83.932  0.00  0.00     0.085 H 
ATOM     26  CAC FJN d   1     -46.721 163.013  82.273  0.00  0.00    -0.081 C 
ATOM     27  H2  FJN d   1     -46.774 162.732  84.580  0.00  0.00     0.083 H 
ATOM     28  CAD FJN d   1     -46.119 164.330  81.824  0.00  0.00    -0.054 C 
ATOM     29  H3  FJN d   1     -47.401 162.388  81.705  0.00  0.00     0.083 H 
ATOM     30  H4  FJN d   1     -46.695 165.136  81.384  0.00  0.00     0.087 H 
ATOM     31  NAN FJN d   1     -44.040 165.375  81.429  0.00  0.00    -0.247 NA
ATOM     32  CAI FJN d   1     -42.719 165.551  81.564  0.00  0.00     0.070 A 
ATOM     33  CAH FJN d   1     -41.957 164.706  82.370  0.00  0.00     0.020 A 
ATOM     34  CAJ FJN d   1     -42.115 166.600  80.873  0.00  0.00    -0.054 A 
ATOM     35  CAM FJN d   1     -40.582 164.969  82.461  0.00  0.00    -0.069 A 
ATOM     36  CAL FJN d   1     -39.966 166.007  81.772  0.00  0.00    -0.082 A 
ATOM     37  H8  FJN d   1     -39.974 164.335  83.096  0.00  0.00     0.085 H 
ATOM     38  CAK FJN d   1     -40.745 166.832  80.971  0.00  0.00    -0.081 A 
ATOM     39  H7  FJN d   1     -38.898 166.170  81.858  0.00  0.00     0.083 H 
ATOM     40  H6  FJN d   1     -40.290 167.651  80.426  0.00  0.00     0.083 H 
ATOM     41  H5  FJN d   1     -42.722 167.246  80.249  0.00  0.00     0.087 H 
ENDBRANCH  18  20
ENDBRANCH  15  18
ENDBRANCH  12  15
ENDBRANCH   8  12
ENDBRANCH   3   6
ENDBRANCH   1   3
BRANCH   1  42
ATOM     42  CAX FJN d   1     -37.491 157.492  79.971  0.00  0.00     0.107 C 
ATOM     43  H16 FJN d   1     -36.924 158.001  79.178  0.00  0.00     0.083 H 
ATOM     44  H17 FJN d   1     -37.371 158.041  80.917  0.00  0.00     0.083 H 
BRANCH  42  45
ATOM     45  CAY FJN d   1     -36.880 156.233  80.157  0.00  0.00    -0.028 A 
ATOM     46  CAZ FJN d   1     -36.152 155.925  81.311  0.00  0.00    -0.058 A 
ATOM     47  CBA FJN d   1     -35.542 154.671  81.419  0.00  0.00     0.005 A 
ATOM     48  H18 FJN d   1     -36.062 156.650  82.112  0.00  0.00     0.086 H 
ATOM     49  NBD FJN d   1     -35.650 153.736  80.363  0.00  0.00    -0.243 NA
ATOM     50  H19 FJN d   1     -34.986 154.415  82.313  0.00  0.00     0.114 H 
ATOM     51  CBB FJN d   1     -36.348 154.046  79.253  0.00  0.00     0.131 A 
ATOM     52  CBC FJN d   1     -36.925 155.289  79.147  0.00  0.00    -0.031 A 
ATOM     53  H20 FJN d   1     -37.440 155.542  78.227  0.00  0.00     0.090 H 
BRANCH  51  54
ATOM     54  NBF FJN d   1     -36.492 153.258  78.184  0.00  0.00    -0.293 N 
ATOM     55  CBE FJN d   1     -35.628 152.255  77.997  0.00  0.00     0.326 C 
ATOM     56  NBH FJN d   1     -34.722 152.099  79.023  0.00  0.00    -0.308 N 
ATOM     57  OBG FJN d   1     -35.738 151.595  76.963  0.00  0.00    -0.247 OA
ATOM     58  H38 FJN d   1     -34.879 152.746  79.769  0.00  0.00     0.170 HD
ATOM     59  H37 FJN d   1     -37.235 153.416  77.533  0.00  0.00     0.172 HD
BRANCH  56  60
ATOM     60  CBI FJN d   1     -33.653 151.268  79.269  0.00  0.00     0.045 A 
ATOM     61  CBJ FJN d   1     -33.313 150.151  78.566  0.00  0.00     0.007 A 
ATOM     62  CBK FJN d   1     -32.216 149.448  78.948  0.00  0.00     0.042 A 
ATOM     63  CBP FJN d   1     -33.838 149.477  77.433  0.00  0.00     0.043 A 
ATOM     64  CBL FJN d   1     -31.463 149.812  79.995  0.00  0.00    -0.067 A 
ATOM     65  CBO FJN d   1     -32.043 148.406  78.122  0.00  0.00     0.255 A 
ATOM     66  CBM FJN d   1     -31.765 150.930  80.752  0.00  0.00    -0.080 A 
ATOM     67  H21 FJN d   1     -30.596 149.216  80.255  0.00  0.00     0.085 H 
ATOM     68  CBN FJN d   1     -32.879 151.654  80.372  0.00  0.00    -0.056 A 
ATOM     69  H22 FJN d   1     -31.158 151.223  81.601  0.00  0.00     0.083 H 
ATOM     70  H23 FJN d   1     -33.159 152.536  80.937  0.00  0.00     0.086 H 
ATOM     71  NBV FJN d   1     -32.946 148.377  77.151  0.00  0.00    -0.339 N 
ATOM     72  OBU FJN d   1     -31.113 147.606  78.218  0.00  0.00    -0.267 OA
ATOM     73  CBT FJN d   1     -33.237 147.441  76.017  0.00  0.00    -0.001 C 
ATOM     74  CBS FJN d   1     -34.676 146.906  76.134  0.00  0.00    -0.050 C 
ATOM     75  H31 FJN d   1     -33.124 147.977  75.063  0.00  0.00     0.064 H 
ATOM     76  H32 FJN d   1     -32.531 146.598  76.050  0.00  0.00     0.064 H 
ATOM     77  CBR FJN d   1     -35.627 148.058  76.470  0.00  0.00    -0.061 C 
ATOM     78  H29 FJN d   1     -34.976 146.451  75.179  0.00  0.00     0.035 H 
ATOM     79  H30 FJN d   1     -34.721 146.149  76.931  0.00  0.00     0.035 H 
ATOM     80  CBQ FJN d   1     -35.167 148.821  77.727  0.00  0.00    -0.042 C 
ATOM     81  H27 FJN d   1     -35.658 148.755  75.620  0.00  0.00     0.033 H 
ATOM     82  H28 FJN d   1     -36.633 147.651  76.647  0.00  0.00     0.033 H 
ATOM     83  H25 FJN d   1     -35.910 149.589  77.987  0.00  0.00     0.036 H 
ATOM     84  H26 FJN d   1     -35.056 148.119  78.567  0.00  0.00     0.036 H 
ATOM     85  H24 FJN d   1     -33.922 150.167  76.581  0.00  0.00     0.080 H 
ENDBRANCH  56  60
ENDBRANCH  51  54
ENDBRANCH  42  45
ENDBRANCH   1  42
BRANCH   1  86
ATOM     86  CBX FJN d   1     -39.515 156.873  78.456  0.00  0.00     0.067 C 
ATOM     87  H33 FJN d   1     -40.587 157.110  78.380  0.00  0.00     0.068 H 
ATOM     88  H34 FJN d   1     -39.389 155.791  78.607  0.00  0.00     0.068 H 
ATOM     89  H35 FJN d   1     -39.006 157.176  77.529  0.00  0.00     0.068 H 
ENDBRANCH   1  86
TORSDOF 11
