REMARK  7 active torsions:
REMARK  status: ('A' for Active; 'I' for Inactive)
REMARK    1  A    between atoms: CBF_14  and  NBE_15 
REMARK       I    between atoms: NBE_15  and  CBC_16 
REMARK       I    between atoms: CBC_16  and  NBD_18 
REMARK    2  A    between atoms: NBD_18  and  CAY_19 
REMARK    3  A    between atoms: CAW_24  and  CAS_25 
REMARK    4  A    between atoms: NAT_29  and  CAQ_30 
REMARK    5  A    between atoms: CAQ_30  and  CAP_31 
REMARK    6  A    between atoms: CAP_31  and  NAO_32 
REMARK    7  A    between atoms: NAO_32  and  CAG_33 
ROOT
ATOM      1  CAY FW8 d   1      -7.913 217.228  78.108  0.00  0.00     0.131 A 
ATOM      2  CAX FW8 d   1      -7.559 216.397  79.186  0.00  0.00    -0.026 A 
ATOM      3  NBB FW8 d   1      -7.199 217.148  76.970  0.00  0.00    -0.243 NA
ATOM      4  CAZ FW8 d   1      -6.136 216.269  76.814  0.00  0.00     0.005 A 
ATOM      5  CBA FW8 d   1      -5.775 215.447  77.860  0.00  0.00    -0.054 A 
ATOM      6  CAW FW8 d   1      -6.480 215.504  79.057  0.00  0.00     0.001 A 
ATOM      7  H15 FW8 d   1      -8.117 216.445  80.114  0.00  0.00     0.090 H 
ATOM      8  H16 FW8 d   1      -5.594 216.229  75.876  0.00  0.00     0.114 H 
ATOM      9  H17 FW8 d   1      -4.945 214.759  77.750  0.00  0.00     0.087 H 
ENDROOT
BRANCH   6  10
ATOM     10  CAS FW8 d   1      -6.057 214.668  80.017  0.00  0.00     0.108 A 
ATOM     11  CAR FW8 d   1      -6.783 214.053  80.944  0.00  0.00     0.030 A 
ATOM     12  NAT FW8 d   1      -5.888 213.339  81.630  0.00  0.00    -0.259 N 
ATOM     13  H18 FW8 d   1      -7.858 214.117  81.106  0.00  0.00     0.118 H 
ATOM     14  NAU FW8 d   1      -4.716 213.525  81.124  0.00  0.00    -0.066 NA
ATOM     15  NAV FW8 d   1      -4.783 214.301  80.167  0.00  0.00    -0.130 NA
BRANCH  12  16
ATOM     16  CAQ FW8 d   1      -6.120 212.439  82.782  0.00  0.00     0.032 C 
ATOM     17  H19 FW8 d   1      -6.753 211.594  82.473  0.00  0.00     0.070 H 
ATOM     18  H20 FW8 d   1      -6.617 212.992  83.593  0.00  0.00     0.070 H 
BRANCH  16  19
ATOM     19  CAP FW8 d   1      -4.772 211.923  83.262  0.00  0.00     0.009 C 
ATOM     20  H21 FW8 d   1      -4.610 212.282  84.289  0.00  0.00     0.066 H 
ATOM     21  H22 FW8 d   1      -3.991 212.332  82.604  0.00  0.00     0.066 H 
BRANCH  19  22
ATOM     22  NAO FW8 d   1      -4.656 210.450  83.261  0.00  0.00    -0.387 N 
ATOM     23  H23 FW8 d   1      -5.228 209.949  83.956  0.00  0.00     0.159 HD
BRANCH  22  24
ATOM     24  CAG FW8 d   1      -3.888 209.681  82.455  0.00  0.00     0.049 A 
ATOM     25  CAH FW8 d   1      -2.487 209.826  82.330  0.00  0.00    -0.006 A 
ATOM     26  CAM FW8 d   1      -1.742 210.819  83.012  0.00  0.00    -0.037 C 
ATOM     27  CAI FW8 d   1      -1.837 208.941  81.454  0.00  0.00     0.043 A 
ATOM     28  CAL FW8 d   1      -0.269 210.509  83.073  0.00  0.00    -0.061 C 
ATOM     29  H24 FW8 d   1      -2.126 210.902  84.040  0.00  0.00     0.040 H 
ATOM     30  H25 FW8 d   1      -1.877 211.779  82.492  0.00  0.00     0.040 H 
ATOM     31  CAK FW8 d   1       0.178 210.270  81.647  0.00  0.00    -0.060 C 
ATOM     32  H26 FW8 d   1      -0.095 209.610  83.682  0.00  0.00     0.033 H 
ATOM     33  H27 FW8 d   1       0.281 211.358  83.507  0.00  0.00     0.033 H 
ATOM     34  CAJ FW8 d   1      -0.452 208.961  81.221  0.00  0.00    -0.024 C 
ATOM     35  H28 FW8 d   1       1.275 210.199  81.598  0.00  0.00     0.033 H 
ATOM     36  H29 FW8 d   1      -0.166 211.088  80.997  0.00  0.00     0.033 H 
ATOM     37  H30 FW8 d   1       0.015 208.142  81.787  0.00  0.00     0.042 H 
ATOM     38  H31 FW8 d   1      -0.271 208.813  80.146  0.00  0.00     0.042 H 
ATOM     39  NAN FW8 d   1      -2.530 207.992  80.804  0.00  0.00    -0.252 NA
ATOM     40  CAE FW8 d   1      -3.854 207.838  80.922  0.00  0.00     0.069 A 
ATOM     41  CAF FW8 d   1      -4.567 208.681  81.762  0.00  0.00     0.020 A 
ATOM     42  CAD FW8 d   1      -4.503 206.831  80.214  0.00  0.00    -0.054 A 
ATOM     43  CAA FW8 d   1      -5.941 208.526  81.897  0.00  0.00    -0.069 A 
ATOM     44  CAB FW8 d   1      -6.600 207.525  81.191  0.00  0.00    -0.082 A 
ATOM     45  H32 FW8 d   1      -6.499 209.185  82.552  0.00  0.00     0.085 H 
ATOM     46  CAC FW8 d   1      -5.881 206.680  80.348  0.00  0.00    -0.081 A 
ATOM     47  H33 FW8 d   1      -7.672 207.402  81.296  0.00  0.00     0.083 H 
ATOM     48  H34 FW8 d   1      -6.396 205.903  79.795  0.00  0.00     0.083 H 
ATOM     49  H35 FW8 d   1      -3.941 206.170  79.564  0.00  0.00     0.087 H 
ENDBRANCH  22  24
ENDBRANCH  19  22
ENDBRANCH  16  19
ENDBRANCH  12  16
ENDBRANCH   6  10
BRANCH   1  50
ATOM     50  NBD FW8 d   1      -8.897 218.155  78.050  0.00  0.00    -0.293 N 
ATOM     51  CBC FW8 d   1      -9.633 218.654  79.074  0.00  0.00     0.326 C 
ATOM     52  NBE FW8 d   1     -10.507 219.626  78.685  0.00  0.00    -0.308 N 
ATOM     53  OBL FW8 d   1      -9.529 218.251  80.233  0.00  0.00    -0.247 OA
ATOM     54  H13 FW8 d   1     -10.530 219.858  77.713  0.00  0.00     0.170 HD
ATOM     55  H14 FW8 d   1      -9.107 218.516  77.141  0.00  0.00     0.172 HD
BRANCH  52  56
ATOM     56  CBF FW8 d   1     -11.344 220.302  79.501  0.00  0.00     0.045 A 
ATOM     57  CBG FW8 d   1     -11.877 221.422  78.980  0.00  0.00     0.007 A 
ATOM     58  CBN FW8 d   1     -11.755 222.011  77.706  0.00  0.00     0.043 A 
ATOM     59  CBH FW8 d   1     -12.721 222.180  79.703  0.00  0.00     0.042 A 
ATOM     60  NBS FW8 d   1     -12.639 223.156  77.740  0.00  0.00    -0.339 N 
ATOM     61  CBO FW8 d   1     -10.391 222.600  77.449  0.00  0.00    -0.042 C 
ATOM     62  H9  FW8 d   1     -12.025 221.292  76.918  0.00  0.00     0.080 H 
ATOM     63  CBM FW8 d   1     -13.128 223.213  78.964  0.00  0.00     0.255 A 
ATOM     64  CBR FW8 d   1     -12.764 224.084  76.599  0.00  0.00    -0.001 C 
ATOM     65  OBT FW8 d   1     -13.896 224.088  79.357  0.00  0.00    -0.267 OA
ATOM     66  CBQ FW8 d   1     -11.370 224.500  76.139  0.00  0.00    -0.050 C 
ATOM     67  H1  FW8 d   1     -13.331 224.975  76.909  0.00  0.00     0.064 H 
ATOM     68  H2  FW8 d   1     -13.290 223.583  75.773  0.00  0.00     0.064 H 
ATOM     69  CBP FW8 d   1     -10.451 223.278  76.077  0.00  0.00    -0.061 C 
ATOM     70  H3  FW8 d   1     -10.956 225.231  76.849  0.00  0.00     0.035 H 
ATOM     71  H4  FW8 d   1     -11.437 224.956  75.140  0.00  0.00     0.035 H 
ATOM     72  H5  FW8 d   1      -9.440 223.597  75.783  0.00  0.00     0.033 H 
ATOM     73  H6  FW8 d   1     -10.841 222.566  75.335  0.00  0.00     0.033 H 
ATOM     74  H7  FW8 d   1     -10.146 223.339  78.226  0.00  0.00     0.036 H 
ATOM     75  H8  FW8 d   1      -9.630 221.805  77.445  0.00  0.00     0.036 H 
ATOM     76  CBI FW8 d   1     -13.040 221.857  80.954  0.00  0.00    -0.067 A 
ATOM     77  CBJ FW8 d   1     -12.509 220.724  81.550  0.00  0.00    -0.080 A 
ATOM     78  H10 FW8 d   1     -13.723 222.487  81.513  0.00  0.00     0.085 H 
ATOM     79  CBK FW8 d   1     -11.648 219.936  80.809  0.00  0.00    -0.056 A 
ATOM     80  H11 FW8 d   1     -12.762 220.462  82.571  0.00  0.00     0.083 H 
ATOM     81  H12 FW8 d   1     -11.214 219.042  81.242  0.00  0.00     0.086 H 
ENDBRANCH  52  56
ENDBRANCH   1  50
TORSDOF 7
