REMARK  14 active torsions:
REMARK  status: ('A' for Active; 'I' for Inactive)
REMARK    1  A    between atoms: C12_1  and  N4_31 
REMARK    2  A    between atoms: C13_2  and  C14_7 
REMARK    3  A    between atoms: N4_31  and  C13_2 
REMARK    4  A    between atoms: C11_6  and  C18_30 
REMARK    5  A    between atoms: C14_7  and  C15_8 
REMARK    6  A    between atoms: C14_7  and  C17_32 
REMARK    7  A    between atoms: C14_7  and  C16_33 
REMARK    8  A    between atoms: C2_11  and  C19_23 
REMARK    9  A    between atoms: C5_17  and  N_29 
REMARK   10  A    between atoms: N_29  and  C6_18 
REMARK   11  A    between atoms: C22_20  and  C23_19 
REMARK   12  A    between atoms: O_21  and  C22_20 
REMARK   13  A    between atoms: O_21  and  C_22 
REMARK   14  A    between atoms: N5_27  and  C21_28 
ROOT
ATOM      1  C12 FMW d   1       1.296 -36.102 -12.847  0.00  0.00     0.154 C 
ATOM      2  C8  FMW d   1       0.848 -33.797 -12.113  0.00  0.00     0.017 A 
ATOM      3  C9  FMW d   1       0.199 -32.982 -11.148  0.00  0.00     0.033 A 
ATOM      4  C10 FMW d   1       1.650 -33.395 -13.204  0.00  0.00    -0.046 C 
ATOM      5  C11 FMW d   1       2.195 -34.328 -14.060  0.00  0.00     0.034 C 
ATOM      6  N3  FMW d   1       1.940 -35.645 -13.930  0.00  0.00    -0.234 NA
ATOM      7  C7  FMW d   1       0.682 -35.188 -11.897  0.00  0.00     0.133 A 
ATOM      8  N1  FMW d   1      -0.042 -35.676 -10.852  0.00  0.00    -0.058 NA
ATOM      9  N2  FMW d   1      -0.514 -33.435 -10.140  0.00  0.00    -0.074 NA
ATOM     10  C6  FMW d   1      -0.609 -34.772 -10.039  0.00  0.00     0.727 A 
ATOM     11  H3  FMW d   1       0.299 -31.907 -11.250  0.00  0.00     0.117 H 
ATOM     12  H4  FMW d   1       1.839 -32.341 -13.370  0.00  0.00     0.088 H 
ENDROOT
BRANCH  10  13
ATOM     13  N   FMW d   1      -1.393 -35.275  -9.041  0.00  0.00    -0.185 N 
ATOM     14  H20 FMW d   1      -1.820 -34.572  -8.421  0.00  0.00     0.184 HD
BRANCH  13  15
ATOM     15  C5  FMW d   1      -1.704 -36.615  -8.735  0.00  0.00     0.082 A 
ATOM     16  C4  FMW d   1      -2.016 -37.552  -9.721  0.00  0.00    -0.053 A 
ATOM     17  C3  FMW d   1      -2.286 -38.863  -9.372  0.00  0.00    -0.067 A 
ATOM     18  H10 FMW d   1      -2.047 -37.252 -10.762  0.00  0.00     0.087 H 
ATOM     19  C2  FMW d   1      -2.262 -39.269  -8.036  0.00  0.00     0.015 A 
ATOM     20  H9  FMW d   1      -2.519 -39.585 -10.146  0.00  0.00     0.085 H 
ATOM     21  C1  FMW d   1      -1.951 -38.345  -7.039  0.00  0.00    -0.035 A 
ATOM     22  C   FMW d   1      -1.678 -37.027  -7.378  0.00  0.00     0.096 A 
ATOM     23  H8  FMW d   1      -1.923 -38.656  -6.001  0.00  0.00     0.089 H 
BRANCH  19  24
ATOM     24  C19 FMW d   1      -2.627 -40.651  -7.670  0.00  0.00     0.163 A 
ATOM     25  N7  FMW d   1      -3.585 -40.956  -6.824  0.00  0.00    -0.130 NA
ATOM     26  N6  FMW d   1      -3.661 -42.343  -6.780  0.00  0.00    -0.143 NA
ATOM     27  C20 FMW d   1      -2.750 -42.802  -7.591  0.00  0.00     0.089 A 
ATOM     28  N5  FMW d   1      -2.060 -41.795  -8.182  0.00  0.00    -0.327 N 
ATOM     29  H16 FMW d   1      -2.566 -43.860  -7.771  0.00  0.00     0.146 H 
BRANCH  28  30
ATOM     30  C21 FMW d   1      -0.960 -41.960  -9.132  0.00  0.00    -0.012 C 
ATOM     31  H17 FMW d   1      -0.594 -40.971  -9.444  0.00  0.00     0.057 H 
ATOM     32  H18 FMW d   1      -1.316 -42.514 -10.013  0.00  0.00     0.057 H 
ATOM     33  H19 FMW d   1      -0.143 -42.520  -8.653  0.00  0.00     0.057 H 
ENDBRANCH  28  30
ENDBRANCH  19  24
BRANCH  22  34
ATOM     34  O   FMW d   1      -1.355 -36.041  -6.478  0.00  0.00    -0.349 OA
BRANCH  34  35
ATOM     35  C22 FMW d   1      -2.194 -35.827  -5.331  0.00  0.00     0.023 C 
ATOM     36  H14 FMW d   1      -3.214 -35.574  -5.655  0.00  0.00     0.074 H 
ATOM     37  H15 FMW d   1      -2.221 -36.735  -4.711  0.00  0.00     0.074 H 
BRANCH  35  38
ATOM     38  C23 FMW d   1      -1.619 -34.710  -4.561  0.00  0.00    -0.056 C 
ATOM     39  H11 FMW d   1      -2.239 -34.519  -3.673  0.00  0.00     0.030 H 
ATOM     40  H12 FMW d   1      -1.591 -33.808  -5.189  0.00  0.00     0.030 H 
ATOM     41  H13 FMW d   1      -0.598 -34.969  -4.246  0.00  0.00     0.030 H 
ENDBRANCH  35  38
ENDBRANCH  34  35
ENDBRANCH  22  34
ENDBRANCH  13  15
ENDBRANCH  10  13
BRANCH   1  42
ATOM     42  N4  FMW d   1       1.162 -37.491 -12.645  0.00  0.00    -0.372 N 
ATOM     43  H24 FMW d   1       0.626 -37.810 -11.825  0.00  0.00     0.161 HD
BRANCH  42  44
ATOM     44  C13 FMW d   1       1.732 -38.500 -13.521  0.00  0.00     0.000 C 
ATOM     45  H1  FMW d   1       1.896 -38.032 -14.503  0.00  0.00     0.065 H 
ATOM     46  H2  FMW d   1       2.699 -38.802 -13.093  0.00  0.00     0.065 H 
BRANCH  44  47
ATOM     47  C14 FMW d   1       0.912 -39.770 -13.748  0.00  0.00    -0.035 C 
BRANCH  47  48
ATOM     48  C15 FMW d   1       0.543 -40.418 -12.415  0.00  0.00    -0.068 C 
ATOM     49  H5  FMW d   1      -0.046 -41.328 -12.601  0.00  0.00     0.028 H 
ATOM     50  H6  FMW d   1      -0.052 -39.712 -11.816  0.00  0.00     0.028 H 
ATOM     51  H7  FMW d   1       1.461 -40.680 -11.868  0.00  0.00     0.028 H 
ENDBRANCH  47  48
BRANCH  47  52
ATOM     52  C17 FMW d   1      -0.367 -39.436 -14.508  0.00  0.00    -0.068 C 
ATOM     53  H25 FMW d   1      -0.110 -38.968 -15.470  0.00  0.00     0.028 H 
ATOM     54  H26 FMW d   1      -0.976 -38.740 -13.913  0.00  0.00     0.028 H 
ATOM     55  H27 FMW d   1      -0.937 -40.359 -14.689  0.00  0.00     0.028 H 
ENDBRANCH  47  52
BRANCH  47  56
ATOM     56  C16 FMW d   1       1.733 -40.761 -14.566  0.00  0.00    -0.068 C 
ATOM     57  H28 FMW d   1       2.658 -41.007 -14.024  0.00  0.00     0.028 H 
ATOM     58  H29 FMW d   1       1.986 -40.313 -15.538  0.00  0.00     0.028 H 
ATOM     59  H30 FMW d   1       1.147 -41.678 -14.726  0.00  0.00     0.028 H 
ENDBRANCH  47  56
ENDBRANCH  44  47
ENDBRANCH  42  44
ENDBRANCH   1  42
BRANCH   5  60
ATOM     60  C18 FMW d   1       3.070 -33.926 -15.209  0.00  0.00    -0.035 C 
ATOM     61  H21 FMW d   1       3.392 -34.824 -15.756  0.00  0.00     0.035 H 
ATOM     62  H22 FMW d   1       3.953 -33.392 -14.828  0.00  0.00     0.035 H 
ATOM     63  H23 FMW d   1       2.507 -33.267 -15.886  0.00  0.00     0.035 H 
ENDBRANCH   5  60
TORSDOF 14
