REMARK  4 active torsions:
REMARK  status: ('A' for Active; 'I' for Inactive)
REMARK    1  A    between atoms: S_8  and  N1_4 
REMARK    2  A    between atoms: C3_12  and  C4_6 
REMARK    3  A    between atoms: C7_10  and  S_8 
REMARK    4  A    between atoms: C1_15  and  C_16 
ROOT
ATOM      1  C8  FMH d   1      -3.910   2.299  15.536  0.00  0.00    -0.059 A 
ATOM      2  C5  FMH d   1      -5.479   4.389  14.603  0.00  0.00    -0.069 A 
ATOM      3  C6  FMH d   1      -6.032   3.306  15.306  0.00  0.00    -0.059 A 
ATOM      4  C4  FMH d   1      -4.092   4.425  14.321  0.00  0.00    -0.005 A 
ATOM      5  C7  FMH d   1      -5.280   2.223  15.840  0.00  0.00     0.079 A 
ATOM      6  C9  FMH d   1      -3.342   3.337  14.791  0.00  0.00    -0.069 A 
ATOM      7  H1  FMH d   1      -3.259   1.511  15.898  0.00  0.00     0.085 H 
ATOM      8  H2  FMH d   1      -6.117   5.201  14.275  0.00  0.00     0.085 H 
ATOM      9  H3  FMH d   1      -7.106   3.295  15.452  0.00  0.00     0.085 H 
ATOM     10  H7  FMH d   1      -2.282   3.299  14.568  0.00  0.00     0.085 H 
ENDROOT
BRANCH   4  11
ATOM     11  C3  FMH d   1      -3.453   5.568  13.541  0.00  0.00     0.096 A 
ATOM     12 SE   FMH d   1      -1.773   5.848  13.534  0.00  0.00     0.000 Se
ATOM     13  C1  FMH d   1      -2.019   7.144  12.516  0.00  0.00    -0.018 A 
ATOM     14  H8  FMH d   1      -1.969   7.064  15.129  0.00  0.00     0.000 HD
ATOM     15  H9  FMH d   1      -1.491   4.278  14.765  0.00  0.00     0.000 HD
ATOM     16  H10 FMH d   1       0.212   6.191  13.516  0.00  0.00     0.000 HD
ATOM     17  H11 FMH d   1      -1.577   4.632  11.939  0.00  0.00     0.000 HD
ATOM     18  C2  FMH d   1      -3.355   7.331  12.174  0.00  0.00     0.011 A 
ATOM     19  N   FMH d   1      -4.176   6.412  12.764  0.00  0.00    -0.257 NA
ATOM     20  H6  FMH d   1      -3.706   8.120  11.511  0.00  0.00     0.115 H 
BRANCH  13  21
ATOM     21  C   FMH d   1      -0.782   7.932  12.065  0.00  0.00     0.028 C 
ATOM     22 CL   FMH d   1      -0.610   8.005  10.252  0.00  0.00    -0.126 Cl
ATOM     23  H12 FMH d   1       0.114   7.449  12.483  0.00  0.00     0.063 H 
ATOM     24  H13 FMH d   1      -0.860   8.959  12.452  0.00  0.00     0.063 H 
ENDBRANCH  13  21
ENDBRANCH   4  11
BRANCH   5  25
ATOM     25  S   FMH d   1      -5.884   0.903  16.711  0.00  0.00     0.256 S 
ATOM     26  O1  FMH d   1      -7.344   0.974  16.635  0.00  0.00    -0.201 OA
ATOM     27  O   FMH d   1      -5.392   1.025  18.077  0.00  0.00    -0.201 OA
BRANCH  25  28
ATOM     28  N1  FMH d   1      -5.375  -0.524  16.070  0.00  0.00    -0.324 N 
ATOM     29  H4  FMH d   1      -5.625  -0.769  15.133  0.00  0.00     0.169 HD
ATOM     30  H5  FMH d   1      -4.815  -1.147  16.617  0.00  0.00     0.169 HD
ENDBRANCH  25  28
ENDBRANCH   5  25
TORSDOF 4
