REMARK WARNING: 32 MAX_TORS EXCEEDED!!!
REMARK  56 active torsions:
REMARK  status: ('A' for Active; 'I' for Inactive)
REMARK    1  A    between atoms: N_1  and  CA_2 
REMARK    2  A    between atoms: CA_2  and  C_3 
REMARK    3  A    between atoms: CA_2  and  CB_5 
REMARK       I    between atoms: C_3  and  N_8 
REMARK    4  A    between atoms: CB_5  and  CG1_6 
REMARK    5  A    between atoms: CB_5  and  CG2_7 
REMARK    6  A    between atoms: N_8  and  CA_9 
REMARK    7  A    between atoms: CA_9  and  C_10 
REMARK    8  A    between atoms: CA_9  and  CB_12 
REMARK       I    between atoms: C_10  and  N_16 
REMARK    9  A    between atoms: CB_12  and  CG_13 
REMARK   10  A    between atoms: N_16  and  CA_17 
REMARK   11  A    between atoms: CA_17  and  C_18 
REMARK   12  A    between atoms: CA_17  and  CB_20 
REMARK       I    between atoms: C_18  and  N_25 
REMARK   13  A    between atoms: CB_20  and  CG_21 
REMARK   14  A    between atoms: CG_21  and  CD_22 
REMARK   15  A    between atoms: N_25  and  CA_26 
REMARK   16  A    between atoms: CA_32  and  CB_35 
REMARK   17  A    between atoms: CB_35  and  CG_36 
REMARK   18  A    between atoms: CA_46  and  CB_49 
REMARK   19  A    between atoms: CB_49  and  CG_50 
REMARK   20  A    between atoms: CG_50  and  CD_51 
REMARK   21  A    between atoms: CD_51  and  NE_52 
REMARK       I    between atoms: NE_52  and  CZ_53 
REMARK       I    between atoms: CZ_53  and  NH1_54 
REMARK   22  A    between atoms: CZ_53  and  NH2_55 
REMARK   23  A    between atoms: CA_57  and  CB_60 
REMARK   24  A    between atoms: CB_60  and  CG1_61 
REMARK   25  A    between atoms: CB_60  and  CG2_62 
REMARK   26  A    between atoms: CG1_61  and  CD1_63 
REMARK   27  A    between atoms: CA_65  and  CB_68 
REMARK   28  A    between atoms: CB_68  and  CG1_69 
REMARK   29  A    between atoms: CB_68  and  CG2_70 
REMARK   30  A    between atoms: CG1_69  and  CD1_71 
REMARK   31  A    between atoms: CA_73  and  CB_76 
REMARK   32  A    between atoms: CA_78  and  CB_81 
REMARK   33  A    between atoms: CB_81  and  OG_82 
REMARK   34  A    between atoms: CA_84  and  CB_87 
REMARK   35  A    between atoms: CB_87  and  CG_88 
REMARK   36  A    between atoms: CA_94  and  CB_97 
REMARK   37  A    between atoms: CB_97  and  OG1_98 
REMARK   38  A    between atoms: CB_97  and  CG2_99 
REMARK   39  A    between atoms: CA_101  and  CB_104 
REMARK   40  A    between atoms: CB_104  and  CG_105 
REMARK   41  A    between atoms: CA_115  and  CB_118 
REMARK   42  A    between atoms: CB_118  and  CG_119 
REMARK   43  A    between atoms: CA_126  and  C_127 
REMARK       I    between atoms: C_127  and  N_131 
REMARK   44  A    between atoms: N_131  and  CA_132 
REMARK   45  A    between atoms: CA_132  and  C_133 
REMARK   46  A    between atoms: CA_132  and  CB_135 
REMARK       I    between atoms: C_133  and  N_136 
REMARK   47  A    between atoms: N_136  and  CA_137 
REMARK   48  A    between atoms: CA_137  and  C_138 
REMARK   49  A    between atoms: CA_137  and  CB_140 
REMARK       I    between atoms: C_138  and  N_145 
REMARK   50  A    between atoms: CB_140  and  CG_141 
REMARK   51  A    between atoms: CG_141  and  CD_142 
REMARK   52  A    between atoms: N_145  and  CA_146 
REMARK   53  A    between atoms: CA_146  and  C_147 
REMARK   54  A    between atoms: CA_146  and  CB_149 
REMARK   55  A    between atoms: CB_149  and  CG_150 
REMARK   56  A    between atoms: CG_150  and  CD_151 
ROOT
ATOM      1  CA  CYS d   1      48.247  -3.871   1.913  0.00  0.00     0.098 C 
ATOM      2  C   CYS d   1      47.875  -5.341   2.061  0.00  0.00     0.242 C 
ATOM      3  O   CYS d   1      47.301  -5.748   3.071  0.00  0.00    -0.271 OA
ATOM      4  CB  CYS d   1      49.766  -3.716   1.834  0.00  0.00     0.013 C 
ATOM      5  SG  CYS d   1      50.309  -2.125   1.178  0.00  0.00    -0.095 SA
ATOM      6  N   CYS d   1      51.604  -4.234  -2.295  0.00  0.00    -0.345 N 
ATOM      7  CA  CYS d   1      50.736  -3.085  -2.494  0.00  0.00     0.098 C 
ATOM      8  CB  CYS d   1      51.436  -1.807  -2.024  0.00  0.00     0.013 C 
ATOM      9  SG  CYS d   1      51.720  -1.750  -0.235  0.00  0.00    -0.095 SA
ATOM     10  H23 CYS d   1      47.810  -3.497   0.975  0.00  0.00     0.088 H 
ATOM     11  H24 CYS d   1      50.161  -4.511   1.185  0.00  0.00     0.053 H 
ATOM     12  H25 CYS d   1      50.178  -3.831   2.847  0.00  0.00     0.053 H 
ATOM     13 4H11 CYS d   1      52.478  -4.276  -2.779  0.00  0.00     0.163 HD
ATOM     14 5H11 CYS d   1      49.835  -3.231  -1.879  0.00  0.00     0.088 H 
ATOM     15 6H11 CYS d   1      50.812  -0.946  -2.304  0.00  0.00     0.053 H 
ATOM     16 7H11 CYS d   1      52.409  -1.736  -2.533  0.00  0.00     0.053 H 
ATOM     17  N   TRP d   1      48.194  -6.133   1.044  0.00  0.00    -0.346 N 
ATOM     18  CA  TRP d   1      47.973  -7.571   1.106  0.00  0.00     0.093 C 
ATOM     19  C   TRP d   1      49.111  -8.256   1.841  0.00  0.00     0.241 C 
ATOM     20  O   TRP d   1      50.279  -8.058   1.511  0.00  0.00    -0.271 OA
ATOM     21  N   TRP d   1      54.755  -8.124   2.429  0.00  0.00    -0.346 N 
ATOM     22  CA  TRP d   1      53.616  -7.284   2.096  0.00  0.00     0.093 C 
ATOM     23  C   TRP d   1      53.579  -7.058   0.595  0.00  0.00     0.241 C 
ATOM     24  O   TRP d   1      54.591  -7.203  -0.089  0.00  0.00    -0.271 OA
ATOM     25  H26 TRP d   1      48.594  -5.734   0.219  0.00  0.00     0.163 HD
ATOM     26  H27 TRP d   1      47.038  -7.755   1.656  0.00  0.00     0.088 H 
ATOM     27  H95 TRP d   1      55.679  -7.749   2.349  0.00  0.00     0.163 HD
ATOM     28  H96 TRP d   1      52.695  -7.802   2.401  0.00  0.00     0.088 H 
ATOM     29  N   ARG d   1      48.774  -9.061   2.841  0.00  0.00    -0.346 N 
ATOM     30  CA  ARG d   1      49.786  -9.859   3.513  0.00  0.00     0.089 C 
ATOM     31  C   ARG d   1      50.022 -11.153   2.750  0.00  0.00     0.241 C 
ATOM     32  O   ARG d   1      49.171 -12.043   2.742  0.00  0.00    -0.271 OA
ATOM     33  H36 ARG d   1      47.819  -9.119   3.133  0.00  0.00     0.163 HD
ATOM     34  H37 ARG d   1      50.724  -9.285   3.531  0.00  0.00     0.087 H 
ATOM     35  N   ILE d   1      51.173 -11.244   2.094  0.00  0.00    -0.346 N 
ATOM     36  CA  ILE d   1      51.598 -12.491   1.475  0.00  0.00     0.092 C 
ATOM     37  C   ILE d   1      52.136 -13.414   2.562  0.00  0.00     0.241 C 
ATOM     38  O   ILE d   1      53.261 -13.237   3.058  0.00  0.00    -0.271 OA
ATOM     39  N   ILE d   1      51.304 -14.389   2.922  0.00  0.00    -0.346 N 
ATOM     40  CA  ILE d   1      51.526 -15.274   4.061  0.00  0.00     0.092 C 
ATOM     41  C   ILE d   1      52.736 -16.185   3.903  0.00  0.00     0.241 C 
ATOM     42  O   ILE d   1      53.610 -16.227   4.769  0.00  0.00    -0.271 OA
ATOM     43  H49 ILE d   1      51.761 -10.438   2.024  0.00  0.00     0.163 HD
ATOM     44  H50 ILE d   1      50.724 -12.965   1.005  0.00  0.00     0.088 H 
ATOM     45  H60 ILE d   1      50.476 -14.523   2.378  0.00  0.00     0.163 HD
ATOM     46  H61 ILE d   1      51.688 -14.641   4.946  0.00  0.00     0.088 H 
ATOM     47  N   ALA d   1      52.773 -16.919   2.797  0.00  0.00    -0.346 N 
ATOM     48  CA  ALA d   1      53.816 -17.910   2.563  0.00  0.00     0.086 C 
ATOM     49  C   ALA d   1      55.199 -17.277   2.425  0.00  0.00     0.240 C 
ATOM     50  O   ALA d   1      56.215 -17.945   2.610  0.00  0.00    -0.271 OA
ATOM     51  H71 ALA d   1      52.064 -16.788   2.104  0.00  0.00     0.163 HD
ATOM     52  H72 ALA d   1      53.839 -18.587   3.429  0.00  0.00     0.086 H 
ATOM     53  N   SER d   1      55.236 -15.988   2.107  0.00  0.00    -0.344 N 
ATOM     54  CA  SER d   1      56.502 -15.307   1.869  0.00  0.00     0.109 C 
ATOM     55  C   SER d   1      56.834 -14.308   2.969  0.00  0.00     0.243 C 
ATOM     56  O   SER d   1      57.851 -13.617   2.899  0.00  0.00    -0.271 OA
ATOM     57  H76 SER d   1      54.380 -15.476   2.030  0.00  0.00     0.163 HD
ATOM     58  H77 SER d   1      57.298 -16.066   1.847  0.00  0.00     0.090 H 
ATOM     59  N   HIS d   1      55.968 -14.245   3.978  0.00  0.00    -0.346 N 
ATOM     60  CA  HIS d   1      56.134 -13.333   5.106  0.00  0.00     0.094 C 
ATOM     61  C   HIS d   1      56.326 -11.893   4.645  0.00  0.00     0.241 C 
ATOM     62  O   HIS d   1      57.093 -11.141   5.248  0.00  0.00    -0.271 OA
ATOM     63  H81 HIS d   1      55.170 -14.848   3.963  0.00  0.00     0.163 HD
ATOM     64  H82 HIS d   1      55.222 -13.380   5.719  0.00  0.00     0.088 H 
ATOM     65  N   THR d   1      55.638 -11.507   3.575  0.00  0.00    -0.344 N 
ATOM     66  CA  THR d   1      55.874 -10.181   3.009  0.00  0.00     0.113 C 
ATOM     67  C   THR d   1      54.597  -9.377   2.836  0.00  0.00     0.243 C 
ATOM     68  O   THR d   1      53.500  -9.872   3.076  0.00  0.00    -0.271 OA
ATOM     69  H88 THR d   1      54.964 -12.119   3.161  0.00  0.00     0.163 HD
ATOM     70  H89 THR d   1      56.528  -9.636   3.705  0.00  0.00     0.091 H 
ATOM     71  N   PHE d   1      52.407  -6.710   0.081  0.00  0.00    -0.346 N 
ATOM     72  CA  PHE d   1      52.298  -6.325  -1.314  0.00  0.00     0.093 C 
ATOM     73  C   PHE d   1      51.262  -5.229  -1.485  0.00  0.00     0.241 C 
ATOM     74  O   PHE d   1      50.179  -5.282  -0.901  0.00  0.00    -0.271 OA
ATOM     75 5H10 PHE d   1      51.591  -6.713   0.660  0.00  0.00     0.163 HD
ATOM     76 6H10 PHE d   1      53.274  -5.934  -1.638  0.00  0.00     0.088 H 
ENDROOT
BRANCH   1  77
ATOM     77  N   CYS d   1      47.712  -3.081   3.012  0.00  0.00    -0.345 N 
ATOM     78  C   GLU d   1      46.504  -2.538   2.941  0.00  0.00     0.241 C 
ATOM     79  O   GLU d   1      45.776  -2.655   1.955  0.00  0.00    -0.271 OA
ATOM     80  H22 CYS d   1      48.264  -2.945   3.834  0.00  0.00     0.163 HD
BRANCH  78  81
ATOM     81  CA  GLU d   1      46.049  -1.731   4.149  0.00  0.00     0.090 C 
ATOM     82  H17 GLU d   1      46.899  -1.143   4.526  0.00  0.00     0.087 H 
BRANCH  81  83
ATOM     83  N   GLU d   1      45.004  -0.813   3.715  0.00  0.00    -0.346 N 
ATOM     84  C   ASP d   1      45.046   0.478   4.030  0.00  0.00     0.241 C 
ATOM     85  O   ASP d   1      45.772   0.925   4.918  0.00  0.00    -0.271 OA
ATOM     86  H16 GLU d   1      44.241  -1.161   3.170  0.00  0.00     0.163 HD
BRANCH  84  87
ATOM     87  CA  ASP d   1      44.138   1.405   3.222  0.00  0.00     0.098 C 
ATOM     88  H13 ASP d   1      44.540   1.447   2.199  0.00  0.00     0.088 H 
BRANCH  87  89
ATOM     89  N   ASP d   1      42.752   0.944   3.120  0.00  0.00    -0.345 N 
ATOM     90  C   VAL d   1      41.935   0.810   4.163  0.00  0.00     0.249 C 
ATOM     91  O   VAL d   1      42.275   1.029   5.326  0.00  0.00    -0.271 OA
ATOM     92  H12 ASP d   1      42.398   0.716   2.213  0.00  0.00     0.163 HD
BRANCH  90  93
ATOM     93  CA  VAL d   1      40.518   0.332   3.838  0.00  0.00     0.178 C 
ATOM     94  H4  VAL d   1      40.514  -0.064   2.812  0.00  0.00     0.099 H 
BRANCH  93  95
ATOM     95  N   VAL d   1      40.117  -0.742   4.739  0.00  0.00    -0.066 N 
ATOM     96  H1  VAL d   1      40.780  -1.499   4.676  0.00  0.00     0.275 HD
ATOM     97  H2  VAL d   1      39.202  -1.075   4.479  0.00  0.00     0.275 HD
ATOM     98  H3  VAL d   1      40.092  -0.395   5.685  0.00  0.00     0.275 HD
ENDBRANCH  93  95
BRANCH  93  99
ATOM     99  CB  VAL d   1      39.525   1.520   3.902  0.00  0.00    -0.025 C 
ATOM    100  H5  VAL d   1      38.587   1.200   3.424  0.00  0.00     0.042 H 
BRANCH  99 101
ATOM    101  CG1 VAL d   1      39.208   1.887   5.348  0.00  0.00    -0.071 C 
ATOM    102  H6  VAL d   1      38.503   2.731   5.366  0.00  0.00     0.028 H 
ATOM    103  H7  VAL d   1      40.136   2.173   5.865  0.00  0.00     0.028 H 
ATOM    104  H8  VAL d   1      38.757   1.022   5.856  0.00  0.00     0.028 H 
ENDBRANCH  99 101
BRANCH  99 105
ATOM    105  CG2 VAL d   1      40.054   2.720   3.127  0.00  0.00    -0.071 C 
ATOM    106  H9  VAL d   1      40.272   2.421   2.091  0.00  0.00     0.028 H 
ATOM    107  H10 VAL d   1      40.975   3.087   3.604  0.00  0.00     0.028 H 
ATOM    108  H11 VAL d   1      39.298   3.519   3.127  0.00  0.00     0.028 H 
ENDBRANCH  99 105
ENDBRANCH  93  99
ENDBRANCH  90  93
ENDBRANCH  87  89
BRANCH  87 109
ATOM    109  CB  ASP d   1      44.198   2.818   3.813  0.00  0.00     0.043 C 
ATOM    110  H14 ASP d   1      45.250   3.075   4.005  0.00  0.00     0.052 H 
ATOM    111  H15 ASP d   1      43.639   2.828   4.761  0.00  0.00     0.052 H 
BRANCH 109 112
ATOM    112  CG  ASP d   1      43.604   3.861   2.889  0.00  0.00     0.175 C 
ATOM    113  OD1 ASP d   1      44.068   3.963   1.733  0.00  0.00    -0.648 OA
ATOM    114  OD2 ASP d   1      42.682   4.586   3.317  0.00  0.00    -0.648 OA
ENDBRANCH 109 112
ENDBRANCH  87 109
ENDBRANCH  84  87
ENDBRANCH  81  83
BRANCH  81 115
ATOM    115  CB  GLU d   1      45.576  -2.660   5.274  0.00  0.00    -0.029 C 
ATOM    116  H18 GLU d   1      44.983  -2.061   5.981  0.00  0.00     0.037 H 
ATOM    117  H19 GLU d   1      46.467  -3.054   5.785  0.00  0.00     0.037 H 
BRANCH 115 118
ATOM    118  CG  GLU d   1      44.725  -3.845   4.833  0.00  0.00     0.018 C 
ATOM    119  H20 GLU d   1      44.901  -4.680   5.527  0.00  0.00     0.049 H 
ATOM    120  H21 GLU d   1      45.033  -4.140   3.819  0.00  0.00     0.049 H 
BRANCH 118 121
ATOM    121  CD  GLU d   1      43.241  -3.535   4.816  0.00  0.00     0.172 C 
ATOM    122  OE1 GLU d   1      42.878  -2.343   4.889  0.00  0.00    -0.648 OA
ATOM    123  OE2 GLU d   1      42.437  -4.488   4.740  0.00  0.00    -0.648 OA
ENDBRANCH 118 121
ENDBRANCH 115 118
ENDBRANCH  81 115
ENDBRANCH  78  81
ENDBRANCH   1  77
BRANCH  18 124
ATOM    124  CB  TRP d   1      47.836  -8.163  -0.296  0.00  0.00    -0.012 C 
ATOM    125  H28 TRP d   1      47.899  -9.258  -0.218  0.00  0.00     0.044 H 
ATOM    126  H29 TRP d   1      48.667  -7.791  -0.913  0.00  0.00     0.044 H 
BRANCH 124 127
ATOM    127  CG  TRP d   1      46.558  -7.813  -0.971  0.00  0.00    -0.028 A 
ATOM    128  CD1 TRP d   1      46.344  -6.780  -1.833  0.00  0.00    -0.015 A 
ATOM    129  NE1 TRP d   1      45.037  -6.777  -2.253  0.00  0.00    -0.365 N 
ATOM    130  H30 TRP d   1      47.100  -6.061  -2.144  0.00  0.00     0.112 H 
ATOM    131  CE2 TRP d   1      44.379  -7.823  -1.662  0.00  0.00     0.042 A 
ATOM    132  H31 TRP d   1      44.619  -6.099  -2.906  0.00  0.00     0.165 HD
ATOM    133  CD2 TRP d   1      45.307  -8.499  -0.846  0.00  0.00    -0.002 A 
ATOM    134  CZ2 TRP d   1      43.052  -8.229  -1.775  0.00  0.00    -0.056 A 
ATOM    135  CE3 TRP d   1      44.883  -9.617  -0.124  0.00  0.00    -0.070 A 
ATOM    136  CZ3 TRP d   1      43.564 -10.019  -0.238  0.00  0.00    -0.082 A 
ATOM    137  H32 TRP d   1      45.573 -10.159   0.513  0.00  0.00     0.084 H 
ATOM    138  CH2 TRP d   1      42.664  -9.326  -1.056  0.00  0.00    -0.081 A 
ATOM    139  H34 TRP d   1      43.222 -10.886   0.316  0.00  0.00     0.083 H 
ATOM    140  H35 TRP d   1      41.637  -9.666  -1.121  0.00  0.00     0.083 H 
ATOM    141  H33 TRP d   1      42.353  -7.696  -2.409  0.00  0.00     0.086 H 
ENDBRANCH 124 127
ENDBRANCH  18 124
BRANCH   7 142
ATOM    142  C   CYS d   1      50.294  -2.943  -3.946  0.00  0.00     0.241 C 
ATOM    143  O   CYS d   1      49.131  -3.181  -4.265  0.00  0.00    -0.271 OA
ATOM    144  N   ALA d   1      51.207  -2.559  -4.832  0.00  0.00    -0.346 N 
ATOM    145 8H11 ALA d   1      52.172  -2.516  -4.573  0.00  0.00     0.163 HD
BRANCH 144 146
ATOM    146  CA  ALA d   1      50.793  -2.199  -6.188  0.00  0.00     0.086 C 
ATOM    147 9H11 ALA d   1      49.899  -2.795  -6.425  0.00  0.00     0.086 H 
BRANCH 146 148
ATOM    148  C   ALA d   1      51.837  -2.500  -7.272  0.00  0.00     0.240 C 
ATOM    149  O   ALA d   1      52.882  -3.075  -6.996  0.00  0.00    -0.271 OA
ATOM    150  N   GLU d   1      51.512  -2.130  -8.508  0.00  0.00    -0.346 N 
ATOM    151 3H12 GLU d   1      50.637  -1.668  -8.653  0.00  0.00     0.163 HD
BRANCH 150 152
ATOM    152  CA  GLU d   1      52.367  -2.366  -9.653  0.00  0.00     0.090 C 
ATOM    153 4H12 GLU d   1      53.395  -2.520  -9.292  0.00  0.00     0.087 H 
BRANCH 152 154
ATOM    154  C   GLU d   1      52.358  -1.171 -10.607  0.00  0.00     0.241 C 
ATOM    155  O   GLU d   1      51.976  -1.293 -11.788  0.00  0.00    -0.271 OA
ATOM    156  N   GLU d   1      52.775  -0.020 -10.079  0.00  0.00    -0.345 N 
ATOM    157 9H12 GLU d   1      53.141  -0.035  -9.149  0.00  0.00     0.163 HD
BRANCH 156 158
ATOM    158  CA  GLU d   1      52.728   1.272 -10.785  0.00  0.00     0.097 C 
ATOM    159 0H13 GLU d   1      51.668   1.556 -10.858  0.00  0.00     0.089 H 
BRANCH 158 160
ATOM    160  C   GLU d   1      53.304   1.277 -12.199  0.00  0.00     0.196 C 
ATOM    161  O   GLU d   1      54.162   0.469 -12.548  0.00  0.00    -0.646 OA
ATOM    162  OXT GLU d   1      52.930   2.121 -13.020  0.00  0.00    -0.646 OA
ENDBRANCH 158 160
BRANCH 158 163
ATOM    163  CB  GLU d   1      53.470   2.359  -9.991  0.00  0.00    -0.028 C 
ATOM    164 1H13 GLU d   1      53.493   3.270 -10.607  0.00  0.00     0.037 H 
ATOM    165 2H13 GLU d   1      54.498   2.007  -9.818  0.00  0.00     0.037 H 
BRANCH 163 166
ATOM    166  CG  GLU d   1      52.869   2.725  -8.640  0.00  0.00     0.018 C 
ATOM    167 3H13 GLU d   1      51.778   2.600  -8.694  0.00  0.00     0.049 H 
ATOM    168 4H13 GLU d   1      53.107   3.776  -8.421  0.00  0.00     0.049 H 
BRANCH 166 169
ATOM    169  CD  GLU d   1      53.401   1.862  -7.513  0.00  0.00     0.172 C 
ATOM    170  OE1 GLU d   1      54.225   0.963  -7.788  0.00  0.00    -0.648 OA
ATOM    171  OE2 GLU d   1      52.996   2.086  -6.353  0.00  0.00    -0.648 OA
ENDBRANCH 166 169
ENDBRANCH 163 166
ENDBRANCH 158 163
ENDBRANCH 156 158
ENDBRANCH 152 154
BRANCH 152 172
ATOM    172  CB  GLU d   1      51.917  -3.621 -10.414  0.00  0.00    -0.029 C 
ATOM    173 5H12 GLU d   1      52.668  -3.834 -11.189  0.00  0.00     0.037 H 
ATOM    174 6H12 GLU d   1      50.951  -3.400 -10.890  0.00  0.00     0.037 H 
BRANCH 172 175
ATOM    175  CG  GLU d   1      51.747  -4.869  -9.575  0.00  0.00     0.018 C 
ATOM    176 7H12 GLU d   1      50.709  -4.915  -9.214  0.00  0.00     0.049 H 
ATOM    177 8H12 GLU d   1      52.432  -4.815  -8.716  0.00  0.00     0.049 H 
BRANCH 175 178
ATOM    178  CD  GLU d   1      52.044  -6.114 -10.352  0.00  0.00     0.172 C 
ATOM    179  OE1 GLU d   1      51.140  -6.927 -10.594  0.00  0.00    -0.648 OA
ATOM    180  OE2 GLU d   1      53.215  -6.278 -10.709  0.00  0.00    -0.648 OA
ENDBRANCH 175 178
ENDBRANCH 172 175
ENDBRANCH 152 172
ENDBRANCH 150 152
ENDBRANCH 146 148
BRANCH 146 181
ATOM    181  CB  ALA d   1      50.401  -0.713  -6.226  0.00  0.00    -0.049 C 
ATOM    182 0H12 ALA d   1      50.090  -0.442  -7.246  0.00  0.00     0.030 H 
ATOM    183 1H12 ALA d   1      51.264  -0.098  -5.931  0.00  0.00     0.030 H 
ATOM    184 2H12 ALA d   1      49.569  -0.535  -5.529  0.00  0.00     0.030 H 
ENDBRANCH 146 181
ENDBRANCH 144 146
ENDBRANCH   7 142
BRANCH  30 185
ATOM    185  CB  ARG d   1      49.383 -10.169   4.954  0.00  0.00    -0.036 C 
ATOM    186  H38 ARG d   1      48.429 -10.716   4.939  0.00  0.00     0.036 H 
ATOM    187  H39 ARG d   1      49.253  -9.218   5.492  0.00  0.00     0.036 H 
BRANCH 185 188
ATOM    188  CG  ARG d   1      50.411 -11.011   5.702  0.00  0.00    -0.048 C 
ATOM    189  H40 ARG d   1      50.604 -11.932   5.132  0.00  0.00     0.035 H 
ATOM    190  H41 ARG d   1      50.009 -11.271   6.693  0.00  0.00     0.035 H 
BRANCH 188 191
ATOM    191  CD  ARG d   1      51.720 -10.254   5.880  0.00  0.00     0.009 C 
ATOM    192  H42 ARG d   1      51.535  -9.373   6.511  0.00  0.00     0.064 H 
ATOM    193  H43 ARG d   1      52.077  -9.929   4.892  0.00  0.00     0.064 H 
BRANCH 191 194
ATOM    194  NE  ARG d   1      52.757 -11.070   6.507  0.00  0.00    -0.227 N 
ATOM    195  CZ  ARG d   1      53.916 -10.592   6.950  0.00  0.00     0.665 C 
ATOM    196  NH1 ARG d   1      54.186  -9.298   6.842  0.00  0.00    -0.235 N 
ATOM    197  H45 ARG d   1      55.084  -8.929   7.186  0.00  0.00     0.174 HD
ATOM    198  H46 ARG d   1      53.498  -8.662   6.415  0.00  0.00     0.174 HD
ATOM    199  H44 ARG d   1      52.579 -12.079   6.612  0.00  0.00     0.177 HD
BRANCH 195 200
ATOM    200  NH2 ARG d   1      54.803 -11.405   7.507  0.00  0.00    -0.235 N 
ATOM    201  H47 ARG d   1      54.597 -12.411   7.593  0.00  0.00     0.174 HD
ATOM    202  H48 ARG d   1      55.698 -11.031   7.854  0.00  0.00     0.174 HD
ENDBRANCH 195 200
ENDBRANCH 191 194
ENDBRANCH 188 191
ENDBRANCH 185 188
ENDBRANCH  30 185
BRANCH  72 203
ATOM    203  CB  PHE d   1      51.946  -7.520  -2.196  0.00  0.00    -0.014 C 
ATOM    204 7H10 PHE d   1      50.923  -7.844  -1.954  0.00  0.00     0.043 H 
ATOM    205 8H10 PHE d   1      52.650  -8.336  -1.976  0.00  0.00     0.043 H 
BRANCH 203 206
ATOM    206  CG  PHE d   1      52.014  -7.214  -3.660  0.00  0.00    -0.056 A 
ATOM    207  CD1 PHE d   1      50.872  -6.871  -4.364  0.00  0.00    -0.077 A 
ATOM    208  CE1 PHE d   1      50.937  -6.572  -5.711  0.00  0.00    -0.082 A 
ATOM    209 9H10 PHE d   1      49.917  -6.837  -3.853  0.00  0.00     0.084 H 
ATOM    210  CZ  PHE d   1      52.153  -6.605  -6.366  0.00  0.00    -0.083 A 
ATOM    211 1H11 PHE d   1      50.035  -6.312  -6.253  0.00  0.00     0.083 H 
ATOM    212  CE2 PHE d   1      53.300  -6.937  -5.672  0.00  0.00    -0.082 A 
ATOM    213 3H11 PHE d   1      52.207  -6.371  -7.423  0.00  0.00     0.083 H 
ATOM    214  CD2 PHE d   1      53.228  -7.234  -4.326  0.00  0.00    -0.077 A 
ATOM    215 2H11 PHE d   1      54.255  -6.964  -6.184  0.00  0.00     0.083 H 
ATOM    216 0H11 PHE d   1      54.132  -7.486  -3.784  0.00  0.00     0.084 H 
ENDBRANCH 203 206
ENDBRANCH  72 203
BRANCH  36 217
ATOM    217  CB  ILE d   1      52.662 -12.266   0.392  0.00  0.00    -0.030 C 
ATOM    218  H51 ILE d   1      53.598 -11.957   0.880  0.00  0.00     0.043 H 
BRANCH 217 219
ATOM    219  CG1 ILE d   1      52.221 -11.151  -0.560  0.00  0.00    -0.063 C 
ATOM    220  H52 ILE d   1      53.026 -10.980  -1.290  0.00  0.00     0.033 H 
ATOM    221  H53 ILE d   1      52.059 -10.236   0.029  0.00  0.00     0.033 H 
BRANCH 219 222
ATOM    222  CD1 ILE d   1      50.947 -11.462  -1.318  0.00  0.00    -0.076 C 
ATOM    223  H57 ILE d   1      50.697 -10.618  -1.977  0.00  0.00     0.027 H 
ATOM    224  H58 ILE d   1      50.126 -11.625  -0.604  0.00  0.00     0.027 H 
ATOM    225  H59 ILE d   1      51.092 -12.369  -1.923  0.00  0.00     0.027 H 
ENDBRANCH 219 222
ENDBRANCH 217 219
BRANCH 217 226
ATOM    226  CG2 ILE d   1      52.919 -13.557  -0.371  0.00  0.00    -0.071 C 
ATOM    227  H54 ILE d   1      53.234 -14.342   0.332  0.00  0.00     0.028 H 
ATOM    228  H55 ILE d   1      53.712 -13.392  -1.115  0.00  0.00     0.028 H 
ATOM    229  H56 ILE d   1      51.997 -13.871  -0.882  0.00  0.00     0.028 H 
ENDBRANCH 217 226
ENDBRANCH  36 217
BRANCH  22 230
ATOM    230  CB  TRP d   1      53.684  -5.941   2.828  0.00  0.00    -0.012 C 
ATOM    231  H97 TRP d   1      52.870  -5.303   2.454  0.00  0.00     0.044 H 
ATOM    232  H98 TRP d   1      54.652  -5.472   2.599  0.00  0.00     0.044 H 
BRANCH 230 233
ATOM    233  CG  TRP d   1      53.553  -6.043   4.315  0.00  0.00    -0.028 A 
ATOM    234  CD1 TRP d   1      54.552  -5.919   5.236  0.00  0.00    -0.015 A 
ATOM    235  NE1 TRP d   1      54.047  -6.070   6.505  0.00  0.00    -0.365 N 
ATOM    236  H99 TRP d   1      55.598  -5.728   5.000  0.00  0.00     0.112 H 
ATOM    237  CE2 TRP d   1      52.698  -6.296   6.422  0.00  0.00     0.042 A 
ATOM    238 0H10 TRP d   1      54.593  -6.021   7.377  0.00  0.00     0.165 HD
ATOM    239  CD2 TRP d   1      52.351  -6.285   5.056  0.00  0.00    -0.002 A 
ATOM    240  CZ2 TRP d   1      51.759  -6.506   7.429  0.00  0.00    -0.056 A 
ATOM    241  CE3 TRP d   1      51.016  -6.495   4.698  0.00  0.00    -0.070 A 
ATOM    242  CZ3 TRP d   1      50.085  -6.704   5.699  0.00  0.00    -0.082 A 
ATOM    243 1H10 TRP d   1      50.717  -6.494   3.656  0.00  0.00     0.084 H 
ATOM    244  CH2 TRP d   1      50.461  -6.708   7.048  0.00  0.00    -0.081 A 
ATOM    245 3H10 TRP d   1      49.046  -6.867   5.435  0.00  0.00     0.083 H 
ATOM    246 4H10 TRP d   1      49.706  -6.875   7.808  0.00  0.00     0.083 H 
ATOM    247 2H10 TRP d   1      52.046  -6.509   8.474  0.00  0.00     0.086 H 
ENDBRANCH 230 233
ENDBRANCH  22 230
BRANCH  40 248
ATOM    248  CB  ILE d   1      50.290 -16.166   4.310  0.00  0.00    -0.030 C 
ATOM    249  H62 ILE d   1      50.111 -16.768   3.407  0.00  0.00     0.043 H 
BRANCH 248 250
ATOM    250  CG1 ILE d   1      49.050 -15.310   4.572  0.00  0.00    -0.063 C 
ATOM    251  H63 ILE d   1      48.176 -15.975   4.633  0.00  0.00     0.033 H 
ATOM    252  H64 ILE d   1      48.924 -14.614   3.729  0.00  0.00     0.033 H 
BRANCH 250 253
ATOM    253  CD1 ILE d   1      49.126 -14.506   5.846  0.00  0.00    -0.076 C 
ATOM    254  H68 ILE d   1      48.203 -13.919   5.965  0.00  0.00     0.027 H 
ATOM    255  H69 ILE d   1      49.989 -13.826   5.800  0.00  0.00     0.027 H 
ATOM    256  H70 ILE d   1      49.241 -15.186   6.703  0.00  0.00     0.027 H 
ENDBRANCH 250 253
ENDBRANCH 248 250
BRANCH 248 257
ATOM    257  CG2 ILE d   1      50.539 -17.110   5.473  0.00  0.00    -0.071 C 
ATOM    258  H65 ILE d   1      51.433 -17.717   5.268  0.00  0.00     0.028 H 
ATOM    259  H66 ILE d   1      49.669 -17.771   5.602  0.00  0.00     0.028 H 
ATOM    260  H67 ILE d   1      50.695 -16.526   6.392  0.00  0.00     0.028 H 
ENDBRANCH 248 257
ENDBRANCH  40 248
BRANCH  66 261
ATOM    261  CB  THR d   1      56.585 -10.268   1.642  0.00  0.00     0.060 C 
ATOM    262  H90 THR d   1      56.473  -9.308   1.117  0.00  0.00     0.086 H 
BRANCH 261 263
ATOM    263  OG1 THR d   1      55.990 -11.309   0.857  0.00  0.00    -0.393 OA
ATOM    264  H91 THR d   1      56.429 -11.361   0.016  0.00  0.00     0.210 HD
ENDBRANCH 261 263
BRANCH 261 265
ATOM    265  CG2 THR d   1      58.065 -10.564   1.827  0.00  0.00    -0.050 C 
ATOM    266  H92 THR d   1      58.553 -10.622   0.843  0.00  0.00     0.031 H 
ATOM    267  H93 THR d   1      58.184 -11.523   2.353  0.00  0.00     0.031 H 
ATOM    268  H94 THR d   1      58.528  -9.761   2.419  0.00  0.00     0.031 H 
ENDBRANCH 261 265
ENDBRANCH  66 261
BRANCH  48 269
ATOM    269  CB  ALA d   1      53.489 -18.729   1.323  0.00  0.00    -0.049 C 
ATOM    270  H73 ALA d   1      54.282 -19.473   1.156  0.00  0.00     0.030 H 
ATOM    271  H74 ALA d   1      53.422 -18.062   0.451  0.00  0.00     0.030 H 
ATOM    272  H75 ALA d   1      52.527 -19.244   1.466  0.00  0.00     0.030 H 
ENDBRANCH  48 269
BRANCH  60 273
ATOM    273  CB  HIS d   1      57.323 -13.756   5.974  0.00  0.00     0.004 C 
ATOM    274  H83 HIS d   1      57.298 -13.171   6.905  0.00  0.00     0.046 H 
ATOM    275  H84 HIS d   1      58.250 -13.533   5.425  0.00  0.00     0.046 H 
BRANCH 273 276
ATOM    276  CG  HIS d   1      57.325 -15.210   6.331  0.00  0.00     0.053 A 
ATOM    277  ND1 HIS d   1      56.571 -15.722   7.363  0.00  0.00    -0.247 NA
ATOM    278  CE1 HIS d   1      56.772 -17.027   7.447  0.00  0.00     0.064 A 
ATOM    279  NE2 HIS d   1      57.631 -17.376   6.504  0.00  0.00    -0.359 N 
ATOM    280  H86 HIS d   1      56.309 -17.698   8.169  0.00  0.00     0.143 H 
ATOM    281  CD2 HIS d   1      57.992 -16.257   5.794  0.00  0.00     0.002 A 
ATOM    282  H87 HIS d   1      57.974 -18.332   6.330  0.00  0.00     0.166 HD
ATOM    283  H85 HIS d   1      58.686 -16.220   4.955  0.00  0.00     0.114 H 
ENDBRANCH 273 276
ENDBRANCH  60 273
BRANCH  54 284
ATOM    284  CB  SER d   1      56.468 -14.602   0.516  0.00  0.00     0.044 C 
ATOM    285  H78 SER d   1      57.476 -14.236   0.271  0.00  0.00     0.077 H 
ATOM    286  H79 SER d   1      55.771 -13.752   0.566  0.00  0.00     0.077 H 
BRANCH 284 287
ATOM    287  OG  SER d   1      56.040 -15.499  -0.489  0.00  0.00    -0.398 OA
ATOM    288  H80 SER d   1      56.023 -15.050  -1.326  0.00  0.00     0.209 HD
ENDBRANCH 284 287
ENDBRANCH  54 284
TORSDOF 56
