REMARK  6 active torsions:
REMARK  status: ('A' for Active; 'I' for Inactive)
REMARK    1  A    between atoms: C15_12  and  N1_1 
REMARK    2  A    between atoms: C12_16  and  C11_17 
REMARK    3  A    between atoms: C11_17  and  C10_18 
REMARK    4  A    between atoms: C10_18  and  N_19 
REMARK    5  A    between atoms: N_19  and  C9_20 
REMARK    6  A    between atoms: N_19  and  C22_21 
ROOT
ATOM      1  N1  FQH d   1       4.632 -14.343 -52.352  0.00  0.00    -0.224 N 
ATOM      2  C13 FQH d   1       4.280 -15.279 -51.449  0.00  0.00     0.013 A 
ATOM      3  N2  FQH d   1       4.114 -13.121 -52.047  0.00  0.00    -0.178 NA
ATOM      4  C14 FQH d   1       3.445 -13.324 -50.930  0.00  0.00     0.030 A 
ATOM      5  C12 FQH d   1       3.507 -14.659 -50.504  0.00  0.00    -0.020 A 
ATOM      6  H5  FQH d   1       4.558 -16.332 -51.467  0.00  0.00     0.115 H 
ATOM      7  H6  FQH d   1       2.905 -12.543 -50.397  0.00  0.00     0.118 H 
ENDROOT
BRANCH   5   8
ATOM      8  C11 FQH d   1       2.859 -15.286 -49.297  0.00  0.00    -0.016 C 
ATOM      9  H7  FQH d   1       2.974 -16.378 -49.365  0.00  0.00     0.042 H 
ATOM     10  H8  FQH d   1       1.789 -15.029 -49.300  0.00  0.00     0.042 H 
BRANCH   8  11
ATOM     11  C10 FQH d   1       3.465 -14.816 -47.986  0.00  0.00     0.086 C 
ATOM     12  H9  FQH d   1       3.577 -13.722 -48.019  0.00  0.00     0.076 H 
ATOM     13  H10 FQH d   1       4.454 -15.282 -47.865  0.00  0.00     0.076 H 
BRANCH  11  14
ATOM     14  N   FQH d   1       2.632 -15.171 -46.835  0.00  0.00    -0.079 N 
ATOM     15  H11 FQH d   1       1.666 -15.120 -47.118  0.00  0.00     0.278 HD
BRANCH  14  16
ATOM     16  C9  FQH d   1       2.912 -16.530 -46.375  0.00  0.00     0.066 C 
ATOM     17  H12 FQH d   1       2.271 -16.764 -45.512  0.00  0.00     0.068 H 
ATOM     18  H13 FQH d   1       3.969 -16.607 -46.079  0.00  0.00     0.068 H 
ATOM     19  H14 FQH d   1       2.707 -17.242 -47.188  0.00  0.00     0.068 H 
ENDBRANCH  14  16
BRANCH  14  20
ATOM     20  C22 FQH d   1       2.843 -14.243 -45.725  0.00  0.00     0.066 C 
ATOM     21  H15 FQH d   1       2.635 -13.216 -46.061  0.00  0.00     0.068 H 
ATOM     22  H16 FQH d   1       3.886 -14.312 -45.382  0.00  0.00     0.068 H 
ATOM     23  H17 FQH d   1       2.167 -14.502 -44.897  0.00  0.00     0.068 H 
ENDBRANCH  14  20
ENDBRANCH  11  14
ENDBRANCH   8  11
ENDBRANCH   5   8
BRANCH   1  24
ATOM     24  C15 FQH d   1       5.485 -14.501 -53.467  0.00  0.00     0.180 A 
ATOM     25  N3  FQH d   1       5.668 -13.375 -54.158  0.00  0.00    -0.239 NA
ATOM     26  C16 FQH d   1       6.661 -13.351 -55.050  0.00  0.00     0.006 A 
ATOM     27  C17 FQH d   1       7.486 -14.421 -55.310  0.00  0.00    -0.048 A 
ATOM     28  H2  FQH d   1       6.827 -12.433 -55.603  0.00  0.00     0.114 H 
ATOM     29  C18 FQH d   1       7.238 -15.607 -54.631  0.00  0.00     0.066 A 
ATOM     30  H1  FQH d   1       8.301 -14.341 -56.020  0.00  0.00     0.087 H 
ATOM     31  C21 FQH d   1       8.011 -16.803 -54.939  0.00  0.00     0.259 A 
ATOM     32  C19 FQH d   1       6.204 -15.697 -53.689  0.00  0.00     0.121 A 
ATOM     33  O   FQH d   1       8.980 -16.803 -55.682  0.00  0.00    -0.267 OA
ATOM     34  N5  FQH d   1       7.612 -17.918 -54.299  0.00  0.00    -0.317 N 
ATOM     35  C20 FQH d   1       6.589 -17.930 -53.420  0.00  0.00     0.067 A 
ATOM     36  H3  FQH d   1       8.095 -18.774 -54.483  0.00  0.00     0.169 HD
ATOM     37  N4  FQH d   1       5.875 -16.884 -53.075  0.00  0.00    -0.239 NA
ATOM     38  H4  FQH d   1       6.335 -18.884 -52.960  0.00  0.00     0.143 H 
ENDBRANCH   1  24
TORSDOF 6
