REMARK  2 active torsions:
REMARK  status: ('A' for Active; 'I' for Inactive)
REMARK    1  A    between atoms: C14_3  and  N1_14 
REMARK    2  A    between atoms: C11_16  and  C10_17 
ROOT
ATOM      1  C14 FQ5 d   1       5.041 -15.435 -53.435  0.00  0.00     0.180 A 
ATOM      2  C15 FQ5 d   1       6.365 -14.373 -54.948  0.00  0.00     0.006 A 
ATOM      3  O   FQ5 d   1       8.354 -18.044 -55.593  0.00  0.00    -0.267 OA
ATOM      4  C20 FQ5 d   1       7.369 -17.957 -54.871  0.00  0.00     0.259 A 
ATOM      5  C17 FQ5 d   1       6.692 -16.696 -54.578  0.00  0.00     0.066 A 
ATOM      6  C16 FQ5 d   1       7.071 -15.524 -55.226  0.00  0.00    -0.048 A 
ATOM      7  N3  FQ5 d   1       5.357 -14.306 -54.073  0.00  0.00    -0.239 NA
ATOM      8  N5  FQ5 d   1       6.861 -19.039 -54.245  0.00  0.00    -0.317 N 
ATOM      9  C19 FQ5 d   1       5.816 -18.968 -53.392  0.00  0.00     0.067 A 
ATOM     10  N4  FQ5 d   1       5.185 -17.867 -53.062  0.00  0.00    -0.239 NA
ATOM     11  C18 FQ5 d   1       5.631 -16.704 -53.663  0.00  0.00     0.121 A 
ATOM     12  H2  FQ5 d   1       6.645 -13.466 -55.472  0.00  0.00     0.114 H 
ATOM     13  H3  FQ5 d   1       7.897 -15.517 -55.928  0.00  0.00     0.087 H 
ATOM     14  H4  FQ5 d   1       7.276 -19.932 -54.420  0.00  0.00     0.169 HD
ATOM     15  H5  FQ5 d   1       5.471 -19.898 -52.943  0.00  0.00     0.143 H 
ENDROOT
BRANCH   1  16
ATOM     16  N1  FQ5 d   1       4.169 -15.262 -52.335  0.00  0.00    -0.224 N 
ATOM     17  N2  FQ5 d   1       3.706 -14.021 -52.017  0.00  0.00    -0.178 NA
ATOM     18  C13 FQ5 d   1       3.020 -14.208 -50.904  0.00  0.00     0.029 A 
ATOM     19  C11 FQ5 d   1       3.021 -15.556 -50.492  0.00  0.00    -0.025 A 
ATOM     20  H1  FQ5 d   1       2.511 -13.410 -50.365  0.00  0.00     0.118 H 
ATOM     21  C12 FQ5 d   1       3.766 -16.192 -51.447  0.00  0.00     0.013 A 
ATOM     22  H6  FQ5 d   1       3.992 -17.257 -51.483  0.00  0.00     0.115 H 
BRANCH  19  23
ATOM     23  C10 FQ5 d   1       2.377 -16.182 -49.282  0.00  0.00    -0.049 C 
ATOM     24  H7  FQ5 d   1       1.847 -15.408 -48.707  0.00  0.00     0.033 H 
ATOM     25  H8  FQ5 d   1       3.152 -16.641 -48.651  0.00  0.00     0.033 H 
ATOM     26  H9  FQ5 d   1       1.662 -16.953 -49.605  0.00  0.00     0.033 H 
ENDBRANCH  19  23
ENDBRANCH   1  16
TORSDOF 2
