REMARK  3 active torsions:
REMARK  status: ('A' for Active; 'I' for Inactive)
REMARK    1  A    between atoms: C2_3  and  N3_6 
REMARK    2  A    between atoms: C8_12  and  C10_14 
REMARK    3  A    between atoms: N5_21  and  C15_22 
ROOT
ATOM      1  N3  FO2 d   1     -22.624 -15.284 -18.994  0.00  0.00    -0.224 N 
ATOM      2  N4  FO2 d   1     -21.791 -14.249 -19.283  0.00  0.00    -0.178 NA
ATOM      3  C7  FO2 d   1     -21.438 -14.459 -20.535  0.00  0.00     0.030 A 
ATOM      4  C8  FO2 d   1     -22.016 -15.607 -21.067  0.00  0.00    -0.017 A 
ATOM      5  C9  FO2 d   1     -22.763 -16.118 -20.036  0.00  0.00     0.014 A 
ATOM      6  H4  FO2 d   1     -20.768 -13.806 -21.092  0.00  0.00     0.118 H 
ATOM      7  H5  FO2 d   1     -23.358 -17.030 -20.059  0.00  0.00     0.115 H 
ENDROOT
BRANCH   4   8
ATOM      8  C10 FO2 d   1     -21.843 -16.095 -22.475  0.00  0.00    -0.023 C 
ATOM      9  C11 FO2 d   1     -22.464 -15.155 -23.501  0.00  0.00    -0.035 C 
ATOM     10  C12 FO2 d   1     -22.269 -15.731 -24.899  0.00  0.00     0.084 C 
ATOM     11  H7  FO2 d   1     -21.977 -14.171 -23.439  0.00  0.00     0.036 H 
ATOM     12  H8  FO2 d   1     -23.539 -15.046 -23.296  0.00  0.00     0.036 H 
ATOM     13  N5  FO2 d   1     -20.853 -15.914 -25.201  0.00  0.00    -0.075 N 
ATOM     14  H18 FO2 d   1     -22.707 -15.041 -25.636  0.00  0.00     0.076 H 
ATOM     15  H19 FO2 d   1     -22.778 -16.704 -24.960  0.00  0.00     0.076 H 
ATOM     16  C13 FO2 d   1     -20.269 -16.846 -24.243  0.00  0.00     0.084 C 
ATOM     17  H14 FO2 d   1     -20.386 -15.025 -25.114  0.00  0.00     0.279 HD
ATOM     18  C14 FO2 d   1     -20.376 -16.313 -22.825  0.00  0.00    -0.035 C 
ATOM     19  H12 FO2 d   1     -20.801 -17.807 -24.307  0.00  0.00     0.076 H 
ATOM     20  H13 FO2 d   1     -19.208 -16.997 -24.491  0.00  0.00     0.076 H 
ATOM     21  H10 FO2 d   1     -19.936 -17.039 -22.126  0.00  0.00     0.036 H 
ATOM     22  H11 FO2 d   1     -19.835 -15.358 -22.750  0.00  0.00     0.036 H 
ATOM     23  H6  FO2 d   1     -22.358 -17.064 -22.551  0.00  0.00     0.047 H 
BRANCH  13  24
ATOM     24  C15 FO2 d   1     -20.675 -16.398 -26.564  0.00  0.00     0.066 C 
ATOM     25  H15 FO2 d   1     -21.122 -15.681 -27.269  0.00  0.00     0.068 H 
ATOM     26  H16 FO2 d   1     -21.168 -17.375 -26.673  0.00  0.00     0.068 H 
ATOM     27  H17 FO2 d   1     -19.601 -16.502 -26.779  0.00  0.00     0.068 H 
ENDBRANCH  13  24
ENDBRANCH   4   8
BRANCH   1  28
ATOM     28  C2  FO2 d   1     -23.322 -15.283 -17.770  0.00  0.00     0.180 C 
ATOM     29  C3  FO2 d   1     -24.038 -16.429 -17.358  0.00  0.00     0.121 A 
ATOM     30  N2  FO2 d   1     -23.780 -17.683 -17.816  0.00  0.00    -0.239 NA
ATOM     31  C4  FO2 d   1     -25.011 -16.184 -16.383  0.00  0.00     0.066 A 
ATOM     32  C6  FO2 d   1     -24.497 -18.636 -17.330  0.00  0.00     0.067 A 
ATOM     33  N1  FO2 d   1     -25.479 -18.485 -16.438  0.00  0.00    -0.317 N 
ATOM     34  H3  FO2 d   1     -24.285 -19.647 -17.674  0.00  0.00     0.143 H 
ATOM     35  C5  FO2 d   1     -25.816 -17.302 -15.922  0.00  0.00     0.259 A 
ATOM     36  H2  FO2 d   1     -25.985 -19.296 -16.143  0.00  0.00     0.169 HD
ATOM     37  O   FO2 d   1     -26.792 -17.180 -15.210  0.00  0.00    -0.267 OA
ATOM     38  C   FO2 d   1     -25.161 -14.926 -15.820  0.00  0.00    -0.048 C 
ATOM     39  C1  FO2 d   1     -24.314 -13.932 -16.236  0.00  0.00     0.006 C 
ATOM     40  H9  FO2 d   1     -25.924 -14.735 -15.074  0.00  0.00     0.087 H 
ATOM     41  N   FO2 d   1     -23.405 -14.075 -17.203  0.00  0.00    -0.239 NA
ATOM     42  H1  FO2 d   1     -24.387 -12.967 -15.748  0.00  0.00     0.114 H 
ENDBRANCH   1  28
TORSDOF 3
