REMARK  6 active torsions:
REMARK  status: ('A' for Active; 'I' for Inactive)
REMARK    1  A    between atoms: C14_1  and  C15_2 
REMARK    2  A    between atoms: C13_19  and  C14_1 
REMARK    3  A    between atoms: N2_15  and  C18_3 
REMARK    4  A    between atoms: N1_20  and  C25_9 
REMARK    5  A    between atoms: C13_19  and  N1_20 
REMARK    6  A    between atoms: N1_20  and  C12_21 
ROOT
ATOM      1  C15 FQB d   1     -21.005 -14.767 -20.012  0.00  0.00    -0.020 A 
ATOM      2  N2  FQB d   1     -21.957 -14.428 -18.070  0.00  0.00    -0.224 N 
ATOM      3  C16 FQB d   1     -21.743 -15.358 -19.021  0.00  0.00     0.013 A 
ATOM      4  N3  FQB d   1     -21.378 -13.237 -18.386  0.00  0.00    -0.178 NA
ATOM      5  C17 FQB d   1     -20.813 -13.453 -19.557  0.00  0.00     0.030 A 
ATOM      6  H10 FQB d   1     -22.092 -16.389 -19.005  0.00  0.00     0.115 H 
ATOM      7  H11 FQB d   1     -20.259 -12.696 -20.110  0.00  0.00     0.118 H 
ENDROOT
BRANCH   1   8
ATOM      8  C14 FQB d   1     -20.515 -15.407 -21.285  0.00  0.00    -0.016 C 
ATOM      9  H1  FQB d   1     -20.861 -16.451 -21.307  0.00  0.00     0.042 H 
ATOM     10  H2  FQB d   1     -19.415 -15.385 -21.286  0.00  0.00     0.042 H 
BRANCH   8  11
ATOM     11  C13 FQB d   1     -21.013 -14.707 -22.540  0.00  0.00     0.086 C 
ATOM     12  H12 FQB d   1     -20.576 -13.698 -22.572  0.00  0.00     0.076 H 
ATOM     13  H13 FQB d   1     -22.109 -14.630 -22.483  0.00  0.00     0.076 H 
BRANCH  11  14
ATOM     14  N1  FQB d   1     -20.661 -15.405 -23.783  0.00  0.00    -0.079 N 
ATOM     15  H14 FQB d   1     -21.499 -15.832 -24.146  0.00  0.00     0.278 HD
BRANCH  14  16
ATOM     16  C25 FQB d   1     -20.139 -14.478 -24.789  0.00  0.00     0.066 C 
ATOM     17  H5  FQB d   1     -19.887 -15.034 -25.704  0.00  0.00     0.068 H 
ATOM     18  H6  FQB d   1     -19.237 -13.984 -24.399  0.00  0.00     0.068 H 
ATOM     19  H7  FQB d   1     -20.902 -13.720 -25.020  0.00  0.00     0.068 H 
ENDBRANCH  14  16
BRANCH  14  20
ATOM     20  C12 FQB d   1     -19.670 -16.456 -23.551  0.00  0.00     0.066 C 
ATOM     21  H15 FQB d   1     -19.433 -16.954 -24.503  0.00  0.00     0.068 H 
ATOM     22  H16 FQB d   1     -20.076 -17.193 -22.843  0.00  0.00     0.068 H 
ATOM     23  H17 FQB d   1     -18.755 -16.011 -23.133  0.00  0.00     0.068 H 
ENDBRANCH  14  20
ENDBRANCH  11  14
ENDBRANCH   8  11
ENDBRANCH   1   8
BRANCH   2  24
ATOM     24  C18 FQB d   1     -22.743 -14.540 -16.899  0.00  0.00     0.180 A 
ATOM     25  C22 FQB d   1     -23.423 -15.745 -16.605  0.00  0.00     0.121 A 
ATOM     26  C21 FQB d   1     -24.394 -15.647 -15.600  0.00  0.00     0.066 A 
ATOM     27  N5  FQB d   1     -23.118 -16.939 -17.213  0.00  0.00    -0.239 NA
ATOM     28  C20 FQB d   1     -24.614 -14.449 -14.931  0.00  0.00    -0.048 A 
ATOM     29  C24 FQB d   1     -25.130 -16.851 -15.225  0.00  0.00     0.259 A 
ATOM     30  C19 FQB d   1     -23.831 -13.370 -15.273  0.00  0.00     0.006 A 
ATOM     31  H4  FQB d   1     -25.377 -14.367 -14.165  0.00  0.00     0.087 H 
ATOM     32  N4  FQB d   1     -22.901 -13.394 -16.234  0.00  0.00    -0.239 NA
ATOM     33  H3  FQB d   1     -23.977 -12.443 -14.730  0.00  0.00     0.114 H 
ATOM     34  O   FQB d   1     -26.083 -16.848 -14.460  0.00  0.00    -0.267 OA
ATOM     35  N6  FQB d   1     -24.749 -17.971 -15.856  0.00  0.00    -0.317 N 
ATOM     36  C23 FQB d   1     -23.783 -17.986 -16.798  0.00  0.00     0.067 A 
ATOM     37  H8  FQB d   1     -25.200 -18.831 -15.618  0.00  0.00     0.169 HD
ATOM     38  H9  FQB d   1     -23.538 -18.947 -17.249  0.00  0.00     0.143 H 
ENDBRANCH   2  24
TORSDOF 6
