REMARK  4 active torsions:
REMARK  status: ('A' for Active; 'I' for Inactive)
REMARK    1  A    between atoms: C14_5  and  C15_6 
REMARK    2  A    between atoms: C13_22  and  C14_5 
REMARK    3  A    between atoms: N2_19  and  C18_18 
REMARK    4  A    between atoms: C13_22  and  N1_23 
ROOT
ATOM      1  C14 FQE d   1       2.683 -15.820 -49.570  0.00  0.00    -0.015 C 
ATOM      2  H8  FQE d   1       2.433 -16.877 -49.745  0.00  0.00     0.042 H 
ATOM      3  H9  FQE d   1       1.766 -15.262 -49.328  0.00  0.00     0.042 H 
ENDROOT
BRANCH   1   4
ATOM      4  C15 FQE d   1       3.272 -15.251 -50.834  0.00  0.00    -0.020 A 
ATOM      5  C16 FQE d   1       4.016 -15.914 -51.766  0.00  0.00     0.013 A 
ATOM      6  N2  FQE d   1       4.320 -15.034 -52.737  0.00  0.00    -0.224 N 
ATOM      7  H10 FQE d   1       4.309 -16.962 -51.730  0.00  0.00     0.115 H 
ATOM      8  N3  FQE d   1       3.794 -13.803 -52.489  0.00  0.00    -0.178 NA
ATOM      9  C17 FQE d   1       3.172 -13.947 -51.335  0.00  0.00     0.030 A 
ATOM     10  H16 FQE d   1       2.640 -13.143 -50.829  0.00  0.00     0.118 H 
BRANCH   6  11
ATOM     11  C18 FQE d   1       5.146 -15.227 -53.866  0.00  0.00     0.180 A 
ATOM     12  C22 FQE d   1       5.852 -16.428 -54.049  0.00  0.00     0.121 A 
ATOM     13  C21 FQE d   1       6.868 -16.378 -55.012  0.00  0.00     0.066 A 
ATOM     14  N5  FQE d   1       5.549 -17.577 -53.373  0.00  0.00    -0.239 NA
ATOM     15  C20 FQE d   1       7.118 -15.225 -55.741  0.00  0.00    -0.048 A 
ATOM     16  C24 FQE d   1       7.637 -17.583 -55.264  0.00  0.00     0.259 A 
ATOM     17  C19 FQE d   1       6.307 -14.145 -55.505  0.00  0.00     0.006 A 
ATOM     18  H11 FQE d   1       7.921 -15.180 -56.467  0.00  0.00     0.087 H 
ATOM     19  N4  FQE d   1       5.326 -14.132 -54.598  0.00  0.00    -0.239 NA
ATOM     20  H15 FQE d   1       6.472 -13.247 -56.090  0.00  0.00     0.114 H 
ATOM     21  N6  FQE d   1       7.258 -18.647 -54.561  0.00  0.00    -0.317 N 
ATOM     22  O   FQE d   1       8.589 -17.627 -56.025  0.00  0.00    -0.267 OA
ATOM     23  C23 FQE d   1       6.259 -18.621 -53.671  0.00  0.00     0.067 A 
ATOM     24  H1  FQE d   1       7.744 -19.509 -54.705  0.00  0.00     0.169 HD
ATOM     25  H12 FQE d   1       6.023 -19.551 -53.156  0.00  0.00     0.143 H 
ENDBRANCH   6  11
ENDBRANCH   1   4
BRANCH   1  26
ATOM     26  C13 FQE d   1       3.626 -15.736 -48.385  0.00  0.00     0.087 C 
ATOM     27  H17 FQE d   1       3.996 -14.704 -48.302  0.00  0.00     0.076 H 
ATOM     28  H18 FQE d   1       4.473 -16.416 -48.560  0.00  0.00     0.076 H 
BRANCH  26  29
ATOM     29  N1  FQE d   1       2.982 -16.105 -47.125  0.00  0.00    -0.071 N 
ATOM     30  C12 FQE d   1       2.788 -17.546 -47.019  0.00  0.00     0.084 C 
ATOM     31  C11 FQE d   1       1.978 -17.895 -45.778  0.00  0.00    -0.042 C 
ATOM     32  H6  FQE d   1       2.253 -17.904 -47.911  0.00  0.00     0.076 H 
ATOM     33  H7  FQE d   1       3.770 -18.038 -46.958  0.00  0.00     0.076 H 
ATOM     34  C10 FQE d   1       2.667 -17.387 -44.515  0.00  0.00    -0.062 C 
ATOM     35  H4  FQE d   1       0.983 -17.432 -45.856  0.00  0.00     0.035 H 
ATOM     36  H5  FQE d   1       1.870 -18.988 -45.714  0.00  0.00     0.035 H 
ATOM     37  C26 FQE d   1       2.984 -15.903 -44.677  0.00  0.00    -0.042 C 
ATOM     38  H2  FQE d   1       3.600 -17.947 -44.355  0.00  0.00     0.033 H 
ATOM     39  H3  FQE d   1       2.001 -17.529 -43.651  0.00  0.00     0.033 H 
ATOM     40  C25 FQE d   1       3.748 -15.648 -45.972  0.00  0.00     0.084 C 
ATOM     41  H20 FQE d   1       3.597 -15.571 -43.826  0.00  0.00     0.035 H 
ATOM     42  H21 FQE d   1       2.043 -15.334 -44.696  0.00  0.00     0.035 H 
ATOM     43  H13 FQE d   1       3.939 -14.569 -46.071  0.00  0.00     0.076 H 
ATOM     44  H14 FQE d   1       4.705 -16.189 -45.938  0.00  0.00     0.076 H 
ATOM     45  H19 FQE d   1       2.078 -15.661 -47.101  0.00  0.00     0.279 HD
ENDBRANCH  26  29
ENDBRANCH   1  26
TORSDOF 4
