REMARK  4 active torsions:
REMARK  status: ('A' for Active; 'I' for Inactive)
REMARK    1  A    between atoms: C14_5  and  C15_6 
REMARK    2  A    between atoms: C13_22  and  C14_5 
REMARK    3  A    between atoms: N2_19  and  C18_18 
REMARK    4  A    between atoms: C13_22  and  N1_23 
ROOT
ATOM      1  C10 FOW d   1     -19.816 -17.386 -25.886  0.00  0.00    -0.009 C 
ATOM      2  C11 FOW d   1     -20.635 -16.092 -25.742  0.00  0.00    -0.031 C 
ATOM      3  C12 FOW d   1     -21.288 -15.981 -24.379  0.00  0.00     0.085 C 
ATOM      4  C25 FOW d   1     -19.599 -17.323 -23.359  0.00  0.00     0.085 C 
ATOM      5  N1  FOW d   1     -20.292 -16.033 -23.313  0.00  0.00    -0.071 N 
ATOM      6  C26 FOW d   1     -18.872 -17.509 -24.677  0.00  0.00    -0.031 C 
ATOM      7  C1  FOW d   1     -20.720 -18.620 -25.994  0.00  0.00    -0.050 C 
ATOM      8  C2  FOW d   1     -19.062 -17.438 -27.199  0.00  0.00    -0.043 A 
ATOM      9  C4  FOW d   1     -19.196 -18.673 -27.811  0.00  0.00    -0.051 A 
ATOM     10  C5  FOW d   1     -20.089 -19.572 -27.005  0.00  0.00    -0.039 C 
ATOM     11  C3  FOW d   1     -18.300 -16.442 -27.790  0.00  0.00    -0.076 A 
ATOM     12  C6  FOW d   1     -18.551 -18.912 -29.017  0.00  0.00    -0.076 A 
ATOM     13  C8  FOW d   1     -17.788 -17.921 -29.604  0.00  0.00    -0.082 A 
ATOM     14  C9  FOW d   1     -17.665 -16.692 -28.994  0.00  0.00    -0.082 A 
ATOM     15  H2  FOW d   1     -21.419 -16.081 -26.513  0.00  0.00     0.037 H 
ATOM     16  H3  FOW d   1     -19.966 -15.231 -25.886  0.00  0.00     0.037 H 
ATOM     17  H4  FOW d   1     -21.995 -16.814 -24.251  0.00  0.00     0.076 H 
ATOM     18  H5  FOW d   1     -21.831 -15.026 -24.317  0.00  0.00     0.076 H 
ATOM     19  H11 FOW d   1     -20.336 -18.131 -23.239  0.00  0.00     0.076 H 
ATOM     20  H12 FOW d   1     -18.869 -17.367 -22.537  0.00  0.00     0.076 H 
ATOM     21  H17 FOW d   1     -19.619 -15.297 -23.459  0.00  0.00     0.279 HD
ATOM     22  H18 FOW d   1     -18.088 -16.741 -24.760  0.00  0.00     0.037 H 
ATOM     23  H19 FOW d   1     -18.410 -18.507 -24.689  0.00  0.00     0.037 H 
ATOM     24  H20 FOW d   1     -21.722 -18.321 -26.336  0.00  0.00     0.035 H 
ATOM     25  H21 FOW d   1     -20.799 -19.113 -25.014  0.00  0.00     0.035 H 
ATOM     26  H22 FOW d   1     -20.857 -20.038 -27.640  0.00  0.00     0.040 H 
ATOM     27  H23 FOW d   1     -19.506 -20.356 -26.499  0.00  0.00     0.040 H 
ATOM     28  H24 FOW d   1     -18.202 -15.474 -27.312  0.00  0.00     0.084 H 
ATOM     29  H25 FOW d   1     -18.646 -19.878 -29.499  0.00  0.00     0.084 H 
ATOM     30  H26 FOW d   1     -17.286 -18.111 -30.546  0.00  0.00     0.083 H 
ATOM     31  H27 FOW d   1     -17.068 -15.916 -29.460  0.00  0.00     0.083 H 
ENDROOT
BRANCH   5  32
ATOM     32  C13 FOW d   1     -20.930 -15.830 -22.013  0.00  0.00     0.087 C 
ATOM     33  H15 FOW d   1     -21.434 -14.852 -22.026  0.00  0.00     0.076 H 
ATOM     34  H16 FOW d   1     -21.676 -16.625 -21.868  0.00  0.00     0.076 H 
BRANCH  32  35
ATOM     35  C14 FOW d   1     -19.973 -15.855 -20.835  0.00  0.00    -0.015 C 
ATOM     36  H6  FOW d   1     -19.689 -16.898 -20.630  0.00  0.00     0.042 H 
ATOM     37  H7  FOW d   1     -19.075 -15.274 -21.093  0.00  0.00     0.042 H 
BRANCH  35  38
ATOM     38  C15 FOW d   1     -20.595 -15.266 -19.596  0.00  0.00    -0.020 A 
ATOM     39  C16 FOW d   1     -21.370 -15.912 -18.679  0.00  0.00     0.013 A 
ATOM     40  N2  FOW d   1     -21.754 -15.003 -17.764  0.00  0.00    -0.224 N 
ATOM     41  H8  FOW d   1     -21.630 -16.969 -18.686  0.00  0.00     0.115 H 
ATOM     42  N3  FOW d   1     -21.249 -13.768 -18.034  0.00  0.00    -0.178 NA
ATOM     43  C17 FOW d   1     -20.554 -13.942 -19.142  0.00  0.00     0.030 A 
ATOM     44  H14 FOW d   1     -20.010 -13.145 -19.647  0.00  0.00     0.118 H 
BRANCH  40  45
ATOM     45  C18 FOW d   1     -22.619 -15.182 -16.660  0.00  0.00     0.180 A 
ATOM     46  C22 FOW d   1     -23.340 -16.380 -16.474  0.00  0.00     0.121 A 
ATOM     47  C21 FOW d   1     -24.352 -16.323 -15.506  0.00  0.00     0.066 A 
ATOM     48  N5  FOW d   1     -23.035 -17.534 -17.136  0.00  0.00    -0.239 NA
ATOM     49  C20 FOW d   1     -24.586 -15.170 -14.768  0.00  0.00    -0.048 A 
ATOM     50  C24 FOW d   1     -25.115 -17.526 -15.238  0.00  0.00     0.259 A 
ATOM     51  C19 FOW d   1     -23.766 -14.095 -15.008  0.00  0.00     0.006 A 
ATOM     52  H9  FOW d   1     -25.382 -15.121 -14.034  0.00  0.00     0.087 H 
ATOM     53  N4  FOW d   1     -22.794 -14.087 -15.924  0.00  0.00    -0.239 NA
ATOM     54  H13 FOW d   1     -23.917 -13.198 -14.418  0.00  0.00     0.114 H 
ATOM     55  N6  FOW d   1     -24.732 -18.606 -15.932  0.00  0.00    -0.317 N 
ATOM     56  O   FOW d   1     -26.060 -17.566 -14.464  0.00  0.00    -0.267 OA
ATOM     57  C23 FOW d   1     -23.735 -18.582 -16.822  0.00  0.00     0.067 A 
ATOM     58  H1  FOW d   1     -25.213 -19.469 -15.777  0.00  0.00     0.169 HD
ATOM     59  H10 FOW d   1     -23.490 -19.517 -17.324  0.00  0.00     0.143 H 
ENDBRANCH  40  45
ENDBRANCH  35  38
ENDBRANCH  32  35
ENDBRANCH   5  32
TORSDOF 4
