REMARK  3 active torsions:
REMARK  status: ('A' for Active; 'I' for Inactive)
REMARK    1  A    between atoms: C2_3  and  N3_6 
REMARK    2  A    between atoms: C8_12  and  C10_14 
REMARK    3  A    between atoms: N5_21  and  C15_22 
ROOT
ATOM      1  N3  FO2 d   1     -23.244 -23.563 -19.230  0.00  0.00    -0.224 N 
ATOM      2  N4  FO2 d   1     -22.604 -22.408 -19.567  0.00  0.00    -0.178 NA
ATOM      3  C7  FO2 d   1     -22.126 -22.644 -20.774  0.00  0.00     0.030 A 
ATOM      4  C8  FO2 d   1     -22.431 -23.929 -21.244  0.00  0.00    -0.017 A 
ATOM      5  C9  FO2 d   1     -23.147 -24.493 -20.201  0.00  0.00     0.014 A 
ATOM      6  H4  FO2 d   1     -21.553 -21.916 -21.346  0.00  0.00     0.118 H 
ATOM      7  H5  FO2 d   1     -23.556 -25.502 -20.171  0.00  0.00     0.115 H 
ENDROOT
BRANCH   4   8
ATOM      8  C10 FO2 d   1     -22.070 -24.457 -22.608  0.00  0.00    -0.023 C 
ATOM      9  C11 FO2 d   1     -21.993 -25.983 -22.673  0.00  0.00    -0.035 C 
ATOM     10  C12 FO2 d   1     -21.602 -26.421 -24.081  0.00  0.00     0.084 C 
ATOM     11  H7  FO2 d   1     -22.974 -26.409 -22.417  0.00  0.00     0.036 H 
ATOM     12  H8  FO2 d   1     -21.239 -26.341 -21.956  0.00  0.00     0.036 H 
ATOM     13  N5  FO2 d   1     -22.564 -25.935 -25.072  0.00  0.00    -0.075 N 
ATOM     14  H18 FO2 d   1     -21.571 -27.520 -24.120  0.00  0.00     0.076 H 
ATOM     15  H19 FO2 d   1     -20.607 -26.018 -24.319  0.00  0.00     0.076 H 
ATOM     16  C13 FO2 d   1     -22.563 -24.472 -25.054  0.00  0.00     0.084 C 
ATOM     17  H14 FO2 d   1     -23.484 -26.266 -24.827  0.00  0.00     0.279 HD
ATOM     18  C14 FO2 d   1     -23.012 -23.946 -23.699  0.00  0.00    -0.035 C 
ATOM     19  H12 FO2 d   1     -21.545 -24.110 -25.262  0.00  0.00     0.076 H 
ATOM     20  H13 FO2 d   1     -23.250 -24.102 -25.830  0.00  0.00     0.076 H 
ATOM     21  H10 FO2 d   1     -22.995 -22.846 -23.710  0.00  0.00     0.036 H 
ATOM     22  H11 FO2 d   1     -24.034 -24.295 -23.492  0.00  0.00     0.036 H 
ATOM     23  H6  FO2 d   1     -21.065 -24.073 -22.837  0.00  0.00     0.047 H 
BRANCH  13  24
ATOM     24  C15 FO2 d   1     -22.226 -26.434 -26.408  0.00  0.00     0.066 C 
ATOM     25  H15 FO2 d   1     -22.232 -27.534 -26.401  0.00  0.00     0.068 H 
ATOM     26  H16 FO2 d   1     -21.226 -26.075 -26.691  0.00  0.00     0.068 H 
ATOM     27  H17 FO2 d   1     -22.967 -26.068 -27.134  0.00  0.00     0.068 H 
ENDBRANCH  13  24
ENDBRANCH   4   8
BRANCH   1  28
ATOM     28  C2  FO2 d   1     -23.961 -23.632 -18.011  0.00  0.00     0.180 A 
ATOM     29  C3  FO2 d   1     -24.678 -24.798 -17.613  0.00  0.00     0.121 A 
ATOM     30  N2  FO2 d   1     -24.432 -26.035 -18.154  0.00  0.00    -0.239 NA
ATOM     31  C4  FO2 d   1     -25.618 -24.608 -16.592  0.00  0.00     0.066 A 
ATOM     32  C6  FO2 d   1     -25.133 -27.027 -17.668  0.00  0.00     0.067 A 
ATOM     33  N1  FO2 d   1     -26.082 -26.915 -16.717  0.00  0.00    -0.317 N 
ATOM     34  H3  FO2 d   1     -24.934 -28.022 -18.063  0.00  0.00     0.143 H 
ATOM     35  C5  FO2 d   1     -26.400 -25.755 -16.143  0.00  0.00     0.259 A 
ATOM     36  H2  FO2 d   1     -26.569 -27.739 -16.429  0.00  0.00     0.169 HD
ATOM     37  O   FO2 d   1     -27.337 -25.666 -15.363  0.00  0.00    -0.267 OA
ATOM     38  C   FO2 d   1     -25.774 -23.373 -15.977  0.00  0.00    -0.048 A 
ATOM     39  C1  FO2 d   1     -24.960 -22.348 -16.397  0.00  0.00     0.006 A 
ATOM     40  H9  FO2 d   1     -26.510 -23.223 -15.195  0.00  0.00     0.087 H 
ATOM     41  N   FO2 d   1     -24.070 -22.458 -17.386  0.00  0.00    -0.239 NA
ATOM     42  H1  FO2 d   1     -25.046 -21.392 -15.894  0.00  0.00     0.114 H 
ENDBRANCH   1  28
TORSDOF 3
