REMARK  2 active torsions:
REMARK  status: ('A' for Active; 'I' for Inactive)
REMARK    1  A    between atoms: C8_3  and  C10_8 
REMARK    2  A    between atoms: C2_15  and  N3_18 
ROOT
ATOM      1  C7  FQN d   1       3.693 -16.971 -51.480  0.00  0.00     0.030 A 
ATOM      2  C8  FQN d   1       4.119 -18.190 -50.917  0.00  0.00    -0.017 A 
ATOM      3  C9  FQN d   1       4.841 -18.782 -51.906  0.00  0.00     0.014 A 
ATOM      4  N3  FQN d   1       4.849 -17.946 -52.960  0.00  0.00    -0.224 N 
ATOM      5  N4  FQN d   1       4.129 -16.815 -52.717  0.00  0.00    -0.178 NA
ATOM      6  H1  FQN d   1       3.076 -16.242 -50.956  0.00  0.00     0.118 H 
ATOM      7  H7  FQN d   1       5.325 -19.756 -51.854  0.00  0.00     0.115 H 
ENDROOT
BRANCH   2   8
ATOM      8  C10 FQN d   1       3.920 -18.760 -49.543  0.00  0.00    -0.023 C 
ATOM      9  C11 FQN d   1       2.588 -19.485 -49.362  0.00  0.00    -0.035 C 
ATOM     10  C12 FQN d   1       2.554 -20.132 -47.986  0.00  0.00     0.082 C 
ATOM     11  H4  FQN d   1       2.483 -20.260 -50.136  0.00  0.00     0.036 H 
ATOM     12  H5  FQN d   1       1.762 -18.764 -49.450  0.00  0.00     0.036 H 
ATOM     13  N5  FQN d   1       2.734 -19.138 -46.921  0.00  0.00    -0.075 N 
ATOM     14  H16 FQN d   1       3.361 -20.876 -47.921  0.00  0.00     0.075 H 
ATOM     15  H17 FQN d   1       1.583 -20.631 -47.849  0.00  0.00     0.075 H 
ATOM     16  C13 FQN d   1       4.027 -18.464 -47.085  0.00  0.00     0.082 C 
ATOM     17  H14 FQN d   1       1.993 -18.457 -46.970  0.00  0.00     0.277 HD
ATOM     18  H15 FQN d   1       2.708 -19.599 -46.025  0.00  0.00     0.277 HD
ATOM     19  C14 FQN d   1       4.108 -17.743 -48.421  0.00  0.00    -0.035 C 
ATOM     20  H12 FQN d   1       4.155 -17.732 -46.274  0.00  0.00     0.075 H 
ATOM     21  H13 FQN d   1       4.831 -19.213 -47.033  0.00  0.00     0.075 H 
ATOM     22  H8  FQN d   1       3.317 -16.980 -48.477  0.00  0.00     0.036 H 
ATOM     23  H9  FQN d   1       5.091 -17.260 -48.521  0.00  0.00     0.036 H 
ATOM     24  H6  FQN d   1       4.708 -19.516 -49.416  0.00  0.00     0.047 H 
ENDBRANCH   2   8
BRANCH   4  25
ATOM     25  C2  FQN d   1       5.557 -18.105 -54.172  0.00  0.00     0.180 A 
ATOM     26  C3  FQN d   1       6.305 -19.291 -54.414  0.00  0.00     0.121 A 
ATOM     27  C4  FQN d   1       7.264 -19.192 -55.430  0.00  0.00     0.066 A 
ATOM     28  N2  FQN d   1       6.061 -20.470 -53.747  0.00  0.00    -0.239 NA
ATOM     29  C5  FQN d   1       8.057 -20.373 -55.758  0.00  0.00     0.259 A 
ATOM     30  C   FQN d   1       7.415 -18.018 -56.158  0.00  0.00    -0.048 A 
ATOM     31  N1  FQN d   1       7.737 -21.486 -55.066  0.00  0.00    -0.317 N 
ATOM     32  O   FQN d   1       8.987 -20.363 -56.554  0.00  0.00    -0.267 OA
ATOM     33  C6  FQN d   1       6.776 -21.504 -54.116  0.00  0.00     0.067 A 
ATOM     34  H2  FQN d   1       8.231 -22.332 -55.264  0.00  0.00     0.169 HD
ATOM     35  H3  FQN d   1       6.580 -22.453 -53.618  0.00  0.00     0.143 H 
ATOM     36  C1  FQN d   1       6.572 -16.968 -55.867  0.00  0.00     0.006 A 
ATOM     37  H10 FQN d   1       8.171 -17.931 -56.930  0.00  0.00     0.087 H 
ATOM     38  N   FQN d   1       5.646 -16.995 -54.903  0.00  0.00    -0.239 NA
ATOM     39  H11 FQN d   1       6.665 -16.063 -56.457  0.00  0.00     0.114 H 
ENDBRANCH   4  25
TORSDOF 2
