REMARK  6 active torsions:
REMARK  status: ('A' for Active; 'I' for Inactive)
REMARK    1  A    between atoms: N3_21  and  C2_2 
REMARK    2  A    between atoms: C10_10  and  C8_8 
REMARK    3  A    between atoms: C11_11  and  C10_10 
REMARK    4  A    between atoms: N5_19  and  C11_11 
REMARK    5  A    between atoms: C14_15  and  C17_14 
REMARK    6  A    between atoms: C14_15  and  C23_16 
ROOT
ATOM      1  C11 FQQ d   1      78.547 -17.632  22.335  0.00  0.00     0.087 C 
ATOM      2  H7  FQQ d   1      78.688 -16.541  22.337  0.00  0.00     0.076 H 
ATOM      3  H8  FQQ d   1      79.527 -18.128  22.277  0.00  0.00     0.076 H 
ENDROOT
BRANCH   1   4
ATOM      4  C10 FQQ d   1      77.732 -18.017  21.112  0.00  0.00    -0.015 C 
ATOM      5  H5  FQQ d   1      77.733 -19.113  21.022  0.00  0.00     0.042 H 
ATOM      6  H6  FQQ d   1      76.701 -17.661  21.253  0.00  0.00     0.042 H 
BRANCH   4   7
ATOM      7  C8  FQQ d   1      78.271 -17.431  19.832  0.00  0.00    -0.020 A 
ATOM      8  C7  FQQ d   1      78.042 -16.157  19.274  0.00  0.00     0.030 A 
ATOM      9  N4  FQQ d   1      78.714 -15.975  18.151  0.00  0.00    -0.178 NA
ATOM     10  H3  FQQ d   1      77.387 -15.409  19.717  0.00  0.00     0.118 H 
ATOM     11  N3  FQQ d   1      79.389 -17.145  17.979  0.00  0.00    -0.224 N 
ATOM     12  C9  FQQ d   1      79.130 -18.028  18.963  0.00  0.00     0.013 A 
ATOM     13  H4  FQQ d   1      79.534 -19.036  19.047  0.00  0.00     0.115 H 
BRANCH  11  14
ATOM     14  C2  FQQ d   1      80.244 -17.310  16.906  0.00  0.00     0.180 A 
ATOM     15  C3  FQQ d   1      80.944 -18.521  16.629  0.00  0.00     0.121 A 
ATOM     16  C4  FQQ d   1      81.966 -18.497  15.670  0.00  0.00     0.066 A 
ATOM     17  N2  FQQ d   1      80.564 -19.676  17.280  0.00  0.00    -0.239 NA
ATOM     18  C5  FQQ d   1      82.686 -19.740  15.348  0.00  0.00     0.259 A 
ATOM     19  C   FQQ d   1      82.250 -17.310  15.006  0.00  0.00    -0.048 A 
ATOM     20  N1  FQQ d   1      82.215 -20.815  16.063  0.00  0.00    -0.317 N 
ATOM     21  O   FQQ d   1      83.590 -19.800  14.524  0.00  0.00    -0.267 OA
ATOM     22  C6  FQQ d   1      81.215 -20.754  16.957  0.00  0.00     0.067 A 
ATOM     23  H24 FQQ d   1      82.647 -21.703  15.907  0.00  0.00     0.169 HD
ATOM     24  H2  FQQ d   1      80.926 -21.681  17.451  0.00  0.00     0.143 H 
ATOM     25  C1  FQQ d   1      81.490 -16.202  15.315  0.00  0.00     0.006 A 
ATOM     26  H25 FQQ d   1      83.043 -17.257  14.269  0.00  0.00     0.087 H 
ATOM     27  N   FQQ d   1      80.509 -16.186  16.228  0.00  0.00    -0.239 NA
ATOM     28  H1  FQQ d   1      81.700 -15.281  14.783  0.00  0.00     0.114 H 
ENDBRANCH  11  14
ENDBRANCH   4   7
ENDBRANCH   1   4
BRANCH   1  29
ATOM     29  N5  FQQ d   1      77.896 -18.023  23.583  0.00  0.00    -0.071 N 
ATOM     30  C12 FQQ d   1      77.474 -19.421  23.544  0.00  0.00     0.084 C 
ATOM     31  C13 FQQ d   1      76.675 -19.787  24.783  0.00  0.00    -0.036 C 
ATOM     32  H9  FQQ d   1      76.849 -19.583  22.653  0.00  0.00     0.076 H 
ATOM     33  H10 FQQ d   1      78.365 -20.064  23.489  0.00  0.00     0.076 H 
ATOM     34  C14 FQQ d   1      77.425 -19.500  26.095  0.00  0.00    -0.045 C 
ATOM     35  H11 FQQ d   1      76.440 -20.861  24.743  0.00  0.00     0.036 H 
ATOM     36  H12 FQQ d   1      75.741 -19.207  24.780  0.00  0.00     0.036 H 
ATOM     37  C15 FQQ d   1      78.048 -18.096  26.024  0.00  0.00    -0.036 C 
ATOM     38  C16 FQQ d   1      78.781 -17.842  24.720  0.00  0.00     0.084 C 
ATOM     39  H19 FQQ d   1      78.760 -17.985  26.855  0.00  0.00     0.036 H 
ATOM     40  H20 FQQ d   1      77.246 -17.350  26.127  0.00  0.00     0.036 H 
ATOM     41  H21 FQQ d   1      79.622 -18.546  24.637  0.00  0.00     0.076 H 
ATOM     42  H22 FQQ d   1      79.164 -16.811  24.717  0.00  0.00     0.076 H 
ATOM     43  H23 FQQ d   1      77.082 -17.442  23.710  0.00  0.00     0.279 HD
BRANCH  34  44
ATOM     44  C17 FQQ d   1      76.528 -19.604  27.309  0.00  0.00    -0.069 C 
ATOM     45  H13 FQQ d   1      77.112 -19.390  28.216  0.00  0.00     0.028 H 
ATOM     46  H14 FQQ d   1      76.112 -20.620  27.372  0.00  0.00     0.028 H 
ATOM     47  H15 FQQ d   1      75.707 -18.877  27.222  0.00  0.00     0.028 H 
ENDBRANCH  34  44
BRANCH  34  48
ATOM     48  C23 FQQ d   1      78.553 -20.523  26.259  0.00  0.00    -0.069 C 
ATOM     49  H16 FQQ d   1      79.224 -20.471  25.389  0.00  0.00     0.028 H 
ATOM     50  H17 FQQ d   1      78.124 -21.533  26.332  0.00  0.00     0.028 H 
ATOM     51  H18 FQQ d   1      79.121 -20.299  27.174  0.00  0.00     0.028 H 
ENDBRANCH  34  48
ENDBRANCH   1  29
TORSDOF 6
