REMARK  4 active torsions:
REMARK  status: ('A' for Active; 'I' for Inactive)
REMARK    1  A    between atoms: N3_16  and  C6_5 
REMARK    2  A    between atoms: C8_8  and  C9_9 
REMARK    3  A    between atoms: C9_9  and  C10_10 
REMARK    4  A    between atoms: C10_10  and  N4_19 
ROOT
ATOM      1  C7  FNQ d   1       4.553 -15.239 -51.274  0.00  0.00     0.013 A 
ATOM      2  C8  FNQ d   1       3.714 -14.653 -50.366  0.00  0.00    -0.020 A 
ATOM      3  N3  FNQ d   1       4.816 -14.327 -52.231  0.00  0.00    -0.224 N 
ATOM      4  N6  FNQ d   1       4.172 -13.149 -51.998  0.00  0.00    -0.178 NA
ATOM      5  C27 FNQ d   1       3.512 -13.359 -50.874  0.00  0.00     0.030 A 
ATOM      6  H3  FNQ d   1       4.938 -16.257 -51.231  0.00  0.00     0.115 H 
ATOM      7  H10 FNQ d   1       2.881 -12.612 -50.394  0.00  0.00     0.118 H 
ENDROOT
BRANCH   3   8
ATOM      8  C6  FNQ d   1       5.686 -14.476 -53.347  0.00  0.00     0.180 A 
ATOM      9  C2  FNQ d   1       6.313 -15.719 -53.595  0.00  0.00     0.121 A 
ATOM     10  C3  FNQ d   1       7.322 -15.695 -54.567  0.00  0.00     0.066 A 
ATOM     11  N1  FNQ d   1       5.936 -16.879 -52.959  0.00  0.00    -0.239 NA
ATOM     12  C4  FNQ d   1       7.638 -14.523 -55.245  0.00  0.00    -0.048 A 
ATOM     13  C   FNQ d   1       8.007 -16.943 -54.891  0.00  0.00     0.259 A 
ATOM     14  C5  FNQ d   1       6.912 -13.393 -54.942  0.00  0.00     0.006 A 
ATOM     15  H1  FNQ d   1       8.428 -14.500 -55.986  0.00  0.00     0.087 H 
ATOM     16  N2  FNQ d   1       5.946 -13.350 -54.020  0.00  0.00    -0.239 NA
ATOM     17  H2  FNQ d   1       7.138 -12.482 -55.485  0.00  0.00     0.114 H 
ATOM     18  O   FNQ d   1       8.926 -17.022 -55.696  0.00  0.00    -0.267 OA
ATOM     19  N   FNQ d   1       7.570 -18.023 -54.223  0.00  0.00    -0.317 N 
ATOM     20  C1  FNQ d   1       6.579 -17.967 -53.312  0.00  0.00     0.067 A 
ATOM     21  H9  FNQ d   1       7.999 -18.907 -54.410  0.00  0.00     0.169 HD
ATOM     22  H4  FNQ d   1       6.288 -18.899 -52.830  0.00  0.00     0.143 H 
ENDBRANCH   3   8
BRANCH   2  23
ATOM     23  C9  FNQ d   1       3.170 -15.271 -49.104  0.00  0.00    -0.016 C 
ATOM     24  H5  FNQ d   1       3.135 -16.363 -49.233  0.00  0.00     0.042 H 
ATOM     25  H6  FNQ d   1       2.152 -14.889 -48.935  0.00  0.00     0.042 H 
BRANCH  23  26
ATOM     26  C10 FNQ d   1       4.017 -14.953 -47.883  0.00  0.00     0.084 C 
ATOM     27  H7  FNQ d   1       4.089 -13.860 -47.782  0.00  0.00     0.075 H 
ATOM     28  H8  FNQ d   1       5.022 -15.374 -48.035  0.00  0.00     0.075 H 
BRANCH  26  29
ATOM     29  N4  FNQ d   1       3.465 -15.501 -46.640  0.00  0.00    -0.079 N 
ATOM     30  H11 FNQ d   1       4.067 -15.258 -45.869  0.00  0.00     0.274 HD
ATOM     31  H12 FNQ d   1       3.402 -16.504 -46.714  0.00  0.00     0.274 HD
ATOM     32  H13 FNQ d   1       2.546 -15.117 -46.482  0.00  0.00     0.274 HD
ENDBRANCH  26  29
ENDBRANCH  23  26
ENDBRANCH   2  23
TORSDOF 4
