REMARK  4 active torsions:
REMARK  status: ('A' for Active; 'I' for Inactive)
REMARK    1  A    between atoms: C6_7  and  N3_12 
REMARK    2  A    between atoms: C8_15  and  C9_17 
REMARK    3  A    between atoms: C9_17  and  C10_18 
REMARK    4  A    between atoms: C10_18  and  N4_19 
ROOT
ATOM      1  N3  FO8 d   1       4.745 -13.240 -52.441  0.00  0.00    -0.224 N 
ATOM      2  N6  FO8 d   1       4.174 -12.038 -52.146  0.00  0.00    -0.178 NA
ATOM      3  C28 FO8 d   1       3.538 -12.252 -51.008  0.00  0.00     0.030 A 
ATOM      4  C8  FO8 d   1       3.685 -13.570 -50.550  0.00  0.00    -0.020 A 
ATOM      5  C7  FO8 d   1       4.463 -14.170 -51.506  0.00  0.00     0.013 A 
ATOM      6  H5  FO8 d   1       2.963 -11.490 -50.484  0.00  0.00     0.118 H 
ATOM      7  H6  FO8 d   1       4.793 -15.208 -51.510  0.00  0.00     0.115 H 
ENDROOT
BRANCH   1   8
ATOM      8  C6  FO8 d   1       5.565 -13.391 -53.592  0.00  0.00     0.180 A 
ATOM      9  N2  FO8 d   1       5.725 -12.284 -54.324  0.00  0.00    -0.239 NA
ATOM     10  C5  FO8 d   1       6.653 -12.305 -55.286  0.00  0.00     0.006 A 
ATOM     11  C4  FO8 d   1       7.438 -13.397 -55.573  0.00  0.00    -0.048 A 
ATOM     12  H2  FO8 d   1       6.795 -11.407 -55.876  0.00  0.00     0.114 H 
ATOM     13  C3  FO8 d   1       7.223 -14.555 -54.834  0.00  0.00     0.066 A 
ATOM     14  H1  FO8 d   1       8.196 -13.357 -56.347  0.00  0.00     0.087 H 
ATOM     15  C   FO8 d   1       7.968 -15.771 -55.137  0.00  0.00     0.259 A 
ATOM     16  C2  FO8 d   1       6.256 -14.601 -53.821  0.00  0.00     0.121 A 
ATOM     17  O   FO8 d   1       8.886 -15.820 -55.946  0.00  0.00    -0.267 OA
ATOM     18  N   FO8 d   1       7.613 -16.846 -54.426  0.00  0.00    -0.317 N 
ATOM     19  C1  FO8 d   1       6.654 -16.815 -53.483  0.00  0.00     0.067 A 
ATOM     20  H4  FO8 d   1       8.081 -17.712 -54.603  0.00  0.00     0.169 HD
ATOM     21  N1  FO8 d   1       5.970 -15.755 -53.135  0.00  0.00    -0.239 NA
ATOM     22  H3  FO8 d   1       6.429 -17.747 -52.968  0.00  0.00     0.143 H 
ENDBRANCH   1   8
BRANCH   4  23
ATOM     23  C9  FO8 d   1       3.146 -14.200 -49.290  0.00  0.00    -0.016 C 
ATOM     24  H7  FO8 d   1       3.264 -15.291 -49.364  0.00  0.00     0.042 H 
ATOM     25  H8  FO8 d   1       2.078 -13.952 -49.201  0.00  0.00     0.042 H 
BRANCH  23  26
ATOM     26  C10 FO8 d   1       3.863 -13.717 -48.039  0.00  0.00     0.084 C 
ATOM     27  H9  FO8 d   1       3.713 -12.631 -47.948  0.00  0.00     0.075 H 
ATOM     28  H10 FO8 d   1       4.937 -13.931 -48.148  0.00  0.00     0.075 H 
BRANCH  26  29
ATOM     29  N4  FO8 d   1       3.383 -14.358 -46.811  0.00  0.00    -0.079 N 
ATOM     30  H11 FO8 d   1       3.895 -13.997 -46.021  0.00  0.00     0.274 HD
ATOM     31  H12 FO8 d   1       3.523 -15.354 -46.875  0.00  0.00     0.274 HD
ATOM     32  H13 FO8 d   1       2.401 -14.163 -46.692  0.00  0.00     0.274 HD
ENDBRANCH  26  29
ENDBRANCH  23  26
ENDBRANCH   4  23
TORSDOF 4
