REMARK  5 active torsions:
REMARK  status: ('A' for Active; 'I' for Inactive)
REMARK    1  A    between atoms: C6_5  and  C4_4 
REMARK    2  A    between atoms: N1_19  and  C14_7 
REMARK    3  A    between atoms: C10_22  and  C11_21 
REMARK    4  A    between atoms: C9_23  and  C10_22 
REMARK    5  A    between atoms: N_24  and  C9_23 
ROOT
ATOM      1  C9  FQ5 d   1      82.014  61.913  12.988  0.00  0.00     0.087 C 
ATOM      2  H14 FQ5 d   1      81.214  62.634  13.212  0.00  0.00     0.076 H 
ATOM      3  H15 FQ5 d   1      82.780  61.958  13.776  0.00  0.00     0.076 H 
ENDROOT
BRANCH   1   4
ATOM      4  C10 FQ5 d   1      82.660  62.313  11.674  0.00  0.00    -0.015 C 
ATOM      5  H12 FQ5 d   1      83.412  61.557  11.404  0.00  0.00     0.042 H 
ATOM      6  H13 FQ5 d   1      81.884  62.354  10.895  0.00  0.00     0.042 H 
BRANCH   4   7
ATOM      7  C11 FQ5 d   1      83.333  63.658  11.760  0.00  0.00    -0.020 A 
ATOM      8  C13 FQ5 d   1      82.798  64.933  11.513  0.00  0.00     0.030 A 
ATOM      9  N2  FQ5 d   1      83.685  65.892  11.688  0.00  0.00    -0.178 NA
ATOM     10  H4  FQ5 d   1      81.767  65.109  11.211  0.00  0.00     0.118 H 
ATOM     11  N1  FQ5 d   1      84.815  65.234  12.065  0.00  0.00    -0.224 N 
ATOM     12  C12 FQ5 d   1      84.628  63.902  12.109  0.00  0.00     0.013 A 
ATOM     13  H11 FQ5 d   1      85.375  63.155  12.375  0.00  0.00     0.115 H 
BRANCH  11  14
ATOM     14  C14 FQ5 d   1      85.973  65.959  12.417  0.00  0.00     0.180 A 
ATOM     15  N3  FQ5 d   1      85.809  67.276  12.383  0.00  0.00    -0.239 NA
ATOM     16  C15 FQ5 d   1      86.739  68.037  12.966  0.00  0.00     0.006 A 
ATOM     17  C16 FQ5 d   1      87.850  67.539  13.603  0.00  0.00    -0.048 A 
ATOM     18  H5  FQ5 d   1      86.609  69.113  12.935  0.00  0.00     0.114 H 
ATOM     19  C17 FQ5 d   1      88.033  66.162  13.589  0.00  0.00     0.066 A 
ATOM     20  H8  FQ5 d   1      88.557  68.196  14.098  0.00  0.00     0.087 H 
ATOM     21  C20 FQ5 d   1      89.218  65.573  14.194  0.00  0.00     0.259 A 
ATOM     22  C18 FQ5 d   1      87.115  65.314  12.953  0.00  0.00     0.121 A 
ATOM     23  O   FQ5 d   1      90.006  66.202  14.882  0.00  0.00    -0.267 OA
ATOM     24  N5  FQ5 d   1      89.351  64.267  14.018  0.00  0.00    -0.317 N 
ATOM     25  C19 FQ5 d   1      88.444  63.524  13.353  0.00  0.00     0.067 A 
ATOM     26  H9  FQ5 d   1      90.159  63.813  14.394  0.00  0.00     0.169 HD
ATOM     27  N4  FQ5 d   1      87.334  63.974  12.829  0.00  0.00    -0.239 NA
ATOM     28  H10 FQ5 d   1      88.653  62.461  13.243  0.00  0.00     0.143 H 
ENDBRANCH  11  14
ENDBRANCH   4   7
ENDBRANCH   1   4
BRANCH   1  29
ATOM     29  N   FQ5 d   1      81.432  60.567  12.991  0.00  0.00    -0.071 N 
ATOM     30  C8  FQ5 d   1      80.063  60.585  12.478  0.00  0.00     0.084 C 
ATOM     31  C7  FQ5 d   1      79.505  59.174  12.375  0.00  0.00    -0.035 C 
ATOM     32  H17 FQ5 d   1      80.058  61.048  11.480  0.00  0.00     0.076 H 
ATOM     33  H18 FQ5 d   1      79.431  61.174  13.159  0.00  0.00     0.076 H 
ATOM     34  C6  FQ5 d   1      79.519  58.477  13.735  0.00  0.00    -0.025 C 
ATOM     35  H19 FQ5 d   1      78.470  59.223  12.007  0.00  0.00     0.036 H 
ATOM     36  H20 FQ5 d   1      80.118  58.596  11.668  0.00  0.00     0.036 H 
ATOM     37  C22 FQ5 d   1      80.921  58.572  14.336  0.00  0.00    -0.035 C 
ATOM     38  H3  FQ5 d   1      78.827  59.016  14.399  0.00  0.00     0.047 H 
ATOM     39  C21 FQ5 d   1      81.418  60.010  14.343  0.00  0.00     0.084 C 
ATOM     40  H6  FQ5 d   1      81.610  57.957  13.739  0.00  0.00     0.036 H 
ATOM     41  H7  FQ5 d   1      80.895  58.196  15.369  0.00  0.00     0.036 H 
ATOM     42  H21 FQ5 d   1      82.438  60.036  14.753  0.00  0.00     0.076 H 
ATOM     43  H22 FQ5 d   1      80.753  60.617  14.975  0.00  0.00     0.076 H 
ATOM     44  H16 FQ5 d   1      81.994  59.975  12.399  0.00  0.00     0.279 HD
BRANCH  34  45
ATOM     45  C4  FQ5 d   1      79.038  57.044  13.645  0.00  0.00    -0.052 A 
ATOM     46  C3  FQ5 d   1      77.802  56.673  14.149  0.00  0.00    -0.076 A 
ATOM     47  C2  FQ5 d   1      77.369  55.362  14.060  0.00  0.00    -0.081 A 
ATOM     48  H2  FQ5 d   1      77.168  57.417  14.618  0.00  0.00     0.084 H 
ATOM     49  C1  FQ5 d   1      78.164  54.403  13.462  0.00  0.00    -0.062 A 
ATOM     50  H24 FQ5 d   1      76.401  55.086  14.462  0.00  0.00     0.083 H 
ATOM     51  C   FQ5 d   1      79.388  54.782  12.962  0.00  0.00     0.034 A 
ATOM     52  H1  FQ5 d   1      77.830  53.374  13.389  0.00  0.00     0.086 H 
ATOM     53  C5  FQ5 d   1      79.836  56.081  13.047  0.00  0.00    -0.056 A 
ATOM     54 CL   FQ5 d   1      80.398  53.596  12.192  0.00  0.00    -0.084 Cl
ATOM     55  H23 FQ5 d   1      80.808  56.349  12.648  0.00  0.00     0.086 H 
ENDBRANCH  34  45
ENDBRANCH   1  29
TORSDOF 5
