REMARK  2 active torsions:
REMARK  status: ('A' for Active; 'I' for Inactive)
REMARK    1  A    between atoms: C2_3  and  N3_6 
REMARK    2  A    between atoms: C8_12  and  C10_14 
ROOT
ATOM      1  N3  FO2 d   1      83.601  64.251  12.088  0.00  0.00    -0.224 N 
ATOM      2  N4  FO2 d   1      82.447  64.950  11.903  0.00  0.00    -0.178 NA
ATOM      3  C7  FO2 d   1      81.538  64.019  11.682  0.00  0.00     0.030 A 
ATOM      4  C8  FO2 d   1      82.078  62.720  11.714  0.00  0.00    -0.017 A 
ATOM      5  C9  FO2 d   1      83.409  62.923  11.975  0.00  0.00     0.014 A 
ATOM      6  H4  FO2 d   1      80.487  64.233  11.495  0.00  0.00     0.118 H 
ATOM      7  H5  FO2 d   1      84.171  62.151  12.073  0.00  0.00     0.115 H 
ENDROOT
BRANCH   4   8
ATOM      8  C10 FO2 d   1      81.343  61.422  11.536  0.00  0.00    -0.023 C 
ATOM      9  C11 FO2 d   1      81.070  60.732  12.873  0.00  0.00    -0.035 C 
ATOM     10  C12 FO2 d   1      80.320  59.429  12.640  0.00  0.00     0.082 C 
ATOM     11  H7  FO2 d   1      80.463  61.394  13.508  0.00  0.00     0.036 H 
ATOM     12  H8  FO2 d   1      82.025  60.518  13.375  0.00  0.00     0.036 H 
ATOM     13  N5  FO2 d   1      79.056  59.667  11.950  0.00  0.00    -0.075 N 
ATOM     14  H16 FO2 d   1      80.115  58.953  13.611  0.00  0.00     0.075 H 
ATOM     15  H17 FO2 d   1      80.943  58.760  12.028  0.00  0.00     0.075 H 
ATOM     16  C13 FO2 d   1      79.323  60.252  10.640  0.00  0.00     0.082 C 
ATOM     17  H14 FO2 d   1      78.566  58.794  11.835  0.00  0.00     0.277 HD
ATOM     18  H15 FO2 d   1      78.491  60.301  12.493  0.00  0.00     0.277 HD
ATOM     19  C14 FO2 d   1      80.028  61.596  10.774  0.00  0.00    -0.035 C 
ATOM     20  H12 FO2 d   1      79.962  59.567  10.064  0.00  0.00     0.075 H 
ATOM     21  H13 FO2 d   1      78.370  60.397  10.110  0.00  0.00     0.075 H 
ATOM     22  H10 FO2 d   1      80.238  61.999   9.772  0.00  0.00     0.036 H 
ATOM     23  H11 FO2 d   1      79.379  62.295  11.322  0.00  0.00     0.036 H 
ATOM     24  H6  FO2 d   1      81.990  60.760  10.941  0.00  0.00     0.047 H 
ENDBRANCH   4   8
BRANCH   1  25
ATOM     25  C2  FO2 d   1      84.792  64.935  12.415  0.00  0.00     0.180 C 
ATOM     26  C3  FO2 d   1      85.859  64.293  13.087  0.00  0.00     0.121 A 
ATOM     27  N2  FO2 d   1      86.056  62.943  13.012  0.00  0.00    -0.239 NA
ATOM     28  C4  FO2 d   1      86.761  65.145  13.740  0.00  0.00     0.066 A 
ATOM     29  C6  FO2 d   1      87.148  62.495  13.586  0.00  0.00     0.067 A 
ATOM     30  N1  FO2 d   1      88.045  63.252  14.259  0.00  0.00    -0.317 N 
ATOM     31  H3  FO2 d   1      87.348  61.427  13.515  0.00  0.00     0.143 H 
ATOM     32  C5  FO2 d   1      87.917  64.560  14.400  0.00  0.00     0.259 A 
ATOM     33  H2  FO2 d   1      88.839  62.802  14.668  0.00  0.00     0.169 HD
ATOM     34  O   FO2 d   1      88.688  65.203  15.092  0.00  0.00    -0.267 OA
ATOM     35  C   FO2 d   1      86.627  66.523  13.668  0.00  0.00    -0.048 C 
ATOM     36  C1  FO2 d   1      85.604  67.015  12.891  0.00  0.00     0.006 C 
ATOM     37  H9  FO2 d   1      87.300  67.185  14.201  0.00  0.00     0.087 H 
ATOM     38  N   FO2 d   1      84.707  66.251  12.262  0.00  0.00    -0.239 NA
ATOM     39  H1  FO2 d   1      85.521  68.090  12.782  0.00  0.00     0.114 H 
ENDBRANCH   1  25
TORSDOF 2
