REMARK  3 active torsions:
REMARK  status: ('A' for Active; 'I' for Inactive)
REMARK    1  A    between atoms: N3_18  and  C2_2 
REMARK    2  A    between atoms: C8_8  and  C10_9 
REMARK    3  A    between atoms: N5_21  and  C15_23 
ROOT
ATOM      1  C7  FQK d   1      81.382  63.773  11.293  0.00  0.00     0.030 A 
ATOM      2  C8  FQK d   1      81.934  62.499  11.506  0.00  0.00    -0.017 A 
ATOM      3  N3  FQK d   1      83.388  64.085  11.877  0.00  0.00    -0.224 N 
ATOM      4  C9  FQK d   1      83.220  62.750  11.879  0.00  0.00     0.014 A 
ATOM      5  N4  FQK d   1      82.253  64.739  11.504  0.00  0.00    -0.178 NA
ATOM      6  H3  FQK d   1      80.350  63.943  10.988  0.00  0.00     0.118 H 
ATOM      7  H13 FQK d   1      83.974  62.006  12.132  0.00  0.00     0.115 H 
ENDROOT
BRANCH   2   8
ATOM      8  C10 FQK d   1      81.234  61.181  11.341  0.00  0.00    -0.023 C 
ATOM      9  C11 FQK d   1      79.973  61.321  10.487  0.00  0.00    -0.035 C 
ATOM     10  C12 FQK d   1      79.247  59.989  10.395  0.00  0.00     0.084 C 
ATOM     11  H5  FQK d   1      80.254  61.651   9.476  0.00  0.00     0.036 H 
ATOM     12  H6  FQK d   1      79.306  62.067  10.944  0.00  0.00     0.036 H 
ATOM     13  N5  FQK d   1      78.873  59.513  11.722  0.00  0.00    -0.075 N 
ATOM     14  H15 FQK d   1      79.908  59.250   9.919  0.00  0.00     0.076 H 
ATOM     15  H16 FQK d   1      78.339  60.114   9.787  0.00  0.00     0.076 H 
ATOM     16  C13 FQK d   1      80.094  59.269  12.485  0.00  0.00     0.084 C 
ATOM     17  H14 FQK d   1      78.340  60.232  12.185  0.00  0.00     0.279 HD
ATOM     18  C14 FQK d   1      80.872  60.560  12.691  0.00  0.00    -0.035 C 
ATOM     19  H7  FQK d   1      79.828  58.848  13.466  0.00  0.00     0.076 H 
ATOM     20  H8  FQK d   1      80.724  58.552  11.937  0.00  0.00     0.076 H 
ATOM     21  H9  FQK d   1      80.255  61.269  13.263  0.00  0.00     0.036 H 
ATOM     22  H10 FQK d   1      81.794  60.343  13.250  0.00  0.00     0.036 H 
ATOM     23  H4  FQK d   1      81.924  60.498  10.824  0.00  0.00     0.047 H 
BRANCH  13  24
ATOM     24  C15 FQK d   1      78.042  58.306  11.643  0.00  0.00     0.066 C 
ATOM     25  H17 FQK d   1      77.779  57.975  12.659  0.00  0.00     0.068 H 
ATOM     26  H18 FQK d   1      78.601  57.509  11.131  0.00  0.00     0.068 H 
ATOM     27  H19 FQK d   1      77.124  58.529  11.081  0.00  0.00     0.068 H 
ENDBRANCH  13  24
ENDBRANCH   2   8
BRANCH   3  28
ATOM     28  C2  FQK d   1      84.515  64.816  12.307  0.00  0.00     0.180 A 
ATOM     29  C3  FQK d   1      85.653  64.195  12.872  0.00  0.00     0.121 A 
ATOM     30  C4  FQK d   1      86.555  65.051  13.515  0.00  0.00     0.066 A 
ATOM     31  N2  FQK d   1      85.872  62.859  12.775  0.00  0.00    -0.239 NA
ATOM     32  C5  FQK d   1      87.730  64.472  14.146  0.00  0.00     0.259 A 
ATOM     33  C   FQK d   1      86.360  66.426  13.526  0.00  0.00    -0.048 A 
ATOM     34  O   FQK d   1      88.497  65.107  14.850  0.00  0.00    -0.267 OA
ATOM     35  N1  FQK d   1      87.865  63.172  13.988  0.00  0.00    -0.317 N 
ATOM     36  C6  FQK d   1      86.970  62.419  13.324  0.00  0.00     0.067 A 
ATOM     37  H12 FQK d   1      88.669  62.724  14.379  0.00  0.00     0.169 HD
ATOM     38  H2  FQK d   1      87.180  61.354  13.238  0.00  0.00     0.143 H 
ATOM     39  C1  FQK d   1      85.250  66.906  12.875  0.00  0.00     0.006 A 
ATOM     40  H11 FQK d   1      87.054  67.091  14.027  0.00  0.00     0.087 H 
ATOM     41  N   FQK d   1      84.342  66.132  12.276  0.00  0.00    -0.239 NA
ATOM     42  H1  FQK d   1      85.102  67.980  12.846  0.00  0.00     0.114 H 
ENDBRANCH   3  28
TORSDOF 3
