REMARK  2 active torsions:
REMARK  status: ('A' for Active; 'I' for Inactive)
REMARK    1  A    between atoms: C8_3  and  C10_8 
REMARK    2  A    between atoms: C2_15  and  N3_18 
ROOT
ATOM      1  C7  FQN d   1      81.463  63.839  11.405  0.00  0.00     0.030 A 
ATOM      2  C8  FQN d   1      82.011  62.560  11.612  0.00  0.00    -0.017 A 
ATOM      3  C9  FQN d   1      83.310  62.811  11.966  0.00  0.00     0.014 A 
ATOM      4  N3  FQN d   1      83.484  64.147  11.948  0.00  0.00    -0.224 N 
ATOM      5  N4  FQN d   1      82.342  64.803  11.599  0.00  0.00    -0.178 NA
ATOM      6  H1  FQN d   1      80.428  64.014  11.117  0.00  0.00     0.118 H 
ATOM      7  H7  FQN d   1      84.064  62.067  12.216  0.00  0.00     0.115 H 
ENDROOT
BRANCH   2   8
ATOM      8  C10 FQN d   1      81.327  61.233  11.445  0.00  0.00    -0.023 C 
ATOM      9  C11 FQN d   1      80.559  60.811  12.698  0.00  0.00    -0.035 C 
ATOM     10  C12 FQN d   1      79.896  59.460  12.467  0.00  0.00     0.082 C 
ATOM     11  H4  FQN d   1      79.788  61.562  12.924  0.00  0.00     0.036 H 
ATOM     12  H5  FQN d   1      81.256  60.735  13.545  0.00  0.00     0.036 H 
ATOM     13  N5  FQN d   1      78.975  59.505  11.327  0.00  0.00    -0.075 N 
ATOM     14  H16 FQN d   1      79.335  59.178  13.370  0.00  0.00     0.075 H 
ATOM     15  H17 FQN d   1      80.674  58.708  12.269  0.00  0.00     0.075 H 
ATOM     16  C13 FQN d   1      79.729  59.844  10.117  0.00  0.00     0.082 C 
ATOM     17  H14 FQN d   1      78.537  58.605  11.211  0.00  0.00     0.277 HD
ATOM     18  H15 FQN d   1      78.268  60.204  11.491  0.00  0.00     0.277 HD
ATOM     19  C14 FQN d   1      80.385  61.213  10.241  0.00  0.00    -0.035 C 
ATOM     20  H12 FQN d   1      80.509  59.086   9.957  0.00  0.00     0.075 H 
ATOM     21  H13 FQN d   1      79.043  59.852   9.257  0.00  0.00     0.075 H 
ATOM     22  H8  FQN d   1      80.958  61.427   9.326  0.00  0.00     0.036 H 
ATOM     23  H9  FQN d   1      79.607  61.979  10.374  0.00  0.00     0.036 H 
ATOM     24  H6  FQN d   1      82.113  60.484  11.267  0.00  0.00     0.047 H 
ENDBRANCH   2   8
BRANCH   4  25
ATOM     25  C2  FQN d   1      84.624  64.879  12.347  0.00  0.00     0.180 A 
ATOM     26  C3  FQN d   1      85.744  64.252  12.951  0.00  0.00     0.121 A 
ATOM     27  C4  FQN d   1      86.632  65.112  13.612  0.00  0.00     0.066 A 
ATOM     28  N2  FQN d   1      85.973  62.907  12.849  0.00  0.00    -0.239 NA
ATOM     29  C5  FQN d   1      87.802  64.540  14.261  0.00  0.00     0.259 A 
ATOM     30  C   FQN d   1      86.441  66.487  13.599  0.00  0.00    -0.048 A 
ATOM     31  N1  FQN d   1      87.955  63.235  14.099  0.00  0.00    -0.317 N 
ATOM     32  O   FQN d   1      88.552  65.182  14.978  0.00  0.00    -0.267 OA
ATOM     33  C6  FQN d   1      87.075  62.472  13.416  0.00  0.00     0.067 A 
ATOM     34  H2  FQN d   1      88.758  62.795  14.500  0.00  0.00     0.169 HD
ATOM     35  H3  FQN d   1      87.297  61.410  13.328  0.00  0.00     0.143 H 
ATOM     36  C1  FQN d   1      85.365  66.971  12.891  0.00  0.00     0.006 A 
ATOM     37  H10 FQN d   1      87.114  67.154  14.126  0.00  0.00     0.087 H 
ATOM     38  N   FQN d   1      84.471  66.198  12.268  0.00  0.00    -0.239 NA
ATOM     39  H11 FQN d   1      85.235  68.046  12.835  0.00  0.00     0.114 H 
ENDBRANCH   4  25
TORSDOF 2
