REMARK  6 active torsions:
REMARK  status: ('A' for Active; 'I' for Inactive)
REMARK    1  A    between atoms: C9_19  and  C10_2 
REMARK    2  A    between atoms: C11_3  and  C12_4 
REMARK       I    between atoms: N2_21  and  C11_3 
REMARK    3  A    between atoms: C12_4  and  C13_5 
REMARK    4  A    between atoms: C12_4  and  S2_27 
REMARK    5  A    between atoms: C13_5  and  C14_6 
REMARK    6  A    between atoms: C3_13  and  N2_21 
ROOT
ATOM      1  C1  FT8 d   1     -14.943  -7.591  24.163  0.00  0.00     0.060 C 
ATOM      2  C2  FT8 d   1     -13.149  -8.163  22.472  0.00  0.00     0.244 C 
ATOM      3  C3  FT8 d   1     -14.294  -8.387  21.528  0.00  0.00     0.090 C 
ATOM      4  C4  FT8 d   1     -14.854  -9.808  21.611  0.00  0.00    -0.030 C 
ATOM      5  C5  FT8 d   1     -15.027 -10.318  23.040  0.00  0.00    -0.019 C 
ATOM      6  C6  FT8 d   1     -15.127  -6.934  25.528  0.00  0.00    -0.037 C 
ATOM      7  C7  FT8 d   1     -14.164  -7.441  26.525  0.00  0.00    -0.060 C 
ATOM      8  C8  FT8 d   1     -12.797  -7.041  26.107  0.00  0.00    -0.036 C 
ATOM      9  C9  FT8 d   1     -12.400  -7.616  24.754  0.00  0.00     0.100 C 
ATOM     10  N1  FT8 d   1     -13.514  -7.787  23.783  0.00  0.00    -0.322 N 
ATOM     11  O3  FT8 d   1     -12.017  -8.316  22.177  0.00  0.00    -0.271 OA
ATOM     12  S1  FT8 d   1     -15.894  -9.158  24.153  0.00  0.00    -0.143 SA
ATOM     13  H1  FT8 d   1     -15.384  -6.923  23.409  0.00  0.00     0.090 H 
ATOM     14  H10 FT8 d   1     -15.097  -7.684  21.795  0.00  0.00     0.087 H 
ATOM     15  H11 FT8 d   1     -14.166 -10.484  21.082  0.00  0.00     0.037 H 
ATOM     16  H12 FT8 d   1     -15.836  -9.824  21.116  0.00  0.00     0.037 H 
ATOM     17  H13 FT8 d   1     -14.029 -10.516  23.458  0.00  0.00     0.049 H 
ATOM     18  H14 FT8 d   1     -15.602 -11.255  23.004  0.00  0.00     0.049 H 
ATOM     19  H15 FT8 d   1     -16.147  -7.138  25.885  0.00  0.00     0.037 H 
ATOM     20  H16 FT8 d   1     -14.987  -5.848  25.420  0.00  0.00     0.037 H 
ATOM     21  H17 FT8 d   1     -14.229  -8.538  26.579  0.00  0.00     0.033 H 
ATOM     22  H18 FT8 d   1     -14.391  -7.011  27.512  0.00  0.00     0.033 H 
ATOM     23  H19 FT8 d   1     -12.081  -7.395  26.863  0.00  0.00     0.036 H 
ATOM     24  H20 FT8 d   1     -12.755  -5.943  26.048  0.00  0.00     0.036 H 
ATOM     25  H21 FT8 d   1     -11.667  -6.933  24.301  0.00  0.00     0.090 H 
ENDROOT
BRANCH   3  26
ATOM     26  N2  FT8 d   1     -13.887  -8.129  20.183  0.00  0.00    -0.347 N 
ATOM     27  C11 FT8 d   1     -13.563  -6.786  19.874  0.00  0.00     0.232 C 
ATOM     28  O4  FT8 d   1     -13.578  -5.956  20.728  0.00  0.00    -0.272 OA
ATOM     29  H22 FT8 d   1     -13.834  -8.856  19.498  0.00  0.00     0.163 HD
BRANCH  27  30
ATOM     30  C12 FT8 d   1     -13.273  -6.487  18.431  0.00  0.00     0.069 C 
ATOM     31  H2  FT8 d   1     -13.198  -7.407  17.832  0.00  0.00     0.071 H 
BRANCH  30  32
ATOM     32  C13 FT8 d   1     -11.946  -5.740  18.349  0.00  0.00    -0.021 C 
ATOM     33  H3  FT8 d   1     -11.219  -6.199  19.036  0.00  0.00     0.042 H 
ATOM     34  H4  FT8 d   1     -12.096  -4.686  18.625  0.00  0.00     0.042 H 
BRANCH  32  35
ATOM     35  C14 FT8 d   1     -11.429  -5.828  16.923  0.00  0.00    -0.057 A 
ATOM     36  C15 FT8 d   1     -10.726  -6.930  16.468  0.00  0.00    -0.077 A 
ATOM     37  C16 FT8 d   1     -10.287  -7.000  15.163  0.00  0.00    -0.082 A 
ATOM     38  H5  FT8 d   1     -10.518  -7.749  17.147  0.00  0.00     0.084 H 
ATOM     39  C17 FT8 d   1     -10.563  -5.957  14.317  0.00  0.00    -0.083 A 
ATOM     40  H6  FT8 d   1      -9.734  -7.864  14.812  0.00  0.00     0.083 H 
ATOM     41  C18 FT8 d   1     -11.272  -4.856  14.762  0.00  0.00    -0.082 A 
ATOM     42  H7  FT8 d   1     -10.222  -5.996  13.289  0.00  0.00     0.083 H 
ATOM     43  C19 FT8 d   1     -11.707  -4.786  16.072  0.00  0.00    -0.077 A 
ATOM     44  H8  FT8 d   1     -11.488  -4.043  14.079  0.00  0.00     0.083 H 
ATOM     45  H9  FT8 d   1     -12.259  -3.922  16.423  0.00  0.00     0.084 H 
ENDBRANCH  32  35
ENDBRANCH  30  32
BRANCH  30  46
ATOM     46  S2  FT8 d   1     -14.769  -5.541  17.946  0.00  0.00    -0.168 SA
ATOM     47  H23 FT8 d   1     -14.865  -4.736  18.546  0.00  0.00     0.102 HD
ENDBRANCH  30  46
ENDBRANCH  27  30
ENDBRANCH   3  26
BRANCH   9  48
ATOM     48  C10 FT8 d   1     -11.746  -8.955  24.988  0.00  0.00     0.197 C 
ATOM     49  O1  FT8 d   1     -10.528  -8.980  25.286  0.00  0.00    -0.646 OA
ATOM     50  O2  FT8 d   1     -12.387 -10.043  24.916  0.00  0.00    -0.646 OA
ENDBRANCH   9  48
TORSDOF 6
