REMARK  11 active torsions:
REMARK  status: ('A' for Active; 'I' for Inactive)
REMARK    1  A    between atoms: C2_2  and  C1_1 
REMARK    2  A    between atoms: C2_2  and  O2_15 
REMARK    3  A    between atoms: C4_4  and  O4_16 
REMARK    4  A    between atoms: N5_12  and  C5_5 
REMARK    5  A    between atoms: C6_6  and  C7_7 
REMARK    6  A    between atoms: C7_7  and  C8_8 
REMARK    7  A    between atoms: C7_7  and  O7_18 
REMARK    8  A    between atoms: C8_8  and  C9_9 
REMARK    9  A    between atoms: C8_8  and  O8_19 
REMARK   10  A    between atoms: C9_9  and  O9_20 
REMARK   11  A    between atoms: C10_10  and  C11_11 
REMARK       I    between atoms: C10_10  and  N5_12 
ROOT
ATOM      1  C2  SLB d   1       9.263  -9.287 -12.049  0.00  0.00     0.256 C 
ATOM      2  C3  SLB d   1      10.363  -8.778 -11.132  0.00  0.00     0.023 C 
ATOM      3  C4  SLB d   1      11.543  -8.226 -11.992  0.00  0.00     0.063 C 
ATOM      4  C5  SLB d   1      11.010  -7.143 -12.941  0.00  0.00     0.064 C 
ATOM      5  C6  SLB d   1       9.912  -7.825 -13.793  0.00  0.00     0.091 C 
ATOM      6  O6  SLB d   1       8.858  -8.316 -12.970  0.00  0.00    -0.336 OA
ATOM      7  H1  SLB d   1      10.724  -9.602 -10.500  0.00  0.00     0.045 H 
ATOM      8  H2  SLB d   1       9.966  -7.974 -10.495  0.00  0.00     0.045 H 
ATOM      9  H3  SLB d   1      11.985  -9.044 -12.579  0.00  0.00     0.086 H 
ATOM     10  H4  SLB d   1      10.581  -6.313 -12.361  0.00  0.00     0.080 H 
ATOM     11  H5  SLB d   1      10.369  -8.662 -14.342  0.00  0.00     0.090 H 
ENDROOT
BRANCH   5  12
ATOM     12  C7  SLB d   1       9.275  -6.860 -14.786  0.00  0.00     0.089 C 
ATOM     13  H6  SLB d   1      10.050  -6.510 -15.483  0.00  0.00     0.091 H 
BRANCH  12  14
ATOM     14  C8  SLB d   1       8.127  -7.541 -15.575  0.00  0.00     0.083 C 
ATOM     15  H7  SLB d   1       7.351  -7.819 -14.847  0.00  0.00     0.090 H 
BRANCH  14  16
ATOM     16  C9  SLB d   1       7.448  -6.639 -16.627  0.00  0.00     0.043 C 
ATOM     17  H8  SLB d   1       6.947  -5.806 -16.113  0.00  0.00     0.078 H 
ATOM     18  H9  SLB d   1       6.703  -7.232 -17.178  0.00  0.00     0.078 H 
BRANCH  16  19
ATOM     19  O9  SLB d   1       8.388  -6.113 -17.546  0.00  0.00    -0.398 OA
ATOM     20  H18 SLB d   1       8.822  -6.827 -17.997  0.00  0.00     0.209 HD
ENDBRANCH  16  19
ENDBRANCH  14  16
BRANCH  14  21
ATOM     21  O8  SLB d   1       8.627  -8.752 -16.175  0.00  0.00    -0.391 OA
ATOM     22  H17 SLB d   1       9.264  -8.533 -16.845  0.00  0.00     0.210 HD
ENDBRANCH  14  21
ENDBRANCH  12  14
BRANCH  12  23
ATOM     23  O7  SLB d   1       8.675  -5.733 -14.118  0.00  0.00    -0.390 OA
ATOM     24  H16 SLB d   1       7.990  -6.040 -13.536  0.00  0.00     0.210 HD
ENDBRANCH  12  23
ENDBRANCH   5  12
BRANCH   4  25
ATOM     25  N5  SLB d   1      12.061  -6.631 -13.801  0.00  0.00    -0.352 N 
ATOM     26  C10 SLB d   1      12.591  -5.434 -13.682  0.00  0.00     0.214 C 
ATOM     27  O10 SLB d   1      12.267  -4.661 -12.778  0.00  0.00    -0.274 OA
ATOM     28  H13 SLB d   1      12.403  -7.225 -14.529  0.00  0.00     0.163 HD
BRANCH  26  29
ATOM     29  C11 SLB d   1      13.656  -5.038 -14.670  0.00  0.00    -0.003 C 
ATOM     30  H10 SLB d   1      14.002  -4.018 -14.447  0.00  0.00     0.040 H 
ATOM     31  H11 SLB d   1      13.242  -5.070 -15.688  0.00  0.00     0.040 H 
ATOM     32  H12 SLB d   1      14.502  -5.737 -14.597  0.00  0.00     0.040 H 
ENDBRANCH  26  29
ENDBRANCH   4  25
BRANCH   3  33
ATOM     33  O4  SLB d   1      12.544  -7.663 -11.129  0.00  0.00    -0.393 OA
ATOM     34  H15 SLB d   1      13.259  -7.324 -11.654  0.00  0.00     0.210 HD
ENDBRANCH   3  33
BRANCH   1  35
ATOM     35  C1  SLB d   1       7.992  -9.589 -11.283  0.00  0.00     0.238 C 
ATOM     36  O1A SLB d   1       7.610 -10.787 -11.186  0.00  0.00    -0.644 OA
ATOM     37  O1B SLB d   1       7.372  -8.612 -10.764  0.00  0.00    -0.644 OA
ENDBRANCH   1  35
BRANCH   1  38
ATOM     38  O2  SLB d   1       9.713 -10.431 -12.695  0.00  0.00    -0.357 OA
ATOM     39  H14 SLB d   1       9.982 -11.073 -12.049  0.00  0.00     0.213 HD
ENDBRANCH   1  38
TORSDOF 11
