REMARK  11 active torsions:
REMARK  status: ('A' for Active; 'I' for Inactive)
REMARK    1  A    between atoms: C2_2  and  C1_1 
REMARK    2  A    between atoms: C2_2  and  O2_15 
REMARK    3  A    between atoms: C4_4  and  O4_16 
REMARK    4  A    between atoms: N5_12  and  C5_5 
REMARK    5  A    between atoms: C6_6  and  C7_7 
REMARK    6  A    between atoms: C7_7  and  C8_8 
REMARK    7  A    between atoms: C7_7  and  O7_18 
REMARK    8  A    between atoms: C8_8  and  C9_9 
REMARK    9  A    between atoms: C8_8  and  O8_19 
REMARK   10  A    between atoms: C9_9  and  O9_20 
REMARK   11  A    between atoms: C10_10  and  C11_11 
REMARK       I    between atoms: C10_10  and  N5_12 
ROOT
ATOM      1  C2  SLB d   1      -9.205  -9.190  11.948  0.00  0.00     0.256 C 
ATOM      2  C3  SLB d   1     -10.336  -8.737  11.030  0.00  0.00     0.023 C 
ATOM      3  C4  SLB d   1     -11.488  -8.196  11.879  0.00  0.00     0.063 C 
ATOM      4  C5  SLB d   1     -10.959  -7.099  12.855  0.00  0.00     0.064 C 
ATOM      5  C6  SLB d   1      -9.874  -7.720  13.696  0.00  0.00     0.091 C 
ATOM      6  O6  SLB d   1      -8.826  -8.200  12.888  0.00  0.00    -0.336 OA
ATOM      7  H1  SLB d   1     -10.689  -9.590  10.432  0.00  0.00     0.045 H 
ATOM      8  H2  SLB d   1      -9.970  -7.946  10.359  0.00  0.00     0.045 H 
ATOM      9  H3  SLB d   1     -11.879  -9.027  12.484  0.00  0.00     0.086 H 
ATOM     10  H4  SLB d   1     -10.526  -6.273  12.271  0.00  0.00     0.080 H 
ATOM     11  H5  SLB d   1     -10.309  -8.553  14.268  0.00  0.00     0.090 H 
ENDROOT
BRANCH   5  12
ATOM     12  C7  SLB d   1      -9.253  -6.714  14.661  0.00  0.00     0.089 C 
ATOM     13  H6  SLB d   1     -10.022  -6.355  15.361  0.00  0.00     0.091 H 
BRANCH  12  14
ATOM     14  C8  SLB d   1      -8.069  -7.364  15.445  0.00  0.00     0.083 C 
ATOM     15  H7  SLB d   1      -7.282  -7.633  14.725  0.00  0.00     0.090 H 
BRANCH  14  16
ATOM     16  C9  SLB d   1      -7.456  -6.406  16.469  0.00  0.00     0.043 C 
ATOM     17  H8  SLB d   1      -7.006  -5.561  15.927  0.00  0.00     0.078 H 
ATOM     18  H9  SLB d   1      -6.673  -6.945  17.022  0.00  0.00     0.078 H 
BRANCH  16  19
ATOM     19  O9  SLB d   1      -8.383  -5.895  17.397  0.00  0.00    -0.398 OA
ATOM     20  H18 SLB d   1      -8.774  -6.613  17.881  0.00  0.00     0.209 HD
ENDBRANCH  16  19
ENDBRANCH  14  16
BRANCH  14  21
ATOM     21  O8  SLB d   1      -8.545  -8.556  16.060  0.00  0.00    -0.391 OA
ATOM     22  H17 SLB d   1      -9.211  -8.336  16.701  0.00  0.00     0.210 HD
ENDBRANCH  14  21
ENDBRANCH  12  14
BRANCH  12  23
ATOM     23  O7  SLB d   1      -8.686  -5.602  13.922  0.00  0.00    -0.390 OA
ATOM     24  H16 SLB d   1      -8.019  -5.925  13.328  0.00  0.00     0.210 HD
ENDBRANCH  12  23
ENDBRANCH   5  12
BRANCH   4  25
ATOM     25  N5  SLB d   1     -12.047  -6.568  13.658  0.00  0.00    -0.352 N 
ATOM     26  C10 SLB d   1     -12.574  -5.382  13.525  0.00  0.00     0.214 C 
ATOM     27  O10 SLB d   1     -12.207  -4.609  12.672  0.00  0.00    -0.274 OA
ATOM     28  H13 SLB d   1     -12.423  -7.160  14.371  0.00  0.00     0.163 HD
BRANCH  26  29
ATOM     29  C11 SLB d   1     -13.627  -4.973  14.510  0.00  0.00    -0.003 C 
ATOM     30  H10 SLB d   1     -13.975  -3.957  14.274  0.00  0.00     0.040 H 
ATOM     31  H11 SLB d   1     -13.205  -4.989  15.526  0.00  0.00     0.040 H 
ATOM     32  H12 SLB d   1     -14.474  -5.673  14.454  0.00  0.00     0.040 H 
ENDBRANCH  26  29
ENDBRANCH   4  25
BRANCH   3  33
ATOM     33  O4  SLB d   1     -12.556  -7.711  11.083  0.00  0.00    -0.393 OA
ATOM     34  H15 SLB d   1     -13.271  -7.439  11.646  0.00  0.00     0.210 HD
ENDBRANCH   3  33
BRANCH   1  35
ATOM     35  C1  SLB d   1      -7.963  -9.486  11.127  0.00  0.00     0.238 C 
ATOM     36  O1A SLB d   1      -7.358  -8.511  10.614  0.00  0.00    -0.644 OA
ATOM     37  O1B SLB d   1      -7.561 -10.677  11.043  0.00  0.00    -0.644 OA
ENDBRANCH   1  35
BRANCH   1  38
ATOM     38  O2  SLB d   1      -9.640 -10.354  12.653  0.00  0.00    -0.357 OA
ATOM     39  H14 SLB d   1      -9.896 -11.023  12.029  0.00  0.00     0.213 HD
ENDBRANCH   1  38
TORSDOF 11
