REMARK  10 active torsions:
REMARK  status: ('A' for Active; 'I' for Inactive)
REMARK    1  A    between atoms: O3B_8  and  PG_1 
REMARK    2  A    between atoms: PB_5  and  O3B_8 
REMARK    3  A    between atoms: O3A_12  and  PB_5 
REMARK    4  A    between atoms: PA_9  and  O3A_12 
REMARK    5  A    between atoms: PA_9  and  O5'_13 
REMARK    6  A    between atoms: O5'_13  and  C5'_14 
REMARK    7  A    between atoms: C5'_14  and  C4'_15 
REMARK    8  A    between atoms: C3'_17  and  O3'_18 
REMARK    9  A    between atoms: C2'_19  and  O2'_20 
REMARK   10  A    between atoms: C1'_21  and  N9_22 
ROOT
ATOM      1  C4' ATP d   1      -5.451  -9.545  23.077  0.00  0.00     0.089 C 
ATOM      2  O4' ATP d   1      -5.832  -9.469  21.698  0.00  0.00    -0.353 OA
ATOM      3  C3' ATP d   1      -6.246 -10.707  23.672  0.00  0.00     0.091 C 
ATOM      4  C2' ATP d   1      -7.098 -11.205  22.523  0.00  0.00     0.105 C 
ATOM      5  C1' ATP d   1      -7.125 -10.022  21.583  0.00  0.00     0.139 C 
ATOM      6  H3  ATP d   1      -5.800  -8.627  23.572  0.00  0.00     0.090 H 
ATOM      7  H4  ATP d   1      -5.596 -11.504  24.062  0.00  0.00     0.091 H 
ATOM      8  H6  ATP d   1      -6.604 -12.067  22.050  0.00  0.00     0.093 H 
ATOM      9  H8  ATP d   1      -7.871  -9.280  21.904  0.00  0.00     0.122 H 
ENDROOT
BRANCH   1  10
ATOM     10  C5' ATP d   1      -3.928  -9.578  23.287  0.00  0.00     0.058 C 
ATOM     11  H1  ATP d   1      -3.435  -9.349  22.331  0.00  0.00     0.079 H 
ATOM     12  H2  ATP d   1      -3.658  -8.815  24.032  0.00  0.00     0.079 H 
BRANCH  10  13
ATOM     13  O5' ATP d   1      -3.472 -10.840  23.743  0.00  0.00    -0.287 OA
BRANCH  13  14
ATOM     14  PA  ATP d   1      -2.708 -11.201  25.118  0.00  0.00     0.417 P 
ATOM     15  O1A ATP d   1      -1.812 -12.316  24.648  0.00  0.00    -0.624 OA
ATOM     16  O2A ATP d   1      -2.093  -9.986  25.726  0.00  0.00    -0.624 OA
BRANCH  14  17
ATOM     17  O3A ATP d   1      -3.869 -11.853  26.077  0.00  0.00    -0.180 OA
BRANCH  17  18
ATOM     18  PB  ATP d   1      -4.422 -13.399  26.010  0.00  0.00     0.428 P 
ATOM     19  O1B ATP d   1      -4.441 -13.853  24.571  0.00  0.00    -0.624 OA
ATOM     20  O2B ATP d   1      -5.678 -13.677  26.821  0.00  0.00    -0.624 OA
BRANCH  18  21
ATOM     21  O3B ATP d   1      -3.222 -14.120  26.809  0.00  0.00    -0.173 OA
BRANCH  21  22
ATOM     22  PG  ATP d   1      -2.647 -15.635  26.656  0.00  0.00     0.431 P 
ATOM     23  O1G ATP d   1      -2.243 -15.698  25.202  0.00  0.00    -0.616 OA
ATOM     24  O2G ATP d   1      -1.546 -15.642  27.710  0.00  0.00    -0.616 OA
ATOM     25  O3G ATP d   1      -3.742 -16.641  26.930  0.00  0.00    -0.616 OA
ENDBRANCH  21  22
ENDBRANCH  18  21
ENDBRANCH  17  18
ENDBRANCH  14  17
ENDBRANCH  13  14
ENDBRANCH  10  13
ENDBRANCH   1  10
BRANCH   3  26
ATOM     26  O3' ATP d   1      -7.042 -10.147  24.707  0.00  0.00    -0.390 OA
ATOM     27  H5  ATP d   1      -7.619  -9.488  24.340  0.00  0.00     0.210 HD
ENDBRANCH   3  26
BRANCH   5  28
ATOM     28  N9  ATP d   1      -7.492 -10.511  20.239  0.00  0.00    -0.294 N 
ATOM     29  C8  ATP d   1      -6.922 -11.481  19.514  0.00  0.00     0.071 A 
ATOM     30  N7  ATP d   1      -7.568 -11.686  18.340  0.00  0.00    -0.236 NA
ATOM     31  H9  ATP d   1      -6.043 -12.040  19.830  0.00  0.00     0.144 H 
ATOM     32  C5  ATP d   1      -8.572 -10.828  18.293  0.00  0.00     0.149 A 
ATOM     33  C6  ATP d   1      -9.663 -10.523  17.344  0.00  0.00     0.155 A 
ATOM     34  C4  ATP d   1      -8.536 -10.068  19.560  0.00  0.00     0.167 A 
ATOM     35  N6  ATP d   1      -9.793 -11.165  16.158  0.00  0.00    -0.382 N 
ATOM     36  N1  ATP d   1     -10.538  -9.561  17.719  0.00  0.00    -0.222 NA
ATOM     37  H10 ATP d   1     -10.568 -10.923  15.524  0.00  0.00     0.157 HD
ATOM     38  H11 ATP d   1      -9.117 -11.895  15.891  0.00  0.00     0.157 HD
ATOM     39  C2  ATP d   1     -10.429  -8.899  18.892  0.00  0.00     0.091 A 
ATOM     40  N3  ATP d   1      -9.483  -9.130  19.814  0.00  0.00    -0.222 NA
ATOM     41  H12 ATP d   1     -11.159  -8.126  19.103  0.00  0.00     0.146 H 
ENDBRANCH   5  28
BRANCH   4  42
ATOM     42  O2' ATP d   1      -8.435 -11.585  22.851  0.00  0.00    -0.388 OA
ATOM     43  H7  ATP d   1      -8.895 -10.838  23.216  0.00  0.00     0.210 HD
ENDBRANCH   4  42
TORSDOF 10
