REMARK WARNING: 32 MAX_TORS EXCEEDED!!!
REMARK  47 active torsions:
REMARK  status: ('A' for Active; 'I' for Inactive)
REMARK    1  A    between atoms: N_1  and  CA_2 
REMARK    2  A    between atoms: CA_2  and  C_3 
REMARK    3  A    between atoms: CA_2  and  CB_5 
REMARK       I    between atoms: C_3  and  N_11 
REMARK    4  A    between atoms: CB_5  and  CG_6 
REMARK    5  A    between atoms: N_11  and  CA_12 
REMARK    6  A    between atoms: CA_12  and  C_13 
REMARK    7  A    between atoms: CA_12  and  CB_15 
REMARK       I    between atoms: C_13  and  N_21 
REMARK    8  A    between atoms: CB_15  and  CG_16 
REMARK    9  A    between atoms: N_21  and  CA_22 
REMARK   10  A    between atoms: CA_22  and  C_23 
REMARK   11  A    between atoms: CA_22  and  CB_25 
REMARK       I    between atoms: C_23  and  N_29 
REMARK   12  A    between atoms: CB_25  and  CG_26 
REMARK   13  A    between atoms: CG_26  and  SD_27 
REMARK   14  A    between atoms: SD_27  and  CE_28 
REMARK   15  A    between atoms: N_29  and  CA_30 
REMARK   16  A    between atoms: CA_30  and  C_31 
REMARK   17  A    between atoms: CA_30  and  CB_33 
REMARK       I    between atoms: C_31  and  N_37 
REMARK   18  A    between atoms: CB_33  and  CG_34 
REMARK       I    between atoms: CG_34  and  ND2_36 
REMARK   19  A    between atoms: CA_38  and  C_39 
REMARK       I    between atoms: C_39  and  N_44 
REMARK   20  A    between atoms: N_44  and  CA_45 
REMARK   21  A    between atoms: CA_45  and  C_46 
REMARK   22  A    between atoms: CA_45  and  CB_48 
REMARK       I    between atoms: C_46  and  N_52 
REMARK   23  A    between atoms: CB_48  and  CG_49 
REMARK       I    between atoms: CG_49  and  ND2_51 
REMARK   24  A    between atoms: N_52  and  CA_53 
REMARK   25  A    between atoms: CA_53  and  C_54 
REMARK   26  A    between atoms: CA_53  and  CB_56 
REMARK       I    between atoms: C_54  and  N_57 
REMARK   27  A    between atoms: N_57  and  CA_58 
REMARK   28  A    between atoms: CA_58  and  C_59 
REMARK   29  A    between atoms: CA_58  and  CB_61 
REMARK       I    between atoms: C_59  and  N_64 
REMARK   30  A    between atoms: CB_61  and  OG1_62 
REMARK   31  A    between atoms: CB_61  and  CG2_63 
REMARK   32  A    between atoms: N_64  and  CA_65 
REMARK   33  A    between atoms: CA_65  and  C_66 
REMARK   34  A    between atoms: CA_65  and  CB_68 
REMARK       I    between atoms: C_66  and  N_73 
REMARK   35  A    between atoms: CB_68  and  CG_69 
REMARK   36  A    between atoms: CG_69  and  CD_70 
REMARK   37  A    between atoms: N_73  and  CA_74 
REMARK   38  A    between atoms: CA_74  and  C_75 
REMARK   39  A    between atoms: CA_74  and  CB_77 
REMARK       I    between atoms: C_75  and  N_84 
REMARK   40  A    between atoms: CB_77  and  CG_78 
REMARK   41  A    between atoms: N_84  and  CA_85 
REMARK   42  A    between atoms: CA_85  and  C_86 
REMARK   43  A    between atoms: CA_85  and  CB_88 
REMARK       I    between atoms: C_86  and  N_92 
REMARK   44  A    between atoms: CB_88  and  CG_89 
REMARK   45  A    between atoms: CG_89  and  SD_90 
REMARK   46  A    between atoms: SD_90  and  CE_91 
REMARK   47  A    between atoms: CA_93  and  C_94 
ROOT
ATOM      1  CA  ASN d   1       9.199 -33.552 -12.625  0.00  0.00     0.097 C 
ATOM      2  H40 ASN d   1       9.819 -32.690 -12.910  0.00  0.00     0.088 H 
ENDROOT
BRANCH   1   3
ATOM      3  N   ASN d   1       9.885 -34.259 -11.553  0.00  0.00    -0.346 N 
ATOM      4  C   PRO d   1      10.768 -33.661 -10.757  0.00  0.00     0.241 C 
ATOM      5  O   PRO d   1      11.100 -32.478 -10.907  0.00  0.00    -0.271 OA
ATOM      6  H39 ASN d   1       9.686 -35.228 -11.410  0.00  0.00     0.163 HD
BRANCH   4   7
ATOM      7  CA  PRO d   1      11.389 -34.463  -9.626  0.00  0.00     0.091 C 
ATOM      8  N   PRO d   1      10.712 -35.744  -9.370  0.00  0.00    -0.337 N 
ATOM      9  C   ASN d   1       9.468 -35.760  -8.876  0.00  0.00     0.243 C 
ATOM     10  CD  PRO d   1      11.533 -36.896  -9.779  0.00  0.00    -0.001 C 
ATOM     11  O   ASN d   1       8.873 -34.708  -8.600  0.00  0.00    -0.271 OA
ATOM     12  CG  PRO d   1      12.664 -36.255 -10.545  0.00  0.00    -0.048 C 
ATOM     13  H37 PRO d   1      10.960 -37.581 -10.421  0.00  0.00     0.064 H 
ATOM     14  H38 PRO d   1      11.910 -37.443  -8.902  0.00  0.00     0.064 H 
ATOM     15  CB  PRO d   1      12.821 -34.887  -9.971  0.00  0.00    -0.036 C 
ATOM     16  H35 PRO d   1      13.591 -36.833 -10.415  0.00  0.00     0.035 H 
ATOM     17  H36 PRO d   1      12.416 -36.195 -11.615  0.00  0.00     0.035 H 
ATOM     18  H33 PRO d   1      13.450 -34.911  -9.069  0.00  0.00     0.036 H 
ATOM     19  H34 PRO d   1      13.265 -34.202 -10.709  0.00  0.00     0.036 H 
ATOM     20  H32 PRO d   1      11.379 -33.845  -8.716  0.00  0.00     0.087 H 
BRANCH   9  21
ATOM     21  CA  ASN d   1       8.767 -37.092  -8.660  0.00  0.00     0.097 C 
ATOM     22  H27 ASN d   1       9.389 -37.892  -9.089  0.00  0.00     0.088 H 
BRANCH  21  23
ATOM     23  N   ASN d   1       8.596 -37.339  -7.237  0.00  0.00    -0.346 N 
ATOM     24  C   MET d   1       9.356 -38.199  -6.562  0.00  0.00     0.241 C 
ATOM     25  O   MET d   1      10.386 -38.694  -7.025  0.00  0.00    -0.271 OA
ATOM     26  H26 ASN d   1       7.879 -36.843  -6.746  0.00  0.00     0.163 HD
BRANCH  24  27
ATOM     27  CA  MET d   1       8.864 -38.541  -5.160  0.00  0.00     0.090 C 
ATOM     28  H18 MET d   1       7.771 -38.418  -5.138  0.00  0.00     0.087 H 
BRANCH  27  29
ATOM     29  N   MET d   1       9.174 -39.926  -4.829  0.00  0.00    -0.346 N 
ATOM     30  C   HIS d   1       8.676 -40.923  -5.559  0.00  0.00     0.241 C 
ATOM     31  O   HIS d   1       8.002 -40.736  -6.575  0.00  0.00    -0.271 OA
ATOM     32  H17 MET d   1       9.765 -40.130  -4.048  0.00  0.00     0.163 HD
BRANCH  30  33
ATOM     33  CA  HIS d   1       8.957 -42.335  -5.056  0.00  0.00     0.094 C 
ATOM     34  H11 HIS d   1       9.282 -42.280  -4.006  0.00  0.00     0.088 H 
BRANCH  33  35
ATOM     35  N   HIS d   1       7.739 -43.129  -5.135  0.00  0.00    -0.346 N 
ATOM     36  C   HIS d   1       6.651 -42.774  -4.455  0.00  0.00     0.249 C 
ATOM     37  O   HIS d   1       6.655 -41.901  -3.589  0.00  0.00    -0.271 OA
ATOM     38  H10 HIS d   1       7.720 -43.950  -5.706  0.00  0.00     0.163 HD
BRANCH  36  39
ATOM     39  CA  HIS d   1       5.365 -43.523  -4.795  0.00  0.00     0.181 C 
ATOM     40  H4  HIS d   1       4.522 -42.827  -4.672  0.00  0.00     0.099 H 
BRANCH  39  41
ATOM     41  N   HIS d   1       5.370 -43.990  -6.177  0.00  0.00    -0.066 N 
ATOM     42  H1  HIS d   1       4.510 -44.479  -6.370  0.00  0.00     0.275 HD
ATOM     43  H2  HIS d   1       6.150 -44.613  -6.318  0.00  0.00     0.275 HD
ATOM     44  H3  HIS d   1       5.454 -43.201  -6.798  0.00  0.00     0.275 HD
ENDBRANCH  39  41
BRANCH  39  45
ATOM     45  CB  HIS d   1       5.161 -44.696  -3.839  0.00  0.00     0.011 C 
ATOM     46  H5  HIS d   1       5.371 -44.352  -2.816  0.00  0.00     0.046 H 
ATOM     47  H6  HIS d   1       5.868 -45.494  -4.110  0.00  0.00     0.046 H 
BRANCH  45  48
ATOM     48  CG  HIS d   1       3.775 -45.259  -3.875  0.00  0.00     0.053 A 
ATOM     49  ND1 HIS d   1       2.692 -44.597  -3.339  0.00  0.00    -0.247 NA
ATOM     50  CE1 HIS d   1       1.602 -45.322  -3.519  0.00  0.00     0.064 A 
ATOM     51  NE2 HIS d   1       1.939 -46.429  -4.155  0.00  0.00    -0.359 N 
ATOM     52  H8  HIS d   1       0.597 -45.052  -3.198  0.00  0.00     0.143 H 
ATOM     53  CD2 HIS d   1       3.293 -46.414  -4.392  0.00  0.00     0.002 A 
ATOM     54  H9  HIS d   1       1.292 -47.182  -4.429  0.00  0.00     0.166 HD
ATOM     55  H7  HIS d   1       3.869 -47.186  -4.900  0.00  0.00     0.114 H 
ENDBRANCH  45  48
ENDBRANCH  39  45
ENDBRANCH  36  39
ENDBRANCH  33  35
BRANCH  33  56
ATOM     56  CB  HIS d   1      10.065 -42.997  -5.879  0.00  0.00     0.004 C 
ATOM     57  H12 HIS d   1       9.670 -43.205  -6.884  0.00  0.00     0.046 H 
ATOM     58  H13 HIS d   1      10.339 -43.943  -5.390  0.00  0.00     0.046 H 
BRANCH  56  59
ATOM     59  CG  HIS d   1      11.305 -42.169  -6.025  0.00  0.00     0.053 A 
ATOM     60  ND1 HIS d   1      11.517 -41.327  -7.096  0.00  0.00    -0.247 NA
ATOM     61  CE1 HIS d   1      12.694 -40.741  -6.968  0.00  0.00     0.064 A 
ATOM     62  NE2 HIS d   1      13.257 -41.179  -5.856  0.00  0.00    -0.359 N 
ATOM     63  H15 HIS d   1      13.126 -40.020  -7.661  0.00  0.00     0.143 H 
ATOM     64  CD2 HIS d   1      12.412 -42.077  -5.250  0.00  0.00     0.002 A 
ATOM     65  H16 HIS d   1      14.181 -40.893  -5.501  0.00  0.00     0.166 HD
ATOM     66  H14 HIS d   1      12.598 -42.614  -4.321  0.00  0.00     0.114 H 
ENDBRANCH  56  59
ENDBRANCH  33  56
ENDBRANCH  30  33
ENDBRANCH  27  29
BRANCH  27  67
ATOM     67  CB  MET d   1       9.474 -37.590  -4.131  0.00  0.00    -0.030 C 
ATOM     68  H19 MET d   1       9.605 -36.604  -4.601  0.00  0.00     0.037 H 
ATOM     69  H20 MET d   1      10.455 -37.985  -3.828  0.00  0.00     0.037 H 
BRANCH  67  70
ATOM     70  CG  MET d   1       8.616 -37.422  -2.888  0.00  0.00    -0.021 C 
ATOM     71  H21 MET d   1       8.609 -38.373  -2.336  0.00  0.00     0.049 H 
ATOM     72  H22 MET d   1       7.591 -37.172  -3.201  0.00  0.00     0.049 H 
BRANCH  70  73
ATOM     73  SD  MET d   1       9.213 -36.125  -1.790  0.00  0.00    -0.173 SA
BRANCH  73  74
ATOM     74  CE  MET d   1      10.744 -36.854  -1.236  0.00  0.00    -0.035 C 
ATOM     75  H23 MET d   1      11.246 -36.167  -0.538  0.00  0.00     0.041 H 
ATOM     76  H24 MET d   1      11.397 -37.038  -2.102  0.00  0.00     0.041 H 
ATOM     77  H25 MET d   1      10.534 -37.806  -0.726  0.00  0.00     0.041 H 
ENDBRANCH  73  74
ENDBRANCH  70  73
ENDBRANCH  67  70
ENDBRANCH  27  67
ENDBRANCH  24  27
ENDBRANCH  21  23
BRANCH  21  78
ATOM     78  CB  ASN d   1       7.402 -37.104  -9.351  0.00  0.00     0.036 C 
ATOM     79  H28 ASN d   1       6.729 -36.424  -8.808  0.00  0.00     0.051 H 
ATOM     80  H29 ASN d   1       7.000 -38.127  -9.312  0.00  0.00     0.051 H 
BRANCH  78  81
ATOM     81  CG  ASN d   1       7.462 -36.664 -10.804  0.00  0.00     0.217 C 
ATOM     82  OD1 ASN d   1       8.514 -36.696 -11.442  0.00  0.00    -0.274 OA
ATOM     83  ND2 ASN d   1       6.314 -36.255 -11.337  0.00  0.00    -0.370 N 
ATOM     84  H30 ASN d   1       6.285 -35.952 -12.290  0.00  0.00     0.159 HD
ATOM     85  H31 ASN d   1       5.480 -36.251 -10.785  0.00  0.00     0.159 HD
ENDBRANCH  78  81
ENDBRANCH  21  78
ENDBRANCH   9  21
ENDBRANCH   4   7
ENDBRANCH   1   3
BRANCH   1  86
ATOM     86  C   ASN d   1       7.836 -33.027 -12.201  0.00  0.00     0.241 C 
ATOM     87  O   ASN d   1       7.049 -32.618 -13.061  0.00  0.00    -0.271 OA
ATOM     88  N   ALA d   1       7.542 -33.028 -10.904  0.00  0.00    -0.346 N 
ATOM     89  H45 ALA d   1       8.229 -33.332 -10.244  0.00  0.00     0.163 HD
BRANCH  88  90
ATOM     90  CA  ALA d   1       6.235 -32.594 -10.429  0.00  0.00     0.086 C 
ATOM     91  H46 ALA d   1       5.464 -33.201 -10.926  0.00  0.00     0.086 H 
BRANCH  90  92
ATOM     92  C   ALA d   1       5.992 -31.127 -10.772  0.00  0.00     0.240 C 
ATOM     93  O   ALA d   1       6.927 -30.334 -10.906  0.00  0.00    -0.271 OA
ATOM     94  N   THR d   1       4.716 -30.771 -10.918  0.00  0.00    -0.344 N 
ATOM     95  H50 THR d   1       3.998 -31.459 -10.813  0.00  0.00     0.163 HD
BRANCH  94  96
ATOM     96  CA  THR d   1       4.352 -29.394 -11.229  0.00  0.00     0.113 C 
ATOM     97  H51 THR d   1       5.023 -29.022 -12.017  0.00  0.00     0.091 H 
BRANCH  96  98
ATOM     98  C   THR d   1       4.513 -28.517  -9.993  0.00  0.00     0.243 C 
ATOM     99  O   THR d   1       4.077 -28.885  -8.897  0.00  0.00    -0.271 OA
ATOM    100  N   GLU d   1       5.140 -27.356 -10.168  0.00  0.00    -0.346 N 
ATOM    101  H57 GLU d   1       5.464 -27.102 -11.079  0.00  0.00     0.163 HD
BRANCH 100 102
ATOM    102  CA  GLU d   1       5.360 -26.452  -9.048  0.00  0.00     0.090 C 
ATOM    103  H58 GLU d   1       5.866 -27.007  -8.244  0.00  0.00     0.087 H 
BRANCH 102 104
ATOM    104  C   GLU d   1       4.034 -25.921  -8.515  0.00  0.00     0.241 C 
ATOM    105  O   GLU d   1       3.073 -25.721  -9.261  0.00  0.00    -0.271 OA
ATOM    106  N   PHE d   1       3.989 -25.683  -7.207  0.00  0.00    -0.346 N 
ATOM    107  H63 PHE d   1       4.784 -25.916  -6.648  0.00  0.00     0.163 HD
BRANCH 106 108
ATOM    108  CA  PHE d   1       2.825 -25.096  -6.560  0.00  0.00     0.093 C 
ATOM    109  H64 PHE d   1       1.980 -25.135  -7.263  0.00  0.00     0.088 H 
BRANCH 108 110
ATOM    110  C   PHE d   1       3.106 -23.641  -6.211  0.00  0.00     0.241 C 
ATOM    111  O   PHE d   1       4.101 -23.338  -5.546  0.00  0.00    -0.271 OA
ATOM    112  N   MET d   1       2.219 -22.749  -6.646  0.00  0.00    -0.346 N 
ATOM    113  H72 MET d   1       1.498 -23.048  -7.271  0.00  0.00     0.163 HD
BRANCH 112 114
ATOM    114  CA  MET d   1       2.266 -21.352  -6.240  0.00  0.00     0.090 C 
ATOM    115  H73 MET d   1       3.181 -21.187  -5.652  0.00  0.00     0.087 H 
BRANCH 114 116
ATOM    116  C   MET d   1       1.061 -21.043  -5.367  0.00  0.00     0.243 C 
ATOM    117  O   MET d   1      -0.079 -21.278  -5.792  0.00  0.00    -0.271 OA
ATOM    118  N   PRO d   1       1.259 -20.530  -4.145  0.00  0.00    -0.336 N 
ATOM    119  CA  PRO d   1       0.168 -20.190  -3.224  0.00  0.00     0.098 C 
ATOM    120  CD  PRO d   1       2.582 -20.255  -3.561  0.00  0.00    -0.001 C 
ATOM    121  CB  PRO d   1       0.906 -19.738  -1.958  0.00  0.00    -0.035 C 
ATOM    122  H81 PRO d   1      -0.450 -21.077  -3.019  0.00  0.00     0.089 H 
ATOM    123  CG  PRO d   1       2.263 -19.325  -2.435  0.00  0.00    -0.048 C 
ATOM    124  H82 PRO d   1       0.984 -20.566  -1.238  0.00  0.00     0.036 H 
ATOM    125  H83 PRO d   1       0.386 -18.890  -1.488  0.00  0.00     0.036 H 
ATOM    126  H84 PRO d   1       3.003 -19.428  -1.628  0.00  0.00     0.035 H 
ATOM    127  H85 PRO d   1       2.247 -18.283  -2.788  0.00  0.00     0.035 H 
ATOM    128  H86 PRO d   1       3.246 -19.775  -4.295  0.00  0.00     0.064 H 
ATOM    129  H87 PRO d   1       3.051 -21.179  -3.191  0.00  0.00     0.064 H 
BRANCH 119 130
ATOM    130  C   PRO d   1      -0.730 -19.075  -3.754  0.00  0.00     0.196 C 
ATOM    131  O   PRO d   1      -0.288 -18.306  -4.607  0.00  0.00    -0.646 OA
ATOM    132  OXT PRO d   1      -1.875 -18.971  -3.316  0.00  0.00    -0.646 OA
ENDBRANCH 119 130
ENDBRANCH 114 116
BRANCH 114 133
ATOM    133  CB  MET d   1       2.299 -20.424  -7.453  0.00  0.00    -0.030 C 
ATOM    134  H74 MET d   1       2.047 -19.407  -7.118  0.00  0.00     0.037 H 
ATOM    135  H75 MET d   1       1.544 -20.770  -8.175  0.00  0.00     0.037 H 
BRANCH 133 136
ATOM    136  CG  MET d   1       3.646 -20.376  -8.155  0.00  0.00    -0.021 C 
ATOM    137  H76 MET d   1       3.622 -19.577  -8.910  0.00  0.00     0.049 H 
ATOM    138  H77 MET d   1       3.821 -21.343  -8.650  0.00  0.00     0.049 H 
BRANCH 136 139
ATOM    139  SD  MET d   1       5.010 -20.054  -7.013  0.00  0.00    -0.173 SA
BRANCH 139 140
ATOM    140  CE  MET d   1       4.523 -18.472  -6.321  0.00  0.00    -0.035 C 
ATOM    141  H78 MET d   1       5.278 -18.143  -5.591  0.00  0.00     0.041 H 
ATOM    142  H79 MET d   1       3.549 -18.575  -5.820  0.00  0.00     0.041 H 
ATOM    143  H80 MET d   1       4.444 -17.728  -7.127  0.00  0.00     0.041 H 
ENDBRANCH 139 140
ENDBRANCH 136 139
ENDBRANCH 133 136
ENDBRANCH 114 133
ENDBRANCH 112 114
ENDBRANCH 108 110
BRANCH 108 144
ATOM    144  CB  PHE d   1       2.439 -25.865  -5.294  0.00  0.00    -0.014 C 
ATOM    145  H65 PHE d   1       3.298 -25.860  -4.607  0.00  0.00     0.043 H 
ATOM    146  H66 PHE d   1       2.200 -26.901  -5.575  0.00  0.00     0.043 H 
BRANCH 144 147
ATOM    147  CG  PHE d   1       1.252 -25.279  -4.578  0.00  0.00    -0.056 A 
ATOM    148  CD1 PHE d   1      -0.038 -25.601  -4.972  0.00  0.00    -0.077 A 
ATOM    149  CE1 PHE d   1      -1.133 -25.057  -4.325  0.00  0.00    -0.082 A 
ATOM    150  H67 PHE d   1      -0.190 -26.287  -5.797  0.00  0.00     0.084 H 
ATOM    151  CZ  PHE d   1      -0.946 -24.176  -3.278  0.00  0.00    -0.083 A 
ATOM    152  H69 PHE d   1      -2.136 -25.322  -4.639  0.00  0.00     0.083 H 
ATOM    153  CE2 PHE d   1       0.333 -23.842  -2.880  0.00  0.00    -0.082 A 
ATOM    154  H71 PHE d   1      -1.802 -23.747  -2.770  0.00  0.00     0.083 H 
ATOM    155  CD2 PHE d   1       1.423 -24.392  -3.527  0.00  0.00    -0.077 A 
ATOM    156  H70 PHE d   1       0.482 -23.149  -2.060  0.00  0.00     0.083 H 
ATOM    157  H68 PHE d   1       2.425 -24.126  -3.208  0.00  0.00     0.084 H 
ENDBRANCH 144 147
ENDBRANCH 108 144
ENDBRANCH 106 108
ENDBRANCH 102 104
BRANCH 102 158
ATOM    158  CB  GLU d   1       6.249 -25.284  -9.472  0.00  0.00    -0.029 C 
ATOM    159  H59 GLU d   1       6.332 -24.587  -8.625  0.00  0.00     0.037 H 
ATOM    160  H60 GLU d   1       5.769 -24.774 -10.321  0.00  0.00     0.037 H 
BRANCH 158 161
ATOM    161  CG  GLU d   1       7.648 -25.695  -9.891  0.00  0.00     0.018 C 
ATOM    162  H61 GLU d   1       7.570 -26.460 -10.677  0.00  0.00     0.049 H 
ATOM    163  H62 GLU d   1       8.167 -26.118  -9.018  0.00  0.00     0.049 H 
BRANCH 161 164
ATOM    164  CD  GLU d   1       8.463 -24.533 -10.424  0.00  0.00     0.172 C 
ATOM    165  OE1 GLU d   1       8.111 -23.371 -10.130  0.00  0.00    -0.648 OA
ATOM    166  OE2 GLU d   1       9.455 -24.785 -11.140  0.00  0.00    -0.648 OA
ENDBRANCH 161 164
ENDBRANCH 158 161
ENDBRANCH 102 158
ENDBRANCH 100 102
ENDBRANCH  96  98
BRANCH  96 167
ATOM    167  CB  THR d   1       2.911 -29.321 -11.738  0.00  0.00     0.060 C 
ATOM    168  H52 THR d   1       2.226 -29.559 -10.911  0.00  0.00     0.086 H 
BRANCH 167 169
ATOM    169  OG1 THR d   1       2.721 -30.265 -12.799  0.00  0.00    -0.393 OA
ATOM    170  H53 THR d   1       1.825 -30.214 -13.110  0.00  0.00     0.210 HD
ENDBRANCH 167 169
BRANCH 167 171
ATOM    171  CG2 THR d   1       2.602 -27.924 -12.259  0.00  0.00    -0.050 C 
ATOM    172  H54 THR d   1       1.564 -27.889 -12.620  0.00  0.00     0.031 H 
ATOM    173  H55 THR d   1       3.286 -27.681 -13.085  0.00  0.00     0.031 H 
ATOM    174  H56 THR d   1       2.733 -27.193 -11.448  0.00  0.00     0.031 H 
ENDBRANCH 167 171
ENDBRANCH  96 167
ENDBRANCH  94  96
ENDBRANCH  90  92
BRANCH  90 175
ATOM    175  CB  ALA d   1       6.125 -32.805  -8.918  0.00  0.00    -0.049 C 
ATOM    176  H47 ALA d   1       5.135 -32.474  -8.573  0.00  0.00     0.030 H 
ATOM    177  H48 ALA d   1       6.905 -32.221  -8.408  0.00  0.00     0.030 H 
ATOM    178  H49 ALA d   1       6.256 -33.872  -8.686  0.00  0.00     0.030 H 
ENDBRANCH  90 175
ENDBRANCH  88  90
ENDBRANCH   1  86
BRANCH   1 179
ATOM    179  CB  ASN d   1       9.048 -34.462 -13.847  0.00  0.00     0.036 C 
ATOM    180  H41 ASN d   1       8.492 -33.918 -14.625  0.00  0.00     0.051 H 
ATOM    181  H42 ASN d   1       8.483 -35.358 -13.551  0.00  0.00     0.051 H 
BRANCH 179 182
ATOM    182  CG  ASN d   1      10.382 -34.896 -14.419  0.00  0.00     0.217 C 
ATOM    183  OD1 ASN d   1      11.154 -34.076 -14.915  0.00  0.00    -0.274 OA
ATOM    184  ND2 ASN d   1      10.657 -36.195 -14.363  0.00  0.00    -0.370 N 
ATOM    185  H43 ASN d   1      11.523 -36.539 -14.726  0.00  0.00     0.159 HD
ATOM    186  H44 ASN d   1       9.998 -36.829 -13.958  0.00  0.00     0.159 HD
ENDBRANCH 179 182
ENDBRANCH   1 179
TORSDOF 47
