REMARK  6 active torsions:
REMARK  status: ('A' for Active; 'I' for Inactive)
REMARK    1  A    between atoms: C2_1  and  O2_8 
REMARK    2  A    between atoms: C3_2  and  O3_9 
REMARK    3  A    between atoms: C4_3  and  O4_10 
REMARK    4  A    between atoms: C6_5  and  C5_4 
REMARK    5  A    between atoms: O6_12  and  C6_5 
REMARK    6  A    between atoms: C1_6  and  O1_7 
ROOT
ATOM      1  C2  BGC d   1     -19.659  -5.872  -2.636  0.00  0.00     0.110 C 
ATOM      2  C3  BGC d   1     -19.690  -6.415  -1.243  0.00  0.00     0.092 C 
ATOM      3  C4  BGC d   1     -20.591  -5.598  -0.374  0.00  0.00     0.090 C 
ATOM      4  C5  BGC d   1     -22.006  -5.652  -0.945  0.00  0.00     0.089 C 
ATOM      5  C1  BGC d   1     -21.071  -5.899  -3.227  0.00  0.00     0.156 C 
ATOM      6  O5  BGC d   1     -22.019  -5.150  -2.340  0.00  0.00    -0.349 OA
ATOM      7  H1  BGC d   1     -19.290  -4.836  -2.616  0.00  0.00     0.094 H 
ATOM      8  H2  BGC d   1     -20.093  -7.437  -1.295  0.00  0.00     0.091 H 
ATOM      9  H3  BGC d   1     -20.243  -4.555  -0.368  0.00  0.00     0.091 H 
ATOM     10  H4  BGC d   1     -22.334  -6.702  -0.946  0.00  0.00     0.090 H 
ATOM     11  H7  BGC d   1     -21.392  -6.949  -3.300  0.00  0.00     0.133 H 
ENDROOT
BRANCH   4  12
ATOM     12  C6  BGC d   1     -22.976  -4.857  -0.122  0.00  0.00     0.043 C 
ATOM     13  H5  BGC d   1     -22.598  -3.835   0.030  0.00  0.00     0.078 H 
ATOM     14  H6  BGC d   1     -23.132  -5.339   0.854  0.00  0.00     0.078 H 
BRANCH  12  15
ATOM     15  O6  BGC d   1     -24.182  -4.828  -0.849  0.00  0.00    -0.398 OA
ATOM     16  H12 BGC d   1     -24.032  -4.416  -1.692  0.00  0.00     0.209 HD
ENDBRANCH  12  15
ENDBRANCH   4  12
BRANCH   3  17
ATOM     17  O4  BGC d   1     -20.571  -6.105   0.969  0.00  0.00    -0.390 OA
ATOM     18  H11 BGC d   1     -19.685  -6.064   1.308  0.00  0.00     0.210 HD
ENDBRANCH   3  17
BRANCH   2  19
ATOM     19  O3  BGC d   1     -18.369  -6.486  -0.628  0.00  0.00    -0.390 OA
ATOM     20  H10 BGC d   1     -17.793  -7.005  -1.177  0.00  0.00     0.210 HD
ENDBRANCH   2  19
BRANCH   5  21
ATOM     21  O1  BGC d   1     -21.147  -5.334  -4.453  0.00  0.00    -0.369 OA
ATOM     22  H8  BGC d   1     -22.037  -5.403  -4.778  0.00  0.00     0.212 HD
ENDBRANCH   5  21
BRANCH   1  23
ATOM     23  O2  BGC d   1     -18.788  -6.674  -3.452  0.00  0.00    -0.388 OA
ATOM     24  H9  BGC d   1     -18.771  -6.323  -4.335  0.00  0.00     0.210 HD
ENDBRANCH   1  23
TORSDOF 6
