REMARK  9 active torsions:
REMARK  status: ('A' for Active; 'I' for Inactive)
REMARK    1  A    between atoms: CAI_1  and  CAG_2 
REMARK    2  A    between atoms: CAG_2  and  CAJ_3 
REMARK    3  A    between atoms: CAG_2  and  NAD_4 
REMARK    4  A    between atoms: NAD_4  and  CAF_5 
REMARK    5  A    between atoms: CAF_5  and  CAE_6 
REMARK    6  A    between atoms: CAE_6  and  OAA_7 
REMARK    7  A    between atoms: CAE_6  and  CAH_8 
REMARK    8  A    between atoms: CAO_12  and  OAC_13 
REMARK    9  A    between atoms: CAM_14  and  OAB_15 
ROOT
ATOM      1  CAE 5FW d   1      18.041 -32.714 -13.154  0.00  0.00     0.084 C 
ATOM      2  H12 5FW d   1      17.861 -33.794 -13.045  0.00  0.00     0.093 H 
ENDROOT
BRANCH   1   3
ATOM      3  CAF 5FW d   1      16.923 -31.946 -12.447  0.00  0.00     0.109 C 
ATOM      4  H10 5FW d   1      17.103 -30.866 -12.555  0.00  0.00     0.080 H 
ATOM      5  H11 5FW d   1      15.959 -32.206 -12.909  0.00  0.00     0.080 H 
BRANCH   3   6
ATOM      6  NAD 5FW d   1      16.880 -32.289 -11.009  0.00  0.00    -0.069 N 
ATOM      7  H8  5FW d   1      16.953 -33.290 -10.911  0.00  0.00     0.277 HD
ATOM      8  H9  5FW d   1      17.660 -31.849 -10.546  0.00  0.00     0.277 HD
BRANCH   6   9
ATOM      9  CAG 5FW d   1      15.623 -31.835 -10.366  0.00  0.00     0.095 C 
ATOM     10  H4  5FW d   1      14.783 -32.220 -10.962  0.00  0.00     0.083 H 
BRANCH   9  11
ATOM     11  CAI 5FW d   1      15.541 -32.449  -8.959  0.00  0.00    -0.050 C 
ATOM     12  H1  5FW d   1      14.612 -32.121  -8.469  0.00  0.00     0.030 H 
ATOM     13  H2  5FW d   1      16.406 -32.120  -8.364  0.00  0.00     0.030 H 
ATOM     14  H3  5FW d   1      15.546 -33.546  -9.037  0.00  0.00     0.030 H 
ENDBRANCH   9  11
BRANCH   9  15
ATOM     15  CAJ 5FW d   1      15.478 -30.295 -10.304  0.00  0.00    -0.050 C 
ATOM     16  H5  5FW d   1      15.540 -29.880 -11.321  0.00  0.00     0.030 H 
ATOM     17  H6  5FW d   1      16.286 -29.875  -9.687  0.00  0.00     0.030 H 
ATOM     18  H7  5FW d   1      14.505 -30.036  -9.861  0.00  0.00     0.030 H 
ENDBRANCH   9  15
ENDBRANCH   6   9
ENDBRANCH   3   6
ENDBRANCH   1   3
BRANCH   1  19
ATOM     19  OAA 5FW d   1      19.277 -32.387 -12.525  0.00  0.00    -0.389 OA
ATOM     20  H13 5FW d   1      19.429 -31.452 -12.595  0.00  0.00     0.210 HD
ENDBRANCH   1  19
BRANCH   1  21
ATOM     21  CAH 5FW d   1      18.060 -32.372 -14.652  0.00  0.00    -0.025 A 
ATOM     22  CAK 5FW d   1      17.097 -32.945 -15.490  0.00  0.00    -0.040 A 
ATOM     23  CAM 5FW d   1      17.094 -32.667 -16.858  0.00  0.00     0.099 A 
ATOM     24  H14 5FW d   1      16.348 -33.609 -15.074  0.00  0.00     0.088 H 
ATOM     25  CAO 5FW d   1      18.050 -31.803 -17.390  0.00  0.00     0.098 A 
ATOM     26  CAN 5FW d   1      19.011 -31.226 -16.561  0.00  0.00    -0.048 A 
ATOM     27  CAL 5FW d   1      19.017 -31.510 -15.192  0.00  0.00    -0.072 A 
ATOM     28  H16 5FW d   1      19.754 -30.556 -16.978  0.00  0.00     0.087 H 
ATOM     29  H15 5FW d   1      19.765 -31.061 -14.549  0.00  0.00     0.084 H 
BRANCH  23  30
ATOM     30  OAB 5FW d   1      16.153 -33.240 -17.655  0.00  0.00    -0.358 OA
ATOM     31  H18 5FW d   1      15.634 -32.560 -18.069  0.00  0.00     0.217 HD
ENDBRANCH  23  30
BRANCH  25  32
ATOM     32  OAC 5FW d   1      18.044 -31.530 -18.716  0.00  0.00    -0.358 OA
ATOM     33  H17 5FW d   1      17.331 -32.000 -19.132  0.00  0.00     0.217 HD
ENDBRANCH  25  32
ENDBRANCH   1  21
TORSDOF 9
