REMARK  11 active torsions:
REMARK  status: ('A' for Active; 'I' for Inactive)
REMARK    1  A    between atoms: O3_1  and  C16_2 
REMARK    2  A    between atoms: C13_7  and  C12_8 
REMARK    3  A    between atoms: C12_8  and  C11_9 
REMARK    4  A    between atoms: C11_9  and  C9_10 
REMARK    5  A    between atoms: C9_10  and  C10_11 
REMARK    6  A    between atoms: C9_10  and  N1_12 
REMARK    7  A    between atoms: N1_12  and  C8_13 
REMARK    8  A    between atoms: C8_13  and  C1_14 
REMARK    9  A    between atoms: C1_14  and  C2_15 
REMARK   10  A    between atoms: C6_17  and  O1_18 
REMARK   11  A    between atoms: C5_19  and  O2_20 
ROOT
ATOM      1  C9  Y00 d   1     -42.899  28.626 -10.114  0.00  0.00     0.099 C 
ATOM      2  H10 Y00 d   1     -43.772  28.119 -10.550  0.00  0.00     0.083 H 
ENDROOT
BRANCH   1   3
ATOM      3  C11 Y00 d   1     -42.843  28.293  -8.624  0.00  0.00    -0.035 C 
ATOM      4  H8  Y00 d   1     -41.901  28.682  -8.211  0.00  0.00     0.036 H 
ATOM      5  H9  Y00 d   1     -43.692  28.779  -8.122  0.00  0.00     0.036 H 
BRANCH   3   6
ATOM      6  C12 Y00 d   1     -42.911  26.793  -8.358  0.00  0.00    -0.039 C 
ATOM      7  H6  Y00 d   1     -43.904  26.412  -8.638  0.00  0.00     0.040 H 
ATOM      8  H7  Y00 d   1     -42.140  26.276  -8.948  0.00  0.00     0.040 H 
BRANCH   6   9
ATOM      9  C13 Y00 d   1     -42.670  26.554  -6.884  0.00  0.00    -0.058 A 
ATOM     10  C14 Y00 d   1     -43.746  26.232  -6.056  0.00  0.00    -0.074 A 
ATOM     11  C15 Y00 d   1     -43.526  26.006  -4.699  0.00  0.00    -0.051 A 
ATOM     12  H3  Y00 d   1     -44.747  26.158  -6.466  0.00  0.00     0.084 H 
ATOM     13  C16 Y00 d   1     -42.235  26.108  -4.177  0.00  0.00     0.065 A 
ATOM     14  H2  Y00 d   1     -44.356  25.751  -4.050  0.00  0.00     0.087 H 
ATOM     15  C17 Y00 d   1     -41.161  26.438  -4.992  0.00  0.00    -0.051 A 
ATOM     16  C18 Y00 d   1     -41.374  26.647  -6.349  0.00  0.00    -0.074 A 
ATOM     17  H4  Y00 d   1     -40.165  26.532  -4.574  0.00  0.00     0.087 H 
ATOM     18  H5  Y00 d   1     -40.538  26.883  -6.997  0.00  0.00     0.084 H 
BRANCH  13  19
ATOM     19  O3  Y00 d   1     -42.022  25.883  -2.861  0.00  0.00    -0.361 OA
ATOM     20  H1  Y00 d   1     -42.529  26.502  -2.349  0.00  0.00     0.217 HD
ENDBRANCH  13  19
ENDBRANCH   6   9
ENDBRANCH   3   6
ENDBRANCH   1   3
BRANCH   1  21
ATOM     21  C10 Y00 d   1     -43.094  30.135 -10.266  0.00  0.00    -0.050 C 
ATOM     22  H11 Y00 d   1     -43.137  30.393 -11.334  0.00  0.00     0.030 H 
ATOM     23  H12 Y00 d   1     -42.252  30.663  -9.794  0.00  0.00     0.030 H 
ATOM     24  H13 Y00 d   1     -44.034  30.434  -9.779  0.00  0.00     0.030 H 
ENDBRANCH   1  21
BRANCH   1  25
ATOM     25  N1  Y00 d   1     -41.711  28.151 -10.823  0.00  0.00    -0.071 N 
ATOM     26  H14 Y00 d   1     -41.491  27.244 -10.442  0.00  0.00     0.277 HD
ATOM     27  H15 Y00 d   1     -40.968  28.796 -10.605  0.00  0.00     0.277 HD
BRANCH  25  28
ATOM     28  C8  Y00 d   1     -41.723  28.003 -12.267  0.00  0.00     0.086 C 
ATOM     29  H16 Y00 d   1     -42.033  28.962 -12.707  0.00  0.00     0.076 H 
ATOM     30  H17 Y00 d   1     -42.458  27.226 -12.526  0.00  0.00     0.076 H 
BRANCH  28  31
ATOM     31  C1  Y00 d   1     -40.382  27.611 -12.879  0.00  0.00    -0.018 C 
ATOM     32  H18 Y00 d   1     -40.196  26.543 -12.693  0.00  0.00     0.042 H 
ATOM     33  H19 Y00 d   1     -39.583  28.209 -12.417  0.00  0.00     0.042 H 
BRANCH  31  34
ATOM     34  C2  Y00 d   1     -40.397  27.866 -14.381  0.00  0.00    -0.054 A 
ATOM     35  C7  Y00 d   1     -41.426  27.342 -15.191  0.00  0.00    -0.042 A 
ATOM     36  C6  Y00 d   1     -41.444  27.581 -16.564  0.00  0.00     0.099 A 
ATOM     37  H20 Y00 d   1     -42.212  26.747 -14.741  0.00  0.00     0.088 H 
ATOM     38  C5  Y00 d   1     -40.357  28.396 -17.156  0.00  0.00     0.098 A 
ATOM     39  C4  Y00 d   1     -39.361  28.900 -16.325  0.00  0.00    -0.048 A 
ATOM     40  C3  Y00 d   1     -39.378  28.634 -14.956  0.00  0.00    -0.074 A 
ATOM     41  H23 Y00 d   1     -38.565  29.504 -16.745  0.00  0.00     0.087 H 
ATOM     42  H24 Y00 d   1     -38.589  29.029 -14.327  0.00  0.00     0.084 H 
BRANCH  36  43
ATOM     43  O1  Y00 d   1     -42.434  27.079 -17.356  0.00  0.00    -0.358 OA
ATOM     44  H21 Y00 d   1     -42.282  27.343 -18.256  0.00  0.00     0.217 HD
ENDBRANCH  36  43
BRANCH  38  45
ATOM     45  O2  Y00 d   1     -40.356  28.644 -18.492  0.00  0.00    -0.358 OA
ATOM     46  H22 Y00 d   1     -39.600  29.175 -18.714  0.00  0.00     0.217 HD
ENDBRANCH  38  45
ENDBRANCH  31  34
ENDBRANCH  28  31
ENDBRANCH  25  28
ENDBRANCH   1  25
TORSDOF 11
