REMARK  11 active torsions:
REMARK  status: ('A' for Active; 'I' for Inactive)
REMARK    1  A    between atoms: O2_1  and  C2_2 
REMARK    2  A    between atoms: C2_2  and  C12_3 
REMARK    3  A    between atoms: C11_4  and  O1_5 
REMARK    4  A    between atoms: C8_9  and  C1_10 
REMARK    5  A    between atoms: C1_10  and  O3_11 
REMARK    6  A    between atoms: C1_10  and  C3_12 
REMARK    7  A    between atoms: C3_12  and  N1_13 
REMARK    8  A    between atoms: N1_13  and  C4_14 
REMARK    9  A    between atoms: C4_14  and  C7_15 
REMARK   10  A    between atoms: C4_14  and  C6_16 
REMARK   11  A    between atoms: C4_14  and  C5_17 
ROOT
ATOM      1  C1  68H d   1     -18.080 -33.172  13.277  0.00  0.00     0.084 C 
ATOM      2  H8  68H d   1     -17.893 -34.253  13.202  0.00  0.00     0.093 H 
ENDROOT
BRANCH   1   3
ATOM      3  C8  68H d   1     -18.116 -32.808  14.724  0.00  0.00    -0.027 A 
ATOM      4  C9  68H d   1     -19.109 -31.988  15.266  0.00  0.00    -0.072 A 
ATOM      5  C10 68H d   1     -19.110 -31.673  16.627  0.00  0.00    -0.050 A 
ATOM      6  H6  68H d   1     -19.887 -31.592  14.623  0.00  0.00     0.084 H 
ATOM      7  C11 68H d   1     -18.110 -32.155  17.479  0.00  0.00     0.074 A 
ATOM      8  H5  68H d   1     -19.897 -31.046  17.029  0.00  0.00     0.087 H 
ATOM      9  C12 68H d   1     -17.048 -33.017  16.913  0.00  0.00    -0.001 A 
ATOM     10  C13 68H d   1     -17.095 -33.309  15.552  0.00  0.00    -0.064 A 
ATOM     11  H7  68H d   1     -16.325 -33.938  15.120  0.00  0.00     0.085 H 
BRANCH   7  12
ATOM     12  O1  68H d   1     -18.123 -31.835  18.798  0.00  0.00    -0.360 OA
ATOM     13  H4  68H d   1     -18.871 -31.279  18.980  0.00  0.00     0.217 HD
ENDBRANCH   7  12
BRANCH   9  14
ATOM     14  C2  68H d   1     -15.948 -33.592  17.778  0.00  0.00     0.043 C 
ATOM     15  H2  68H d   1     -16.373 -33.856  18.758  0.00  0.00     0.081 H 
ATOM     16  H3  68H d   1     -15.556 -34.498  17.293  0.00  0.00     0.081 H 
BRANCH  14  17
ATOM     17  O2  68H d   1     -14.861 -32.671  17.980  0.00  0.00    -0.396 OA
ATOM     18  H1  68H d   1     -14.200 -33.078  18.527  0.00  0.00     0.209 HD
ENDBRANCH  14  17
ENDBRANCH   9  14
ENDBRANCH   1   3
BRANCH   1  19
ATOM     19  O3  68H d   1     -19.294 -32.900  12.566  0.00  0.00    -0.389 OA
ATOM     20  H9  68H d   1     -19.486 -31.971  12.613  0.00  0.00     0.210 HD
ENDBRANCH   1  19
BRANCH   1  21
ATOM     21  C3  68H d   1     -16.903 -32.427  12.655  0.00  0.00     0.110 C 
ATOM     22  H10 68H d   1     -15.966 -32.839  13.059  0.00  0.00     0.080 H 
ATOM     23  H11 68H d   1     -16.977 -31.361  12.917  0.00  0.00     0.080 H 
BRANCH  21  24
ATOM     24  N1  68H d   1     -16.890 -32.557  11.208  0.00  0.00    -0.065 N 
ATOM     25  H12 68H d   1     -17.588 -31.919  10.860  0.00  0.00     0.278 HD
ATOM     26  H13 68H d   1     -17.169 -33.504  11.006  0.00  0.00     0.278 HD
BRANCH  24  27
ATOM     27  C4  68H d   1     -15.681 -32.309  10.427  0.00  0.00     0.115 C 
BRANCH  27  28
ATOM     28  C7  68H d   1     -16.064 -32.429   8.942  0.00  0.00    -0.046 C 
ATOM     29  H14 68H d   1     -15.176 -32.248   8.319  0.00  0.00     0.030 H 
ATOM     30  H15 68H d   1     -16.838 -31.686   8.702  0.00  0.00     0.030 H 
ATOM     31  H16 68H d   1     -16.451 -33.439   8.744  0.00  0.00     0.030 H 
ENDBRANCH  27  28
BRANCH  27  32
ATOM     32  C6  68H d   1     -15.164 -30.883  10.698  0.00  0.00    -0.046 C 
ATOM     33  H17 68H d   1     -14.254 -30.704  10.107  0.00  0.00     0.030 H 
ATOM     34  H18 68H d   1     -14.933 -30.774  11.768  0.00  0.00     0.030 H 
ATOM     35  H19 68H d   1     -15.936 -30.153  10.413  0.00  0.00     0.030 H 
ENDBRANCH  27  32
BRANCH  27  36
ATOM     36  C5  68H d   1     -14.620 -33.369  10.805  0.00  0.00    -0.046 C 
ATOM     37  H20 68H d   1     -13.703 -33.194  10.223  0.00  0.00     0.030 H 
ATOM     38  H21 68H d   1     -15.009 -34.373  10.582  0.00  0.00     0.030 H 
ATOM     39  H22 68H d   1     -14.393 -33.294  11.879  0.00  0.00     0.030 H 
ENDBRANCH  27  36
ENDBRANCH  24  27
ENDBRANCH  21  24
ENDBRANCH   1  21
TORSDOF 11
