REMARK  10 active torsions:
REMARK  status: ('A' for Active; 'I' for Inactive)
REMARK       I    between atoms: C5_2  and  N1_12 
REMARK       I    between atoms: N2_13  and  C5_2 
REMARK    1  A    between atoms: C6_3  and  N2_13 
REMARK    2  A    between atoms: C7_14  and  C6_3 
REMARK    3  A    between atoms: C9_17  and  O5_8 
REMARK    4  A    between atoms: C14_22  and  O4_9 
REMARK    5  A    between atoms: O3_10  and  C10_18 
REMARK    6  A    between atoms: C11_19  and  O3_10 
REMARK    7  A    between atoms: N3_15  and  C7_14 
REMARK    8  A    between atoms: C8_16  and  N3_15 
REMARK    9  A    between atoms: C9_17  and  C8_16 
REMARK   10  A    between atoms: C10_18  and  C9_17 
ROOT
ATOM      1  N3  FVK d   1     -17.022 -32.676  10.704  0.00  0.00    -0.071 N 
ATOM      2  H16 FVK d   1     -16.650 -33.586  10.482  0.00  0.00     0.277 HD
ATOM      3  H17 FVK d   1     -17.845 -32.505  10.148  0.00  0.00     0.277 HD
ENDROOT
BRANCH   1   4
ATOM      4  C7  FVK d   1     -16.015 -31.666  10.369  0.00  0.00     0.096 C 
ATOM      5  H14 FVK d   1     -16.533 -30.734  10.098  0.00  0.00     0.078 H 
ATOM      6  H15 FVK d   1     -15.387 -31.492  11.255  0.00  0.00     0.078 H 
BRANCH   4   7
ATOM      7  C6  FVK d   1     -15.118 -32.070   9.216  0.00  0.00     0.019 C 
ATOM      8  H3  FVK d   1     -14.696 -31.161   8.763  0.00  0.00     0.066 H 
ATOM      9  H4  FVK d   1     -14.303 -32.697   9.607  0.00  0.00     0.066 H 
BRANCH   7  10
ATOM     10  N2  FVK d   1     -15.830 -32.817   8.187  0.00  0.00    -0.341 N 
ATOM     11  C5  FVK d   1     -15.256 -33.768   7.474  0.00  0.00     0.318 C 
ATOM     12  O2  FVK d   1     -14.080 -34.069   7.667  0.00  0.00    -0.247 OA
ATOM     13  N1  FVK d   1     -16.007 -34.460   6.549  0.00  0.00    -0.330 N 
ATOM     14  C4  FVK d   1     -17.327 -34.094   6.043  0.00  0.00     0.019 C 
ATOM     15  C1  FVK d   1     -15.535 -35.730   6.003  0.00  0.00     0.019 C 
ATOM     16  C3  FVK d   1     -17.354 -34.166   4.535  0.00  0.00     0.034 C 
ATOM     17  H1  FVK d   1     -18.076 -34.788   6.452  0.00  0.00     0.067 H 
ATOM     18  H2  FVK d   1     -17.565 -33.068   6.361  0.00  0.00     0.067 H 
ATOM     19  O1  FVK d   1     -16.916 -35.429   4.048  0.00  0.00    -0.388 OA
ATOM     20  H5  FVK d   1     -16.695 -33.383   4.131  0.00  0.00     0.076 H 
ATOM     21  H6  FVK d   1     -18.384 -33.992   4.191  0.00  0.00     0.076 H 
ATOM     22  C2  FVK d   1     -15.592 -35.685   4.498  0.00  0.00     0.034 C 
ATOM     23  H9  FVK d   1     -15.256 -36.652   4.096  0.00  0.00     0.076 H 
ATOM     24  H10 FVK d   1     -14.928 -34.886   4.136  0.00  0.00     0.076 H 
ATOM     25  H7  FVK d   1     -14.498 -35.904   6.325  0.00  0.00     0.067 H 
ATOM     26  H8  FVK d   1     -16.175 -36.546   6.369  0.00  0.00     0.067 H 
ATOM     27  H13 FVK d   1     -16.791 -32.601   8.014  0.00  0.00     0.164 HD
ENDBRANCH   7  10
ENDBRANCH   4   7
ENDBRANCH   1   4
BRANCH   1  28
ATOM     28  C8  FVK d   1     -17.403 -32.661  12.117  0.00  0.00     0.107 C 
ATOM     29  H18 FVK d   1     -17.463 -31.616  12.456  0.00  0.00     0.079 H 
ATOM     30  H19 FVK d   1     -16.633 -33.191  12.697  0.00  0.00     0.079 H 
BRANCH  28  31
ATOM     31  C9  FVK d   1     -18.748 -33.333  12.360  0.00  0.00     0.079 C 
ATOM     32  H20 FVK d   1     -18.602 -34.423  12.354  0.00  0.00     0.088 H 
BRANCH  31  33
ATOM     33  O5  FVK d   1     -19.685 -32.994  11.347  0.00  0.00    -0.392 OA
ATOM     34  H11 FVK d   1     -19.814 -32.053  11.339  0.00  0.00     0.210 HD
ENDBRANCH  31  33
BRANCH  31  35
ATOM     35  C10 FVK d   1     -19.292 -32.918  13.710  0.00  0.00     0.051 C 
ATOM     36  H21 FVK d   1     -19.463 -31.832  13.726  0.00  0.00     0.079 H 
ATOM     37  H22 FVK d   1     -20.239 -33.441  13.908  0.00  0.00     0.079 H 
BRANCH  35  38
ATOM     38  O3  FVK d   1     -18.321 -33.273  14.705  0.00  0.00    -0.349 OA
BRANCH  38  39
ATOM     39  C11 FVK d   1     -18.369 -32.692  15.948  0.00  0.00     0.069 A 
ATOM     40  C12 FVK d   1     -17.353 -33.037  16.829  0.00  0.00    -0.048 A 
ATOM     41  C13 FVK d   1     -17.320 -32.500  18.108  0.00  0.00    -0.048 A 
ATOM     42  H23 FVK d   1     -16.581 -33.730  16.516  0.00  0.00     0.087 H 
ATOM     43  C14 FVK d   1     -18.307 -31.619  18.519  0.00  0.00     0.065 A 
ATOM     44  H24 FVK d   1     -16.520 -32.770  18.787  0.00  0.00     0.087 H 
ATOM     45  C15 FVK d   1     -19.321 -31.276  17.643  0.00  0.00    -0.048 A 
ATOM     46  C16 FVK d   1     -19.356 -31.807  16.365  0.00  0.00    -0.048 A 
ATOM     47  H25 FVK d   1     -20.095 -30.586  17.960  0.00  0.00     0.087 H 
ATOM     48  H26 FVK d   1     -20.156 -31.532  15.687  0.00  0.00     0.087 H 
BRANCH  43  49
ATOM     49  O4  FVK d   1     -18.292 -31.087  19.769  0.00  0.00    -0.361 OA
ATOM     50  H12 FVK d   1     -19.039 -30.509  19.875  0.00  0.00     0.217 HD
ENDBRANCH  43  49
ENDBRANCH  38  39
ENDBRANCH  35  38
ENDBRANCH  31  35
ENDBRANCH  28  31
ENDBRANCH   1  28
TORSDOF 10
