REMARK  10 active torsions:
REMARK  status: ('A' for Active; 'I' for Inactive)
REMARK    1  A    between atoms: C10_2  and  O2_1 
REMARK    2  A    between atoms: C10_2  and  C11_4 
REMARK    3  A    between atoms: C9_9  and  C10_2 
REMARK    4  A    between atoms: C11_4  and  N2_5 
REMARK    5  A    between atoms: N2_5  and  C12_6 
REMARK    6  A    between atoms: C12_6  and  C15_7 
REMARK    7  A    between atoms: C12_6  and  C13_8 
REMARK    8  A    between atoms: C12_6  and  C14_21 
REMARK    9  A    between atoms: O1_10  and  C9_9 
REMARK   10  A    between atoms: C4_11  and  O1_10 
ROOT
ATOM      1  N3  P32 d   1     -12.956 -33.547  18.100  0.00  0.00    -0.190 NA
ATOM      2  C4  P32 d   1     -18.318 -31.995  15.872  0.00  0.00     0.081 A 
ATOM      3  C5  P32 d   1     -19.378 -31.305  16.454  0.00  0.00    -0.050 A 
ATOM      4  C6  P32 d   1     -19.323 -30.848  17.777  0.00  0.00    -0.078 A 
ATOM      5  C7  P32 d   1     -18.210 -31.040  18.600  0.00  0.00    -0.056 A 
ATOM      6  C8  P32 d   1     -17.106 -31.716  18.122  0.00  0.00     0.046 A 
ATOM      7  C3  P32 d   1     -17.126 -32.221  16.719  0.00  0.00     0.027 A 
ATOM      8  N1  P32 d   1     -15.908 -32.042  18.669  0.00  0.00    -0.347 N 
ATOM      9  C1  P32 d   1     -15.280 -32.699  17.670  0.00  0.00     0.115 A 
ATOM     10  C2  P32 d   1     -15.914 -32.900  16.317  0.00  0.00    -0.032 A 
ATOM     11  C16 P32 d   1     -14.036 -33.144  17.924  0.00  0.00     0.117 C 
ATOM     12  H15 P32 d   1     -20.270 -31.116  15.867  0.00  0.00     0.087 H 
ATOM     13  H16 P32 d   1     -20.181 -30.323  18.180  0.00  0.00     0.083 H 
ATOM     14  H17 P32 d   1     -18.214 -30.658  19.614  0.00  0.00     0.086 H 
ATOM     15  H18 P32 d   1     -15.561 -31.838  19.617  0.00  0.00     0.167 HD
ATOM     16  H19 P32 d   1     -15.586 -33.374  15.393  0.00  0.00     0.089 H 
ENDROOT
BRANCH   2  17
ATOM     17  O1  P32 d   1     -18.348 -32.467  14.585  0.00  0.00    -0.348 OA
BRANCH  17  18
ATOM     18  C9  P32 d   1     -19.296 -32.074  13.583  0.00  0.00     0.051 C 
ATOM     19  H13 P32 d   1     -20.271 -32.536  13.797  0.00  0.00     0.079 H 
ATOM     20  H14 P32 d   1     -19.401 -30.979  13.584  0.00  0.00     0.079 H 
BRANCH  18  21
ATOM     21  C10 P32 d   1     -18.799 -32.539  12.217  0.00  0.00     0.079 C 
ATOM     22  H2  P32 d   1     -18.645 -33.628  12.246  0.00  0.00     0.088 H 
BRANCH  21  23
ATOM     23  O2  P32 d   1     -19.733 -32.246  11.169  0.00  0.00    -0.392 OA
ATOM     24  H1  P32 d   1     -19.875 -31.308  11.126  0.00  0.00     0.210 HD
ENDBRANCH  21  23
BRANCH  21  25
ATOM     25  C11 P32 d   1     -17.462 -31.850  11.962  0.00  0.00     0.108 C 
ATOM     26  H3  P32 d   1     -16.703 -32.281  12.631  0.00  0.00     0.079 H 
ATOM     27  H4  P32 d   1     -17.567 -30.775  12.171  0.00  0.00     0.079 H 
BRANCH  25  28
ATOM     28  N2  P32 d   1     -17.035 -32.025  10.589  0.00  0.00    -0.065 N 
ATOM     29  H5  P32 d   1     -17.732 -31.576  10.016  0.00  0.00     0.278 HD
ATOM     30  H6  P32 d   1     -17.045 -33.018  10.414  0.00  0.00     0.278 HD
BRANCH  28  31
ATOM     31  C12 P32 d   1     -15.748 -31.541  10.120  0.00  0.00     0.115 C 
BRANCH  31  32
ATOM     32  C15 P32 d   1     -14.624 -31.917  11.096  0.00  0.00    -0.046 C 
ATOM     33  H7  P32 d   1     -13.665 -31.538  10.714  0.00  0.00     0.030 H 
ATOM     34  H8  P32 d   1     -14.573 -33.012  11.193  0.00  0.00     0.030 H 
ATOM     35  H9  P32 d   1     -14.829 -31.471  12.081  0.00  0.00     0.030 H 
ENDBRANCH  31  32
BRANCH  31  36
ATOM     36  C13 P32 d   1     -15.758 -30.020   9.962  0.00  0.00    -0.046 C 
ATOM     37  H10 P32 d   1     -14.773 -29.682   9.607  0.00  0.00     0.030 H 
ATOM     38  H11 P32 d   1     -15.978 -29.552  10.933  0.00  0.00     0.030 H 
ATOM     39  H12 P32 d   1     -16.530 -29.732   9.233  0.00  0.00     0.030 H 
ENDBRANCH  31  36
BRANCH  31  40
ATOM     40  C14 P32 d   1     -15.502 -32.201   8.757  0.00  0.00    -0.046 C 
ATOM     41  H20 P32 d   1     -14.534 -31.865   8.356  0.00  0.00     0.030 H 
ATOM     42  H21 P32 d   1     -16.305 -31.916   8.061  0.00  0.00     0.030 H 
ATOM     43  H22 P32 d   1     -15.490 -33.294   8.876  0.00  0.00     0.030 H 
ENDBRANCH  31  40
ENDBRANCH  28  31
ENDBRANCH  25  28
ENDBRANCH  21  25
ENDBRANCH  18  21
ENDBRANCH  17  18
ENDBRANCH   2  17
TORSDOF 10
