REMARK  5 active torsions:
REMARK  status: ('A' for Active; 'I' for Inactive)
REMARK    1  A    between atoms: C_6  and  C1_1 
REMARK    2  A    between atoms: C1_1  and  C2_7 
REMARK    3  A    between atoms: C3_2  and  C4_4 
REMARK    4  A    between atoms: C3_2  and  C_6 
REMARK    5  A    between atoms: C4_4  and  N_5 
ROOT
ATOM      1  C3  FVT d   1      19.237   4.852  33.033  0.00  0.00     0.152 C 
ATOM      2  O2  FVT d   1      18.837   5.931  32.650  0.00  0.00    -0.296 OA
ENDROOT
BRANCH   1   3
ATOM      3  C4  FVT d   1      18.454   3.581  32.764  0.00  0.00     0.134 C 
ATOM      4  H3  FVT d   1      18.629   2.889  33.601  0.00  0.00     0.087 H 
ATOM      5  H4  FVT d   1      18.836   3.136  31.834  0.00  0.00     0.087 H 
BRANCH   3   6
ATOM      6  N   FVT d   1      17.010   3.761  32.620  0.00  0.00    -0.073 N 
ATOM      7  H5  FVT d   1      16.576   2.868  32.445  0.00  0.00     0.274 HD
ATOM      8  H6  FVT d   1      16.824   4.382  31.848  0.00  0.00     0.274 HD
ATOM      9  H7  FVT d   1      16.634   4.156  33.468  0.00  0.00     0.274 HD
ENDBRANCH   3   6
ENDBRANCH   1   3
BRANCH   1  10
ATOM     10  C   FVT d   1      20.534   4.726  33.788  0.00  0.00     0.001 C 
ATOM     11  H8  FVT d   1      20.631   5.580  34.475  0.00  0.00     0.045 H 
ATOM     12  H9  FVT d   1      20.521   3.790  34.366  0.00  0.00     0.045 H 
BRANCH  10  13
ATOM     13  C1  FVT d   1      21.731   4.709  32.850  0.00  0.00     0.022 C 
ATOM     14  H1  FVT d   1      21.649   5.566  32.166  0.00  0.00     0.049 H 
ATOM     15  H2  FVT d   1      21.706   3.774  32.271  0.00  0.00     0.049 H 
BRANCH  13  16
ATOM     16  C2  FVT d   1      23.052   4.793  33.559  0.00  0.00     0.172 C 
ATOM     17  O   FVT d   1      23.787   5.759  33.472  0.00  0.00    -0.648 OA
ATOM     18  O1  FVT d   1      23.337   3.728  34.272  0.00  0.00    -0.648 OA
ENDBRANCH  13  16
ENDBRANCH  10  13
ENDBRANCH   1  10
TORSDOF 5
