REMARK  12 active torsions:
REMARK  status: ('A' for Active; 'I' for Inactive)
REMARK    1  A    between atoms: CBB_2  and  CBA_4 
REMARK    2  A    between atoms: CBA_4  and  CAZ_5 
REMARK    3  A    between atoms: CAZ_5  and  CAV_6 
REMARK    4  A    between atoms: CAV_6  and  CAW_7 
REMARK    5  A    between atoms: CAV_6  and  NAU_10 
REMARK       I    between atoms: NAU_10  and  CAA_11 
REMARK       I    between atoms: CAA_11  and  N_13 
REMARK    6  A    between atoms: N_13  and  CA_14 
REMARK    7  A    between atoms: CA_14  and  C_15 
REMARK    8  A    between atoms: CA_14  and  CB_18 
REMARK    9  A    between atoms: CB_18  and  CAM_19 
REMARK   10  A    between atoms: CAM_19  and  CAL_20 
REMARK   11  A    between atoms: CAL_20  and  CAJ_21 
REMARK       I    between atoms: CAJ_21  and  NAI_23 
REMARK   12  A    between atoms: NAI_23  and  CAC_24 
ROOT
ATOM      1  CA  FVZ d   1      20.159  45.319  44.486  0.00  0.00     0.098 C 
ATOM      2  H8  FVZ d   1      20.183  44.230  44.640  0.00  0.00     0.089 H 
ENDROOT
BRANCH   1   3
ATOM      3  N   FVZ d   1      18.845  45.708  43.892  0.00  0.00    -0.329 N 
ATOM      4  CAA FVZ d   1      18.150  44.937  43.088  0.00  0.00     0.317 C 
ATOM      5  NAU FVZ d   1      16.913  45.418  42.734  0.00  0.00    -0.329 N 
ATOM      6  OAT FVZ d   1      18.561  43.838  42.651  0.00  0.00    -0.247 OA
ATOM      7  H6  FVZ d   1      16.479  46.135  43.280  0.00  0.00     0.165 HD
ATOM      8  H7  FVZ d   1      18.473  46.608  44.120  0.00  0.00     0.165 HD
BRANCH   5   9
ATOM      9  CAV FVZ d   1      16.223  44.874  41.543  0.00  0.00     0.098 C 
ATOM     10  H5  FVZ d   1      15.987  43.816  41.731  0.00  0.00     0.089 H 
BRANCH   9  11
ATOM     11  CAZ FVZ d   1      14.881  45.622  41.147  0.00  0.00    -0.028 C 
ATOM     12  H3  FVZ d   1      14.536  45.257  40.169  0.00  0.00     0.037 H 
ATOM     13  H4  FVZ d   1      14.112  45.418  41.907  0.00  0.00     0.037 H 
BRANCH  11  14
ATOM     14  CBA FVZ d   1      15.130  47.142  41.067  0.00  0.00     0.018 C 
ATOM     15  H1  FVZ d   1      15.247  47.535  42.088  0.00  0.00     0.049 H 
ATOM     16  H2  FVZ d   1      16.054  47.319  40.498  0.00  0.00     0.049 H 
BRANCH  14  17
ATOM     17  CBB FVZ d   1      13.965  47.897  40.373  0.00  0.00     0.172 C 
ATOM     18  OBC FVZ d   1      13.183  47.247  39.633  0.00  0.00    -0.648 OA
ATOM     19  OBD FVZ d   1      13.874  49.133  40.623  0.00  0.00    -0.648 OA
ENDBRANCH  14  17
ENDBRANCH  11  14
ENDBRANCH   9  11
BRANCH   9  20
ATOM     20  CAW FVZ d   1      17.200  44.990  40.352  0.00  0.00     0.196 C 
ATOM     21  OAY FVZ d   1      17.024  44.169  39.371  0.00  0.00    -0.646 OA
ATOM     22  OAX FVZ d   1      18.110  45.896  40.410  0.00  0.00    -0.646 OA
ENDBRANCH   9  20
ENDBRANCH   5   9
ENDBRANCH   1   3
BRANCH   1  23
ATOM     23  C   FVZ d   1      20.324  45.987  45.829  0.00  0.00     0.196 C 
ATOM     24  OXT FVZ d   1      20.934  45.314  46.696  0.00  0.00    -0.646 OA
ATOM     25  O   FVZ d   1      19.884  47.183  45.977  0.00  0.00    -0.646 OA
ENDBRANCH   1  23
BRANCH   1  26
ATOM     26  CB  FVZ d   1      21.250  45.694  43.465  0.00  0.00    -0.036 C 
ATOM     27  H9  FVZ d   1      21.361  46.788  43.421  0.00  0.00     0.036 H 
ATOM     28  H10 FVZ d   1      20.978  45.313  42.470  0.00  0.00     0.036 H 
BRANCH  26  29
ATOM     29  CAM FVZ d   1      22.555  45.059  43.924  0.00  0.00    -0.055 C 
ATOM     30  H11 FVZ d   1      22.344  44.036  44.269  0.00  0.00     0.033 H 
ATOM     31  H12 FVZ d   1      22.958  45.652  44.758  0.00  0.00     0.033 H 
BRANCH  29  32
ATOM     32  CAL FVZ d   1      23.642  44.990  42.787  0.00  0.00     0.010 C 
ATOM     33  H13 FVZ d   1      23.150  44.721  41.841  0.00  0.00     0.047 H 
ATOM     34  H14 FVZ d   1      24.381  44.218  43.048  0.00  0.00     0.047 H 
BRANCH  32  35
ATOM     35  CAJ FVZ d   1      24.390  46.368  42.598  0.00  0.00     0.222 C 
ATOM     36  OAK FVZ d   1      24.552  47.095  43.549  0.00  0.00    -0.273 OA
ATOM     37  NAI FVZ d   1      24.742  46.697  41.362  0.00  0.00    -0.327 N 
ATOM     38  H15 FVZ d   1      24.383  46.114  40.633  0.00  0.00     0.169 HD
BRANCH  37  39
ATOM     39  CAC FVZ d   1      25.536  47.736  40.963  0.00  0.00     0.034 A 
ATOM     40  CAB FVZ d   1      26.655  48.219  41.670  0.00  0.00    -0.054 A 
ATOM     41  CAD FVZ d   1      27.492  49.222  41.127  0.00  0.00    -0.044 A 
ATOM     42  H16 FVZ d   1      26.879  47.814  42.650  0.00  0.00     0.087 H 
ATOM     43  CAF FVZ d   1      27.245  49.708  39.831  0.00  0.00     0.116 A 
ATOM     44  H17 FVZ d   1      28.320  49.614  41.707  0.00  0.00     0.088 H 
ATOM     45  FAH FVZ d   1      28.112  50.755  39.245  0.00  0.00    -0.206 F 
ATOM     46  CAG FVZ d   1      26.171  49.177  39.106  0.00  0.00    -0.044 A 
ATOM     47  CAE FVZ d   1      25.368  48.181  39.658  0.00  0.00    -0.054 A 
ATOM     48  H18 FVZ d   1      25.963  49.544  38.107  0.00  0.00     0.088 H 
ATOM     49  H19 FVZ d   1      24.587  47.739  39.050  0.00  0.00     0.087 H 
ENDBRANCH  37  39
ENDBRANCH  32  35
ENDBRANCH  29  32
ENDBRANCH  26  29
ENDBRANCH   1  26
TORSDOF 12
