REMARK  13 active torsions:
REMARK  status: ('A' for Active; 'I' for Inactive)
REMARK    1  A    between atoms: CAN_2  and  CAL_4 
REMARK    2  A    between atoms: CAL_4  and  CAK_5 
REMARK    3  A    between atoms: CAK_5  and  CAG_6 
REMARK    4  A    between atoms: CAG_6  and  CAJ_7 
REMARK    5  A    between atoms: CAG_6  and  NAF_10 
REMARK       I    between atoms: NAF_10  and  CAE_11 
REMARK       I    between atoms: CAE_11  and  N_13 
REMARK    6  A    between atoms: N_13  and  CA_14 
REMARK    7  A    between atoms: CA_14  and  C_15 
REMARK    8  A    between atoms: CA_14  and  CB_18 
REMARK    9  A    between atoms: CB_18  and  CAD_19 
REMARK   10  A    between atoms: CAD_19  and  CAM_20 
REMARK   11  A    between atoms: CAM_20  and  CAO_21 
REMARK       I    between atoms: CAO_21  and  NAQ_23 
REMARK   12  A    between atoms: NAQ_23  and  CAY_24 
REMARK   13  A    between atoms: NAQ_23  and  CAR_25 
ROOT
ATOM      1  CB  FVW d   1      20.973  45.350  43.255  0.00  0.00    -0.036 C 
ATOM      2  H9  FVW d   1      20.674  45.028  42.247  0.00  0.00     0.036 H 
ATOM      3  H10 FVW d   1      21.849  44.770  43.581  0.00  0.00     0.036 H 
ENDROOT
BRANCH   1   4
ATOM      4  CA  FVW d   1      19.789  45.056  44.241  0.00  0.00     0.098 C 
ATOM      5  H8  FVW d   1      19.746  43.977  44.452  0.00  0.00     0.089 H 
BRANCH   4   6
ATOM      6  N   FVW d   1      18.576  45.459  43.606  0.00  0.00    -0.329 N 
ATOM      7  CAE FVW d   1      17.972  44.673  42.737  0.00  0.00     0.317 C 
ATOM      8  NAF FVW d   1      16.789  45.101  42.343  0.00  0.00    -0.329 N 
ATOM      9  OAH FVW d   1      18.436  43.603  42.243  0.00  0.00    -0.247 OA
ATOM     10  H6  FVW d   1      16.349  45.847  42.842  0.00  0.00     0.165 HD
ATOM     11  H7  FVW d   1      18.178  46.350  43.823  0.00  0.00     0.165 HD
BRANCH   8  12
ATOM     12  CAG FVW d   1      16.115  44.517  41.208  0.00  0.00     0.098 C 
ATOM     13  H5  FVW d   1      15.911  43.456  41.412  0.00  0.00     0.089 H 
BRANCH  12  14
ATOM     14  CAK FVW d   1      14.778  45.222  40.872  0.00  0.00    -0.028 C 
ATOM     15  H3  FVW d   1      14.351  44.784  39.958  0.00  0.00     0.037 H 
ATOM     16  H4  FVW d   1      14.073  45.090  41.706  0.00  0.00     0.037 H 
BRANCH  14  17
ATOM     17  CAL FVW d   1      15.033  46.697  40.655  0.00  0.00     0.018 C 
ATOM     18  H1  FVW d   1      15.313  47.144  41.620  0.00  0.00     0.049 H 
ATOM     19  H2  FVW d   1      15.868  46.802  39.946  0.00  0.00     0.049 H 
BRANCH  17  20
ATOM     20  CAN FVW d   1      13.820  47.477  40.094  0.00  0.00     0.172 C 
ATOM     21  OBD FVW d   1      13.012  46.951  39.263  0.00  0.00    -0.648 OA
ATOM     22  OBE FVW d   1      13.836  48.714  40.361  0.00  0.00    -0.648 OA
ENDBRANCH  17  20
ENDBRANCH  14  17
ENDBRANCH  12  14
BRANCH  12  23
ATOM     23  CAJ FVW d   1      17.075  44.645  40.036  0.00  0.00     0.196 C 
ATOM     24  OBC FVW d   1      17.923  45.596  40.058  0.00  0.00    -0.646 OA
ATOM     25  OBB FVW d   1      16.878  43.895  39.022  0.00  0.00    -0.646 OA
ENDBRANCH  12  23
ENDBRANCH   8  12
ENDBRANCH   4   6
BRANCH   4  26
ATOM     26  C   FVW d   1      20.006  45.811  45.563  0.00  0.00     0.196 C 
ATOM     27  OXT FVW d   1      20.722  45.248  46.403  0.00  0.00    -0.646 OA
ATOM     28  O   FVW d   1      19.486  46.961  45.646  0.00  0.00    -0.646 OA
ENDBRANCH   4  26
ENDBRANCH   1   4
BRANCH   1  29
ATOM     29  CAD FVW d   1      21.370  46.841  43.193  0.00  0.00    -0.055 C 
ATOM     30  H11 FVW d   1      21.584  47.202  44.210  0.00  0.00     0.033 H 
ATOM     31  H12 FVW d   1      20.539  47.420  42.765  0.00  0.00     0.033 H 
BRANCH  29  32
ATOM     32  CAM FVW d   1      22.618  47.023  42.318  0.00  0.00     0.010 C 
ATOM     33  H13 FVW d   1      22.509  47.961  41.754  0.00  0.00     0.047 H 
ATOM     34  H14 FVW d   1      22.672  46.177  41.617  0.00  0.00     0.047 H 
BRANCH  32  35
ATOM     35  CAO FVW d   1      23.912  47.083  43.083  0.00  0.00     0.224 C 
ATOM     36  OAP FVW d   1      23.846  47.021  44.298  0.00  0.00    -0.273 OA
ATOM     37  NAQ FVW d   1      25.054  47.370  42.408  0.00  0.00    -0.321 N 
BRANCH  37  38
ATOM     38  CAY FVW d   1      26.285  47.421  43.208  0.00  0.00    -0.011 C 
ATOM     39  H15 FVW d   1      26.032  47.342  44.276  0.00  0.00     0.057 H 
ATOM     40  H16 FVW d   1      26.803  48.374  43.024  0.00  0.00     0.057 H 
ATOM     41  H17 FVW d   1      26.942  46.586  42.924  0.00  0.00     0.057 H 
ENDBRANCH  37  38
BRANCH  37  42
ATOM     42  CAR FVW d   1      25.120  47.451  41.052  0.00  0.00     0.054 A 
ATOM     43  CAS FVW d   1      25.265  48.663  40.378  0.00  0.00    -0.051 A 
ATOM     44  CAT FVW d   1      25.313  48.676  38.996  0.00  0.00    -0.025 A 
ATOM     45  H18 FVW d   1      25.340  49.590  40.934  0.00  0.00     0.087 H 
ATOM     46  CAU FVW d   1      25.225  47.457  38.321  0.00  0.00     0.209 A 
ATOM     47  H19 FVW d   1      25.416  49.608  38.451  0.00  0.00     0.090 H 
ATOM     48  FAX FVW d   1      25.250  47.429  37.105  0.00  0.00    -0.184 F 
ATOM     49  NAV FVW d   1      25.093  46.291  38.952  0.00  0.00    -0.231 NA
ATOM     50  CAW FVW d   1      25.041  46.281  40.321  0.00  0.00     0.031 A 
ATOM     51  H20 FVW d   1      24.936  45.336  40.841  0.00  0.00     0.118 H 
ENDBRANCH  37  42
ENDBRANCH  32  35
ENDBRANCH  29  32
ENDBRANCH   1  29
TORSDOF 13
