REMARK WARNING: 32 MAX_TORS EXCEEDED!!!
REMARK  87 active torsions:
REMARK  status: ('A' for Active; 'I' for Inactive)
REMARK    1  A    between atoms: N_1  and  CA_2 
REMARK    2  A    between atoms: CA_2  and  C_3 
REMARK       I    between atoms: C_3  and  N_5 
REMARK    3  A    between atoms: N_5  and  CA_6 
REMARK    4  A    between atoms: CA_6  and  C_7 
REMARK    5  A    between atoms: CA_6  and  CB_9 
REMARK       I    between atoms: C_7  and  N_10 
REMARK    6  A    between atoms: N_10  and  CA_11 
REMARK    7  A    between atoms: CA_11  and  C_12 
REMARK    8  A    between atoms: CA_11  and  CB_14 
REMARK       I    between atoms: C_12  and  N_18 
REMARK    9  A    between atoms: CB_14  and  CG_15 
REMARK   10  A    between atoms: CG_15  and  SD_16 
REMARK   11  A    between atoms: SD_16  and  CE_17 
REMARK   12  A    between atoms: N_18  and  CA_19 
REMARK   13  A    between atoms: CA_19  and  C_20 
REMARK   14  A    between atoms: CA_19  and  CB_22 
REMARK       I    between atoms: C_20  and  N_27 
REMARK   15  A    between atoms: CB_22  and  CG_23 
REMARK   16  A    between atoms: CG_23  and  CD_24 
REMARK   17  A    between atoms: N_27  and  CA_28 
REMARK   18  A    between atoms: CA_28  and  C_29 
REMARK   19  A    between atoms: CA_28  and  CB_31 
REMARK       I    between atoms: C_29  and  N_35 
REMARK   20  A    between atoms: CB_31  and  CG1_32 
REMARK   21  A    between atoms: CB_31  and  CG2_33 
REMARK   22  A    between atoms: CG1_32  and  CD1_34 
REMARK   23  A    between atoms: N_35  and  CA_36 
REMARK   24  A    between atoms: CA_36  and  C_37 
REMARK   25  A    between atoms: CA_36  and  CB_39 
REMARK       I    between atoms: C_37  and  N_43 
REMARK   26  A    between atoms: CB_39  and  CG1_40 
REMARK   27  A    between atoms: CB_39  and  CG2_41 
REMARK   28  A    between atoms: CG1_40  and  CD1_42 
REMARK   29  A    between atoms: N_43  and  CA_44 
REMARK   30  A    between atoms: CA_44  and  C_45 
REMARK   31  A    between atoms: CA_44  and  CB_47 
REMARK       I    between atoms: C_45  and  N_53 
REMARK   32  A    between atoms: CB_47  and  CG_48 
REMARK   33  A    between atoms: N_53  and  CA_54 
REMARK   34  A    between atoms: CA_54  and  C_55 
REMARK   35  A    between atoms: CA_54  and  CB_57 
REMARK       I    between atoms: C_55  and  N_62 
REMARK   36  A    between atoms: CB_57  and  CG_58 
REMARK   37  A    between atoms: CG_58  and  CD_59 
REMARK   38  A    between atoms: N_62  and  CA_63 
REMARK   39  A    between atoms: CA_63  and  C_64 
REMARK   40  A    between atoms: CA_63  and  CB_66 
REMARK       I    between atoms: C_64  and  N_70 
REMARK   41  A    between atoms: CB_66  and  CG_67 
REMARK   42  A    between atoms: N_70  and  CA_71 
REMARK   43  A    between atoms: CA_71  and  C_72 
REMARK   44  A    between atoms: CA_71  and  CB_74 
REMARK       I    between atoms: C_72  and  N_78 
REMARK   45  A    between atoms: CB_74  and  CG_75 
REMARK       I    between atoms: CG_75  and  ND2_77 
REMARK   46  A    between atoms: N_78  and  CA_79 
REMARK   47  A    between atoms: CA_79  and  C_80 
REMARK   48  A    between atoms: CA_79  and  CB_82 
REMARK       I    between atoms: C_80  and  N_87 
REMARK   49  A    between atoms: CB_82  and  CG_83 
REMARK   50  A    between atoms: CG_83  and  CD_84 
REMARK   51  A    between atoms: N_87  and  CA_88 
REMARK   52  A    between atoms: CA_88  and  C_89 
REMARK   53  A    between atoms: CA_88  and  CB_91 
REMARK       I    between atoms: C_89  and  N_101 
REMARK   54  A    between atoms: CB_91  and  CG_92 
REMARK   55  A    between atoms: N_101  and  CA_102 
REMARK   56  A    between atoms: CA_102  and  C_103 
REMARK       I    between atoms: C_103  and  N_105 
REMARK   57  A    between atoms: N_105  and  CA_106 
REMARK   58  A    between atoms: CA_106  and  C_107 
REMARK   59  A    between atoms: CA_106  and  CB_109 
REMARK       I    between atoms: C_107  and  N_113 
REMARK   60  A    between atoms: CB_109  and  CG1_110 
REMARK   61  A    between atoms: CB_109  and  CG2_111 
REMARK   62  A    between atoms: CG1_110  and  CD1_112 
REMARK   63  A    between atoms: N_113  and  CA_114 
REMARK   64  A    between atoms: CA_114  and  C_115 
REMARK   65  A    between atoms: CA_114  and  CB_117 
REMARK       I    between atoms: C_115  and  N_122 
REMARK   66  A    between atoms: CB_117  and  CG_118 
REMARK   67  A    between atoms: CG_118  and  CD_119 
REMARK   68  A    between atoms: N_122  and  CA_123 
REMARK   69  A    between atoms: CA_123  and  C_124 
REMARK   70  A    between atoms: CA_123  and  CB_126 
REMARK       I    between atoms: C_124  and  N_130 
REMARK   71  A    between atoms: CB_126  and  CG_127 
REMARK   72  A    between atoms: CG_127  and  CD1_128 
REMARK   73  A    between atoms: CG_127  and  CD2_129 
REMARK   74  A    between atoms: N_130  and  CA_131 
REMARK   75  A    between atoms: CA_131  and  C_132 
REMARK   76  A    between atoms: CA_131  and  CB_134 
REMARK       I    between atoms: C_132  and  N_137 
REMARK   77  A    between atoms: CB_134  and  CG1_135 
REMARK   78  A    between atoms: CB_134  and  CG2_136 
REMARK   79  A    between atoms: N_137  and  CA_138 
REMARK   80  A    between atoms: CA_138  and  C_139 
REMARK   81  A    between atoms: CA_138  and  CB_141 
REMARK       I    between atoms: C_139  and  N_143 
REMARK   82  A    between atoms: CB_141  and  OG_142 
REMARK   83  A    between atoms: N_143  and  CA_144 
REMARK   84  A    between atoms: CA_144  and  C_145 
REMARK   85  A    between atoms: CA_144  and  CB_147 
REMARK   86  A    between atoms: CB_147  and  CG_148 
REMARK   87  A    between atoms: CG_148  and  CD_149 
ROOT
ATOM      1  CA  GLY d   1      10.861 -11.100  -4.145  0.00  0.00     0.097 C 
ATOM      2  H66 GLY d   1      10.016 -11.650  -4.585  0.00  0.00     0.088 H 
ENDROOT
BRANCH   1   3
ATOM      3  N   GLY d   1      12.033 -11.965  -4.023  0.00  0.00    -0.346 N 
ATOM      4  C   GLY d   1      12.369 -12.910  -4.901  0.00  0.00     0.241 C 
ATOM      5  O   GLY d   1      11.670 -13.185  -5.875  0.00  0.00    -0.271 OA
ATOM      6  H65 GLY d   1      12.623 -11.839  -3.226  0.00  0.00     0.163 HD
BRANCH   4   7
ATOM      7  CA  GLY d   1      13.641 -13.702  -4.603  0.00  0.00     0.098 C 
ATOM      8  H62 GLY d   1      13.824 -14.409  -5.426  0.00  0.00     0.088 H 
BRANCH   7   9
ATOM      9  N   GLY d   1      14.767 -12.768  -4.537  0.00  0.00    -0.346 N 
ATOM     10  C   GLY d   1      15.415 -12.373  -5.637  0.00  0.00     0.241 C 
ATOM     11  O   GLY d   1      15.125 -12.828  -6.751  0.00  0.00    -0.271 OA
ATOM     12  H61 GLY d   1      15.058 -12.417  -3.647  0.00  0.00     0.163 HD
BRANCH  10  13
ATOM     13  CA  GLY d   1      16.569 -11.368  -5.509  0.00  0.00     0.090 C 
ATOM     14  H56 GLY d   1      16.763 -11.144  -4.450  0.00  0.00     0.087 H 
BRANCH  13  15
ATOM     15  N   GLY d   1      17.779 -11.943  -6.112  0.00  0.00    -0.346 N 
ATOM     16  C   GLY d   1      18.278 -13.136  -5.762  0.00  0.00     0.241 C 
ATOM     17  O   GLY d   1      17.765 -13.807  -4.865  0.00  0.00    -0.271 OA
ATOM     18  H55 GLY d   1      18.253 -11.418  -6.819  0.00  0.00     0.163 HD
BRANCH  16  19
ATOM     19  CA  GLY d   1      19.539 -13.668  -6.468  0.00  0.00     0.094 C 
ATOM     20  H49 GLY d   1      19.195 -14.281  -7.314  0.00  0.00     0.088 H 
BRANCH  19  21
ATOM     21  N   GLY d   1      20.397 -12.617  -6.990  0.00  0.00    -0.346 N 
ATOM     22  C   GLY d   1      20.502 -12.212  -8.260  0.00  0.00     0.241 C 
ATOM     23  O   GLY d   1      19.821 -12.707  -9.158  0.00  0.00    -0.271 OA
ATOM     24  H48 GLY d   1      20.974 -12.143  -6.324  0.00  0.00     0.163 HD
BRANCH  22  25
ATOM     25  CA  GLY d   1      21.521 -11.094  -8.571  0.00  0.00     0.092 C 
ATOM     26  H38 GLY d   1      20.945 -10.239  -8.955  0.00  0.00     0.088 H 
BRANCH  25  27
ATOM     27  N   GLY d   1      22.218 -10.647  -7.363  0.00  0.00    -0.346 N 
ATOM     28  C   GLY d   1      21.639  -9.898  -6.425  0.00  0.00     0.241 C 
ATOM     29  O   GLY d   1      20.460  -9.576  -6.485  0.00  0.00    -0.271 OA
ATOM     30  H37 GLY d   1      23.173 -10.916  -7.236  0.00  0.00     0.163 HD
BRANCH  28  31
ATOM     31  CA  GLY d   1      22.499  -9.524  -5.216  0.00  0.00     0.092 C 
ATOM     32  H27 GLY d   1      23.551  -9.535  -5.536  0.00  0.00     0.088 H 
BRANCH  31  33
ATOM     33  N   GLY d   1      22.189  -8.182  -4.742  0.00  0.00    -0.346 N 
ATOM     34  C   GLY d   1      22.118  -7.088  -5.505  0.00  0.00     0.241 C 
ATOM     35  O   GLY d   1      22.534  -7.090  -6.664  0.00  0.00    -0.271 OA
ATOM     36  H26 GLY d   1      22.015  -8.070  -3.764  0.00  0.00     0.163 HD
BRANCH  34  37
ATOM     37  CA  GLY d   1      21.778  -5.762  -4.799  0.00  0.00     0.090 C 
ATOM     38  H21 GLY d   1      20.753  -5.846  -4.409  0.00  0.00     0.087 H 
BRANCH  37  39
ATOM     39  N   GLY d   1      22.682  -5.547  -3.675  0.00  0.00    -0.346 N 
ATOM     40  C   GLY d   1      22.767  -6.179  -2.510  0.00  0.00     0.241 C 
ATOM     41  O   GLY d   1      21.993  -7.081  -2.195  0.00  0.00    -0.271 OA
ATOM     42  H20 GLY d   1      23.342  -4.807  -3.801  0.00  0.00     0.163 HD
BRANCH  40  43
ATOM     43  CA  GLY d   1      23.850  -5.675  -1.550  0.00  0.00     0.090 C 
ATOM     44  H12 GLY d   1      24.828  -5.945  -1.974  0.00  0.00     0.087 H 
BRANCH  43  45
ATOM     45  N   GLY d   1      23.769  -4.218  -1.458  0.00  0.00    -0.346 N 
ATOM     46  C   GLY d   1      24.322  -3.389  -2.341  0.00  0.00     0.240 C 
ATOM     47  O   GLY d   1      24.983  -3.804  -3.297  0.00  0.00    -0.271 OA
ATOM     48  H11 GLY d   1      23.270  -3.821  -0.688  0.00  0.00     0.163 HD
BRANCH  46  49
ATOM     49  CA  GLY d   1      24.131  -1.891  -2.100  0.00  0.00     0.086 C 
ATOM     50  H7  GLY d   1      23.046  -1.714  -2.054  0.00  0.00     0.086 H 
BRANCH  49  51
ATOM     51  N   GLY d   1      24.700  -1.465  -0.832  0.00  0.00    -0.347 N 
ATOM     52  C   GLY d   1      25.861  -1.868  -0.309  0.00  0.00     0.243 C 
ATOM     53  O   GLY d   1      26.632  -2.653  -0.866  0.00  0.00    -0.272 OA
ATOM     54  H6  GLY d   1      24.170  -0.805  -0.299  0.00  0.00     0.163 HD
BRANCH  52  55
ATOM     55  CA  GLY d   1      26.244  -1.281   1.027  0.00  0.00     0.152 C 
ATOM     56  H4  GLY d   1      27.216  -0.773   0.937  0.00  0.00     0.090 H 
ATOM     57  H5  GLY d   1      25.479  -0.555   1.339  0.00  0.00     0.090 H 
BRANCH  55  58
ATOM     58  N   GLY d   1      26.343  -2.341   2.030  0.00  0.00    -0.071 N 
ATOM     59  H1  GLY d   1      26.599  -1.940   2.919  0.00  0.00     0.274 HD
ATOM     60  H2  GLY d   1      27.045  -3.007   1.747  0.00  0.00     0.274 HD
ATOM     61  H3  GLY d   1      25.453  -2.807   2.116  0.00  0.00     0.274 HD
ENDBRANCH  55  58
ENDBRANCH  52  55
ENDBRANCH  49  51
BRANCH  49  62
ATOM     62  CB  GLY d   1      24.687  -1.015  -3.219  0.00  0.00    -0.049 C 
ATOM     63  H8  GLY d   1      24.259  -1.334  -4.181  0.00  0.00     0.030 H 
ATOM     64  H9  GLY d   1      25.782  -1.115  -3.253  0.00  0.00     0.030 H 
ATOM     65  H10 GLY d   1      24.421   0.035  -3.029  0.00  0.00     0.030 H 
ENDBRANCH  49  62
ENDBRANCH  46  49
ENDBRANCH  43  45
BRANCH  43  66
ATOM     66  CB  GLY d   1      23.762  -6.293  -0.150  0.00  0.00    -0.030 C 
ATOM     67  H13 GLY d   1      23.765  -7.390  -0.233  0.00  0.00     0.037 H 
ATOM     68  H14 GLY d   1      22.832  -5.964   0.338  0.00  0.00     0.037 H 
BRANCH  66  69
ATOM     69  CG  GLY d   1      24.964  -5.842   0.687  0.00  0.00    -0.021 C 
ATOM     70  H15 GLY d   1      24.849  -4.768   0.896  0.00  0.00     0.049 H 
ATOM     71  H16 GLY d   1      25.874  -6.004   0.090  0.00  0.00     0.049 H 
BRANCH  69  72
ATOM     72  SD  GLY d   1      25.170  -6.698   2.263  0.00  0.00    -0.173 SA
BRANCH  72  73
ATOM     73  CE  GLY d   1      23.629  -6.229   3.079  0.00  0.00    -0.035 C 
ATOM     74  H17 GLY d   1      23.593  -6.681   4.081  0.00  0.00     0.041 H 
ATOM     75  H18 GLY d   1      22.776  -6.587   2.484  0.00  0.00     0.041 H 
ATOM     76  H19 GLY d   1      23.580  -5.134   3.168  0.00  0.00     0.041 H 
ENDBRANCH  72  73
ENDBRANCH  69  72
ENDBRANCH  66  69
ENDBRANCH  43  66
ENDBRANCH  40  43
ENDBRANCH  37  39
BRANCH  37  77
ATOM     77  CB  GLY d   1      21.825  -4.536  -5.736  0.00  0.00    -0.029 C 
ATOM     78  H22 GLY d   1      21.007  -4.637  -6.465  0.00  0.00     0.037 H 
ATOM     79  H23 GLY d   1      22.790  -4.551  -6.263  0.00  0.00     0.037 H 
BRANCH  77  80
ATOM     80  CG  GLY d   1      21.682  -3.164  -5.052  0.00  0.00     0.018 C 
ATOM     81  H24 GLY d   1      21.615  -2.396  -5.837  0.00  0.00     0.049 H 
ATOM     82  H25 GLY d   1      22.582  -2.990  -4.444  0.00  0.00     0.049 H 
BRANCH  80  83
ATOM     83  CD  GLY d   1      20.459  -3.021  -4.142  0.00  0.00     0.172 C 
ATOM     84  OE1 GLY d   1      19.458  -2.405  -4.572  0.00  0.00    -0.648 OA
ATOM     85  OE2 GLY d   1      20.527  -3.431  -2.955  0.00  0.00    -0.648 OA
ENDBRANCH  80  83
ENDBRANCH  77  80
ENDBRANCH  37  77
ENDBRANCH  34  37
ENDBRANCH  31  33
BRANCH  31  86
ATOM     86  CB  GLY d   1      22.338 -10.557  -4.071  0.00  0.00    -0.030 C 
ATOM     87  H28 GLY d   1      22.491 -11.556  -4.505  0.00  0.00     0.043 H 
BRANCH  86  88
ATOM     88  CG1 GLY d   1      20.927 -10.554  -3.433  0.00  0.00    -0.063 C 
ATOM     89  H29 GLY d   1      20.186 -10.700  -4.233  0.00  0.00     0.033 H 
ATOM     90  H30 GLY d   1      20.765  -9.575  -2.958  0.00  0.00     0.033 H 
BRANCH  88  91
ATOM     91  CD1 GLY d   1      20.714 -11.642  -2.377  0.00  0.00    -0.076 C 
ATOM     92  H34 GLY d   1      19.692 -11.569  -1.977  0.00  0.00     0.027 H 
ATOM     93  H35 GLY d   1      21.438 -11.507  -1.560  0.00  0.00     0.027 H 
ATOM     94  H36 GLY d   1      20.859 -12.631  -2.835  0.00  0.00     0.027 H 
ENDBRANCH  88  91
ENDBRANCH  86  88
BRANCH  86  95
ATOM     95  CG2 GLY d   1      23.436 -10.330  -3.020  0.00  0.00    -0.071 C 
ATOM     96  H31 GLY d   1      24.421 -10.339  -3.510  0.00  0.00     0.028 H 
ATOM     97  H32 GLY d   1      23.394 -11.131  -2.267  0.00  0.00     0.028 H 
ATOM     98  H33 GLY d   1      23.279  -9.358  -2.530  0.00  0.00     0.028 H 
ENDBRANCH  86  95
ENDBRANCH  31  86
ENDBRANCH  28  31
ENDBRANCH  25  27
BRANCH  25  99
ATOM     99  CB  GLY d   1      22.555 -11.475  -9.667  0.00  0.00    -0.030 C 
ATOM    100  H39 GLY d   1      21.986 -11.634 -10.595  0.00  0.00     0.043 H 
BRANCH  99 101
ATOM    101  CG1 GLY d   1      23.413 -12.741  -9.430  0.00  0.00    -0.063 C 
ATOM    102  H40 GLY d   1      23.807 -12.694  -8.404  0.00  0.00     0.033 H 
ATOM    103  H41 GLY d   1      24.248 -12.721 -10.145  0.00  0.00     0.033 H 
BRANCH 101 104
ATOM    104  CD1 GLY d   1      22.688 -14.081  -9.593  0.00  0.00    -0.076 C 
ATOM    105  H45 GLY d   1      23.392 -14.904  -9.402  0.00  0.00     0.027 H 
ATOM    106  H46 GLY d   1      22.296 -14.164 -10.618  0.00  0.00     0.027 H 
ATOM    107  H47 GLY d   1      21.855 -14.137  -8.877  0.00  0.00     0.027 H 
ENDBRANCH 101 104
ENDBRANCH  99 101
BRANCH  99 108
ATOM    108  CG2 GLY d   1      23.549 -10.311  -9.883  0.00  0.00    -0.071 C 
ATOM    109  H42 GLY d   1      22.991  -9.380 -10.057  0.00  0.00     0.028 H 
ATOM    110  H43 GLY d   1      24.183 -10.527 -10.756  0.00  0.00     0.028 H 
ATOM    111  H44 GLY d   1      24.181 -10.198  -8.990  0.00  0.00     0.028 H 
ENDBRANCH  99 108
ENDBRANCH  25  99
ENDBRANCH  22  25
ENDBRANCH  19  21
BRANCH  19 112
ATOM    112  CB  GLY d   1      20.428 -14.550  -5.565  0.00  0.00     0.002 C 
ATOM    113  H50 GLY d   1      20.550 -14.034  -4.601  0.00  0.00     0.046 H 
ATOM    114  H51 GLY d   1      21.409 -14.653  -6.052  0.00  0.00     0.046 H 
BRANCH 112 115
ATOM    115  CG  GLY d   1      19.900 -15.934  -5.287  0.00  0.00     0.030 A 
ATOM    116  ND1 GLY d   1      19.747 -16.513  -4.049  0.00  0.00    -0.353 N 
ATOM    117  CE1 GLY d   1      19.276 -17.757  -4.228  0.00  0.00     0.063 A 
ATOM    118  H52 GLY d   1      19.957 -16.070  -3.143  0.00  0.00     0.166 HD
ATOM    119  NE2 GLY d   1      19.124 -18.015  -5.540  0.00  0.00    -0.254 NA
ATOM    120  H54 GLY d   1      19.049 -18.458  -3.426  0.00  0.00     0.143 H 
ATOM    121  CD2 GLY d   1      19.538 -16.863  -6.220  0.00  0.00     0.025 A 
ATOM    122  H53 GLY d   1      19.566 -16.731  -7.301  0.00  0.00     0.117 H 
ENDBRANCH 112 115
ENDBRANCH  19 112
ENDBRANCH  16  19
ENDBRANCH  13  15
BRANCH  13 123
ATOM    123  CB  GLY d   1      16.123 -10.085  -6.239  0.00  0.00    -0.029 C 
ATOM    124  H57 GLY d   1      15.134  -9.805  -5.847  0.00  0.00     0.037 H 
ATOM    125  H58 GLY d   1      16.040 -10.322  -7.310  0.00  0.00     0.037 H 
BRANCH 123 126
ATOM    126  CG  GLY d   1      17.040  -8.865  -6.103  0.00  0.00     0.018 C 
ATOM    127  H59 GLY d   1      18.037  -9.115  -6.496  0.00  0.00     0.049 H 
ATOM    128  H60 GLY d   1      17.122  -8.590  -5.041  0.00  0.00     0.049 H 
BRANCH 126 129
ATOM    129  CD  GLY d   1      16.471  -7.678  -6.889  0.00  0.00     0.172 C 
ATOM    130  OE1 GLY d   1      15.950  -6.722  -6.277  0.00  0.00    -0.648 OA
ATOM    131  OE2 GLY d   1      16.510  -7.706  -8.149  0.00  0.00    -0.648 OA
ENDBRANCH 126 129
ENDBRANCH 123 126
ENDBRANCH  13 123
ENDBRANCH  10  13
ENDBRANCH   7   9
BRANCH   7 132
ATOM    132  CB  GLY d   1      13.463 -14.506  -3.314  0.00  0.00     0.043 C 
ATOM    133  H63 GLY d   1      13.443 -13.821  -2.454  0.00  0.00     0.052 H 
ATOM    134  H64 GLY d   1      14.300 -15.211  -3.202  0.00  0.00     0.052 H 
BRANCH 132 135
ATOM    135  CG  GLY d   1      12.152 -15.280  -3.378  0.00  0.00     0.175 C 
ATOM    136  OD1 GLY d   1      12.063 -16.297  -4.100  0.00  0.00    -0.648 OA
ATOM    137  OD2 GLY d   1      11.163 -14.816  -2.770  0.00  0.00    -0.648 OA
ENDBRANCH 132 135
ENDBRANCH   7 132
ENDBRANCH   4   7
ENDBRANCH   1   3
BRANCH   1 138
ATOM    138  C   GLY d   1      11.300  -9.942  -5.041  0.00  0.00     0.241 C 
ATOM    139  O   GLY d   1      12.244  -9.249  -4.667  0.00  0.00    -0.271 OA
ATOM    140  N   GLY d   1      10.627  -9.707  -6.167  0.00  0.00    -0.346 N 
ATOM    141  H71 GLY d   1       9.834 -10.276  -6.384  0.00  0.00     0.163 HD
BRANCH 140 142
ATOM    142  CA  GLY d   1      11.010  -8.643  -7.098  0.00  0.00     0.090 C 
ATOM    143  H72 GLY d   1      12.091  -8.764  -7.262  0.00  0.00     0.087 H 
BRANCH 142 144
ATOM    144  C   GLY d   1      10.832  -7.198  -6.592  0.00  0.00     0.241 C 
ATOM    145  O   GLY d   1      11.831  -6.499  -6.467  0.00  0.00    -0.271 OA
ATOM    146  N   GLY d   1       9.613  -6.733  -6.268  0.00  0.00    -0.346 N 
ATOM    147  H77 GLY d   1       8.835  -7.356  -6.354  0.00  0.00     0.163 HD
BRANCH 146 148
ATOM    148  CA  GLY d   1       9.352  -5.365  -5.795  0.00  0.00     0.093 C 
ATOM    149  H78 GLY d   1       8.274  -5.321  -5.579  0.00  0.00     0.088 H 
BRANCH 148 150
ATOM    150  C   GLY d   1       9.603  -4.316  -6.891  0.00  0.00     0.241 C 
ATOM    151  O   GLY d   1      10.470  -3.451  -6.756  0.00  0.00    -0.271 OA
ATOM    152  N   GLY d   1       8.801  -4.357  -7.962  0.00  0.00    -0.351 N 
ATOM    153  H87 GLY d   1       8.088  -5.057  -7.997  0.00  0.00     0.163 HD
BRANCH 152 154
ATOM    154  CA  GLY d   1       8.920  -3.426  -9.083  0.00  0.00     0.069 C 
ATOM    155  H88 GLY d   1       8.463  -3.873  -9.978  0.00  0.00     0.078 H 
ATOM    156  H89 GLY d   1       9.983  -3.223  -9.277  0.00  0.00     0.078 H 
BRANCH 154 157
ATOM    157  C   GLY d   1       8.209  -2.121  -8.751  0.00  0.00     0.236 C 
ATOM    158  O   GLY d   1       7.134  -2.151  -8.155  0.00  0.00    -0.272 OA
ATOM    159  N   GLY d   1       8.789  -0.974  -9.105  0.00  0.00    -0.346 N 
ATOM    160  H90 GLY d   1       9.665  -1.012  -9.585  0.00  0.00     0.163 HD
BRANCH 159 161
ATOM    161  CA  GLY d   1       8.206   0.338  -8.825  0.00  0.00     0.092 C 
ATOM    162  H91 GLY d   1       7.824   0.326  -7.794  0.00  0.00     0.088 H 
BRANCH 161 163
ATOM    163  C   GLY d   1       7.042   0.641  -9.767  0.00  0.00     0.241 C 
ATOM    164  O   GLY d   1       7.177   0.520 -10.987  0.00  0.00    -0.271 OA
ATOM    165  N   GLY d   1       5.945   1.145  -9.203  0.00  0.00    -0.346 N 
ATOM    166 1H10 GLY d   1       5.940   1.281  -8.212  0.00  0.00     0.163 HD
BRANCH 165 167
ATOM    167  CA  GLY d   1       4.757   1.507  -9.954  0.00  0.00     0.090 C 
ATOM    168 2H10 GLY d   1       5.056   1.688 -10.997  0.00  0.00     0.087 H 
BRANCH 167 169
ATOM    169  C   GLY d   1       4.127   2.802  -9.424  0.00  0.00     0.241 C 
ATOM    170  O   GLY d   1       3.704   2.877  -8.268  0.00  0.00    -0.271 OA
ATOM    171  N   GLY d   1       4.130   3.865 -10.235  0.00  0.00    -0.346 N 
ATOM    172 7H10 GLY d   1       4.559   3.776 -11.134  0.00  0.00     0.163 HD
BRANCH 171 173
ATOM    173  CA  GLY d   1       3.538   5.151  -9.873  0.00  0.00     0.089 C 
ATOM    174 8H10 GLY d   1       3.708   5.354  -8.805  0.00  0.00     0.087 H 
BRANCH 173 175
ATOM    175  C   GLY d   1       2.055   5.013 -10.166  0.00  0.00     0.241 C 
ATOM    176  O   GLY d   1       1.699   4.730 -11.308  0.00  0.00    -0.271 OA
ATOM    177  N   GLY d   1       1.205   5.170  -9.158  0.00  0.00    -0.346 N 
ATOM    178 8H11 GLY d   1       1.576   5.378  -8.253  0.00  0.00     0.163 HD
BRANCH 177 179
ATOM    179  CA  GLY d   1      -0.239   5.055  -9.302  0.00  0.00     0.092 C 
ATOM    180 9H11 GLY d   1      -0.485   4.911 -10.364  0.00  0.00     0.088 H 
BRANCH 179 181
ATOM    181  C   GLY d   1      -0.906   6.354  -8.845  0.00  0.00     0.241 C 
ATOM    182  O   GLY d   1      -0.404   7.004  -7.926  0.00  0.00    -0.271 OA
ATOM    183  N   GLY d   1      -1.968   6.784  -9.522  0.00  0.00    -0.344 N 
ATOM    184 7H12 GLY d   1      -2.251   6.247 -10.317  0.00  0.00     0.163 HD
BRANCH 183 185
ATOM    185  CA  GLY d   1      -2.755   7.971  -9.205  0.00  0.00     0.109 C 
ATOM    186 8H12 GLY d   1      -2.944   7.981  -8.121  0.00  0.00     0.090 H 
BRANCH 185 187
ATOM    187  C   GLY d   1      -4.099   7.845  -9.922  0.00  0.00     0.243 C 
ATOM    188  O   GLY d   1      -4.161   7.203 -10.973  0.00  0.00    -0.271 OA
ATOM    189  N   GLY d   1      -5.167   8.398  -9.352  0.00  0.00    -0.345 N 
ATOM    190 2H13 GLY d   1      -5.017   8.846  -8.470  0.00  0.00     0.163 HD
BRANCH 189 191
ATOM    191  CA  GLY d   1      -6.532   8.425  -9.868  0.00  0.00     0.097 C 
ATOM    192 3H13 GLY d   1      -6.530   8.948 -10.836  0.00  0.00     0.089 H 
BRANCH 191 193
ATOM    193  C   GLY d   1      -7.326   9.259  -8.868  0.00  0.00     0.196 C 
ATOM    194  O   GLY d   1      -6.750  10.258  -8.390  0.00  0.00    -0.646 OA
ATOM    195  OXT GLY d   1      -8.485   8.872  -8.612  0.00  0.00    -0.646 OA
ENDBRANCH 191 193
BRANCH 191 196
ATOM    196  CB  GLY d   1      -7.128   7.023 -10.117  0.00  0.00    -0.028 C 
ATOM    197 4H13 GLY d   1      -7.774   6.749  -9.270  0.00  0.00     0.037 H 
ATOM    198 5H13 GLY d   1      -6.310   6.293 -10.206  0.00  0.00     0.037 H 
BRANCH 196 199
ATOM    199  CG  GLY d   1      -7.953   7.013 -11.403  0.00  0.00     0.018 C 
ATOM    200 6H13 GLY d   1      -7.268   7.012 -12.264  0.00  0.00     0.049 H 
ATOM    201 7H13 GLY d   1      -8.576   7.919 -11.431  0.00  0.00     0.049 H 
BRANCH 199 202
ATOM    202  CD  GLY d   1      -8.861   5.788 -11.495  0.00  0.00     0.172 C 
ATOM    203  OE1 GLY d   1      -8.381   4.630 -11.492  0.00  0.00    -0.648 OA
ATOM    204  OE2 GLY d   1     -10.104   5.956 -11.520  0.00  0.00    -0.648 OA
ENDBRANCH 199 202
ENDBRANCH 196 199
ENDBRANCH 191 196
ENDBRANCH 189 191
ENDBRANCH 185 187
BRANCH 185 205
ATOM    205  CB  GLY d   1      -2.010   9.269  -9.550  0.00  0.00     0.044 C 
ATOM    206 9H12 GLY d   1      -1.322   9.507  -8.725  0.00  0.00     0.077 H 
ATOM    207 0H13 GLY d   1      -2.748  10.078  -9.657  0.00  0.00     0.077 H 
BRANCH 205 208
ATOM    208  OG  GLY d   1      -1.258   9.181 -10.755  0.00  0.00    -0.398 OA
ATOM    209 1H13 GLY d   1      -0.821  10.009 -10.916  0.00  0.00     0.209 HD
ENDBRANCH 205 208
ENDBRANCH 185 205
ENDBRANCH 183 185
ENDBRANCH 179 181
BRANCH 179 210
ATOM    210  CB  GLY d   1      -0.681   3.792  -8.534  0.00  0.00    -0.033 C 
ATOM    211 0H12 GLY d   1      -0.326   3.877  -7.496  0.00  0.00     0.042 H 
BRANCH 210 212
ATOM    212  CG1 GLY d   1      -2.199   3.623  -8.521  0.00  0.00    -0.071 C 
ATOM    213 1H12 GLY d   1      -2.462   2.712  -7.963  0.00  0.00     0.028 H 
ATOM    214 2H12 GLY d   1      -2.568   3.540  -9.554  0.00  0.00     0.028 H 
ATOM    215 3H12 GLY d   1      -2.661   4.496  -8.036  0.00  0.00     0.028 H 
ENDBRANCH 210 212
BRANCH 210 216
ATOM    216  CG2 GLY d   1      -0.068   2.534  -9.176  0.00  0.00    -0.071 C 
ATOM    217 4H12 GLY d   1       1.028   2.630  -9.198  0.00  0.00     0.028 H 
ATOM    218 5H12 GLY d   1      -0.447   2.425 -10.203  0.00  0.00     0.028 H 
ATOM    219 6H12 GLY d   1      -0.347   1.648  -8.586  0.00  0.00     0.028 H 
ENDBRANCH 210 216
ENDBRANCH 179 210
ENDBRANCH 177 179
ENDBRANCH 173 175
BRANCH 173 220
ATOM    220  CB  GLY d   1       4.091   6.319 -10.707  0.00  0.00    -0.035 C 
ATOM    221 9H10 GLY d   1       3.326   7.108 -10.751  0.00  0.00     0.037 H 
ATOM    222 0H11 GLY d   1       4.299   5.953 -11.723  0.00  0.00     0.037 H 
BRANCH 220 223
ATOM    223  CG  GLY d   1       5.379   6.925 -10.137  0.00  0.00    -0.059 C 
ATOM    224 1H11 GLY d   1       5.241   7.091  -9.058  0.00  0.00     0.038 H 
BRANCH 223 225
ATOM    225  CD1 GLY d   1       6.573   5.988 -10.335  0.00  0.00    -0.073 C 
ATOM    226 2H11 GLY d   1       7.477   6.453  -9.916  0.00  0.00     0.028 H 
ATOM    227 3H11 GLY d   1       6.720   5.803 -11.409  0.00  0.00     0.028 H 
ATOM    228 4H11 GLY d   1       6.380   5.034  -9.822  0.00  0.00     0.028 H 
ENDBRANCH 223 225
BRANCH 223 229
ATOM    229  CD2 GLY d   1       5.650   8.270 -10.814  0.00  0.00    -0.073 C 
ATOM    230 5H11 GLY d   1       4.787   8.935 -10.666  0.00  0.00     0.028 H 
ATOM    231 6H11 GLY d   1       5.811   8.113 -11.891  0.00  0.00     0.028 H 
ATOM    232 7H11 GLY d   1       6.547   8.729 -10.372  0.00  0.00     0.028 H 
ENDBRANCH 223 229
ENDBRANCH 220 223
ENDBRANCH 173 220
ENDBRANCH 171 173
ENDBRANCH 167 169
BRANCH 167 233
ATOM    233  CB  GLY d   1       3.768   0.331  -9.943  0.00  0.00    -0.029 C 
ATOM    234 3H10 GLY d   1       3.043   0.475  -9.128  0.00  0.00     0.037 H 
ATOM    235 4H10 GLY d   1       4.321  -0.606  -9.781  0.00  0.00     0.037 H 
BRANCH 233 236
ATOM    236  CG  GLY d   1       3.018   0.249 -11.275  0.00  0.00     0.018 C 
ATOM    237 5H10 GLY d   1       2.621   1.245 -11.523  0.00  0.00     0.049 H 
ATOM    238 6H10 GLY d   1       2.185  -0.462 -11.172  0.00  0.00     0.049 H 
BRANCH 236 239
ATOM    239  CD  GLY d   1       3.933  -0.218 -12.411  0.00  0.00     0.172 C 
ATOM    240  OE1 GLY d   1       4.242  -1.432 -12.491  0.00  0.00    -0.648 OA
ATOM    241  OE2 GLY d   1       4.315   0.626 -13.258  0.00  0.00    -0.648 OA
ENDBRANCH 236 239
ENDBRANCH 233 236
ENDBRANCH 167 233
ENDBRANCH 165 167
ENDBRANCH 161 163
BRANCH 161 242
ATOM    242  CB  GLY d   1       9.263   1.461  -8.940  0.00  0.00    -0.030 C 
ATOM    243  H92 GLY d   1       9.552   1.565  -9.996  0.00  0.00     0.043 H 
BRANCH 242 244
ATOM    244  CG1 GLY d   1      10.518   1.116  -8.119  0.00  0.00    -0.063 C 
ATOM    245  H93 GLY d   1      10.965   0.200  -8.531  0.00  0.00     0.033 H 
ATOM    246  H94 GLY d   1      10.216   0.940  -7.076  0.00  0.00     0.033 H 
BRANCH 244 247
ATOM    247  CD1 GLY d   1      11.568   2.220  -8.140  0.00  0.00    -0.076 C 
ATOM    248  H98 GLY d   1      12.435   1.913  -7.537  0.00  0.00     0.027 H 
ATOM    249  H99 GLY d   1      11.139   3.142  -7.721  0.00  0.00     0.027 H 
ATOM    250 0H10 GLY d   1      11.888   2.402  -9.177  0.00  0.00     0.027 H 
ENDBRANCH 244 247
ENDBRANCH 242 244
BRANCH 242 251
ATOM    251  CG2 GLY d   1       8.664   2.800  -8.455  0.00  0.00    -0.071 C 
ATOM    252  H95 GLY d   1       7.768   3.037  -9.048  0.00  0.00     0.028 H 
ATOM    253  H96 GLY d   1       9.408   3.601  -8.579  0.00  0.00     0.028 H 
ATOM    254  H97 GLY d   1       8.389   2.716  -7.393  0.00  0.00     0.028 H 
ENDBRANCH 242 251
ENDBRANCH 161 242
ENDBRANCH 159 161
ENDBRANCH 154 157
ENDBRANCH 152 154
ENDBRANCH 148 150
BRANCH 148 255
ATOM    255  CB  GLY d   1      10.053  -5.046  -4.467  0.00  0.00    -0.012 C 
ATOM    256  H79 GLY d   1       9.743  -4.036  -4.162  0.00  0.00     0.044 H 
ATOM    257  H80 GLY d   1      11.137  -5.056  -4.652  0.00  0.00     0.044 H 
BRANCH 255 258
ATOM    258  CG  GLY d   1       9.782  -5.966  -3.324  0.00  0.00    -0.028 C 
ATOM    259  CD1 GLY d   1      10.690  -6.798  -2.776  0.00  0.00    -0.015 C 
ATOM    260  NE1 GLY d   1      10.106  -7.484  -1.732  0.00  0.00    -0.365 N 
ATOM    261  H81 GLY d   1      11.722  -6.911  -3.106  0.00  0.00     0.112 H 
ATOM    262  CE2 GLY d   1       8.748  -7.264  -1.680  0.00  0.00     0.042 A 
ATOM    263  H82 GLY d   1      10.621  -8.086  -1.074  0.00  0.00     0.165 HD
ATOM    264  CD2 GLY d   1       8.529  -6.215  -2.619  0.00  0.00    -0.002 A 
ATOM    265  CZ2 GLY d   1       7.703  -7.838  -0.942  0.00  0.00    -0.056 A 
ATOM    266  CE3 GLY d   1       7.219  -5.699  -2.706  0.00  0.00    -0.070 A 
ATOM    267  CZ3 GLY d   1       6.168  -6.251  -1.951  0.00  0.00    -0.082 A 
ATOM    268  H83 GLY d   1       7.019  -4.863  -3.366  0.00  0.00     0.084 H 
ATOM    269  CH2 GLY d   1       6.401  -7.333  -1.084  0.00  0.00    -0.081 A 
ATOM    270  H85 GLY d   1       5.170  -5.838  -2.038  0.00  0.00     0.083 H 
ATOM    271  H86 GLY d   1       5.581  -7.774  -0.529  0.00  0.00     0.083 H 
ATOM    272  H84 GLY d   1       7.899  -8.664  -0.268  0.00  0.00     0.086 H 
ENDBRANCH 255 258
ENDBRANCH 148 255
ENDBRANCH 146 148
ENDBRANCH 142 144
BRANCH 142 273
ATOM    273  CB  GLY d   1      10.334  -8.866  -8.455  0.00  0.00    -0.029 C 
ATOM    274  H73 GLY d   1      10.623  -8.047  -9.130  0.00  0.00     0.037 H 
ATOM    275  H74 GLY d   1       9.244  -8.855  -8.311  0.00  0.00     0.037 H 
BRANCH 273 276
ATOM    276  CG  GLY d   1      10.731 -10.203  -9.105  0.00  0.00     0.018 C 
ATOM    277  H75 GLY d   1      10.235 -11.023  -8.565  0.00  0.00     0.049 H 
ATOM    278  H76 GLY d   1      11.822 -10.324  -9.033  0.00  0.00     0.049 H 
BRANCH 276 279
ATOM    279  CD  GLY d   1      10.323 -10.262 -10.576  0.00  0.00     0.172 C 
ATOM    280  OE1 GLY d   1       9.146 -10.578 -10.882  0.00  0.00    -0.648 OA
ATOM    281  OE2 GLY d   1      11.173  -9.984 -11.451  0.00  0.00    -0.648 OA
ENDBRANCH 276 279
ENDBRANCH 273 276
ENDBRANCH 142 273
ENDBRANCH 140 142
ENDBRANCH   1 138
BRANCH   1 282
ATOM    282  CB  GLY d   1      10.460 -10.510  -2.787  0.00  0.00     0.036 C 
ATOM    283  H67 GLY d   1       9.746  -9.698  -2.988  0.00  0.00     0.051 H 
ATOM    284  H68 GLY d   1      11.373 -10.092  -2.337  0.00  0.00     0.051 H 
BRANCH 282 285
ATOM    285  CG  GLY d   1       9.822 -11.413  -1.740  0.00  0.00     0.217 C 
ATOM    286  OD1 GLY d   1       8.796 -11.070  -1.166  0.00  0.00    -0.274 OA
ATOM    287  ND2 GLY d   1      10.395 -12.556  -1.414  0.00  0.00    -0.370 N 
ATOM    288  H69 GLY d   1       9.975 -13.148  -0.726  0.00  0.00     0.159 HD
ATOM    289  H70 GLY d   1      11.250 -12.831  -1.855  0.00  0.00     0.159 HD
ENDBRANCH 282 285
ENDBRANCH   1 282
TORSDOF 87
