REMARK  19 active torsions:
REMARK  status: ('A' for Active; 'I' for Inactive)
REMARK    1  A    between atoms: C15_2  and  C14_17 
REMARK       I    between atoms: N16_46  and  C15_2 
REMARK    2  A    between atoms: C17_3  and  N16_46 
REMARK    3  A    between atoms: C27_22  and  C26_6 
REMARK    4  A    between atoms: C02_7  and  O01_51 
REMARK    5  A    between atoms: C06_11  and  C05_10 
REMARK    6  A    between atoms: C07_12  and  C08_13 
REMARK    7  A    between atoms: C09_14  and  C07_12 
REMARK       I    between atoms: N10_45  and  C09_14 
REMARK    8  A    between atoms: C11_15  and  N10_45 
REMARK    9  A    between atoms: C23_20  and  N22_48 
REMARK       I    between atoms: N28_49  and  C27_22 
REMARK   10  A    between atoms: C29_23  and  N28_49 
REMARK   11  A    between atoms: C33_27  and  C32_26 
REMARK       I    between atoms: N34_50  and  C33_27 
REMARK   12  A    between atoms: C35_28  and  N34_50 
REMARK   13  A    between atoms: C38_31  and  C39_32 
REMARK   14  A    between atoms: C42_33  and  O43_54 
REMARK   15  A    between atoms: C44_34  and  O45_55 
REMARK   16  A    between atoms: O45_55  and  C46_35 
REMARK   17  A    between atoms: C48_36  and  O49_57 
REMARK   18  A    between atoms: C50_37  and  O51_58 
REMARK   19  A    between atoms: O51_58  and  C52_38 
ROOT
ATOM      1  C24 FWE d   1      -5.712  89.371  56.056  0.00  0.00    -0.056 A 
ATOM      2  C26 FWE d   1      -3.413  89.941  56.640  0.00  0.00     0.032 A 
ATOM      3  C23 FWE d   1      -5.691  88.181  56.792  0.00  0.00     0.043 A 
ATOM      4  C25 FWE d   1      -4.610  90.216  55.972  0.00  0.00    -0.066 A 
ATOM      5  C54 FWE d   1      -3.420  88.767  57.367  0.00  0.00    -0.066 A 
ATOM      6  C55 FWE d   1      -4.503  87.930  57.464  0.00  0.00    -0.056 A 
ATOM      7  H3  FWE d   1      -6.621  89.645  55.532  0.00  0.00     0.087 H 
ATOM      8  H13 FWE d   1      -4.682  91.115  55.370  0.00  0.00     0.085 H 
ATOM      9  H24 FWE d   1      -2.514  88.490  57.894  0.00  0.00     0.085 H 
ATOM     10  H25 FWE d   1      -4.428  87.045  58.085  0.00  0.00     0.087 H 
ENDROOT
BRANCH   3  11
ATOM     11  N22 FWE d   1      -6.794  87.365  56.923  0.00  0.00    -0.269 N 
ATOM     12  C21 FWE d   1      -8.023  87.746  57.473  0.00  0.00     0.253 A 
ATOM     13  C17 FWE d   1      -9.098  86.615  57.510  0.00  0.00     0.097 A 
ATOM     14  O56 FWE d   1      -8.232  88.899  57.807  0.00  0.00    -0.270 OA
ATOM     15  C18 FWE d   1      -8.290  85.468  56.909  0.00  0.00     0.017 A 
ATOM     16  H2  FWE d   1      -9.398  86.378  58.541  0.00  0.00     0.088 H 
ATOM     17  C19 FWE d   1      -6.877  85.989  56.605  0.00  0.00     0.108 A 
ATOM     18  H11 FWE d   1      -8.768  85.122  55.981  0.00  0.00     0.048 H 
ATOM     19  H12 FWE d   1      -8.234  84.635  57.626  0.00  0.00     0.048 H 
ATOM     20  N20 FWE d   1      -5.896  85.328  56.104  0.00  0.00    -0.287 NA
ATOM     21  H32 FWE d   1      -5.009  85.782  55.949  0.00  0.00     0.188 HD
BRANCH  13  22
ATOM     22  N16 FWE d   1     -10.251  86.988  56.784  0.00  0.00    -0.343 N 
ATOM     23  C15 FWE d   1     -10.296  87.276  55.418  0.00  0.00     0.252 C 
ATOM     24  O57 FWE d   1      -9.254  87.189  54.765  0.00  0.00    -0.268 OA
ATOM     25  H31 FWE d   1     -11.110  87.051  57.292  0.00  0.00     0.163 HD
BRANCH  23  26
ATOM     26  C14 FWE d   1     -11.540  87.666  54.752  0.00  0.00     0.032 A 
ATOM     27  C13 FWE d   1     -11.949  87.298  53.481  0.00  0.00    -0.066 A 
ATOM     28  C12 FWE d   1     -13.149  87.714  52.930  0.00  0.00    -0.056 A 
ATOM     29  H1  FWE d   1     -11.302  86.657  52.893  0.00  0.00     0.085 H 
ATOM     30  C11 FWE d   1     -14.048  88.575  53.598  0.00  0.00     0.035 A 
ATOM     31  H10 FWE d   1     -13.411  87.362  51.939  0.00  0.00     0.086 H 
ATOM     32  C59 FWE d   1     -13.633  88.926  54.882  0.00  0.00    -0.056 A 
ATOM     33  C58 FWE d   1     -12.434  88.503  55.426  0.00  0.00    -0.066 A 
ATOM     34  H27 FWE d   1     -14.279  89.558  55.480  0.00  0.00     0.086 H 
ATOM     35  H26 FWE d   1     -12.175  88.837  56.424  0.00  0.00     0.085 H 
BRANCH  30  36
ATOM     36  N10 FWE d   1     -15.279  88.972  53.038  0.00  0.00    -0.323 N 
ATOM     37  C09 FWE d   1     -16.352  89.679  53.626  0.00  0.00     0.251 C 
ATOM     38  O60 FWE d   1     -16.258  90.032  54.792  0.00  0.00    -0.268 OA
ATOM     39  H30 FWE d   1     -15.413  88.715  52.081  0.00  0.00     0.169 HD
BRANCH  37  40
ATOM     40  C07 FWE d   1     -17.642  89.962  52.919  0.00  0.00     0.007 C 
ATOM     41  C06 FWE d   1     -17.885  89.557  51.655  0.00  0.00    -0.062 C 
ATOM     42  H6  FWE d   1     -17.052  89.046  51.175  0.00  0.00     0.085 H 
BRANCH  41  43
ATOM     43  C05 FWE d   1     -19.105  89.692  50.805  0.00  0.00    -0.035 A 
ATOM     44  C04 FWE d   1     -19.486  88.720  49.873  0.00  0.00    -0.070 A 
ATOM     45  C03 FWE d   1     -20.629  88.833  49.085  0.00  0.00    -0.050 A 
ATOM     46  H5  FWE d   1     -18.864  87.840  49.759  0.00  0.00     0.084 H 
ATOM     47  C02 FWE d   1     -21.452  89.946  49.210  0.00  0.00     0.065 A 
ATOM     48  H4  FWE d   1     -20.877  88.053  48.374  0.00  0.00     0.087 H 
ATOM     49  C62 FWE d   1     -21.115  90.932  50.132  0.00  0.00    -0.050 A 
ATOM     50  C61 FWE d   1     -19.965  90.792  50.906  0.00  0.00    -0.070 A 
ATOM     51  H29 FWE d   1     -21.745  91.806  50.248  0.00  0.00     0.087 H 
ATOM     52  H28 FWE d   1     -19.725  91.572  51.620  0.00  0.00     0.084 H 
BRANCH  47  53
ATOM     53  O01 FWE d   1     -22.569  90.059  48.437  0.00  0.00    -0.361 OA
ATOM     54  H35 FWE d   1     -22.639  89.299  47.871  0.00  0.00     0.217 HD
ENDBRANCH  47  53
ENDBRANCH  41  43
BRANCH  40  55
ATOM     55  C08 FWE d   1     -18.684  90.672  53.627  0.00  0.00    -0.046 C 
ATOM     56  H7  FWE d   1     -19.556  90.795  52.968  0.00  0.00     0.033 H 
ATOM     57  H8  FWE d   1     -18.312  91.661  53.932  0.00  0.00     0.033 H 
ATOM     58  H9  FWE d   1     -18.977  90.100  54.520  0.00  0.00     0.033 H 
ENDBRANCH  40  55
ENDBRANCH  37  40
ENDBRANCH  30  36
ENDBRANCH  23  26
ENDBRANCH  13  22
ENDBRANCH   3  11
BRANCH   2  59
ATOM     59  C27 FWE d   1      -2.267  90.806  56.582  0.00  0.00     0.256 C 
ATOM     60  N28 FWE d   1      -1.015  90.317  56.476  0.00  0.00    -0.320 N 
ATOM     61  H33 FWE d   1      -0.949  89.321  56.416  0.00  0.00     0.169 HD
ATOM     62  O53 FWE d   1      -2.461  92.016  56.712  0.00  0.00    -0.267 OA
BRANCH  60  63
ATOM     63  C29 FWE d   1       0.183  90.988  56.438  0.00  0.00     0.071 A 
ATOM     64  C30 FWE d   1       0.292  92.331  56.816  0.00  0.00    -0.053 A 
ATOM     65  C31 FWE d   1       1.481  93.027  56.807  0.00  0.00    -0.063 A 
ATOM     66  H14 FWE d   1      -0.605  92.850  57.132  0.00  0.00     0.087 H 
ATOM     67  C32 FWE d   1       2.683  92.456  56.431  0.00  0.00     0.068 A 
ATOM     68  H15 FWE d   1       1.474  94.068  57.108  0.00  0.00     0.085 H 
ATOM     69  C48 FWE d   1       2.582  91.090  56.050  0.00  0.00     0.117 A 
ATOM     70  C50 FWE d   1       1.369  90.382  56.062  0.00  0.00     0.129 A 
BRANCH  67  71
ATOM     71  C33 FWE d   1       3.980  93.162  56.395  0.00  0.00     0.259 C 
ATOM     72  N34 FWE d   1       5.137  92.509  56.111  0.00  0.00    -0.320 N 
ATOM     73  H34 FWE d   1       5.028  91.530  55.939  0.00  0.00     0.169 HD
ATOM     74  O47 FWE d   1       3.973  94.365  56.632  0.00  0.00    -0.267 OA
BRANCH  72  75
ATOM     75  C35 FWE d   1       6.458  92.972  56.017  0.00  0.00     0.071 A 
ATOM     76  C36 FWE d   1       6.826  94.298  56.253  0.00  0.00    -0.053 A 
ATOM     77  C37 FWE d   1       8.151  94.726  56.148  0.00  0.00    -0.061 A 
ATOM     78  H16 FWE d   1       6.061  95.016  56.526  0.00  0.00     0.087 H 
ATOM     79  C38 FWE d   1       9.185  93.866  55.792  0.00  0.00     0.076 A 
ATOM     80  H17 FWE d   1       8.382  95.765  56.351  0.00  0.00     0.085 H 
ATOM     81  C42 FWE d   1       8.813  92.542  55.548  0.00  0.00     0.118 A 
ATOM     82  C44 FWE d   1       7.489  92.109  55.654  0.00  0.00     0.129 A 
BRANCH  79  83
ATOM     83  C39 FWE d   1      10.634  94.384  55.690  0.00  0.00     0.212 C 
ATOM     84  O40 FWE d   1      11.474  93.560  55.281  0.00  0.00    -0.644 OA
ATOM     85  O41 FWE d   1      10.849  95.561  56.024  0.00  0.00    -0.644 OA
ENDBRANCH  79  83
BRANCH  81  86
ATOM     86  O43 FWE d   1       9.724  91.597  55.191  0.00  0.00    -0.357 OA
ATOM     87  H36 FWE d   1      10.587  91.991  55.148  0.00  0.00     0.217 HD
ENDBRANCH  81  86
BRANCH  82  88
ATOM     88  O45 FWE d   1       7.192  90.786  55.389  0.00  0.00    -0.351 OA
BRANCH  88  89
ATOM     89  C46 FWE d   1       6.452  90.556  54.123  0.00  0.00     0.011 C 
ATOM     90  H18 FWE d   1       6.262  89.480  54.000  0.00  0.00     0.067 H 
ATOM     91  H19 FWE d   1       7.051  90.922  53.276  0.00  0.00     0.067 H 
ATOM     92  H20 FWE d   1       5.494  91.096  54.155  0.00  0.00     0.067 H 
ENDBRANCH  88  89
ENDBRANCH  82  88
ENDBRANCH  72  75
ENDBRANCH  67  71
BRANCH  69  93
ATOM     93  O49 FWE d   1       3.637  90.321  55.647  0.00  0.00    -0.357 OA
ATOM     94  H37 FWE d   1       3.477  90.002  54.767  0.00  0.00     0.217 HD
ENDBRANCH  69  93
BRANCH  70  95
ATOM     95  O51 FWE d   1       1.299  89.038  55.690  0.00  0.00    -0.351 OA
BRANCH  95  96
ATOM     96  C52 FWE d   1       1.688  88.183  56.677  0.00  0.00     0.011 C 
ATOM     97  H21 FWE d   1       1.608  87.147  56.317  0.00  0.00     0.067 H 
ATOM     98  H22 FWE d   1       1.039  88.317  57.555  0.00  0.00     0.067 H 
ATOM     99  H23 FWE d   1       2.731  88.395  56.956  0.00  0.00     0.067 H 
ENDBRANCH  95  96
ENDBRANCH  70  95
ENDBRANCH  60  63
ENDBRANCH   2  59
TORSDOF 19
