REMARK  4 active torsions:
REMARK  status: ('A' for Active; 'I' for Inactive)
REMARK    1  A    between atoms: C16_5  and  C11_3 
REMARK    2  A    between atoms: C9_27  and  C16_5 
REMARK    3  A    between atoms: N2_10  and  C25_23 
REMARK    4  A    between atoms: C7_25  and  C17_18 
ROOT
ATOM      1  C10 FWH d   1       5.266  54.139  87.532  0.00  0.00    -0.059 A 
ATOM      2  C13 FWH d   1       4.257  55.385  89.824  0.00  0.00    -0.055 A 
ATOM      3  C11 FWH d   1       5.242  55.532  87.607  0.00  0.00    -0.025 A 
ATOM      4  C14 FWH d   1       4.333  54.006  89.753  0.00  0.00     0.045 A 
ATOM      5  C19 FWH d   1       4.885  51.947  88.921  0.00  0.00     0.003 A 
ATOM      6  C20 FWH d   1       5.405  49.604  88.921  0.00  0.00    -0.082 A 
ATOM      7  C18 FWH d   1       4.400  51.811  90.234  0.00  0.00     0.045 A 
ATOM      8  N2  FWH d   1       4.058  53.061  90.724  0.00  0.00    -0.350 N 
ATOM      9  C12 FWH d   1       4.694  56.137  88.745  0.00  0.00    -0.070 A 
ATOM     10  C15 FWH d   1       4.836  53.367  88.609  0.00  0.00     0.004 A 
ATOM     11  C21 FWH d   1       5.411  50.836  88.280  0.00  0.00    -0.070 A 
ATOM     12  C22 FWH d   1       4.439  50.589  90.894  0.00  0.00    -0.056 A 
ATOM     13  C23 FWH d   1       4.928  49.483  90.216  0.00  0.00    -0.081 A 
ATOM     14  H1  FWH d   1       5.622  53.654  86.630  0.00  0.00     0.086 H 
ATOM     15  H2  FWH d   1       3.862  55.870  90.709  0.00  0.00     0.087 H 
ATOM     16  H3  FWH d   1       5.777  48.728  88.403  0.00  0.00     0.083 H 
ATOM     17  H7  FWH d   1       4.610  57.217  88.783  0.00  0.00     0.084 H 
ATOM     18  H11 FWH d   1       5.825  50.928  87.283  0.00  0.00     0.084 H 
ATOM     19  H12 FWH d   1       4.094  50.502  91.918  0.00  0.00     0.087 H 
ATOM     20  H13 FWH d   1       4.937  48.515  90.704  0.00  0.00     0.083 H 
ENDROOT
BRANCH   3  21
ATOM     21  C16 FWH d   1       5.932  56.353  86.575  0.00  0.00    -0.024 C 
ATOM     22  C24 FWH d   1       5.708  56.146  85.276  0.00  0.00    -0.110 C 
ATOM     23  H14 FWH d   1       4.934  55.448  84.962  0.00  0.00     0.068 H 
ATOM     24  H15 FWH d   1       6.300  56.675  84.530  0.00  0.00     0.068 H 
BRANCH  21  25
ATOM     25  C9  FWH d   1       6.955  57.276  87.142  0.00  0.00    -0.011 A 
ATOM     26  C5  FWH d   1       6.990  58.663  86.777  0.00  0.00     0.004 A 
ATOM     27  C4  FWH d   1       7.890  59.491  87.503  0.00  0.00     0.068 A 
ATOM     28  C6  FWH d   1       6.260  59.238  85.700  0.00  0.00    -0.070 A 
ATOM     29  C3  FWH d   1       8.001  60.862  87.146  0.00  0.00    -0.054 A 
ATOM     30  N1  FWH d   1       8.716  59.003  88.492  0.00  0.00    -0.253 NA
ATOM     31  C2  FWH d   1       7.308  61.356  86.070  0.00  0.00    -0.081 A 
ATOM     32  H4  FWH d   1       8.636  61.521  87.727  0.00  0.00     0.087 H 
ATOM     33  C1  FWH d   1       6.443  60.546  85.348  0.00  0.00    -0.082 A 
ATOM     34  H6  FWH d   1       7.438  62.392  85.780  0.00  0.00     0.083 H 
ATOM     35  H5  FWH d   1       5.908  60.954  84.498  0.00  0.00     0.083 H 
ATOM     36  C7  FWH d   1       8.711  57.700  88.752  0.00  0.00     0.032 A 
ATOM     37  C8  FWH d   1       7.844  56.816  88.107  0.00  0.00    -0.048 A 
ATOM     38  H20 FWH d   1       7.864  55.762  88.361  0.00  0.00     0.087 H 
ATOM     39  H19 FWH d   1       5.549  58.631  85.151  0.00  0.00     0.084 H 
BRANCH  36  40
ATOM     40  C17 FWH d   1       9.711  57.208  89.748  0.00  0.00    -0.035 C 
ATOM     41  H8  FWH d   1       9.602  56.120  89.871  0.00  0.00     0.035 H 
ATOM     42  H9  FWH d   1       9.541  57.705  90.715  0.00  0.00     0.035 H 
ATOM     43  H10 FWH d   1      10.726  57.437  89.392  0.00  0.00     0.035 H 
ENDBRANCH  36  40
ENDBRANCH  21  25
ENDBRANCH   3  21
BRANCH   8  44
ATOM     44  C25 FWH d   1       3.509  53.335  92.041  0.00  0.00    -0.013 C 
ATOM     45  H16 FWH d   1       3.337  54.416  92.149  0.00  0.00     0.057 H 
ATOM     46  H17 FWH d   1       4.218  52.998  92.811  0.00  0.00     0.057 H 
ATOM     47  H18 FWH d   1       2.556  52.798  92.160  0.00  0.00     0.057 H 
ENDBRANCH   8  44
TORSDOF 4
