REMARK  12 active torsions:
REMARK  status: ('A' for Active; 'I' for Inactive)
REMARK    1  A    between atoms: N10_1  and  CA_2 
REMARK    2  A    between atoms: CA_2  and  CB_3 
REMARK    3  A    between atoms: CA_2  and  C9_5 
REMARK    4  A    between atoms: CB_3  and  OG_4 
REMARK       I    between atoms: C9_5  and  N8_7 
REMARK    5  A    between atoms: N8_7  and  S1_8 
REMARK    6  A    between atoms: S1_8  and  O5'_11 
REMARK    7  A    between atoms: O5'_11  and  C5'_12 
REMARK    8  A    between atoms: C5'_12  and  C4'_13 
REMARK    9  A    between atoms: C3'_15  and  O3'_16 
REMARK   10  A    between atoms: C2'_17  and  O2'_18 
REMARK   11  A    between atoms: C1'_19  and  N9_20 
REMARK   12  A    between atoms: C6_24  and  N6_25 
ROOT
ATOM      1  C4' SSA d   1      -7.435 -30.300  -1.479  0.00  0.00     0.090 C 
ATOM      2  O4' SSA d   1      -8.508 -29.922  -0.591  0.00  0.00    -0.353 OA
ATOM      3  C3' SSA d   1      -6.754 -31.463  -0.770  0.00  0.00     0.091 C 
ATOM      4  C2' SSA d   1      -6.825 -31.031   0.694  0.00  0.00     0.105 C 
ATOM      5  C1' SSA d   1      -8.161 -30.267   0.744  0.00  0.00     0.139 C 
ATOM      6  H11 SSA d   1      -6.717 -29.472  -1.569  0.00  0.00     0.090 H 
ATOM      7  H12 SSA d   1      -7.288 -32.410  -0.939  0.00  0.00     0.091 H 
ATOM      8  H14 SSA d   1      -6.801 -31.887   1.385  0.00  0.00     0.093 H 
ATOM      9  H16 SSA d   1      -8.017 -29.353   1.339  0.00  0.00     0.122 H 
ENDROOT
BRANCH   1  10
ATOM     10  C5' SSA d   1      -7.964 -30.592  -2.860  0.00  0.00     0.066 C 
ATOM     11  H9  SSA d   1      -8.443 -29.692  -3.272  0.00  0.00     0.080 H 
ATOM     12  H10 SSA d   1      -7.137 -30.901  -3.517  0.00  0.00     0.080 H 
BRANCH  10  13
ATOM     13  O5' SSA d   1      -8.942 -31.668  -2.761  0.00  0.00    -0.257 OA
BRANCH  13  14
ATOM     14  S1  SSA d   1      -8.811 -32.926  -3.740  0.00  0.00     0.364 S 
ATOM     15  O1S SSA d   1     -10.062 -33.579  -3.577  0.00  0.00    -0.175 OA
ATOM     16  O2S SSA d   1      -7.593 -33.588  -3.444  0.00  0.00    -0.175 OA
BRANCH  14  17
ATOM     17  N8  SSA d   1      -8.687 -32.341  -5.216  0.00  0.00    -0.230 N 
ATOM     18  C9  SSA d   1      -9.568 -31.379  -5.760  0.00  0.00     0.265 C 
ATOM     19  O9  SSA d   1     -10.598 -31.052  -5.169  0.00  0.00    -0.270 OA
ATOM     20  H8  SSA d   1      -7.941 -32.674  -5.793  0.00  0.00     0.183 HD
BRANCH  18  21
ATOM     21  CA  SSA d   1      -9.105 -30.799  -7.080  0.00  0.00     0.196 C 
ATOM     22  H4  SSA d   1      -8.875 -31.611  -7.785  0.00  0.00     0.102 H 
BRANCH  21  23
ATOM     23  N10 SSA d   1     -10.244 -30.027  -7.596  0.00  0.00    -0.064 N 
ATOM     24  H1  SSA d   1      -9.996 -29.613  -8.481  0.00  0.00     0.275 HD
ATOM     25  H2  SSA d   1     -10.482 -29.300  -6.940  0.00  0.00     0.275 HD
ATOM     26  H3  SSA d   1     -11.035 -30.639  -7.722  0.00  0.00     0.275 HD
ENDBRANCH  21  23
BRANCH  21  27
ATOM     27  CB  SSA d   1      -7.834 -29.978  -6.867  0.00  0.00     0.051 C 
ATOM     28  H5  SSA d   1      -7.557 -29.492  -7.814  0.00  0.00     0.077 H 
ATOM     29  H6  SSA d   1      -7.022 -30.648  -6.548  0.00  0.00     0.077 H 
BRANCH  27  30
ATOM     30  OG  SSA d   1      -8.031 -28.985  -5.877  0.00  0.00    -0.398 OA
ATOM     31  H7  SSA d   1      -8.729 -28.401  -6.150  0.00  0.00     0.209 HD
ENDBRANCH  27  30
ENDBRANCH  21  27
ENDBRANCH  18  21
ENDBRANCH  14  17
ENDBRANCH  13  14
ENDBRANCH  10  13
ENDBRANCH   1  10
BRANCH   3  32
ATOM     32  O3' SSA d   1      -5.406 -31.585  -1.198  0.00  0.00    -0.390 OA
ATOM     33  H13 SSA d   1      -4.996 -32.314  -0.747  0.00  0.00     0.210 HD
ENDBRANCH   3  32
BRANCH   5  34
ATOM     34  N9  SSA d   1      -9.269 -31.021   1.321  0.00  0.00    -0.294 N 
ATOM     35  C8  SSA d   1      -9.894 -32.102   0.755  0.00  0.00     0.071 A 
ATOM     36  N7  SSA d   1     -10.901 -32.566   1.454  0.00  0.00    -0.236 NA
ATOM     37  H17 SSA d   1      -9.581 -32.537  -0.193  0.00  0.00     0.144 H 
ATOM     38  C5  SSA d   1     -10.950 -31.727   2.557  0.00  0.00     0.149 A 
ATOM     39  C6  SSA d   1     -11.841 -31.644   3.645  0.00  0.00     0.155 A 
ATOM     40  C4  SSA d   1      -9.944 -30.773   2.494  0.00  0.00     0.167 A 
ATOM     41  N1  SSA d   1     -11.632 -30.665   4.559  0.00  0.00    -0.222 NA
ATOM     42  C2  SSA d   1     -10.619 -29.808   4.369  0.00  0.00     0.091 A 
ATOM     43  N3  SSA d   1      -9.726 -29.778   3.372  0.00  0.00    -0.222 NA
ATOM     44  H20 SSA d   1     -10.508 -29.037   5.123  0.00  0.00     0.146 H 
BRANCH  39  45
ATOM     45  N6  SSA d   1     -12.911 -32.433   3.783  0.00  0.00    -0.382 N 
ATOM     46  H18 SSA d   1     -13.528 -32.326   4.601  0.00  0.00     0.157 HD
ATOM     47  H19 SSA d   1     -13.119 -33.148   3.071  0.00  0.00     0.157 HD
ENDBRANCH  39  45
ENDBRANCH   5  34
BRANCH   4  48
ATOM     48  O2' SSA d   1      -5.775 -30.118   0.974  0.00  0.00    -0.388 OA
ATOM     49  H15 SSA d   1      -4.939 -30.538   0.809  0.00  0.00     0.210 HD
ENDBRANCH   4  48
TORSDOF 12
