REMARK  8 active torsions:
REMARK  status: ('A' for Active; 'I' for Inactive)
REMARK    1  A    between atoms: S1_2  and  C1_5 
REMARK    2  A    between atoms: C25_11  and  O13_12 
REMARK    3  A    between atoms: C7_16  and  S2_17 
REMARK    4  A    between atoms: C28_22  and  O16_23 
REMARK    5  A    between atoms: C13_28  and  S3_29 
REMARK    6  A    between atoms: C27_34  and  O15_35 
REMARK    7  A    between atoms: C26_40  and  O14_41 
REMARK    8  A    between atoms: C19_44  and  S4_45 
ROOT
ATOM      1  C1  T3Y d   1       2.644   2.489  18.468  0.00  0.00     0.082 A 
ATOM      2  C24 T3Y d   1       2.258   1.473  17.579  0.00  0.00    -0.050 A 
ATOM      3  C23 T3Y d   1       2.369   1.617  16.190  0.00  0.00    -0.019 A 
ATOM      4  C22 T3Y d   1       1.946   0.490  15.261  0.00  0.00    -0.012 C 
ATOM      5  C2  T3Y d   1       3.177   3.692  17.986  0.00  0.00    -0.050 A 
ATOM      6  C3  T3Y d   1       3.350   3.929  16.626  0.00  0.00    -0.019 A 
ATOM      7  C25 T3Y d   1       2.978   2.866  15.659  0.00  0.00     0.079 A 
ATOM      8  C4  T3Y d   1       3.916   5.245  16.142  0.00  0.00    -0.012 C 
ATOM      9  C5  T3Y d   1       2.789   6.155  15.695  0.00  0.00    -0.019 A 
ATOM     10  C6  T3Y d   1       2.090   6.908  16.633  0.00  0.00    -0.050 A 
ATOM     11  C7  T3Y d   1       1.028   7.734  16.257  0.00  0.00     0.082 A 
ATOM     12  C8  T3Y d   1       0.638   7.863  14.916  0.00  0.00    -0.050 A 
ATOM     13  C28 T3Y d   1       2.380   6.234  14.268  0.00  0.00     0.079 A 
ATOM     14  C9  T3Y d   1       1.257   7.132  13.903  0.00  0.00    -0.019 A 
ATOM     15  C10 T3Y d   1       0.819   7.251  12.454  0.00  0.00    -0.012 C 
ATOM     16  C11 T3Y d   1      -0.302   6.273  12.158  0.00  0.00    -0.019 A 
ATOM     17  C12 T3Y d   1      -1.619   6.724  12.141  0.00  0.00    -0.050 A 
ATOM     18  C13 T3Y d   1      -2.686   5.849  11.920  0.00  0.00     0.082 A 
ATOM     19  C14 T3Y d   1      -2.475   4.480  11.732  0.00  0.00    -0.050 A 
ATOM     20  C27 T3Y d   1      -0.032   4.835  11.903  0.00  0.00     0.079 A 
ATOM     21  C15 T3Y d   1      -1.197   3.927  11.721  0.00  0.00    -0.019 A 
ATOM     22  C16 T3Y d   1      -0.999   2.446  11.459  0.00  0.00    -0.012 C 
ATOM     23  C17 T3Y d   1      -0.861   1.682  12.763  0.00  0.00    -0.019 C 
ATOM     24  C18 T3Y d   1      -1.974   1.143  13.419  0.00  0.00    -0.050 C 
ATOM     25  C26 T3Y d   1       0.485   1.436  13.331  0.00  0.00     0.079 C 
ATOM     26  C21 T3Y d   1       0.578   0.757  14.651  0.00  0.00    -0.019 C 
ATOM     27  C20 T3Y d   1      -0.591   0.241  15.219  0.00  0.00    -0.050 C 
ATOM     28  C19 T3Y d   1      -1.858   0.469  14.650  0.00  0.00     0.082 C 
ATOM     29  H1  T3Y d   1       1.861   0.547  17.980  0.00  0.00     0.086 H 
ATOM     30  H2  T3Y d   1       1.906  -0.449  15.833  0.00  0.00     0.047 H 
ATOM     31  H3  T3Y d   1       2.686   0.396  14.453  0.00  0.00     0.047 H 
ATOM     32  H4  T3Y d   1       3.463   4.461  18.694  0.00  0.00     0.086 H 
ATOM     33  H6  T3Y d   1       4.595   5.062  15.296  0.00  0.00     0.047 H 
ATOM     34  H7  T3Y d   1       4.472   5.727  16.960  0.00  0.00     0.047 H 
ATOM     35  H8  T3Y d   1       2.375   6.853  17.677  0.00  0.00     0.086 H 
ATOM     36  H9  T3Y d   1      -0.163   8.547  14.661  0.00  0.00     0.086 H 
ATOM     37  H11 T3Y d   1       1.674   7.032  11.798  0.00  0.00     0.047 H 
ATOM     38  H12 T3Y d   1       0.465   8.275  12.265  0.00  0.00     0.047 H 
ATOM     39  H13 T3Y d   1      -1.821   7.777  12.303  0.00  0.00     0.086 H 
ATOM     40  H14 T3Y d   1      -3.331   3.830  11.591  0.00  0.00     0.086 H 
ATOM     41  H16 T3Y d   1      -0.087   2.304  10.860  0.00  0.00     0.047 H 
ATOM     42  H17 T3Y d   1      -1.866   2.059  10.904  0.00  0.00     0.047 H 
ATOM     43  H18 T3Y d   1      -2.953   1.248  12.966  0.00  0.00     0.086 H 
ATOM     44  H20 T3Y d   1      -0.519  -0.352  16.124  0.00  0.00     0.086 H 
ENDROOT
BRANCH   1  45
ATOM     45  S1  T3Y d   1       2.583   2.257  20.065  0.00  0.00     0.137 S 
ATOM     46  O3  T3Y d   1       3.904   1.760  20.521  0.00  0.00    -0.591 OA
ATOM     47  O1  T3Y d   1       2.270   3.534  20.743  0.00  0.00    -0.591 OA
ATOM     48  O2  T3Y d   1       1.569   1.249  20.433  0.00  0.00    -0.591 OA
ENDBRANCH   1  45
BRANCH   7  49
ATOM     49  O13 T3Y d   1       3.176   3.062  14.328  0.00  0.00    -0.360 OA
ATOM     50  H5  T3Y d   1       2.888   2.293  13.850  0.00  0.00     0.217 HD
ENDBRANCH   7  49
BRANCH  25  51
ATOM     51  O14 T3Y d   1       1.600   1.902  12.704  0.00  0.00    -0.360 OA
ATOM     52  H19 T3Y d   1       1.554   2.849  12.640  0.00  0.00     0.217 HD
ENDBRANCH  25  51
BRANCH  13  53
ATOM     53  O16 T3Y d   1       3.020   5.526  13.303  0.00  0.00    -0.360 OA
ATOM     54  H10 T3Y d   1       2.953   4.598  13.495  0.00  0.00     0.217 HD
ENDBRANCH  13  53
BRANCH  28  55
ATOM     55  S4  T3Y d   1      -3.194  -0.097  15.361  0.00  0.00     0.137 S 
ATOM     56  O11 T3Y d   1      -2.827  -0.998  16.475  0.00  0.00    -0.591 OA
ATOM     57  O10 T3Y d   1      -3.980  -0.874  14.374  0.00  0.00    -0.591 OA
ATOM     58  O12 T3Y d   1      -3.981   1.039  15.888  0.00  0.00    -0.591 OA
ENDBRANCH  28  55
BRANCH  11  59
ATOM     59  S2  T3Y d   1       0.286   8.571  17.404  0.00  0.00     0.137 S 
ATOM     60  O4  T3Y d   1      -0.285   7.636  18.399  0.00  0.00    -0.591 OA
ATOM     61  O5  T3Y d   1       1.270   9.442  18.087  0.00  0.00    -0.591 OA
ATOM     62  O6  T3Y d   1      -0.801   9.394  16.833  0.00  0.00    -0.591 OA
ENDBRANCH  11  59
BRANCH  20  63
ATOM     63  O15 T3Y d   1       1.236   4.355  11.814  0.00  0.00    -0.360 OA
ATOM     64  H15 T3Y d   1       1.694   4.520  12.630  0.00  0.00     0.217 HD
ENDBRANCH  20  63
BRANCH  18  65
ATOM     65  S3  T3Y d   1      -4.183   6.417  11.886  0.00  0.00     0.137 S 
ATOM     66  O7  T3Y d   1      -4.174   7.886  11.695  0.00  0.00    -0.591 OA
ATOM     67  O8  T3Y d   1      -4.828   6.083  13.169  0.00  0.00    -0.591 OA
ATOM     68  O9  T3Y d   1      -4.931   5.777  10.780  0.00  0.00    -0.591 OA
ENDBRANCH  18  65
TORSDOF 8
