REMARK  12 active torsions:
REMARK  status: ('A' for Active; 'I' for Inactive)
REMARK    1  A    between atoms: C3_3  and  O3_44 
REMARK    2  A    between atoms: C6_6  and  S68_50 
REMARK    3  A    between atoms: C10_10  and  S67_49 
REMARK    4  A    between atoms: C21_18  and  O4_45 
REMARK    5  A    between atoms: C18_19  and  S69_51 
REMARK    6  A    between atoms: C13_23  and  O2_43 
REMARK    7  A    between atoms: C38_25  and  S70_52 
REMARK    8  A    between atoms: C41_28  and  O5_46 
REMARK    9  A    between atoms: C45_31  and  O1_42 
REMARK   10  A    between atoms: C48_34  and  S64_48 
REMARK   11  A    between atoms: C52_38  and  S71_53 
REMARK   12  A    between atoms: C55_41  and  O6_47 
ROOT
ATOM      1  C1  FWQ d   1      19.188   5.691  31.462  0.00  0.00    -0.050 A 
ATOM      2  C2  FWQ d   1      18.754   6.304  30.294  0.00  0.00    -0.019 A 
ATOM      3  C3  FWQ d   1      18.555   5.513  29.149  0.00  0.00     0.079 A 
ATOM      4  C4  FWQ d   1      18.817   4.150  29.139  0.00  0.00    -0.019 A 
ATOM      5  C5  FWQ d   1      19.222   3.540  30.341  0.00  0.00    -0.050 A 
ATOM      6  C6  FWQ d   1      19.396   4.316  31.504  0.00  0.00     0.082 A 
ATOM      7  C7  FWQ d   1      18.303   7.750  30.350  0.00  0.00    -0.012 C 
ATOM      8  C8  FWQ d   1      19.354   8.695  29.813  0.00  0.00    -0.019 A 
ATOM      9  C9  FWQ d   1      20.213   9.353  30.704  0.00  0.00    -0.050 A 
ATOM     10  C10 FWQ d   1      21.125  10.290  30.202  0.00  0.00     0.082 A 
ATOM     11  C11 FWQ d   1      21.223  10.474  28.823  0.00  0.00    -0.050 A 
ATOM     12  C12 FWQ d   1      20.338   9.849  27.948  0.00  0.00    -0.019 A 
ATOM     13  C14 FWQ d   1      20.484  10.018  26.445  0.00  0.00    -0.012 C 
ATOM     14  C15 FWQ d   1      18.435   3.315  27.919  0.00  0.00    -0.012 C 
ATOM     15  C16 FWQ d   1      19.452   3.300  26.799  0.00  0.00    -0.019 A 
ATOM     16  C17 FWQ d   1      20.185   2.132  26.633  0.00  0.00    -0.050 A 
ATOM     17  C19 FWQ d   1      21.027   2.887  24.494  0.00  0.00    -0.050 A 
ATOM     18  C21 FWQ d   1      19.465   4.234  25.757  0.00  0.00     0.079 A 
ATOM     19  C18 FWQ d   1      20.952   1.909  25.496  0.00  0.00     0.082 A 
ATOM     20  C20 FWQ d   1      20.217   4.028  24.605  0.00  0.00    -0.019 A 
ATOM     21  C36 FWQ d   1      19.112   5.357  22.659  0.00  0.00    -0.019 A 
ATOM     22  C37 FWQ d   1      18.018   4.504  22.621  0.00  0.00    -0.050 A 
ATOM     23  C13 FWQ d   1      19.450   8.904  28.446  0.00  0.00     0.079 A 
ATOM     24  C29 FWQ d   1      20.303   5.173  23.601  0.00  0.00    -0.012 C 
ATOM     25  C38 FWQ d   1      16.967   4.693  21.711  0.00  0.00     0.082 A 
ATOM     26  C39 FWQ d   1      17.034   5.782  20.843  0.00  0.00    -0.050 A 
ATOM     27  C40 FWQ d   1      18.088   6.692  20.915  0.00  0.00    -0.019 A 
ATOM     28  C41 FWQ d   1      19.155   6.433  21.770  0.00  0.00     0.079 A 
ATOM     29  C43 FWQ d   1      18.162   7.815  19.901  0.00  0.00    -0.012 C 
ATOM     30  C44 FWQ d   1      19.541  11.035  25.800  0.00  0.00    -0.019 C 
ATOM     31  C45 FWQ d   1      19.616  11.201  24.421  0.00  0.00     0.079 C 
ATOM     32  C46 FWQ d   1      18.736  12.064  23.759  0.00  0.00    -0.019 C 
ATOM     33  C47 FWQ d   1      17.914  12.902  24.525  0.00  0.00    -0.050 C 
ATOM     34  C48 FWQ d   1      17.815  12.756  25.915  0.00  0.00     0.082 C 
ATOM     35  C49 FWQ d   1      18.706  11.878  26.555  0.00  0.00    -0.050 C 
ATOM     36  C50 FWQ d   1      17.641   9.142  20.434  0.00  0.00    -0.019 A 
ATOM     37  C51 FWQ d   1      16.360   9.528  20.034  0.00  0.00    -0.050 A 
ATOM     38  C52 FWQ d   1      15.842  10.767  20.415  0.00  0.00     0.082 A 
ATOM     39  C53 FWQ d   1      16.640  11.643  21.142  0.00  0.00    -0.050 A 
ATOM     40  C54 FWQ d   1      17.934  11.289  21.501  0.00  0.00    -0.019 A 
ATOM     41  C55 FWQ d   1      18.455  10.054  21.108  0.00  0.00     0.079 A 
ATOM     42  C72 FWQ d   1      18.792  12.278  22.254  0.00  0.00    -0.012 C 
ATOM     43  H1  FWQ d   1      19.366   6.289  32.349  0.00  0.00     0.086 H 
ATOM     44  H2  FWQ d   1      19.400   2.471  30.372  0.00  0.00     0.086 H 
ATOM     45  H3  FWQ d   1      18.089   8.015  31.396  0.00  0.00     0.047 H 
ATOM     46  H4  FWQ d   1      17.388   7.860  29.750  0.00  0.00     0.047 H 
ATOM     47  H5  FWQ d   1      20.172   9.140  31.766  0.00  0.00     0.086 H 
ATOM     48  H6  FWQ d   1      22.002  11.115  28.425  0.00  0.00     0.086 H 
ATOM     49  H7  FWQ d   1      20.300   9.041  25.975  0.00  0.00     0.047 H 
ATOM     50  H8  FWQ d   1      21.517  10.336  26.239  0.00  0.00     0.047 H 
ATOM     51  H9  FWQ d   1      17.492   3.714  27.516  0.00  0.00     0.047 H 
ATOM     52  H10 FWQ d   1      18.282   2.278  28.252  0.00  0.00     0.047 H 
ATOM     53  H11 FWQ d   1      20.158   1.376  27.409  0.00  0.00     0.086 H 
ATOM     54  H12 FWQ d   1      21.697   2.764  23.651  0.00  0.00     0.086 H 
ATOM     55  H13 FWQ d   1      17.974   3.670  23.312  0.00  0.00     0.086 H 
ATOM     56  H14 FWQ d   1      21.195   5.004  22.980  0.00  0.00     0.047 H 
ATOM     57  H15 FWQ d   1      20.424   6.106  24.171  0.00  0.00     0.047 H 
ATOM     58  H16 FWQ d   1      16.256   5.923  20.102  0.00  0.00     0.086 H 
ATOM     59  H17 FWQ d   1      17.563   7.532  19.023  0.00  0.00     0.047 H 
ATOM     60  H18 FWQ d   1      19.212   7.947  19.602  0.00  0.00     0.047 H 
ATOM     61  H19 FWQ d   1      17.343  13.680  24.031  0.00  0.00     0.086 H 
ATOM     62  H20 FWQ d   1      18.750  11.850  27.638  0.00  0.00     0.086 H 
ATOM     63  H21 FWQ d   1      15.763   8.860  19.423  0.00  0.00     0.086 H 
ATOM     64  H22 FWQ d   1      16.248  12.611  21.431  0.00  0.00     0.086 H 
ATOM     65  H29 FWQ d   1      19.834  12.168  21.920  0.00  0.00     0.047 H 
ATOM     66  H30 FWQ d   1      18.440  13.295  22.028  0.00  0.00     0.047 H 
ENDROOT
BRANCH   6  67
ATOM     67  S68 FWQ d   1      19.819   3.643  32.899  0.00  0.00     0.137 S 
ATOM     68  O13 FWQ d   1      21.239   3.902  33.148  0.00  0.00    -0.591 OA
ATOM     69  O14 FWQ d   1      18.995   4.149  34.047  0.00  0.00    -0.591 OA
ATOM     70  O15 FWQ d   1      19.660   2.171  32.770  0.00  0.00    -0.591 OA
ENDBRANCH   6  67
BRANCH   3  71
ATOM     71  O3  FWQ d   1      17.994   6.052  28.048  0.00  0.00    -0.360 OA
ATOM     72  H25 FWQ d   1      18.566   5.913  27.302  0.00  0.00     0.217 HD
ENDBRANCH   3  71
BRANCH  23  73
ATOM     73  O2  FWQ d   1      18.527   8.408  27.605  0.00  0.00    -0.360 OA
ATOM     74  H24 FWQ d   1      17.987   7.777  28.066  0.00  0.00     0.217 HD
ENDBRANCH  23  73
BRANCH  18  75
ATOM     75  O4  FWQ d   1      18.699   5.344  25.796  0.00  0.00    -0.360 OA
ATOM     76  H26 FWQ d   1      18.235   5.378  26.624  0.00  0.00     0.217 HD
ENDBRANCH  18  75
BRANCH  10  77
ATOM     77  S67 FWQ d   1      22.043  11.143  31.200  0.00  0.00     0.137 S 
ATOM     78  O10 FWQ d   1      23.168  11.748  30.459  0.00  0.00    -0.591 OA
ATOM     79  O11 FWQ d   1      21.223  12.201  31.833  0.00  0.00    -0.591 OA
ATOM     80  O12 FWQ d   1      22.577  10.289  32.278  0.00  0.00    -0.591 OA
ENDBRANCH  10  77
BRANCH  19  81
ATOM     81  S69 FWQ d   1      21.855   0.577  25.433  0.00  0.00     0.137 S 
ATOM     82  O16 FWQ d   1      23.270   0.975  25.399  0.00  0.00    -0.591 OA
ATOM     83  O17 FWQ d   1      21.557  -0.085  24.153  0.00  0.00    -0.591 OA
ATOM     84  O18 FWQ d   1      21.617  -0.266  26.624  0.00  0.00    -0.591 OA
ENDBRANCH  19  81
BRANCH  31  85
ATOM     85  O1  FWQ d   1      20.531  10.431  23.761  0.00  0.00    -0.360 OA
ATOM     86  H23 FWQ d   1      20.079   9.847  23.163  0.00  0.00     0.217 HD
ENDBRANCH  31  85
BRANCH  28  87
ATOM     87  O5  FWQ d   1      20.185   7.292  21.901  0.00  0.00    -0.360 OA
ATOM     88  H27 FWQ d   1      19.860   8.129  22.211  0.00  0.00     0.217 HD
ENDBRANCH  28  87
BRANCH  34  89
ATOM     89  S64 FWQ d   1      16.873  13.761  26.774  0.00  0.00     0.137 S 
ATOM     90  O7  FWQ d   1      17.750  14.826  27.291  0.00  0.00    -0.591 OA
ATOM     91  O8  FWQ d   1      16.291  13.037  27.924  0.00  0.00    -0.591 OA
ATOM     92  O9  FWQ d   1      15.791  14.271  25.922  0.00  0.00    -0.591 OA
ENDBRANCH  34  89
BRANCH  25  93
ATOM     93  S70 FWQ d   1      15.766   3.624  21.599  0.00  0.00     0.137 S 
ATOM     94  O19 FWQ d   1      16.276   2.476  20.818  0.00  0.00    -0.591 OA
ATOM     95  O20 FWQ d   1      14.608   4.176  20.874  0.00  0.00    -0.591 OA
ATOM     96  O21 FWQ d   1      15.356   3.189  22.944  0.00  0.00    -0.591 OA
ENDBRANCH  25  93
BRANCH  41  97
ATOM     97  O6  FWQ d   1      19.744   9.778  21.411  0.00  0.00    -0.360 OA
ATOM     98  H28 FWQ d   1      19.859   9.804  22.354  0.00  0.00     0.217 HD
ENDBRANCH  41  97
BRANCH  38  99
ATOM     99  S71 FWQ d   1      14.325  11.158  20.082  0.00  0.00     0.137 S 
ATOM    100  O22 FWQ d   1      13.843  12.163  21.057  0.00  0.00    -0.591 OA
ATOM    101  O23 FWQ d   1      13.474   9.953  20.170  0.00  0.00    -0.591 OA
ATOM    102  O24 FWQ d   1      14.259  11.711  18.709  0.00  0.00    -0.591 OA
ENDBRANCH  38  99
TORSDOF 12
