REMARK  16 active torsions:
REMARK  status: ('A' for Active; 'I' for Inactive)
REMARK    1  A    between atoms: C13_3  and  O4_59 
REMARK    2  A    between atoms: C18_7  and  S69_69 
REMARK    3  A    between atoms: C21_10  and  O6_61 
REMARK    4  A    between atoms: C23_12  and  O3_58 
REMARK    5  A    between atoms: C3_15  and  O5_60 
REMARK    6  A    between atoms: C6_18  and  S68_68 
REMARK    7  A    between atoms: C10_22  and  S67_67 
REMARK    8  A    between atoms: C26_26  and  S66_66 
REMARK    9  A    between atoms: C31_31  and  O2_57 
REMARK   10  A    between atoms: C34_34  and  S65_65 
REMARK   11  A    between atoms: C38_38  and  S70_70 
REMARK   12  A    between atoms: C41_41  and  O7_62 
REMARK   13  A    between atoms: C45_45  and  O1_56 
REMARK   14  A    between atoms: C48_48  and  S64_64 
REMARK   15  A    between atoms: C52_52  and  S71_71 
REMARK   16  A    between atoms: C55_55  and  O8_63 
ROOT
ATOM      1  C11 EVB d   1       4.956  13.348 -13.861  0.00  0.00    -0.050 A 
ATOM      2  C12 EVB d   1       4.690  12.113 -14.456  0.00  0.00    -0.019 A 
ATOM      3  C13 EVB d   1       3.566  11.388 -14.054  0.00  0.00     0.079 A 
ATOM      4  C14 EVB d   1       5.577  11.646 -15.601  0.00  0.00    -0.012 C 
ATOM      5  C15 EVB d   1       0.644   7.551  -9.049  0.00  0.00    -0.012 C 
ATOM      6  C17 EVB d   1       0.779   8.511  -6.689  0.00  0.00    -0.050 C 
ATOM      7  C18 EVB d   1       0.217   9.230  -5.619  0.00  0.00     0.082 C 
ATOM      8  C19 EVB d   1      -1.110   9.671  -5.726  0.00  0.00    -0.050 C 
ATOM      9  C20 EVB d   1      -1.867   9.459  -6.879  0.00  0.00    -0.019 C 
ATOM     10  C21 EVB d   1      -1.292   8.707  -7.919  0.00  0.00     0.079 C 
ATOM     11  C22 EVB d   1       4.964  11.872 -16.969  0.00  0.00    -0.019 A 
ATOM     12  C23 EVB d   1       4.326  10.815 -17.621  0.00  0.00     0.079 A 
ATOM     13  C1  EVB d   1       3.560   9.781 -11.350  0.00  0.00    -0.050 A 
ATOM     14  C2  EVB d   1       2.179  10.034 -11.518  0.00  0.00    -0.019 A 
ATOM     15  C3  EVB d   1       1.244   9.314 -10.763  0.00  0.00     0.079 A 
ATOM     16  C4  EVB d   1       1.662   8.383  -9.823  0.00  0.00    -0.019 A 
ATOM     17  C5  EVB d   1       3.035   8.122  -9.672  0.00  0.00    -0.050 A 
ATOM     18  C6  EVB d   1       3.997   8.834 -10.415  0.00  0.00     0.082 A 
ATOM     19  C7  EVB d   1       1.641  11.069 -12.499  0.00  0.00    -0.012 C 
ATOM     20  C8  EVB d   1       2.782  11.913 -13.019  0.00  0.00    -0.019 A 
ATOM     21  C9  EVB d   1       3.116  13.096 -12.353  0.00  0.00    -0.050 A 
ATOM     22  C10 EVB d   1       4.204  13.846 -12.799  0.00  0.00     0.082 A 
ATOM     23  C16 EVB d   1       0.045   8.315  -7.865  0.00  0.00    -0.019 C 
ATOM     24  C24 EVB d   1       3.810  10.979 -18.915  0.00  0.00    -0.019 A 
ATOM     25  C25 EVB d   1       4.088  12.199 -19.573  0.00  0.00    -0.050 A 
ATOM     26  C26 EVB d   1       4.782  13.249 -18.945  0.00  0.00     0.082 A 
ATOM     27  C27 EVB d   1       5.184  13.086 -17.622  0.00  0.00    -0.050 A 
ATOM     28  C28 EVB d   1       3.342   9.775 -19.716  0.00  0.00    -0.012 C 
ATOM     29  C29 EVB d   1      -3.356   9.785  -6.868  0.00  0.00    -0.012 C 
ATOM     30  C30 EVB d   1       1.872   9.421 -19.684  0.00  0.00    -0.019 C 
ATOM     31  C31 EVB d   1       1.293   8.712 -18.609  0.00  0.00     0.079 C 
ATOM     32  C32 EVB d   1      -0.015   8.272 -18.685  0.00  0.00    -0.019 C 
ATOM     33  C33 EVB d   1      -0.772   8.495 -19.831  0.00  0.00    -0.050 C 
ATOM     34  C34 EVB d   1      -0.221   9.223 -20.897  0.00  0.00     0.082 C 
ATOM     35  C35 EVB d   1       1.124   9.597 -20.845  0.00  0.00    -0.050 C 
ATOM     36  C36 EVB d   1      -3.874  10.999  -7.637  0.00  0.00    -0.019 A 
ATOM     37  C37 EVB d   1      -4.108  12.242  -7.003  0.00  0.00    -0.050 A 
ATOM     38  C38 EVB d   1      -4.793  13.286  -7.656  0.00  0.00     0.082 A 
ATOM     39  C39 EVB d   1      -5.201  13.099  -8.966  0.00  0.00    -0.050 A 
ATOM     40  C40 EVB d   1      -4.995  11.880  -9.599  0.00  0.00    -0.019 A 
ATOM     41  C41 EVB d   1      -4.339  10.831  -8.951  0.00  0.00     0.079 A 
ATOM     42  C42 EVB d   1      -0.603   7.526 -17.482  0.00  0.00    -0.012 C 
ATOM     43  C43 EVB d   1      -5.583  11.658 -10.975  0.00  0.00    -0.012 C 
ATOM     44  C44 EVB d   1      -1.643   8.352 -16.738  0.00  0.00    -0.019 C 
ATOM     45  C45 EVB d   1      -1.246   9.294 -15.787  0.00  0.00     0.079 C 
ATOM     46  C46 EVB d   1      -2.212  10.029 -15.095  0.00  0.00    -0.019 C 
ATOM     47  C47 EVB d   1      -3.574   9.699 -15.235  0.00  0.00    -0.050 C 
ATOM     48  C48 EVB d   1      -3.995   8.770 -16.198  0.00  0.00     0.082 C 
ATOM     49  C49 EVB d   1      -3.008   8.095 -16.940  0.00  0.00    -0.050 C 
ATOM     50  C50 EVB d   1      -4.678  12.171 -12.084  0.00  0.00    -0.019 A 
ATOM     51  C51 EVB d   1      -4.935  13.397 -12.694  0.00  0.00    -0.050 A 
ATOM     52  C52 EVB d   1      -4.185  13.853 -13.786  0.00  0.00     0.082 A 
ATOM     53  C53 EVB d   1      -3.118  13.063 -14.239  0.00  0.00    -0.050 A 
ATOM     54  C54 EVB d   1      -2.818  11.877 -13.575  0.00  0.00    -0.019 A 
ATOM     55  C55 EVB d   1      -3.621  11.386 -12.551  0.00  0.00     0.079 A 
ATOM     56  C72 EVB d   1      -1.676  11.016 -14.069  0.00  0.00    -0.012 C 
ATOM     57  H1  EVB d   1       5.779  13.942 -14.240  0.00  0.00     0.086 H 
ATOM     58  H2  EVB d   1       5.767  10.570 -15.478  0.00  0.00     0.047 H 
ATOM     59  H3  EVB d   1       6.529  12.195 -15.551  0.00  0.00     0.047 H 
ATOM     60  H4  EVB d   1       1.142   6.646  -8.670  0.00  0.00     0.047 H 
ATOM     61  H5  EVB d   1      -0.169   7.263  -9.732  0.00  0.00     0.047 H 
ATOM     62  H6  EVB d   1       1.782   8.108  -6.603  0.00  0.00     0.086 H 
ATOM     63  H7  EVB d   1      -1.561  10.192  -4.889  0.00  0.00     0.086 H 
ATOM     64  H8  EVB d   1       4.284  10.323 -11.948  0.00  0.00     0.086 H 
ATOM     65  H9  EVB d   1       3.359   7.360  -8.972  0.00  0.00     0.086 H 
ATOM     66  H10 EVB d   1       0.911  11.714 -11.988  0.00  0.00     0.047 H 
ATOM     67  H11 EVB d   1       1.151  10.557 -13.340  0.00  0.00     0.047 H 
ATOM     68  H12 EVB d   1       2.536  13.427 -11.499  0.00  0.00     0.086 H 
ATOM     69  H13 EVB d   1       3.755  12.330 -20.596  0.00  0.00     0.086 H 
ATOM     70  H14 EVB d   1       5.668  13.902 -17.099  0.00  0.00     0.086 H 
ATOM     71  H15 EVB d   1       3.896   8.901 -19.344  0.00  0.00     0.047 H 
ATOM     72  H16 EVB d   1       3.610   9.959 -20.767  0.00  0.00     0.047 H 
ATOM     73  H17 EVB d   1      -3.643   9.929  -5.816  0.00  0.00     0.047 H 
ATOM     74  H18 EVB d   1      -3.877   8.905  -7.273  0.00  0.00     0.047 H 
ATOM     75  H19 EVB d   1      -1.782   8.108 -19.900  0.00  0.00     0.086 H 
ATOM     76  H20 EVB d   1       1.592  10.031 -21.721  0.00  0.00     0.086 H 
ATOM     77  H21 EVB d   1      -3.752  12.395  -5.991  0.00  0.00     0.086 H 
ATOM     78  H22 EVB d   1      -5.684  13.909  -9.501  0.00  0.00     0.086 H 
ATOM     79  H23 EVB d   1       0.213   7.277 -16.788  0.00  0.00     0.047 H 
ATOM     80  H24 EVB d   1      -1.077   6.599 -17.838  0.00  0.00     0.047 H 
ATOM     81  H25 EVB d   1      -6.548  12.183 -11.036  0.00  0.00     0.047 H 
ATOM     82  H26 EVB d   1      -5.743  10.579 -11.121  0.00  0.00     0.047 H 
ATOM     83  H27 EVB d   1      -4.307  10.169 -14.590  0.00  0.00     0.086 H 
ATOM     84  H28 EVB d   1      -3.308   7.363 -17.681  0.00  0.00     0.086 H 
ATOM     85  H29 EVB d   1      -5.739  14.016 -12.312  0.00  0.00     0.086 H 
ATOM     86  H30 EVB d   1      -2.533  13.373 -15.097  0.00  0.00     0.086 H 
ATOM     87  H39 EVB d   1      -0.908  11.652 -14.534  0.00  0.00     0.047 H 
ATOM     88  H40 EVB d   1      -1.235  10.467 -13.224  0.00  0.00     0.047 H 
ENDROOT
BRANCH   7  89
ATOM     89  S69 EVB d   1       1.105   9.642  -4.317  0.00  0.00     0.137 S 
ATOM     90  O24 EVB d   1       2.384   8.913  -4.312  0.00  0.00    -0.591 OA
ATOM     91  O25 EVB d   1       0.364   9.343  -3.072  0.00  0.00    -0.591 OA
ATOM     92  O26 EVB d   1       1.393  11.090  -4.334  0.00  0.00    -0.591 OA
ENDBRANCH   7  89
BRANCH  10  93
ATOM     93  O6  EVB d   1      -2.014   8.495  -9.048  0.00  0.00    -0.360 OA
ATOM     94  H36 EVB d   1      -2.899   8.817  -8.922  0.00  0.00     0.217 HD
ENDBRANCH  10  93
BRANCH  15  95
ATOM     95  O5  EVB d   1      -0.075   9.596 -10.950  0.00  0.00    -0.360 OA
ATOM     96  H35 EVB d   1      -0.445   9.926 -10.139  0.00  0.00     0.217 HD
ENDBRANCH  15  95
BRANCH  41  97
ATOM     97  O7  EVB d   1      -4.236   9.634  -9.609  0.00  0.00    -0.360 OA
ATOM     98  H37 EVB d   1      -3.760   9.760 -10.421  0.00  0.00     0.217 HD
ENDBRANCH  41  97
BRANCH  18  99
ATOM     99  S68 EVB d   1       5.585   8.538 -10.183  0.00  0.00     0.137 S 
ATOM    100  O21 EVB d   1       6.382   9.012 -11.328  0.00  0.00    -0.591 OA
ATOM    101  O22 EVB d   1       5.681   7.074 -10.025  0.00  0.00    -0.591 OA
ATOM    102  O23 EVB d   1       6.022   9.273  -8.988  0.00  0.00    -0.591 OA
ENDBRANCH  18  99
BRANCH  38 103
ATOM    103  S70 EVB d   1      -5.197  14.674  -6.887  0.00  0.00     0.137 S 
ATOM    104  O27 EVB d   1      -4.256  14.860  -5.761  0.00  0.00    -0.591 OA
ATOM    105  O28 EVB d   1      -6.595  14.512  -6.383  0.00  0.00    -0.591 OA
ATOM    106  O29 EVB d   1      -5.155  15.836  -7.804  0.00  0.00    -0.591 OA
ENDBRANCH  38 103
BRANCH   3 107
ATOM    107  O4  EVB d   1       3.211  10.185 -14.615  0.00  0.00    -0.360 OA
ATOM    108  H34 EVB d   1       3.832   9.960 -15.298  0.00  0.00     0.217 HD
ENDBRANCH   3 107
BRANCH  55 109
ATOM    109  O8  EVB d   1      -3.273  10.224 -11.957  0.00  0.00    -0.360 OA
ATOM    110  H38 EVB d   1      -3.907  10.013 -11.282  0.00  0.00     0.217 HD
ENDBRANCH  55 109
BRANCH  22 111
ATOM    111  S67 EVB d   1       4.601  15.253 -12.118  0.00  0.00     0.137 S 
ATOM    112  O18 EVB d   1       4.059  15.427 -10.757  0.00  0.00    -0.591 OA
ATOM    113  O19 EVB d   1       4.077  16.360 -12.949  0.00  0.00    -0.591 OA
ATOM    114  O20 EVB d   1       6.090  15.302 -12.053  0.00  0.00    -0.591 OA
ENDBRANCH  22 111
BRANCH  52 115
ATOM    115  S71 EVB d   1      -4.540  15.230 -14.556  0.00  0.00     0.137 S 
ATOM    116  O30 EVB d   1      -4.231  15.092 -15.998  0.00  0.00    -0.591 OA
ATOM    117  O31 EVB d   1      -5.993  15.503 -14.427  0.00  0.00    -0.591 OA
ATOM    118  O32 EVB d   1      -3.702  16.317 -13.990  0.00  0.00    -0.591 OA
ENDBRANCH  52 115
BRANCH  12 119
ATOM    119  O3  EVB d   1       4.252   9.636 -16.952  0.00  0.00    -0.360 OA
ATOM    120  H33 EVB d   1       3.341   9.390 -16.846  0.00  0.00     0.217 HD
ENDBRANCH  12 119
BRANCH  45 121
ATOM    121  O1  EVB d   1       0.060   9.622 -15.568  0.00  0.00    -0.360 OA
ATOM    122  H31 EVB d   1       0.619   9.058 -16.090  0.00  0.00     0.217 HD
ENDBRANCH  45 121
BRANCH  26 123
ATOM    123  S66 EVB d   1       5.223  14.601 -19.746  0.00  0.00     0.137 S 
ATOM    124  O15 EVB d   1       6.603  14.415 -20.283  0.00  0.00    -0.591 OA
ATOM    125  O16 EVB d   1       5.250  15.803 -18.876  0.00  0.00    -0.591 OA
ATOM    126  O17 EVB d   1       4.252  14.772 -20.855  0.00  0.00    -0.591 OA
ENDBRANCH  26 123
BRANCH  48 127
ATOM    127  S64 EVB d   1      -5.578   8.432 -16.422  0.00  0.00     0.137 S 
ATOM    128  O9  EVB d   1      -5.875   8.529 -17.861  0.00  0.00    -0.591 OA
ATOM    129  O10 EVB d   1      -6.383   9.386 -15.637  0.00  0.00    -0.591 OA
ATOM    130  O11 EVB d   1      -5.789   7.046 -15.963  0.00  0.00    -0.591 OA
ENDBRANCH  48 127
BRANCH  31 131
ATOM    131  O2  EVB d   1       1.999   8.465 -17.478  0.00  0.00    -0.360 OA
ATOM    132  H32 EVB d   1       2.875   8.822 -17.568  0.00  0.00     0.217 HD
ENDBRANCH  31 131
BRANCH  34 133
ATOM    133  S65 EVB d   1      -1.101   9.509 -22.227  0.00  0.00     0.137 S 
ATOM    134  O12 EVB d   1      -0.232   9.592 -23.422  0.00  0.00    -0.591 OA
ATOM    135  O13 EVB d   1      -2.065   8.403 -22.376  0.00  0.00    -0.591 OA
ATOM    136  O14 EVB d   1      -1.834  10.783 -22.141  0.00  0.00    -0.591 OA
ENDBRANCH  34 133
TORSDOF 16
