REMARK  13 active torsions:
REMARK  status: ('A' for Active; 'I' for Inactive)
REMARK    1  A    between atoms: N_1  and  CA_2 
REMARK    2  A    between atoms: CA_2  and  CB_3 
REMARK    3  A    between atoms: CA_2  and  C_11 
REMARK    4  A    between atoms: CB_3  and  CG_4 
REMARK    5  A    between atoms: CZ_7  and  OH_8 
REMARK       I    between atoms: C_11  and  NAT_13 
REMARK    6  A    between atoms: NAT_13  and  SBI_14 
REMARK    7  A    between atoms: SBI_14  and  O5'_17 
REMARK    8  A    between atoms: O5'_17  and  C5'_18 
REMARK    9  A    between atoms: C5'_18  and  C4'_19 
REMARK   10  A    between atoms: C1'_21  and  N1_26 
REMARK   11  A    between atoms: C2'_22  and  O2'_23 
REMARK   12  A    between atoms: C3'_24  and  O3'_25 
REMARK   13  A    between atoms: C4_29  and  N4_30 
ROOT
ATOM      1  O5' YSC d   1     -56.471   3.730 -45.827  0.00  0.00    -0.257 OA
ENDROOT
BRANCH   1   2
ATOM      2  SBI YSC d   1     -56.374   3.376 -44.281  0.00  0.00     0.364 S 
ATOM      3  OAD YSC d   1     -56.903   4.461 -43.532  0.00  0.00    -0.175 OA
ATOM      4  OAE YSC d   1     -56.898   2.063 -44.141  0.00  0.00    -0.175 OA
BRANCH   2   5
ATOM      5  NAT YSC d   1     -54.802   3.199 -44.095  0.00  0.00    -0.230 N 
ATOM      6  C   YSC d   1     -54.049   3.214 -42.980  0.00  0.00     0.263 C 
ATOM      7  O   YSC d   1     -54.587   3.403 -41.893  0.00  0.00    -0.270 OA
ATOM      8  H12 YSC d   1     -54.293   3.053 -44.943  0.00  0.00     0.183 HD
BRANCH   6   9
ATOM      9  CA  YSC d   1     -52.611   2.856 -43.274  0.00  0.00     0.180 C 
ATOM     10  H4  YSC d   1     -52.208   3.345 -44.173  0.00  0.00     0.099 H 
BRANCH   9  11
ATOM     11  N   YSC d   1     -51.877   3.248 -42.057  0.00  0.00    -0.066 N 
ATOM     12  H1  YSC d   1     -50.898   3.039 -42.173  0.00  0.00     0.275 HD
ATOM     13  H2  YSC d   1     -52.238   2.736 -41.267  0.00  0.00     0.275 HD
ATOM     14  H3  YSC d   1     -51.993   4.237 -41.898  0.00  0.00     0.275 HD
ENDBRANCH   9  11
BRANCH   9  15
ATOM     15  CB  YSC d   1     -52.670   1.310 -43.419  0.00  0.00    -0.006 C 
ATOM     16  H5  YSC d   1     -53.174   1.074 -44.368  0.00  0.00     0.043 H 
ATOM     17  H6  YSC d   1     -53.259   0.909 -42.581  0.00  0.00     0.043 H 
BRANCH  15  18
ATOM     18  CG  YSC d   1     -51.327   0.626 -43.418  0.00  0.00    -0.056 A 
ATOM     19  CD2 YSC d   1     -50.395   0.886 -44.421  0.00  0.00    -0.074 A 
ATOM     20  CE2 YSC d   1     -49.174   0.231 -44.449  0.00  0.00    -0.051 A 
ATOM     21  H7  YSC d   1     -50.629   1.612 -45.191  0.00  0.00     0.084 H 
ATOM     22  CZ  YSC d   1     -48.859  -0.687 -43.455  0.00  0.00     0.065 A 
ATOM     23  H8  YSC d   1     -48.466   0.434 -45.245  0.00  0.00     0.087 H 
ATOM     24  CE1 YSC d   1     -49.778  -0.955 -42.447  0.00  0.00    -0.051 A 
ATOM     25  CD1 YSC d   1     -51.002  -0.302 -42.436  0.00  0.00    -0.074 A 
ATOM     26  H10 YSC d   1     -49.539  -1.673 -41.671  0.00  0.00     0.087 H 
ATOM     27  H11 YSC d   1     -51.716  -0.519 -41.650  0.00  0.00     0.084 H 
BRANCH  22  28
ATOM     28  OH  YSC d   1     -47.644  -1.307 -43.481  0.00  0.00    -0.361 OA
ATOM     29  H9  YSC d   1     -47.577  -1.901 -42.743  0.00  0.00     0.217 HD
ENDBRANCH  22  28
ENDBRANCH  15  18
ENDBRANCH   9  15
ENDBRANCH   6   9
ENDBRANCH   2   5
ENDBRANCH   1   2
BRANCH   1  30
ATOM     30  C5' YSC d   1     -55.879   2.817 -46.809  0.00  0.00     0.066 C 
ATOM     31  H13 YSC d   1     -56.655   2.168 -47.242  0.00  0.00     0.080 H 
ATOM     32  H14 YSC d   1     -55.105   2.196 -46.334  0.00  0.00     0.080 H 
BRANCH  30  33
ATOM     33  C4' YSC d   1     -55.267   3.686 -47.881  0.00  0.00     0.090 C 
ATOM     34  O4' YSC d   1     -56.280   4.525 -48.484  0.00  0.00    -0.353 OA
ATOM     35  C1' YSC d   1     -55.845   5.879 -48.462  0.00  0.00     0.141 C 
ATOM     36  C2' YSC d   1     -54.892   5.980 -47.276  0.00  0.00     0.105 C 
ATOM     37  H16 YSC d   1     -55.319   6.135 -49.393  0.00  0.00     0.123 H 
ATOM     38  C3' YSC d   1     -54.173   4.638 -47.374  0.00  0.00     0.091 C 
ATOM     39  H17 YSC d   1     -55.430   6.097 -46.324  0.00  0.00     0.093 H 
ATOM     40  H19 YSC d   1     -53.790   4.317 -46.394  0.00  0.00     0.091 H 
ATOM     41  H15 YSC d   1     -54.833   3.025 -48.646  0.00  0.00     0.090 H 
BRANCH  35  42
ATOM     42  N1  YSC d   1     -57.021   6.756 -48.305  0.00  0.00    -0.280 N 
ATOM     43  C6  YSC d   1     -57.896   6.591 -47.250  0.00  0.00    -0.009 A 
ATOM     44  C5  YSC d   1     -58.926   7.438 -47.056  0.00  0.00    -0.024 A 
ATOM     45  H21 YSC d   1     -57.751   5.760 -46.561  0.00  0.00     0.112 H 
ATOM     46  C4  YSC d   1     -59.077   8.514 -47.981  0.00  0.00     0.125 A 
ATOM     47  H22 YSC d   1     -59.617   7.306 -46.225  0.00  0.00     0.091 H 
ATOM     48  N3  YSC d   1     -58.224   8.685 -49.010  0.00  0.00    -0.293 N 
ATOM     49  C2  YSC d   1     -57.189   7.815 -49.207  0.00  0.00     0.330 A 
ATOM     50  H24 YSC d   1     -58.350   9.456 -49.635  0.00  0.00     0.172 HD
ATOM     51  O2  YSC d   1     -56.453   7.883 -50.194  0.00  0.00    -0.246 OA
BRANCH  46  52
ATOM     52  N4  YSC d   1     -60.112   9.352 -47.878  0.00  0.00    -0.284 NA
ATOM     53  H23 YSC d   1     -60.214  10.110 -48.534  0.00  0.00     0.188 HD
ENDBRANCH  46  52
ENDBRANCH  35  42
BRANCH  36  54
ATOM     54  O2' YSC d   1     -53.964   7.039 -47.449  0.00  0.00    -0.388 OA
ATOM     55  H18 YSC d   1     -54.434   7.861 -47.530  0.00  0.00     0.210 HD
ENDBRANCH  36  54
BRANCH  38  56
ATOM     56  O3' YSC d   1     -53.106   4.720 -48.304  0.00  0.00    -0.390 OA
ATOM     57  H20 YSC d   1     -52.667   3.879 -48.356  0.00  0.00     0.210 HD
ENDBRANCH  38  56
ENDBRANCH  30  33
ENDBRANCH   1  30
TORSDOF 13
