REMARK  12 active torsions:
REMARK  status: ('A' for Active; 'I' for Inactive)
REMARK    1  A    between atoms: N_1  and  CA_2 
REMARK    2  A    between atoms: CA_2  and  CB_3 
REMARK    3  A    between atoms: CA_2  and  C_11 
REMARK    4  A    between atoms: CB_3  and  CG_4 
REMARK    5  A    between atoms: CZ_7  and  OH_8 
REMARK       I    between atoms: C_11  and  NAT_13 
REMARK    6  A    between atoms: NAT_13  and  SBI_14 
REMARK    7  A    between atoms: SBI_14  and  O5'_17 
REMARK    8  A    between atoms: O5'_17  and  C5'_18 
REMARK    9  A    between atoms: C5'_18  and  C4'_19 
REMARK   10  A    between atoms: C1'_21  and  N1_26 
REMARK   11  A    between atoms: C2'_22  and  O2'_23 
REMARK   12  A    between atoms: C3'_24  and  O3'_25 
ROOT
ATOM      1  SBI YSU d   1     -56.177   3.339 -44.487  0.00  0.00     0.364 S 
ATOM      2  OAD YSU d   1     -56.732   4.417 -43.748  0.00  0.00    -0.175 OA
ATOM      3  OAE YSU d   1     -56.641   2.009 -44.302  0.00  0.00    -0.175 OA
ENDROOT
BRANCH   1   4
ATOM      4  NAT YSU d   1     -54.606   3.140 -44.318  0.00  0.00    -0.230 N 
ATOM      5  C   YSU d   1     -53.844   3.113 -43.175  0.00  0.00     0.263 C 
ATOM      6  O   YSU d   1     -54.379   3.292 -42.088  0.00  0.00    -0.270 OA
ATOM      7  H12 YSU d   1     -54.099   3.016 -45.171  0.00  0.00     0.183 HD
BRANCH   5   8
ATOM      8  CA  YSU d   1     -52.396   2.760 -43.452  0.00  0.00     0.180 C 
ATOM      9  H4  YSU d   1     -51.984   3.242 -44.351  0.00  0.00     0.099 H 
BRANCH   8  10
ATOM     10  N   YSU d   1     -51.662   3.124 -42.240  0.00  0.00    -0.066 N 
ATOM     11  H1  YSU d   1     -50.684   2.912 -42.363  0.00  0.00     0.275 HD
ATOM     12  H2  YSU d   1     -52.024   2.601 -41.458  0.00  0.00     0.275 HD
ATOM     13  H3  YSU d   1     -51.772   4.110 -42.064  0.00  0.00     0.275 HD
ENDBRANCH   8  10
BRANCH   8  14
ATOM     14  CB  YSU d   1     -52.460   1.235 -43.564  0.00  0.00    -0.006 C 
ATOM     15  H5  YSU d   1     -52.986   0.978 -44.495  0.00  0.00     0.043 H 
ATOM     16  H6  YSU d   1     -53.025   0.848 -42.704  0.00  0.00     0.043 H 
BRANCH  14  17
ATOM     17  CG  YSU d   1     -51.109   0.569 -43.583  0.00  0.00    -0.056 A 
ATOM     18  CD2 YSU d   1     -50.186   0.862 -44.582  0.00  0.00    -0.074 A 
ATOM     19  CE2 YSU d   1     -48.959   0.223 -44.628  0.00  0.00    -0.051 A 
ATOM     20  H7  YSU d   1     -50.431   1.602 -45.336  0.00  0.00     0.084 H 
ATOM     21  CZ  YSU d   1     -48.625  -0.704 -43.652  0.00  0.00     0.065 A 
ATOM     22  H8  YSU d   1     -48.260   0.447 -45.426  0.00  0.00     0.087 H 
ATOM     23  CE1 YSU d   1     -49.534  -1.001 -42.642  0.00  0.00    -0.051 A 
ATOM     24  CD1 YSU d   1     -50.767  -0.371 -42.617  0.00  0.00    -0.074 A 
ATOM     25  H10 YSU d   1     -49.278  -1.724 -41.876  0.00  0.00     0.087 H 
ATOM     26  H11 YSU d   1     -51.475  -0.614 -41.833  0.00  0.00     0.084 H 
BRANCH  21  27
ATOM     27  OH  YSU d   1     -47.396  -1.304 -43.680  0.00  0.00    -0.361 OA
ATOM     28  H9  YSU d   1     -47.323  -1.908 -42.950  0.00  0.00     0.217 HD
ENDBRANCH  21  27
ENDBRANCH  14  17
ENDBRANCH   8  14
ENDBRANCH   5   8
ENDBRANCH   1   4
BRANCH   1  29
ATOM     29  O5' YSU d   1     -56.342   3.671 -46.035  0.00  0.00    -0.257 OA
BRANCH  29  30
ATOM     30  C5' YSU d   1     -55.695   2.796 -46.998  0.00  0.00     0.066 C 
ATOM     31  H13 YSU d   1     -56.437   2.126 -47.458  0.00  0.00     0.080 H 
ATOM     32  H14 YSU d   1     -54.918   2.196 -46.501  0.00  0.00     0.080 H 
BRANCH  30  33
ATOM     33  C4' YSU d   1     -55.072   3.681 -48.052  0.00  0.00     0.090 C 
ATOM     34  O4' YSU d   1     -56.084   4.500 -48.681  0.00  0.00    -0.353 OA
ATOM     35  C1' YSU d   1     -55.678   5.855 -48.659  0.00  0.00     0.141 C 
ATOM     36  C2' YSU d   1     -54.717   5.977 -47.474  0.00  0.00     0.105 C 
ATOM     37  H16 YSU d   1     -55.156   6.120 -49.590  0.00  0.00     0.123 H 
ATOM     38  C3' YSU d   1     -53.982   4.642 -47.561  0.00  0.00     0.091 C 
ATOM     39  H17 YSU d   1     -55.249   6.092 -46.518  0.00  0.00     0.093 H 
ATOM     40  H19 YSU d   1     -53.588   4.338 -46.580  0.00  0.00     0.091 H 
ATOM     41  H15 YSU d   1     -54.624   3.019 -48.808  0.00  0.00     0.090 H 
BRANCH  35  42
ATOM     42  N1  YSU d   1     -56.879   6.703 -48.518  0.00  0.00    -0.280 N 
ATOM     43  C6  YSU d   1     -57.748   6.532 -47.452  0.00  0.00    -0.008 A 
ATOM     44  C5  YSU d   1     -58.872   7.266 -47.311  0.00  0.00    -0.002 A 
ATOM     45  H21 YSU d   1     -57.516   5.778 -46.701  0.00  0.00     0.112 H 
ATOM     46  C4  YSU d   1     -59.184   8.276 -48.277  0.00  0.00     0.250 A 
ATOM     47  H22 YSU d   1     -59.538   7.091 -46.467  0.00  0.00     0.094 H 
ATOM     48  O4  YSU d   1     -60.165   9.043 -48.228  0.00  0.00    -0.268 OA
ATOM     49  N3  YSU d   1     -58.268   8.394 -49.316  0.00  0.00    -0.275 N 
ATOM     50  C2  YSU d   1     -57.117   7.656 -49.492  0.00  0.00     0.331 A 
ATOM     51  H23 YSU d   1     -58.465   9.088 -50.009  0.00  0.00     0.173 HD
ATOM     52  O2  YSU d   1     -56.399   7.796 -50.477  0.00  0.00    -0.246 OA
ENDBRANCH  35  42
BRANCH  36  53
ATOM     53  O2' YSU d   1     -53.834   7.066 -47.674  0.00  0.00    -0.388 OA
ATOM     54  H18 YSU d   1     -54.336   7.869 -47.753  0.00  0.00     0.210 HD
ENDBRANCH  36  53
BRANCH  38  55
ATOM     55  O3' YSU d   1     -52.924   4.703 -48.510  0.00  0.00    -0.390 OA
ATOM     56  H20 YSU d   1     -52.483   3.862 -48.546  0.00  0.00     0.210 HD
ENDBRANCH  38  55
ENDBRANCH  30  33
ENDBRANCH  29  30
ENDBRANCH   1  29
TORSDOF 12
