REMARK  13 active torsions:
REMARK  status: ('A' for Active; 'I' for Inactive)
REMARK    1  A    between atoms: C3U_1  and  N3_2 
REMARK    2  A    between atoms: N1_7  and  C1'_8 
REMARK    3  A    between atoms: C4'_10  and  C5'_11 
REMARK    4  A    between atoms: C5'_11  and  O5'_12 
REMARK    5  A    between atoms: O5'_12  and  SBI_13 
REMARK    6  A    between atoms: SBI_13  and  NAT_16 
REMARK       I    between atoms: NAT_16  and  C_17 
REMARK    7  A    between atoms: C_17  and  CA_19 
REMARK    8  A    between atoms: CA_19  and  N_20 
REMARK    9  A    between atoms: CA_19  and  CB_21 
REMARK   10  A    between atoms: CB_21  and  CG_22 
REMARK   11  A    between atoms: CZ_25  and  OH_26 
REMARK   12  A    between atoms: C3'_29  and  O3'_30 
REMARK   13  A    between atoms: C2'_31  and  O2'_32 
ROOT
ATOM      1  C5' Y3U d   1     -56.365   2.748 -46.321  0.00  0.00     0.066 C 
ATOM      2  H8  Y3U d   1     -55.639   2.073 -45.845  0.00  0.00     0.080 H 
ATOM      3  H9  Y3U d   1     -57.172   2.156 -46.777  0.00  0.00     0.080 H 
ENDROOT
BRANCH   1   4
ATOM      4  C4' Y3U d   1     -55.680   3.588 -47.373  0.00  0.00     0.090 C 
ATOM      5  O4' Y3U d   1     -56.657   4.402 -48.071  0.00  0.00    -0.353 OA
ATOM      6  C1' Y3U d   1     -56.113   5.703 -48.186  0.00  0.00     0.141 C 
ATOM      7  C2' Y3U d   1     -55.366   5.910 -46.884  0.00  0.00     0.105 C 
ATOM      8  H6  Y3U d   1     -55.384   5.728 -49.010  0.00  0.00     0.123 H 
ATOM      9  C3' Y3U d   1     -54.632   4.568 -46.816  0.00  0.00     0.091 C 
ATOM     10  H24 Y3U d   1     -56.045   6.054 -46.031  0.00  0.00     0.093 H 
ATOM     11  H22 Y3U d   1     -54.352   4.313 -45.783  0.00  0.00     0.091 H 
ATOM     12  H7  Y3U d   1     -55.188   2.909 -48.084  0.00  0.00     0.090 H 
BRANCH   6  13
ATOM     13  N1  Y3U d   1     -57.180   6.684 -48.517  0.00  0.00    -0.279 N 
ATOM     14  C6  Y3U d   1     -58.223   6.946 -47.647  0.00  0.00    -0.008 A 
ATOM     15  C5  Y3U d   1     -59.149   7.880 -47.941  0.00  0.00    -0.002 A 
ATOM     16  H5  Y3U d   1     -58.297   6.391 -46.713  0.00  0.00     0.112 H 
ATOM     17  C4  Y3U d   1     -59.078   8.618 -49.183  0.00  0.00     0.252 A 
ATOM     18  H4  Y3U d   1     -59.956   8.081 -47.238  0.00  0.00     0.094 H 
ATOM     19  N3  Y3U d   1     -58.006   8.289 -50.026  0.00  0.00    -0.271 N 
ATOM     20  O4  Y3U d   1     -59.876   9.480 -49.532  0.00  0.00    -0.268 OA
ATOM     21  C2  Y3U d   1     -57.038   7.333 -49.733  0.00  0.00     0.333 A 
ATOM     22  O2  Y3U d   1     -56.135   7.090 -50.521  0.00  0.00    -0.246 OA
BRANCH  19  23
ATOM     23  C3U Y3U d   1     -57.889   8.992 -51.317  0.00  0.00    -0.007 C 
ATOM     24  H1  Y3U d   1     -58.713   9.714 -51.417  0.00  0.00     0.057 H 
ATOM     25  H2  Y3U d   1     -57.939   8.262 -52.138  0.00  0.00     0.057 H 
ATOM     26  H3  Y3U d   1     -56.928   9.525 -51.358  0.00  0.00     0.057 H 
ENDBRANCH  19  23
ENDBRANCH   6  13
BRANCH   7  27
ATOM     27  O2' Y3U d   1     -54.473   7.003 -46.973  0.00  0.00    -0.388 OA
ATOM     28  H25 Y3U d   1     -54.968   7.813 -47.013  0.00  0.00     0.210 HD
ENDBRANCH   7  27
BRANCH   9  29
ATOM     29  O3' Y3U d   1     -53.468   4.593 -47.640  0.00  0.00    -0.390 OA
ATOM     30  H23 Y3U d   1     -53.086   3.724 -47.673  0.00  0.00     0.210 HD
ENDBRANCH   9  29
ENDBRANCH   1   4
BRANCH   1  31
ATOM     31  O5' Y3U d   1     -56.921   3.677 -45.323  0.00  0.00    -0.257 OA
BRANCH  31  32
ATOM     32  SBI Y3U d   1     -56.741   3.350 -43.776  0.00  0.00     0.364 S 
ATOM     33  OAD Y3U d   1     -57.220   4.476 -43.053  0.00  0.00    -0.175 OA
ATOM     34  OAE Y3U d   1     -57.316   2.065 -43.593  0.00  0.00    -0.175 OA
BRANCH  32  35
ATOM     35  NAT Y3U d   1     -55.170   3.150 -43.626  0.00  0.00    -0.230 N 
ATOM     36  C   Y3U d   1     -54.422   3.157 -42.483  0.00  0.00     0.263 C 
ATOM     37  O   Y3U d   1     -54.928   3.370 -41.383  0.00  0.00    -0.270 OA
ATOM     38  H10 Y3U d   1     -54.666   3.000 -44.477  0.00  0.00     0.183 HD
BRANCH  36  39
ATOM     39  CA  Y3U d   1     -52.977   2.798 -42.688  0.00  0.00     0.180 C 
ATOM     40  H11 Y3U d   1     -52.552   3.274 -43.584  0.00  0.00     0.099 H 
BRANCH  39  41
ATOM     41  N   Y3U d   1     -52.181   3.139 -41.508  0.00  0.00    -0.066 N 
ATOM     42  H12 Y3U d   1     -51.218   2.889 -41.669  0.00  0.00     0.275 HD
ATOM     43  H13 Y3U d   1     -52.530   2.633 -40.709  0.00  0.00     0.275 HD
ATOM     44  H14 Y3U d   1     -52.247   4.130 -41.333  0.00  0.00     0.275 HD
ENDBRANCH  39  41
BRANCH  39  45
ATOM     45  CB  Y3U d   1     -53.099   1.267 -42.839  0.00  0.00    -0.006 C 
ATOM     46  H15 Y3U d   1     -53.631   1.050 -43.777  0.00  0.00     0.043 H 
ATOM     47  H16 Y3U d   1     -53.679   0.877 -41.989  0.00  0.00     0.043 H 
BRANCH  45  48
ATOM     48  CG  Y3U d   1     -51.767   0.566 -42.871  0.00  0.00    -0.056 A 
ATOM     49  CD1 Y3U d   1     -50.840   0.845 -43.875  0.00  0.00    -0.074 A 
ATOM     50  CE1 Y3U d   1     -49.617   0.190 -43.919  0.00  0.00    -0.051 A 
ATOM     51  H17 Y3U d   1     -51.078   1.584 -44.632  0.00  0.00     0.084 H 
ATOM     52  CZ  Y3U d   1     -49.298  -0.744 -42.940  0.00  0.00     0.065 A 
ATOM     53  H18 Y3U d   1     -48.913   0.406 -44.714  0.00  0.00     0.087 H 
ATOM     54  CE2 Y3U d   1     -50.214  -1.031 -41.932  0.00  0.00    -0.051 A 
ATOM     55  CD2 Y3U d   1     -51.430  -0.365 -41.895  0.00  0.00    -0.074 A 
ATOM     56  H20 Y3U d   1     -49.978  -1.773 -41.178  0.00  0.00     0.087 H 
ATOM     57  H21 Y3U d   1     -52.129  -0.574 -41.093  0.00  0.00     0.084 H 
BRANCH  52  58
ATOM     58  OH  Y3U d   1     -48.087  -1.368 -42.974  0.00  0.00    -0.361 OA
ATOM     59  H19 Y3U d   1     -48.023  -1.972 -42.243  0.00  0.00     0.217 HD
ENDBRANCH  52  58
ENDBRANCH  45  48
ENDBRANCH  39  45
ENDBRANCH  36  39
ENDBRANCH  32  35
ENDBRANCH  31  32
ENDBRANCH   1  31
TORSDOF 13
