REMARK  5 active torsions:
REMARK  status: ('A' for Active; 'I' for Inactive)
REMARK    1  A    between atoms: O5'_1  and  C5'_2 
REMARK    2  A    between atoms: C5'_2  and  C4'_3 
REMARK    3  A    between atoms: C3'_5  and  O3'_6 
REMARK    4  A    between atoms: C2'_7  and  O2'_8 
REMARK    5  A    between atoms: C1'_9  and  O1'_10 
ROOT
ATOM      1  C4' AHR d   1     -57.504  15.152  24.006  0.00  0.00     0.089 C 
ATOM      2  O4' AHR d   1     -58.612  16.074  24.202  0.00  0.00    -0.349 OA
ATOM      3  C3' AHR d   1     -56.315  15.854  24.642  0.00  0.00     0.092 C 
ATOM      4  C2' AHR d   1     -56.985  16.462  25.864  0.00  0.00     0.110 C 
ATOM      5  C1' AHR d   1     -58.251  17.035  25.215  0.00  0.00     0.156 C 
ATOM      6  H4  AHR d   1     -57.691  14.212  24.545  0.00  0.00     0.090 H 
ATOM      7  H5  AHR d   1     -55.935  16.640  23.973  0.00  0.00     0.091 H 
ATOM      8  H7  AHR d   1     -57.267  15.675  26.579  0.00  0.00     0.094 H 
ATOM      9  H9  AHR d   1     -58.003  17.994  24.737  0.00  0.00     0.133 H 
ENDROOT
BRANCH   1  10
ATOM     10  C5' AHR d   1     -57.379  14.829  22.548  0.00  0.00     0.043 C 
ATOM     11  H2  AHR d   1     -57.033  15.716  21.997  0.00  0.00     0.078 H 
ATOM     12  H3  AHR d   1     -56.662  14.007  22.407  0.00  0.00     0.078 H 
BRANCH  10  13
ATOM     13  O5' AHR d   1     -58.657  14.439  22.081  0.00  0.00    -0.398 OA
ATOM     14  H1  AHR d   1     -58.604  14.228  21.156  0.00  0.00     0.209 HD
ENDBRANCH  10  13
ENDBRANCH   1  10
BRANCH   3  15
ATOM     15  O3' AHR d   1     -55.226  15.011  24.986  0.00  0.00    -0.390 OA
ATOM     16  H6  AHR d   1     -54.534  15.533  25.375  0.00  0.00     0.210 HD
ENDBRANCH   3  15
BRANCH   5  17
ATOM     17  O1' AHR d   1     -59.341  17.278  26.140  0.00  0.00    -0.369 OA
ATOM     18  H10 AHR d   1     -60.091  17.614  25.663  0.00  0.00     0.212 HD
ENDBRANCH   5  17
BRANCH   4  19
ATOM     19  O2' AHR d   1     -56.133  17.367  26.556  0.00  0.00    -0.388 OA
ATOM     20  H8  AHR d   1     -55.354  16.907  26.846  0.00  0.00     0.210 HD
ENDBRANCH   4  19
TORSDOF 5
