REMARK  6 active torsions:
REMARK  status: ('A' for Active; 'I' for Inactive)
REMARK    1  A    between atoms: C16_4  and  C17_5 
REMARK    2  A    between atoms: C16_4  and  C18_16 
REMARK    3  A    between atoms: N15_22  and  C16_4 
REMARK    4  A    between atoms: C03_8  and  C02_7 
REMARK    5  A    between atoms: O04_23  and  C03_8 
REMARK    6  A    between atoms: C05_9  and  O04_23 
ROOT
ATOM      1  C11 FXB d   1     -20.251  17.999 -30.309  0.00  0.00     0.064 A 
ATOM      2  C13 FXB d   1     -18.623  16.622 -29.528  0.00  0.00     0.049 A 
ATOM      3  C14 FXB d   1     -18.596  16.642 -30.944  0.00  0.00     0.027 A 
ATOM      4  C05 FXB d   1     -22.244  19.649 -30.746  0.00  0.00     0.082 A 
ATOM      5  C06 FXB d   1     -23.223  20.445 -30.140  0.00  0.00    -0.050 A 
ATOM      6  C07 FXB d   1     -23.327  20.488 -28.737  0.00  0.00    -0.079 A 
ATOM      7  C08 FXB d   1     -22.445  19.743 -27.954  0.00  0.00    -0.068 A 
ATOM      8  C09 FXB d   1     -21.466  18.951 -28.556  0.00  0.00     0.030 A 
ATOM      9  C10 FXB d   1     -21.353  18.895 -29.957  0.00  0.00     0.039 A 
ATOM     10  C12 FXB d   1     -19.677  17.484 -29.140  0.00  0.00     0.059 A 
ATOM     11  C19 FXB d   1     -17.514  15.773 -31.718  0.00  0.00    -0.025 C 
ATOM     12  C20 FXB d   1     -16.874  14.680 -30.833  0.00  0.00    -0.054 C 
ATOM     13  C21 FXB d   1     -16.526  15.115 -29.431  0.00  0.00    -0.005 C 
ATOM     14  C22 FXB d   1     -17.633  15.804 -28.738  0.00  0.00     0.162 C 
ATOM     15  C24 FXB d   1     -20.408  18.051 -27.969  0.00  0.00     0.196 A 
ATOM     16  N15 FXB d   1     -19.575  17.462 -31.380  0.00  0.00    -0.344 N 
ATOM     17  O23 FXB d   1     -17.744  15.754 -27.559  0.00  0.00    -0.292 OA
ATOM     18  O25 FXB d   1     -20.212  17.833 -26.816  0.00  0.00    -0.286 OA
ATOM     19  H10 FXB d   1     -23.901  21.029 -30.752  0.00  0.00     0.087 H 
ATOM     20  H11 FXB d   1     -24.090  21.098 -28.267  0.00  0.00     0.083 H 
ATOM     21  H12 FXB d   1     -22.520  19.779 -26.873  0.00  0.00     0.085 H 
ATOM     22  H16 FXB d   1     -16.719  16.442 -32.078  0.00  0.00     0.042 H 
ATOM     23  H17 FXB d   1     -18.002  15.288 -32.576  0.00  0.00     0.042 H 
ATOM     24  H18 FXB d   1     -15.950  14.342 -31.324  0.00  0.00     0.034 H 
ATOM     25  H19 FXB d   1     -17.581  13.840 -30.764  0.00  0.00     0.034 H 
ATOM     26  H20 FXB d   1     -15.667  15.800 -29.482  0.00  0.00     0.044 H 
ATOM     27  H21 FXB d   1     -16.251  14.224 -28.848  0.00  0.00     0.044 H 
ENDROOT
BRANCH  16  28
ATOM     28  C16 FXB d   1     -19.866  17.752 -32.779  0.00  0.00     0.010 C 
ATOM     29  H1  FXB d   1     -20.663  18.510 -32.783  0.00  0.00     0.072 H 
BRANCH  28  30
ATOM     30  C17 FXB d   1     -18.662  18.385 -33.482  0.00  0.00    -0.057 C 
ATOM     31  H2  FXB d   1     -18.917  18.590 -34.532  0.00  0.00     0.030 H 
ATOM     32  H3  FXB d   1     -17.808  17.694 -33.440  0.00  0.00     0.030 H 
ATOM     33  H4  FXB d   1     -18.397  19.327 -32.979  0.00  0.00     0.030 H 
ENDBRANCH  28  30
BRANCH  28  34
ATOM     34  C18 FXB d   1     -20.425  16.543 -33.521  0.00  0.00    -0.057 C 
ATOM     35  H13 FXB d   1     -21.284  16.137 -32.966  0.00  0.00     0.030 H 
ATOM     36  H14 FXB d   1     -19.645  15.772 -33.605  0.00  0.00     0.030 H 
ATOM     37  H15 FXB d   1     -20.749  16.848 -34.527  0.00  0.00     0.030 H 
ENDBRANCH  28  34
ENDBRANCH  16  28
BRANCH   4  38
ATOM     38  O04 FXB d   1     -22.155  19.609 -32.140  0.00  0.00    -0.347 OA
BRANCH  38  39
ATOM     39  C03 FXB d   1     -22.986  20.495 -32.843  0.00  0.00     0.040 C 
ATOM     40  H8  FXB d   1     -24.001  20.077 -32.918  0.00  0.00     0.081 H 
ATOM     41  H9  FXB d   1     -23.026  21.463 -32.323  0.00  0.00     0.081 H 
BRANCH  39  42
ATOM     42  C02 FXB d   1     -22.394  20.679 -34.241  0.00  0.00    -0.089 C 
ATOM     43  C01 FXB d   1     -23.159  20.954 -35.279  0.00  0.00    -0.123 C 
ATOM     44  H5  FXB d   1     -22.714  21.081 -36.265  0.00  0.00     0.066 H 
ATOM     45  H6  FXB d   1     -24.236  21.055 -35.151  0.00  0.00     0.066 H 
ATOM     46  H7  FXB d   1     -21.319  20.581 -34.382  0.00  0.00     0.078 H 
ENDBRANCH  39  42
ENDBRANCH  38  39
ENDBRANCH   4  38
TORSDOF 6
