REMARK  4 active torsions:
REMARK  status: ('A' for Active; 'I' for Inactive)
REMARK    1  A    between atoms: C7_10  and  C8_6 
REMARK       I    between atoms: N_20  and  C7_10 
REMARK    2  A    between atoms: C6_21  and  N_20 
REMARK    3  A    between atoms: C6_21  and  C_22 
REMARK    4  A    between atoms: C_22  and  O_23 
ROOT
ATOM      1  C6  FYB d   1     -21.347   0.648 -21.751  0.00  0.00     0.024 C 
ATOM      2  H14 FYB d   1     -21.988   0.538 -20.863  0.00  0.00     0.068 H 
ATOM      3  H15 FYB d   1     -21.498   1.644 -22.192  0.00  0.00     0.068 H 
ENDROOT
BRANCH   1   4
ATOM      4  N   FYB d   1     -21.670  -0.378 -22.724  0.00  0.00    -0.352 N 
ATOM      5  C7  FYB d   1     -21.926  -0.111 -23.951  0.00  0.00     0.275 C 
ATOM      6  O1  FYB d   1     -21.921   0.963 -24.482  0.00  0.00    -0.265 OA
ATOM      7  H13 FYB d   1     -21.694  -1.332 -22.425  0.00  0.00     0.162 HD
BRANCH   5   8
ATOM      8  C8  FYB d   1     -22.121  -1.395 -24.827  0.00  0.00     0.147 A 
ATOM      9  C9  FYB d   1     -22.524  -1.338 -26.157  0.00  0.00     0.004 A 
ATOM     10  C10 FYB d   1     -22.699  -2.522 -26.866  0.00  0.00     0.187 A 
ATOM     11  H5  FYB d   1     -22.701  -0.377 -26.638  0.00  0.00     0.094 H 
ATOM     12  C11 FYB d   1     -22.356  -3.810 -26.176  0.00  0.00     0.051 A 
ATOM     13  O2  FYB d   1     -23.086  -2.529 -28.034  0.00  0.00    -0.287 OA
ATOM     14  C16 FYB d   1     -21.967  -3.773 -24.872  0.00  0.00     0.090 A 
ATOM     15  C12 FYB d   1     -22.459  -5.074 -26.793  0.00  0.00    -0.029 A 
ATOM     16  C15 FYB d   1     -21.618  -4.953 -24.173  0.00  0.00    -0.046 A 
ATOM     17  O3  FYB d   1     -21.849  -2.594 -24.165  0.00  0.00    -0.304 OA
ATOM     18  C14 FYB d   1     -21.705  -6.162 -24.795  0.00  0.00    -0.043 A 
ATOM     19  H10 FYB d   1     -21.282  -4.895 -23.144  0.00  0.00     0.087 H 
ATOM     20  C13 FYB d   1     -22.145  -6.212 -26.122  0.00  0.00     0.117 A 
ATOM     21  H12 FYB d   1     -21.437  -7.072 -24.270  0.00  0.00     0.088 H 
ATOM     22  F2  FYB d   1     -22.248  -7.371 -26.802  0.00  0.00    -0.206 F 
ATOM     23  H11 FYB d   1     -22.795  -5.138 -27.822  0.00  0.00     0.089 H 
ENDBRANCH   5   8
ENDBRANCH   1   4
BRANCH   1  24
ATOM     24  C   FYB d   1     -19.886   0.469 -21.362  0.00  0.00     0.074 C 
ATOM     25  C1  FYB d   1     -18.961   0.292 -22.626  0.00  0.00    -0.029 C 
ATOM     26  C2  FYB d   1     -17.374  -0.021 -22.363  0.00  0.00    -0.001 C 
ATOM     27  H3  FYB d   1     -19.368  -0.541 -23.218  0.00  0.00     0.037 H 
ATOM     28  H4  FYB d   1     -19.021   1.221 -23.211  0.00  0.00     0.037 H 
ATOM     29  C3  FYB d   1     -16.890   1.121 -21.440  0.00  0.00     0.243 C 
ATOM     30  H1  FYB d   1     -16.816  -0.015 -23.311  0.00  0.00     0.042 H 
ATOM     31  H2  FYB d   1     -17.248  -0.996 -21.870  0.00  0.00     0.042 H 
ATOM     32  C4  FYB d   1     -17.785   1.398 -20.181  0.00  0.00    -0.001 C 
ATOM     33  F   FYB d   1     -16.859   2.234 -22.208  0.00  0.00    -0.206 F 
ATOM     34  F1  FYB d   1     -15.602   1.003 -21.056  0.00  0.00    -0.206 F 
ATOM     35  C5  FYB d   1     -19.326   1.548 -20.435  0.00  0.00    -0.029 C 
ATOM     36  H6  FYB d   1     -17.431   2.331 -19.718  0.00  0.00     0.042 H 
ATOM     37  H7  FYB d   1     -17.642   0.563 -19.479  0.00  0.00     0.042 H 
ATOM     38  H8  FYB d   1     -19.512   2.532 -20.890  0.00  0.00     0.037 H 
ATOM     39  H9  FYB d   1     -19.848   1.486 -19.469  0.00  0.00     0.037 H 
BRANCH  24  40
ATOM     40  O   FYB d   1     -19.684  -0.714 -20.583  0.00  0.00    -0.388 OA
ATOM     41  H16 FYB d   1     -20.161  -0.638 -19.765  0.00  0.00     0.210 HD
ENDBRANCH  24  40
ENDBRANCH   1  24
TORSDOF 4
