REMARK  4 active torsions:
REMARK  status: ('A' for Active; 'I' for Inactive)
REMARK    1  A    between atoms: N_19  and  C6_4 
REMARK    2  A    between atoms: C6_4  and  C_20 
REMARK    3  A    between atoms: C8_7  and  C7_6 
REMARK       I    between atoms: C7_6  and  N_19 
REMARK    4  A    between atoms: C_20  and  O_21 
ROOT
ATOM      1  C6  FYE d   1     -15.627   0.964  22.094  0.00  0.00     0.024 C 
ATOM      2  H6  FYE d   1     -14.999   1.123  21.205  0.00  0.00     0.068 H 
ATOM      3  H7  FYE d   1     -15.624   1.873  22.713  0.00  0.00     0.068 H 
ENDROOT
BRANCH   1   4
ATOM      4  N   FYE d   1     -15.107  -0.157  22.867  0.00  0.00    -0.352 N 
ATOM      5  C7  FYE d   1     -14.726  -0.027  24.131  0.00  0.00     0.275 C 
ATOM      6  O1  FYE d   1     -14.622   1.069  24.648  0.00  0.00    -0.265 OA
ATOM      7  H13 FYE d   1     -15.035  -1.054  22.430  0.00  0.00     0.162 HD
BRANCH   5   8
ATOM      8  C8  FYE d   1     -14.510  -1.284  24.913  0.00  0.00     0.147 A 
ATOM      9  C9  FYE d   1     -14.089  -1.271  26.246  0.00  0.00     0.004 A 
ATOM     10  C10 FYE d   1     -13.898  -2.468  26.955  0.00  0.00     0.187 A 
ATOM     11  H8  FYE d   1     -13.906  -0.319  26.742  0.00  0.00     0.094 H 
ATOM     12  C11 FYE d   1     -14.180  -3.742  26.271  0.00  0.00     0.051 A 
ATOM     13  O2  FYE d   1     -13.498  -2.492  28.148  0.00  0.00    -0.287 OA
ATOM     14  C12 FYE d   1     -14.003  -4.947  26.940  0.00  0.00    -0.029 A 
ATOM     15  C16 FYE d   1     -14.607  -3.703  24.938  0.00  0.00     0.090 A 
ATOM     16  C13 FYE d   1     -14.279  -6.137  26.280  0.00  0.00     0.117 A 
ATOM     17  H9  FYE d   1     -13.653  -4.958  27.966  0.00  0.00     0.089 H 
ATOM     18  C14 FYE d   1     -14.710  -6.123  24.949  0.00  0.00    -0.043 A 
ATOM     19  F   FYE d   1     -14.114  -7.308  26.916  0.00  0.00    -0.206 F 
ATOM     20  C15 FYE d   1     -14.873  -4.903  24.285  0.00  0.00    -0.046 A 
ATOM     21  H3  FYE d   1     -14.917  -7.054  24.434  0.00  0.00     0.088 H 
ATOM     22  H12 FYE d   1     -15.209  -4.892  23.254  0.00  0.00     0.087 H 
ATOM     23  O3  FYE d   1     -14.767  -2.483  24.274  0.00  0.00    -0.304 OA
ENDBRANCH   5   8
ENDBRANCH   1   4
BRANCH   1  24
ATOM     24  C   FYE d   1     -17.063   0.641  21.659  0.00  0.00     0.074 C 
ATOM     25  C5  FYE d   1     -17.952   0.342  22.857  0.00  0.00    -0.035 C 
ATOM     26  C4  FYE d   1     -19.395   0.007  22.431  0.00  0.00    -0.062 C 
ATOM     27  H4  FYE d   1     -17.534  -0.516  23.405  0.00  0.00     0.037 H 
ATOM     28  H5  FYE d   1     -17.971   1.223  23.515  0.00  0.00     0.037 H 
ATOM     29  C3  FYE d   1     -19.998   1.181  21.689  0.00  0.00    -0.065 C 
ATOM     30  H1  FYE d   1     -19.999  -0.209  23.325  0.00  0.00     0.033 H 
ATOM     31  H2  FYE d   1     -19.386  -0.875  21.773  0.00  0.00     0.033 H 
ATOM     32  C2  FYE d   1     -19.103   1.521  20.478  0.00  0.00    -0.062 C 
ATOM     33  H10 FYE d   1     -20.057   2.051  22.360  0.00  0.00     0.033 H 
ATOM     34  H11 FYE d   1     -21.007   0.918  21.340  0.00  0.00     0.033 H 
ATOM     35  C1  FYE d   1     -17.668   1.824  20.908  0.00  0.00    -0.035 C 
ATOM     36  H15 FYE d   1     -19.516   2.402  19.965  0.00  0.00     0.033 H 
ATOM     37  H16 FYE d   1     -19.096   0.665  19.788  0.00  0.00     0.033 H 
ATOM     38  H17 FYE d   1     -17.061   2.032  20.015  0.00  0.00     0.037 H 
ATOM     39  H18 FYE d   1     -17.668   2.706  21.565  0.00  0.00     0.037 H 
BRANCH  24  40
ATOM     40  O   FYE d   1     -16.993  -0.504  20.785  0.00  0.00    -0.388 OA
ATOM     41  H14 FYE d   1     -16.612  -1.236  21.255  0.00  0.00     0.210 HD
ENDBRANCH  24  40
ENDBRANCH   1  24
TORSDOF 4
