REMARK  4 active torsions:
REMARK  status: ('A' for Active; 'I' for Inactive)
REMARK    1  A    between atoms: C7_10  and  C8_6 
REMARK       I    between atoms: N_20  and  C7_10 
REMARK    2  A    between atoms: C6_21  and  N_20 
REMARK    3  A    between atoms: C6_21  and  C_22 
REMARK    4  A    between atoms: C_22  and  O_23 
ROOT
ATOM      1  C6  FYB d   1      50.203  21.127  -2.690  0.00  0.00     0.024 C 
ATOM      2  H14 FYB d   1      51.132  21.687  -2.505  0.00  0.00     0.068 H 
ATOM      3  H15 FYB d   1      49.340  21.734  -2.379  0.00  0.00     0.068 H 
ENDROOT
BRANCH   1   4
ATOM      4  N   FYB d   1      50.224  19.888  -1.927  0.00  0.00    -0.352 N 
ATOM      5  C7  FYB d   1      49.181  19.413  -1.255  0.00  0.00     0.275 C 
ATOM      6  O1  FYB d   1      48.174  20.044  -1.037  0.00  0.00    -0.265 OA
ATOM      7  H13 FYB d   1      51.075  19.363  -1.907  0.00  0.00     0.162 HD
BRANCH   5   8
ATOM      8  C8  FYB d   1      49.274  18.014  -0.818  0.00  0.00     0.147 A 
ATOM      9  C9  FYB d   1      48.391  17.457   0.061  0.00  0.00     0.004 A 
ATOM     10  C10 FYB d   1      48.496  16.069   0.434  0.00  0.00     0.187 A 
ATOM     11  H5  FYB d   1      47.597  18.069   0.486  0.00  0.00     0.094 H 
ATOM     12  C11 FYB d   1      49.553  15.313  -0.248  0.00  0.00     0.051 A 
ATOM     13  O2  FYB d   1      47.786  15.547   1.314  0.00  0.00    -0.287 OA
ATOM     14  C16 FYB d   1      50.414  15.972  -1.149  0.00  0.00     0.090 A 
ATOM     15  C12 FYB d   1      49.698  13.940  -0.089  0.00  0.00    -0.029 A 
ATOM     16  C15 FYB d   1      51.362  15.293  -1.881  0.00  0.00    -0.046 A 
ATOM     17  O3  FYB d   1      50.277  17.310  -1.404  0.00  0.00    -0.304 OA
ATOM     18  C14 FYB d   1      51.460  13.914  -1.746  0.00  0.00    -0.043 A 
ATOM     19  H10 FYB d   1      52.023  15.827  -2.554  0.00  0.00     0.087 H 
ATOM     20  C13 FYB d   1      50.639  13.290  -0.836  0.00  0.00     0.117 A 
ATOM     21  H12 FYB d   1      52.164  13.345  -2.342  0.00  0.00     0.088 H 
ATOM     22  F2  FYB d   1      50.741  11.946  -0.704  0.00  0.00    -0.206 F 
ATOM     23  H11 FYB d   1      49.077  13.396   0.614  0.00  0.00     0.089 H 
ENDBRANCH   5   8
ENDBRANCH   1   4
BRANCH   1  24
ATOM     24  C   FYB d   1      50.085  20.796  -4.237  0.00  0.00     0.074 C 
ATOM     25  C1  FYB d   1      48.929  19.841  -4.536  0.00  0.00    -0.029 C 
ATOM     26  C2  FYB d   1      48.678  19.640  -6.033  0.00  0.00    -0.001 C 
ATOM     27  H3  FYB d   1      49.159  18.864  -4.087  0.00  0.00     0.037 H 
ATOM     28  H4  FYB d   1      48.014  20.248  -4.080  0.00  0.00     0.037 H 
ATOM     29  C3  FYB d   1      48.534  20.978  -6.682  0.00  0.00     0.243 C 
ATOM     30  H1  FYB d   1      47.756  19.058  -6.178  0.00  0.00     0.042 H 
ATOM     31  H2  FYB d   1      49.526  19.102  -6.481  0.00  0.00     0.042 H 
ATOM     32  C4  FYB d   1      49.656  21.949  -6.458  0.00  0.00    -0.001 C 
ATOM     33  F   FYB d   1      47.362  21.544  -6.258  0.00  0.00    -0.206 F 
ATOM     34  F1  FYB d   1      48.364  20.801  -8.035  0.00  0.00    -0.206 F 
ATOM     35  C5  FYB d   1      49.895  22.130  -4.955  0.00  0.00    -0.029 C 
ATOM     36  H6  FYB d   1      49.394  22.919  -6.905  0.00  0.00     0.042 H 
ATOM     37  H7  FYB d   1      50.572  21.563  -6.929  0.00  0.00     0.042 H 
ATOM     38  H8  FYB d   1      49.028  22.647  -4.518  0.00  0.00     0.037 H 
ATOM     39  H9  FYB d   1      50.798  22.742  -4.811  0.00  0.00     0.037 H 
BRANCH  24  40
ATOM     40  O   FYB d   1      51.306  20.208  -4.677  0.00  0.00    -0.388 OA
ATOM     41  H16 FYB d   1      52.028  20.790  -4.472  0.00  0.00     0.210 HD
ENDBRANCH  24  40
ENDBRANCH   1  24
TORSDOF 4
