REMARK  7 active torsions:
REMARK  status: ('A' for Active; 'I' for Inactive)
REMARK    1  A    between atoms: O5_19  and  C2_1 
REMARK    2  A    between atoms: C41_2  and  O49_32 
REMARK    3  A    between atoms: C11_5  and  N16_23 
REMARK    4  A    between atoms: C18_8  and  C20_9 
REMARK       I    between atoms: N16_23  and  C18_8 
REMARK    5  A    between atoms: C24_11  and  N37_30 
REMARK    6  A    between atoms: C25_12  and  C28_14 
REMARK    7  A    between atoms: O5_19  and  C6_20 
ROOT
ATOM      1  C20 FYW d   1      21.298  44.088  55.301  0.00  0.00     0.050 C 
ATOM      2  C21 FYW d   1      22.256  45.103  55.346  0.00  0.00     0.020 C 
ATOM      3  C24 FYW d   1      21.927  45.375  57.699  0.00  0.00     0.136 C 
ATOM      4  C25 FYW d   1      20.877  44.408  57.699  0.00  0.00     0.024 C 
ATOM      5  C26 FYW d   1      20.610  43.742  56.491  0.00  0.00    -0.052 C 
ATOM      6  N23 FYW d   1      22.571  45.627  56.537  0.00  0.00    -0.242 NA
ATOM      7  H8  FYW d   1      22.733  45.458  54.439  0.00  0.00     0.116 H 
ATOM      8  H9  FYW d   1      19.867  42.953  56.469  0.00  0.00     0.086 H 
ENDROOT
BRANCH   1   9
ATOM      9  C18 FYW d   1      20.948  43.414  54.007  0.00  0.00     0.257 C 
ATOM     10  N16 FYW d   1      19.642  43.106  53.812  0.00  0.00    -0.323 N 
ATOM     11  H13 FYW d   1      19.003  43.405  54.520  0.00  0.00     0.169 HD
ATOM     12  O19 FYW d   1      21.825  43.282  53.171  0.00  0.00    -0.267 OA
BRANCH  10  13
ATOM     13  C11 FYW d   1      19.090  42.413  52.724  0.00  0.00     0.035 A 
ATOM     14  C12 FYW d   1      17.710  42.125  52.773  0.00  0.00    -0.054 A 
ATOM     15  C14 FYW d   1      17.122  41.402  51.724  0.00  0.00    -0.048 A 
ATOM     16  H6  FYW d   1      17.110  42.459  53.612  0.00  0.00     0.087 H 
ATOM     17  C6  FYW d   1      17.898  40.930  50.665  0.00  0.00     0.078 A 
ATOM     18  H7  FYW d   1      16.055  41.209  51.736  0.00  0.00     0.087 H 
ATOM     19  C7  FYW d   1      19.288  41.138  50.669  0.00  0.00    -0.048 A 
ATOM     20  C9  FYW d   1      19.882  41.879  51.688  0.00  0.00    -0.054 A 
ATOM     21  H11 FYW d   1      19.899  40.721  49.877  0.00  0.00     0.087 H 
ATOM     22  H12 FYW d   1      20.953  42.045  51.684  0.00  0.00     0.087 H 
BRANCH  17  23
ATOM     23  O5  FYW d   1      17.269  40.137  49.694  0.00  0.00    -0.255 OA
BRANCH  23  24
ATOM     24  C2  FYW d   1      17.112  38.744  49.985  0.00  0.00     0.530 C 
ATOM     25  F1  FYW d   1      16.375  38.567  51.105  0.00  0.00    -0.144 F 
ATOM     26  F3  FYW d   1      18.319  38.139  50.200  0.00  0.00    -0.144 F 
ATOM     27  F4  FYW d   1      16.447  38.223  48.920  0.00  0.00    -0.144 F 
ENDBRANCH  23  24
ENDBRANCH  17  23
ENDBRANCH  10  13
ENDBRANCH   1   9
BRANCH   4  28
ATOM     28  C28 FYW d   1      20.198  43.885  58.926  0.00  0.00     0.013 A 
ATOM     29  C29 FYW d   1      20.974  43.296  59.946  0.00  0.00     0.016 A 
ATOM     30  N31 FYW d   1      20.378  42.805  61.060  0.00  0.00    -0.253 NA
ATOM     31  H10 FYW d   1      22.051  43.236  59.839  0.00  0.00     0.116 H 
ATOM     32  C32 FYW d   1      19.033  42.813  61.198  0.00  0.00     0.086 A 
ATOM     33  N34 FYW d   1      18.266  43.354  60.233  0.00  0.00    -0.253 NA
ATOM     34  H14 FYW d   1      18.574  42.386  62.082  0.00  0.00     0.146 H 
ATOM     35  C35 FYW d   1      18.808  43.869  59.097  0.00  0.00     0.016 A 
ATOM     36  H15 FYW d   1      18.163  44.268  58.322  0.00  0.00     0.116 H 
ENDBRANCH   4  28
BRANCH   3  37
ATOM     37  N37 FYW d   1      22.265  46.242  58.706  0.00  0.00    -0.363 N 
ATOM     38  C46 FYW d   1      21.531  46.337  59.964  0.00  0.00    -0.001 C 
ATOM     39  C43 FYW d   1      21.854  47.796  60.380  0.00  0.00    -0.025 C 
ATOM     40  H4  FYW d   1      20.451  46.188  59.815  0.00  0.00     0.064 H 
ATOM     41  H5  FYW d   1      21.902  45.613  60.705  0.00  0.00     0.064 H 
ATOM     42  C41 FYW d   1      23.343  47.873  59.975  0.00  0.00     0.052 C 
ATOM     43  H2  FYW d   1      21.243  48.523  59.825  0.00  0.00     0.039 H 
ATOM     44  H3  FYW d   1      21.717  47.951  61.460  0.00  0.00     0.039 H 
ATOM     45  C38 FYW d   1      23.280  47.297  58.545  0.00  0.00     0.020 C 
ATOM     46  H1  FYW d   1      23.736  48.900  60.001  0.00  0.00     0.085 H 
ATOM     47  H16 FYW d   1      24.250  46.880  58.235  0.00  0.00     0.068 H 
ATOM     48  H17 FYW d   1      22.959  48.057  57.818  0.00  0.00     0.068 H 
BRANCH  42  49
ATOM     49  O49 FYW d   1      24.126  47.005  60.818  0.00  0.00    -0.394 OA
ATOM     50  H18 FYW d   1      23.725  46.144  60.843  0.00  0.00     0.210 HD
ENDBRANCH  42  49
ENDBRANCH   3  37
TORSDOF 7
