REMARK  4 active torsions:
REMARK  status: ('A' for Active; 'I' for Inactive)
REMARK    1  A    between atoms: N1_1  and  C6_5 
REMARK    2  A    between atoms: C8_7  and  N1_1 
REMARK    3  A    between atoms: C13_9  and  C14_12 
REMARK    4  A    between atoms: N_21  and  C_22 
ROOT
ATOM      1  C4  FZB d   1     -31.272  42.668  16.242  0.00  0.00     0.106 C 
ATOM      2  C5  FZB d   1     -29.956  43.042  15.551  0.00  0.00    -0.019 C 
ATOM      3  C6  FZB d   1     -30.187  43.476  14.106  0.00  0.00     0.015 C 
ATOM      4  C7  FZB d   1     -31.173  42.541  13.405  0.00  0.00    -0.019 C 
ATOM      5  C1  FZB d   1     -32.372  42.202  14.299  0.00  0.00     0.106 C 
ATOM      6  C3  FZB d   1     -32.327  43.771  16.139  0.00  0.00    -0.036 C 
ATOM      7  C2  FZB d   1     -33.080  43.447  14.835  0.00  0.00    -0.036 C 
ATOM      8  N   FZB d   1     -31.849  41.527  15.504  0.00  0.00    -0.066 N 
ATOM      9  H3  FZB d   1     -31.083  42.414  17.296  0.00  0.00     0.084 H 
ATOM     10  H4  FZB d   1     -29.287  42.169  15.559  0.00  0.00     0.039 H 
ATOM     11  H5  FZB d   1     -29.485  43.870  16.102  0.00  0.00     0.039 H 
ATOM     12  H6  FZB d   1     -30.619  44.487  14.121  0.00  0.00     0.072 H 
ATOM     13  H7  FZB d   1     -30.652  41.609  13.139  0.00  0.00     0.039 H 
ATOM     14  H8  FZB d   1     -31.538  43.030  12.490  0.00  0.00     0.039 H 
ATOM     15  H15 FZB d   1     -33.079  41.562  13.751  0.00  0.00     0.084 H 
ATOM     16  H16 FZB d   1     -31.852  44.762  16.080  0.00  0.00     0.036 H 
ATOM     17  H17 FZB d   1     -33.009  43.742  17.002  0.00  0.00     0.036 H 
ATOM     18  H18 FZB d   1     -34.141  43.237  15.038  0.00  0.00     0.036 H 
ATOM     19  H19 FZB d   1     -33.001  44.280  14.121  0.00  0.00     0.036 H 
ATOM     20  H20 FZB d   1     -31.124  40.875  15.249  0.00  0.00     0.280 HD
ENDROOT
BRANCH   3  21
ATOM     21  N1  FZB d   1     -28.939  43.524  13.348  0.00  0.00    -0.368 N 
ATOM     22  H1  FZB d   1     -28.245  42.787  13.538  0.00  0.00     0.161 HD
BRANCH  21  23
ATOM     23  C8  FZB d   1     -28.617  44.449  12.421  0.00  0.00     0.151 A 
ATOM     24  C16 FZB d   1     -27.347  44.544  11.778  0.00  0.00     0.091 A 
ATOM     25  N3  FZB d   1     -26.315  43.669  12.073  0.00  0.00    -0.319 N 
ATOM     26  C11 FZB d   1     -27.105  45.527  10.810  0.00  0.00    -0.004 A 
ATOM     27  C15 FZB d   1     -25.082  43.648  11.514  0.00  0.00     0.252 A 
ATOM     28  H2  FZB d   1     -26.500  42.980  12.773  0.00  0.00     0.169 HD
ATOM     29  C13 FZB d   1     -24.824  44.653  10.503  0.00  0.00     0.007 A 
ATOM     30  O   FZB d   1     -24.280  42.792  11.870  0.00  0.00    -0.268 OA
ATOM     31  C12 FZB d   1     -25.808  45.535  10.196  0.00  0.00    -0.060 A 
ATOM     32  H13 FZB d   1     -25.602  46.292   9.441  0.00  0.00     0.086 H 
ATOM     33  C10 FZB d   1     -28.125  46.426  10.487  0.00  0.00    -0.054 A 
ATOM     34  C9  FZB d   1     -29.326  46.278  11.150  0.00  0.00     0.005 A 
ATOM     35  H9  FZB d   1     -27.979  47.206   9.748  0.00  0.00     0.087 H 
ATOM     36  N2  FZB d   1     -29.574  45.338  12.074  0.00  0.00    -0.241 NA
ATOM     37  H14 FZB d   1     -30.125  46.970  10.907  0.00  0.00     0.114 H 
BRANCH  29  38
ATOM     38  C14 FZB d   1     -23.480  44.662   9.823  0.00  0.00    -0.046 C 
ATOM     39  H10 FZB d   1     -23.446  45.480   9.088  0.00  0.00     0.033 H 
ATOM     40  H11 FZB d   1     -23.322  43.702   9.310  0.00  0.00     0.033 H 
ATOM     41  H12 FZB d   1     -22.690  44.811  10.574  0.00  0.00     0.033 H 
ENDBRANCH  29  38
ENDBRANCH  21  23
ENDBRANCH   3  21
BRANCH   8  42
ATOM     42  C   FZB d   1     -32.862  40.792  16.265  0.00  0.00     0.067 C 
ATOM     43  H21 FZB d   1     -32.392  40.322  17.141  0.00  0.00     0.068 H 
ATOM     44  H22 FZB d   1     -33.308  40.015  15.627  0.00  0.00     0.068 H 
ATOM     45  H23 FZB d   1     -33.646  41.487  16.598  0.00  0.00     0.068 H 
ENDBRANCH   8  42
TORSDOF 4
