REMARK  8 active torsions:
REMARK  status: ('A' for Active; 'I' for Inactive)
REMARK    1  A    between atoms: N20_14  and  C22_3 
REMARK    2  A    between atoms: C05_6  and  C01_5 
REMARK    3  A    between atoms: C14_12  and  C11_10 
REMARK    4  A    between atoms: C19_13  and  N20_14 
REMARK    5  A    between atoms: C39_20  and  C41_21 
REMARK    6  A    between atoms: C41_21  and  C44_22 
REMARK    7  A    between atoms: C44_22  and  C47_23 
REMARK    8  A    between atoms: C69_35  and  C70_36 
ROOT
ATOM      1  C22 FZH d   1     -30.672  43.383  13.481  0.00  0.00     0.017 C 
ATOM      2  C24 FZH d   1     -30.589  43.038  14.967  0.00  0.00    -0.019 C 
ATOM      3  C27 FZH d   1     -31.908  42.436  15.453  0.00  0.00     0.104 C 
ATOM      4  C29 FZH d   1     -33.116  43.312  15.136  0.00  0.00    -0.036 C 
ATOM      5  C32 FZH d   1     -33.651  42.792  13.777  0.00  0.00    -0.036 C 
ATOM      6  C35 FZH d   1     -32.626  41.722  13.388  0.00  0.00     0.108 C 
ATOM      7  N37 FZH d   1     -32.234  41.206  14.715  0.00  0.00    -0.066 N 
ATOM      8  C39 FZH d   1     -31.381  42.279  12.677  0.00  0.00    -0.007 C 
ATOM      9  H3  FZH d   1     -31.274  44.299  13.386  0.00  0.00     0.073 H 
ATOM     10  H4  FZH d   1     -30.376  43.953  15.540  0.00  0.00     0.039 H 
ATOM     11  H5  FZH d   1     -29.779  42.310  15.125  0.00  0.00     0.039 H 
ATOM     12  H13 FZH d   1     -31.837  42.245  16.534  0.00  0.00     0.084 H 
ATOM     13  H14 FZH d   1     -32.816  44.367  15.054  0.00  0.00     0.036 H 
ATOM     14  H15 FZH d   1     -33.883  43.208  15.918  0.00  0.00     0.036 H 
ATOM     15  H16 FZH d   1     -33.683  43.599  13.030  0.00  0.00     0.036 H 
ATOM     16  H17 FZH d   1     -34.655  42.356  13.888  0.00  0.00     0.036 H 
ATOM     17  H18 FZH d   1     -33.087  40.944  12.763  0.00  0.00     0.085 H 
ATOM     18  H19 FZH d   1     -32.995  40.710  15.152  0.00  0.00     0.278 HD
ATOM     19  H20 FZH d   1     -31.432  40.599  14.647  0.00  0.00     0.278 HD
ATOM     20  H21 FZH d   1     -30.665  41.451  12.569  0.00  0.00     0.046 H 
ENDROOT
BRANCH   1  21
ATOM     21  N20 FZH d   1     -29.351  43.664  12.937  0.00  0.00    -0.383 N 
ATOM     22  H12 FZH d   1     -28.605  42.994  13.172  0.00  0.00     0.160 HD
BRANCH  21  23
ATOM     23  C19 FZH d   1     -28.992  44.735  12.138  0.00  0.00     0.056 A 
ATOM     24  C17 FZH d   1     -29.893  45.764  11.820  0.00  0.00    -0.054 A 
ATOM     25  C15 FZH d   1     -29.527  46.830  11.028  0.00  0.00    -0.069 A 
ATOM     26  H2  FZH d   1     -30.904  45.718  12.208  0.00  0.00     0.087 H 
ATOM     27  C14 FZH d   1     -28.234  46.902  10.490  0.00  0.00    -0.012 A 
ATOM     28  H1  FZH d   1     -30.242  47.617  10.819  0.00  0.00     0.085 H 
ATOM     29  C76 FZH d   1     -27.286  45.903  10.801  0.00  0.00     0.005 A 
ATOM     30  C64 FZH d   1     -27.692  44.831  11.621  0.00  0.00     0.072 A 
ATOM     31  C74 FZH d   1     -25.923  45.878  10.341  0.00  0.00    -0.059 A 
ATOM     32  N65 FZH d   1     -26.769  43.851  11.956  0.00  0.00    -0.320 N 
ATOM     33  C67 FZH d   1     -25.474  43.802  11.538  0.00  0.00     0.251 A 
ATOM     34  H35 FZH d   1     -27.082  43.116  12.557  0.00  0.00     0.169 HD
ATOM     35  O68 FZH d   1     -24.759  42.852  11.882  0.00  0.00    -0.268 OA
ATOM     36  C69 FZH d   1     -25.059  44.894  10.655  0.00  0.00     0.007 A 
ATOM     37  H39 FZH d   1     -25.574  46.693   9.709  0.00  0.00     0.086 H 
BRANCH  27  38
ATOM     38  C11 FZH d   1     -27.902  48.099   9.659  0.00  0.00    -0.007 A 
ATOM     39  C09 FZH d   1     -26.867  48.945  10.016  0.00  0.00     0.013 A 
ATOM     40  N08 FZH d   1     -26.543  50.063   9.346  0.00  0.00    -0.272 NA
ATOM     41  H10 FZH d   1     -26.281  48.689  10.891  0.00  0.00     0.116 H 
ATOM     42  C06 FZH d   1     -27.288  50.391   8.292  0.00  0.00     0.007 A 
ATOM     43  C05 FZH d   1     -28.380  49.658   7.865  0.00  0.00    -0.044 A 
ATOM     44  H9  FZH d   1     -27.023  51.284   7.737  0.00  0.00     0.115 H 
ATOM     45  C12 FZH d   1     -28.686  48.506   8.580  0.00  0.00    -0.064 A 
ATOM     46  H11 FZH d   1     -29.548  47.914   8.294  0.00  0.00     0.085 H 
BRANCH  43  47
ATOM     47  C01 FZH d   1     -29.207  50.095   6.668  0.00  0.00    -0.050 C 
ATOM     48  H6  FZH d   1     -28.791  51.026   6.255  0.00  0.00     0.033 H 
ATOM     49  H7  FZH d   1     -30.247  50.266   6.983  0.00  0.00     0.033 H 
ATOM     50  H8  FZH d   1     -29.182  49.309   5.898  0.00  0.00     0.033 H 
ENDBRANCH  43  47
ENDBRANCH  27  38
BRANCH  36  51
ATOM     51  C70 FZH d   1     -23.663  44.911  10.122  0.00  0.00    -0.046 C 
ATOM     52  H36 FZH d   1     -23.526  45.795   9.482  0.00  0.00     0.033 H 
ATOM     53  H37 FZH d   1     -23.485  44.000   9.532  0.00  0.00     0.033 H 
ATOM     54  H38 FZH d   1     -22.951  44.951  10.960  0.00  0.00     0.033 H 
ENDBRANCH  36  51
ENDBRANCH  21  23
ENDBRANCH   1  21
BRANCH   8  55
ATOM     55  C41 FZH d   1     -31.764  42.746  11.273  0.00  0.00    -0.058 C 
ATOM     56  H22 FZH d   1     -31.318  43.738  11.107  0.00  0.00     0.033 H 
ATOM     57  H23 FZH d   1     -32.860  42.825  11.225  0.00  0.00     0.033 H 
BRANCH  55  58
ATOM     58  C44 FZH d   1     -31.305  41.827  10.154  0.00  0.00    -0.061 C 
ATOM     59  H24 FZH d   1     -31.907  40.908  10.200  0.00  0.00     0.033 H 
ATOM     60  H25 FZH d   1     -30.247  41.581  10.328  0.00  0.00     0.033 H 
BRANCH  58  61
ATOM     61  C47 FZH d   1     -31.429  42.397   8.759  0.00  0.00    -0.052 C 
ATOM     62  C49 FZH d   1     -30.259  43.308   8.402  0.00  0.00    -0.050 C 
ATOM     63  C52 FZH d   1     -30.449  44.036   7.083  0.00  0.00     0.029 C 
ATOM     64  H27 FZH d   1     -29.347  42.696   8.336  0.00  0.00     0.034 H 
ATOM     65  H28 FZH d   1     -30.142  44.056   9.200  0.00  0.00     0.034 H 
ATOM     66  S55 FZH d   1     -30.587  42.920   5.723  0.00  0.00     0.144 S 
ATOM     67  H29 FZH d   1     -29.585  44.696   6.914  0.00  0.00     0.056 H 
ATOM     68  H30 FZH d   1     -31.366  44.640   7.140  0.00  0.00     0.056 H 
ATOM     69  O56 FZH d   1     -31.094  43.628   4.584  0.00  0.00    -0.228 OA
ATOM     70  O57 FZH d   1     -29.352  42.205   5.574  0.00  0.00    -0.228 OA
ATOM     71  C58 FZH d   1     -31.828  41.813   6.315  0.00  0.00     0.029 C 
ATOM     72  C61 FZH d   1     -31.539  41.297   7.719  0.00  0.00    -0.050 C 
ATOM     73  H31 FZH d   1     -31.888  40.954   5.630  0.00  0.00     0.056 H 
ATOM     74  H32 FZH d   1     -32.793  42.341   6.327  0.00  0.00     0.056 H 
ATOM     75  H33 FZH d   1     -32.353  40.619   8.015  0.00  0.00     0.034 H 
ATOM     76  H34 FZH d   1     -30.589  40.742   7.697  0.00  0.00     0.034 H 
ATOM     77  H26 FZH d   1     -32.351  42.996   8.725  0.00  0.00     0.040 H 
ENDBRANCH  58  61
ENDBRANCH  55  58
ENDBRANCH   8  55
TORSDOF 8
