REMARK  8 active torsions:
REMARK  status: ('A' for Active; 'I' for Inactive)
REMARK    1  A    between atoms: N19_15  and  C21_2 
REMARK    2  A    between atoms: C05_6  and  C01_5 
REMARK    3  A    between atoms: C14_12  and  C11_10 
REMARK    4  A    between atoms: C18_14  and  N19_15 
REMARK    5  A    between atoms: C38_20  and  C40_21 
REMARK    6  A    between atoms: C40_21  and  C43_22 
REMARK    7  A    between atoms: C43_22  and  C46_23 
REMARK    8  A    between atoms: C68_35  and  C69_36 
ROOT
ATOM      1  C21 FZE d   1      25.070   6.048   1.835  0.00  0.00     0.018 C 
ATOM      2  C26 FZE d   1      25.734   5.840  -0.634  0.00  0.00     0.104 C 
ATOM      3  C28 FZE d   1      26.746   4.732  -0.369  0.00  0.00    -0.036 C 
ATOM      4  C23 FZE d   1      25.533   6.760   0.564  0.00  0.00    -0.019 C 
ATOM      5  C31 FZE d   1      25.933   3.557   0.173  0.00  0.00    -0.036 C 
ATOM      6  C34 FZE d   1      24.501   4.105   0.202  0.00  0.00     0.108 C 
ATOM      7  N36 FZE d   1      24.523   5.068  -0.914  0.00  0.00    -0.066 N 
ATOM      8  C38 FZE d   1      24.164   4.829   1.519  0.00  0.00    -0.007 C 
ATOM      9  H2  FZE d   1      25.965   5.683   2.360  0.00  0.00     0.073 H 
ATOM     10  H3  FZE d   1      26.032   6.444  -1.504  0.00  0.00     0.084 H 
ATOM     11  H4  FZE d   1      27.489   5.060   0.373  0.00  0.00     0.036 H 
ATOM     12  H5  FZE d   1      27.258   4.448  -1.300  0.00  0.00     0.036 H 
ATOM     13  H13 FZE d   1      26.489   7.260   0.778  0.00  0.00     0.039 H 
ATOM     14  H14 FZE d   1      24.777   7.513   0.297  0.00  0.00     0.039 H 
ATOM     15  H15 FZE d   1      26.269   3.277   1.183  0.00  0.00     0.036 H 
ATOM     16  H16 FZE d   1      26.008   2.685  -0.493  0.00  0.00     0.036 H 
ATOM     17  H17 FZE d   1      23.769   3.303   0.029  0.00  0.00     0.085 H 
ATOM     18  H18 FZE d   1      24.588   4.596  -1.802  0.00  0.00     0.278 HD
ATOM     19  H19 FZE d   1      23.704   5.656  -0.905  0.00  0.00     0.278 HD
ATOM     20  H20 FZE d   1      23.150   5.238   1.397  0.00  0.00     0.046 H 
ENDROOT
BRANCH   1  21
ATOM     21  N19 FZE d   1      24.361   6.952   2.719  0.00  0.00    -0.368 N 
ATOM     22  H12 FZE d   1      23.796   7.690   2.275  0.00  0.00     0.161 HD
BRANCH  21  23
ATOM     23  C18 FZE d   1      24.371   6.919   4.067  0.00  0.00     0.151 A 
ATOM     24  N17 FZE d   1      25.207   6.058   4.672  0.00  0.00    -0.240 NA
ATOM     25  C15 FZE d   1      25.238   5.995   6.014  0.00  0.00     0.016 A 
ATOM     26  C14 FZE d   1      24.471   6.765   6.875  0.00  0.00     0.006 A 
ATOM     27  H1  FZE d   1      25.921   5.282   6.461  0.00  0.00     0.116 H 
ATOM     28  C75 FZE d   1      23.589   7.687   6.282  0.00  0.00     0.008 A 
ATOM     29  C63 FZE d   1      23.563   7.746   4.876  0.00  0.00     0.092 A 
ATOM     30  C73 FZE d   1      22.705   8.573   6.989  0.00  0.00    -0.059 A 
ATOM     31  N64 FZE d   1      22.701   8.642   4.262  0.00  0.00    -0.319 N 
ATOM     32  C66 FZE d   1      21.868   9.485   4.900  0.00  0.00     0.252 A 
ATOM     33  H34 FZE d   1      22.698   8.664   3.262  0.00  0.00     0.169 HD
ATOM     34  O67 FZE d   1      21.162  10.238   4.229  0.00  0.00    -0.268 OA
ATOM     35  C68 FZE d   1      21.879   9.441   6.357  0.00  0.00     0.007 A 
ATOM     36  H38 FZE d   1      22.699   8.545   8.078  0.00  0.00     0.086 H 
BRANCH  26  37
ATOM     37  C11 FZE d   1      24.590   6.579   8.353  0.00  0.00    -0.005 A 
ATOM     38  C09 FZE d   1      24.765   7.640   9.232  0.00  0.00     0.013 A 
ATOM     39  N08 FZE d   1      24.874   7.499  10.558  0.00  0.00    -0.272 NA
ATOM     40  H10 FZE d   1      24.816   8.641   8.819  0.00  0.00     0.116 H 
ATOM     41  C06 FZE d   1      24.816   6.260  11.058  0.00  0.00     0.007 A 
ATOM     42  C05 FZE d   1      24.648   5.125  10.287  0.00  0.00    -0.044 A 
ATOM     43  H9  FZE d   1      24.906   6.139  12.131  0.00  0.00     0.115 H 
ATOM     44  C12 FZE d   1      24.533   5.307   8.917  0.00  0.00    -0.064 A 
ATOM     45  H11 FZE d   1      24.396   4.445   8.274  0.00  0.00     0.085 H 
BRANCH  42  46
ATOM     46  C01 FZE d   1      24.596   3.752  10.906  0.00  0.00    -0.050 C 
ATOM     47  H6  FZE d   1      24.706   3.837  11.997  0.00  0.00     0.033 H 
ATOM     48  H7  FZE d   1      25.413   3.136  10.502  0.00  0.00     0.033 H 
ATOM     49  H8  FZE d   1      23.631   3.280  10.671  0.00  0.00     0.033 H 
ENDBRANCH  42  46
ENDBRANCH  26  37
BRANCH  35  50
ATOM     50  C69 FZE d   1      20.965  10.368   7.106  0.00  0.00    -0.046 C 
ATOM     51  H35 FZE d   1      21.092  10.213   8.188  0.00  0.00     0.033 H 
ATOM     52  H36 FZE d   1      19.922  10.160   6.825  0.00  0.00     0.033 H 
ATOM     53  H37 FZE d   1      21.212  11.410   6.854  0.00  0.00     0.033 H 
ENDBRANCH  35  50
ENDBRANCH  21  23
ENDBRANCH   1  21
BRANCH   8  54
ATOM     54  C40 FZE d   1      24.089   3.810   2.661  0.00  0.00    -0.058 C 
ATOM     55  H21 FZE d   1      24.828   4.104   3.421  0.00  0.00     0.033 H 
ATOM     56  H22 FZE d   1      24.358   2.826   2.249  0.00  0.00     0.033 H 
BRANCH  54  57
ATOM     57  C43 FZE d   1      22.737   3.667   3.359  0.00  0.00    -0.061 C 
ATOM     58  H23 FZE d   1      21.993   3.379   2.602  0.00  0.00     0.033 H 
ATOM     59  H24 FZE d   1      22.469   4.646   3.783  0.00  0.00     0.033 H 
BRANCH  57  60
ATOM     60  C46 FZE d   1      22.687   2.633   4.488  0.00  0.00    -0.054 C 
ATOM     61  C48 FZE d   1      23.899   2.753   5.405  0.00  0.00    -0.056 C 
ATOM     62  C51 FZE d   1      23.876   1.728   6.533  0.00  0.00    -0.004 C 
ATOM     63  H26 FZE d   1      23.912   3.761   5.844  0.00  0.00     0.033 H 
ATOM     64  H27 FZE d   1      24.810   2.601   4.808  0.00  0.00     0.033 H 
ATOM     65  C54 FZE d   1      22.581   1.740   7.285  0.00  0.00     0.243 C 
ATOM     66  H28 FZE d   1      24.694   1.954   7.233  0.00  0.00     0.041 H 
ATOM     67  H29 FZE d   1      24.027   0.726   6.104  0.00  0.00     0.041 H 
ATOM     68  F55 FZE d   1      22.558   0.691   8.168  0.00  0.00    -0.206 F 
ATOM     69  F56 FZE d   1      22.527   2.856   8.082  0.00  0.00    -0.206 F 
ATOM     70  C57 FZE d   1      21.362   1.688   6.416  0.00  0.00    -0.004 C 
ATOM     71  C60 FZE d   1      21.418   2.752   5.319  0.00  0.00    -0.056 C 
ATOM     72  H30 FZE d   1      20.471   1.860   7.037  0.00  0.00     0.041 H 
ATOM     73  H31 FZE d   1      21.297   0.694   5.949  0.00  0.00     0.041 H 
ATOM     74  H32 FZE d   1      20.546   2.631   4.659  0.00  0.00     0.033 H 
ATOM     75  H33 FZE d   1      21.389   3.748   5.786  0.00  0.00     0.033 H 
ATOM     76  H25 FZE d   1      22.701   1.634   4.027  0.00  0.00     0.040 H 
ENDBRANCH  57  60
ENDBRANCH  54  57
ENDBRANCH   8  54
TORSDOF 8
