REMARK  4 active torsions:
REMARK  status: ('A' for Active; 'I' for Inactive)
REMARK    1  A    between atoms: C6_2  and  C4_4 
REMARK    2  A    between atoms: C5_8  and  N9_9 
REMARK    3  A    between atoms: N9_9  and  S10_10 
REMARK    4  A    between atoms: S10_10  and  C15_13 
ROOT
ATOM      1  S10 G1N d   1       3.080  22.783   4.306  0.00  0.00     0.265 S 
ATOM      2  O12 G1N d   1       2.996  23.986   3.413  0.00  0.00    -0.200 OA
ATOM      3  O11 G1N d   1       2.041  23.020   5.402  0.00  0.00    -0.200 OA
ENDROOT
BRANCH   1   4
ATOM      4  N9  G1N d   1       4.650  22.836   4.927  0.00  0.00    -0.272 N 
ATOM      5  H2  G1N d   1       5.323  23.441   4.501  0.00  0.00     0.179 HD
BRANCH   4   6
ATOM      6  C5  G1N d   1       5.011  22.096   5.964  0.00  0.00     0.121 A 
ATOM      7  C4  G1N d   1       6.237  22.039   6.556  0.00  0.00     0.167 A 
ATOM      8  N3  G1N d   1       6.253  21.133   7.609  0.00  0.00    -0.244 NA
ATOM      9  C2  G1N d   1       5.125  20.528   7.973  0.00  0.00     0.043 A 
ATOM     10  S1  G1N d   1       3.937  21.031   6.818  0.00  0.00    -0.062 SA
ATOM     11  H1  G1N d   1       4.980  19.858   8.819  0.00  0.00     0.126 H 
BRANCH   7  12
ATOM     12  C6  G1N d   1       7.352  22.683   6.072  0.00  0.00     0.231 C 
ATOM     13  O24 G1N d   1       8.499  22.494   6.627  0.00  0.00    -0.643 OA
ATOM     14  O25 G1N d   1       7.375  23.364   4.980  0.00  0.00    -0.643 OA
ENDBRANCH   7  12
ENDBRANCH   4   6
ENDBRANCH   1   4
BRANCH   1  15
ATOM     15  C15 G1N d   1       2.573  21.360   3.213  0.00  0.00     0.097 A 
ATOM     16  C16 G1N d   1       3.256  21.001   2.040  0.00  0.00    -0.058 A 
ATOM     17  C17 G1N d   1       2.769  19.954   1.248  0.00  0.00    -0.065 A 
ATOM     18  H3  G1N d   1       4.155  21.532   1.749  0.00  0.00     0.086 H 
ATOM     19  C18 G1N d   1       1.586  19.276   1.584  0.00  0.00     0.002 A 
ATOM     20  H4  G1N d   1       3.316  19.661   0.359  0.00  0.00     0.085 H 
ATOM     21  N19 G1N d   1       0.853  19.630   2.718  0.00  0.00    -0.272 NA
ATOM     22  H5  G1N d   1       1.237  18.466   0.954  0.00  0.00     0.114 H 
ATOM     23  C20 G1N d   1       1.374  20.686   3.525  0.00  0.00     0.024 A 
ATOM     24  H6  G1N d   1       0.827  20.982   4.413  0.00  0.00     0.117 H 
ENDBRANCH   1  15
TORSDOF 4
