REMARK  12 active torsions:
REMARK  status: ('A' for Active; 'I' for Inactive)
REMARK    1  A    between atoms: C09_14  and  C10_1 
REMARK    2  A    between atoms: C10_1  and  C11_15 
REMARK    3  A    between atoms: C10_1  and  O17_26 
REMARK    4  A    between atoms: N12_2  and  C13_3 
REMARK    5  A    between atoms: C11_15  and  N12_2 
REMARK    6  A    between atoms: C13_3  and  C15_4 
REMARK    7  A    between atoms: C13_3  and  C14_16 
REMARK    8  A    between atoms: C13_3  and  C16_17 
REMARK    9  A    between atoms: N20_23  and  C21_5 
REMARK       I    between atoms: N03_22  and  C02_9 
REMARK       I    between atoms: C02_9  and  N20_23 
REMARK   10  A    between atoms: C04_10  and  N03_22 
REMARK   11  A    between atoms: O08_25  and  C07_13 
REMARK   12  A    between atoms: C09_14  and  O08_25 
ROOT
ATOM      1  C04 G3Q d   1     -12.084 -26.091 -35.359  0.00  0.00     0.036 A 
ATOM      2  C05 G3Q d   1     -11.412 -25.916 -34.158  0.00  0.00    -0.054 A 
ATOM      3  C06 G3Q d   1     -10.239 -26.616 -33.898  0.00  0.00    -0.049 A 
ATOM      4  C07 G3Q d   1      -9.733 -27.497 -34.842  0.00  0.00     0.069 A 
ATOM      5  C18 G3Q d   1     -10.399 -27.674 -36.046  0.00  0.00    -0.049 A 
ATOM      6  C19 G3Q d   1     -11.569 -26.973 -36.301  0.00  0.00    -0.054 A 
ATOM      7  H14 G3Q d   1     -11.804 -25.229 -33.417  0.00  0.00     0.087 H 
ATOM      8  H15 G3Q d   1      -9.720 -26.473 -32.957  0.00  0.00     0.087 H 
ATOM      9  H26 G3Q d   1     -10.005 -28.360 -36.788  0.00  0.00     0.087 H 
ATOM     10  H27 G3Q d   1     -12.086 -27.115 -37.243  0.00  0.00     0.087 H 
ENDROOT
BRANCH   4  11
ATOM     11  O08 G3Q d   1      -8.543 -28.206 -34.580  0.00  0.00    -0.349 OA
BRANCH  11  12
ATOM     12  C09 G3Q d   1      -8.367 -29.351 -35.374  0.00  0.00     0.051 C 
ATOM     13  H16 G3Q d   1      -9.176 -29.413 -36.117  0.00  0.00     0.079 H 
ATOM     14  H17 G3Q d   1      -7.398 -29.296 -35.891  0.00  0.00     0.079 H 
BRANCH  12  15
ATOM     15  C10 G3Q d   1      -8.399 -30.588 -34.477  0.00  0.00     0.079 C 
ATOM     16  H1  G3Q d   1      -9.042 -30.396 -33.605  0.00  0.00     0.088 H 
BRANCH  15  17
ATOM     17  C11 G3Q d   1      -8.961 -31.760 -35.284  0.00  0.00     0.108 C 
ATOM     18  H18 G3Q d   1      -8.207 -32.083 -36.017  0.00  0.00     0.079 H 
ATOM     19  H19 G3Q d   1      -9.867 -31.428 -35.812  0.00  0.00     0.079 H 
BRANCH  17  20
ATOM     20  N12 G3Q d   1      -9.300 -32.889 -34.423  0.00  0.00    -0.065 N 
ATOM     21  H2  G3Q d   1      -9.056 -33.742 -34.901  0.00  0.00     0.278 HD
ATOM     22  H3  G3Q d   1      -8.766 -32.816 -33.571  0.00  0.00     0.278 HD
BRANCH  20  23
ATOM     23  C13 G3Q d   1     -10.720 -32.935 -34.081  0.00  0.00     0.115 C 
BRANCH  23  24
ATOM     24  C15 G3Q d   1     -10.930 -32.367 -32.679  0.00  0.00    -0.046 C 
ATOM     25  H4  G3Q d   1     -12.000 -32.403 -32.425  0.00  0.00     0.030 H 
ATOM     26  H5  G3Q d   1     -10.581 -31.324 -32.650  0.00  0.00     0.030 H 
ATOM     27  H6  G3Q d   1     -10.360 -32.965 -31.952  0.00  0.00     0.030 H 
ENDBRANCH  23  24
BRANCH  23  28
ATOM     28  C14 G3Q d   1     -11.183 -34.389 -34.084  0.00  0.00    -0.046 C 
ATOM     29  H20 G3Q d   1     -12.252 -34.434 -33.827  0.00  0.00     0.030 H 
ATOM     30  H21 G3Q d   1     -10.604 -34.960 -33.343  0.00  0.00     0.030 H 
ATOM     31  H22 G3Q d   1     -11.027 -34.821 -35.083  0.00  0.00     0.030 H 
ENDBRANCH  23  28
BRANCH  23  32
ATOM     32  C16 G3Q d   1     -11.577 -32.158 -35.082  0.00  0.00    -0.046 C 
ATOM     33  H23 G3Q d   1     -12.634 -32.220 -34.785  0.00  0.00     0.030 H 
ATOM     34  H24 G3Q d   1     -11.452 -32.591 -36.086  0.00  0.00     0.030 H 
ATOM     35  H25 G3Q d   1     -11.261 -31.104 -35.095  0.00  0.00     0.030 H 
ENDBRANCH  23  32
ENDBRANCH  20  23
ENDBRANCH  17  20
ENDBRANCH  15  17
BRANCH  15  36
ATOM     36  O17 G3Q d   1      -7.108 -30.892 -34.043  0.00  0.00    -0.392 OA
ATOM     37  H34 G3Q d   1      -6.551 -31.052 -34.796  0.00  0.00     0.210 HD
ENDBRANCH  15  36
ENDBRANCH  12  15
ENDBRANCH  11  12
ENDBRANCH   4  11
BRANCH   1  38
ATOM     38  N03 G3Q d   1     -13.315 -25.334 -35.590  0.00  0.00    -0.309 N 
ATOM     39  C02 G3Q d   1     -14.253 -25.543 -36.693  0.00  0.00     0.321 C 
ATOM     40  N20 G3Q d   1     -15.436 -24.698 -36.774  0.00  0.00    -0.338 N 
ATOM     41  O01 G3Q d   1     -14.086 -26.372 -37.522  0.00  0.00    -0.247 OA
ATOM     42  H33 G3Q d   1     -15.598 -23.991 -36.086  0.00  0.00     0.164 HD
ATOM     43  H32 G3Q d   1     -13.534 -24.610 -34.936  0.00  0.00     0.170 HD
BRANCH  40  44
ATOM     44  C21 G3Q d   1     -16.389 -24.891 -37.872  0.00  0.00     0.014 C 
ATOM     45  C22 G3Q d   1     -17.804 -24.995 -37.300  0.00  0.00    -0.046 C 
ATOM     46  C23 G3Q d   1     -18.850 -25.105 -38.408  0.00  0.00    -0.063 C 
ATOM     47  H8  G3Q d   1     -18.013 -24.098 -36.699  0.00  0.00     0.035 H 
ATOM     48  H9  G3Q d   1     -17.866 -25.888 -36.660  0.00  0.00     0.035 H 
ATOM     49  C24 G3Q d   1     -18.723 -23.980 -39.439  0.00  0.00    -0.065 C 
ATOM     50  H28 G3Q d   1     -19.851 -25.059 -37.955  0.00  0.00     0.033 H 
ATOM     51  H29 G3Q d   1     -18.723 -26.070 -38.920  0.00  0.00     0.033 H 
ATOM     52  C25 G3Q d   1     -17.297 -23.835 -39.979  0.00  0.00    -0.063 C 
ATOM     53  H10 G3Q d   1     -19.018 -23.032 -38.965  0.00  0.00     0.033 H 
ATOM     54  H11 G3Q d   1     -19.398 -24.195 -40.280  0.00  0.00     0.033 H 
ATOM     55  C26 G3Q d   1     -16.264 -23.729 -38.858  0.00  0.00    -0.046 C 
ATOM     56  H30 G3Q d   1     -17.243 -22.927 -40.598  0.00  0.00     0.033 H 
ATOM     57  H31 G3Q d   1     -17.061 -24.714 -40.596  0.00  0.00     0.033 H 
ATOM     58  H12 G3Q d   1     -15.256 -23.740 -39.298  0.00  0.00     0.035 H 
ATOM     59  H13 G3Q d   1     -16.418 -22.783 -38.318  0.00  0.00     0.035 H 
ATOM     60  H7  G3Q d   1     -16.151 -25.828 -38.398  0.00  0.00     0.072 H 
ENDBRANCH  40  44
ENDBRANCH   1  38
TORSDOF 12
