REMARK  9 active torsions:
REMARK  status: ('A' for Active; 'I' for Inactive)
REMARK    1  A    between atoms: C09_15  and  C10_1 
REMARK    2  A    between atoms: C15_3  and  C17_4 
REMARK    3  A    between atoms: C15_3  and  C16_17 
REMARK    4  A    between atoms: C15_3  and  C18_18 
REMARK    5  A    between atoms: N14_24  and  C15_3 
REMARK       I    between atoms: C02_10  and  N03_23 
REMARK       I    between atoms: N22_25  and  C02_10 
REMARK    6  A    between atoms: N03_23  and  C04_11 
REMARK    7  A    between atoms: C07_14  and  O08_27 
REMARK    8  A    between atoms: O08_27  and  C09_15 
REMARK    9  A    between atoms: C23_20  and  N22_25 
ROOT
ATOM      1  C20 G3T d   1     -10.754 -28.041 -35.828  0.00  0.00    -0.049 A 
ATOM      2  C21 G3T d   1     -11.783 -27.179 -36.140  0.00  0.00    -0.054 A 
ATOM      3  C04 G3T d   1     -11.980 -26.044 -35.386  0.00  0.00     0.036 A 
ATOM      4  C05 G3T d   1     -11.132 -25.779 -34.317  0.00  0.00    -0.054 A 
ATOM      5  C06 G3T d   1     -10.097 -26.652 -33.999  0.00  0.00    -0.049 A 
ATOM      6  C07 G3T d   1      -9.898 -27.796 -34.761  0.00  0.00     0.069 A 
ATOM      7  H7  G3T d   1     -10.609 -28.931 -36.429  0.00  0.00     0.087 H 
ATOM      8  H8  G3T d   1     -12.436 -27.394 -36.978  0.00  0.00     0.087 H 
ATOM      9  H15 G3T d   1     -11.279 -24.883 -33.725  0.00  0.00     0.087 H 
ATOM     10  H16 G3T d   1      -9.447 -26.440 -33.158  0.00  0.00     0.087 H 
ENDROOT
BRANCH   6  11
ATOM     11  O08 G3T d   1      -8.855 -28.699 -34.438  0.00  0.00    -0.349 OA
BRANCH  11  12
ATOM     12  C09 G3T d   1      -8.470 -29.690 -35.372  0.00  0.00     0.051 C 
ATOM     13  H17 G3T d   1      -8.423 -29.217 -36.364  0.00  0.00     0.079 H 
ATOM     14  H18 G3T d   1      -7.469 -30.048 -35.089  0.00  0.00     0.079 H 
BRANCH  12  15
ATOM     15  C10 G3T d   1      -9.403 -30.925 -35.479  0.00  0.00     0.082 C 
ATOM     16  C19 G3T d   1     -10.397 -30.973 -34.301  0.00  0.00     0.110 C 
ATOM     17  N14 G3T d   1     -10.615 -32.200 -33.709  0.00  0.00    -0.059 N 
ATOM     18  H27 G3T d   1     -11.366 -30.607 -34.671  0.00  0.00     0.080 H 
ATOM     19  H28 G3T d   1     -10.021 -30.293 -33.523  0.00  0.00     0.080 H 
ATOM     20  C13 G3T d   1     -10.434 -33.300 -34.535  0.00  0.00     0.104 C 
ATOM     21  H35 G3T d   1     -11.620 -32.200 -33.626  0.00  0.00     0.281 HD
ATOM     22  C12 G3T d   1      -9.093 -33.302 -35.269  0.00  0.00     0.043 C 
ATOM     23  H2  G3T d   1     -10.495 -34.210 -33.920  0.00  0.00     0.079 H 
ATOM     24  H3  G3T d   1     -11.240 -33.309 -35.284  0.00  0.00     0.079 H 
ATOM     25  O11 G3T d   1      -8.651 -32.073 -35.749  0.00  0.00    -0.380 OA
ATOM     26  H19 G3T d   1      -9.182 -33.985 -36.127  0.00  0.00     0.076 H 
ATOM     27  H20 G3T d   1      -8.331 -33.684 -34.574  0.00  0.00     0.076 H 
ATOM     28  H1  G3T d   1     -10.026 -30.771 -36.372  0.00  0.00     0.089 H 
BRANCH  17  29
ATOM     29  C15 G3T d   1     -10.280 -32.277 -32.467  0.00  0.00     0.117 C 
BRANCH  29  30
ATOM     30  C17 G3T d   1     -11.166 -31.306 -31.668  0.00  0.00    -0.046 C 
ATOM     31  H4  G3T d   1     -10.896 -31.356 -30.603  0.00  0.00     0.030 H 
ATOM     32  H5  G3T d   1     -12.222 -31.587 -31.792  0.00  0.00     0.030 H 
ATOM     33  H6  G3T d   1     -11.013 -30.281 -32.038  0.00  0.00     0.030 H 
ENDBRANCH  29  30
BRANCH  29  34
ATOM     34  C16 G3T d   1     -10.513 -33.692 -31.921  0.00  0.00    -0.046 C 
ATOM     35  H21 G3T d   1      -9.889 -34.407 -32.477  0.00  0.00     0.030 H 
ATOM     36  H22 G3T d   1     -11.573 -33.961 -32.039  0.00  0.00     0.030 H 
ATOM     37  H23 G3T d   1     -10.244 -33.723 -30.855  0.00  0.00     0.030 H 
ENDBRANCH  29  34
BRANCH  29  38
ATOM     38  C18 G3T d   1      -8.818 -31.886 -32.187  0.00  0.00    -0.046 C 
ATOM     39  H24 G3T d   1      -8.629 -30.873 -32.571  0.00  0.00     0.030 H 
ATOM     40  H25 G3T d   1      -8.146 -32.599 -32.687  0.00  0.00     0.030 H 
ATOM     41  H26 G3T d   1      -8.634 -31.907 -31.103  0.00  0.00     0.030 H 
ENDBRANCH  29  38
ENDBRANCH  17  29
ENDBRANCH  12  15
ENDBRANCH  11  12
ENDBRANCH   6  11
BRANCH   3  42
ATOM     42  N03 G3T d   1     -13.065 -25.132 -35.713  0.00  0.00    -0.309 N 
ATOM     43  C02 G3T d   1     -14.092 -25.337 -36.738  0.00  0.00     0.321 C 
ATOM     44  N22 G3T d   1     -15.110 -24.316 -36.918  0.00  0.00    -0.338 N 
ATOM     45  O01 G3T d   1     -14.130 -26.296 -37.432  0.00  0.00    -0.247 OA
ATOM     46  H36 G3T d   1     -15.112 -23.495 -36.347  0.00  0.00     0.164 HD
ATOM     47  H34 G3T d   1     -13.115 -24.283 -35.187  0.00  0.00     0.170 HD
BRANCH  44  48
ATOM     48  C23 G3T d   1     -16.127 -24.507 -37.943  0.00  0.00     0.014 C 
ATOM     49  C24 G3T d   1     -16.227 -23.262 -38.825  0.00  0.00    -0.046 C 
ATOM     50  C25 G3T d   1     -17.227 -23.522 -39.951  0.00  0.00    -0.063 C 
ATOM     51  H9  G3T d   1     -15.240 -23.035 -39.255  0.00  0.00     0.035 H 
ATOM     52  H10 G3T d   1     -16.568 -22.409 -38.220  0.00  0.00     0.035 H 
ATOM     53  C26 G3T d   1     -18.596 -23.999 -39.437  0.00  0.00    -0.065 C 
ATOM     54  H30 G3T d   1     -16.814 -24.294 -40.616  0.00  0.00     0.033 H 
ATOM     55  H31 G3T d   1     -17.370 -22.589 -40.516  0.00  0.00     0.033 H 
ATOM     56  C27 G3T d   1     -18.508 -25.145 -38.422  0.00  0.00    -0.063 C 
ATOM     57  H11 G3T d   1     -19.190 -24.342 -40.297  0.00  0.00     0.033 H 
ATOM     58  H12 G3T d   1     -19.102 -23.148 -38.957  0.00  0.00     0.033 H 
ATOM     59  C28 G3T d   1     -17.481 -24.873 -37.326  0.00  0.00    -0.046 C 
ATOM     60  H32 G3T d   1     -18.223 -26.066 -38.952  0.00  0.00     0.033 H 
ATOM     61  H33 G3T d   1     -19.495 -25.281 -37.956  0.00  0.00     0.033 H 
ATOM     62  H13 G3T d   1     -17.831 -24.039 -36.700  0.00  0.00     0.035 H 
ATOM     63  H14 G3T d   1     -17.365 -25.774 -36.706  0.00  0.00     0.035 H 
ATOM     64  H29 G3T d   1     -15.813 -25.347 -38.579  0.00  0.00     0.072 H 
ENDBRANCH  44  48
ENDBRANCH   3  42
TORSDOF 9
