REMARK  26 active torsions:
REMARK  status: ('A' for Active; 'I' for Inactive)
REMARK    1  A    between atoms: C2_2  and  C1_1 
REMARK    2  A    between atoms: C3_3  and  C2_2 
REMARK    3  A    between atoms: C4_4  and  C3_3 
REMARK    4  A    between atoms: C5_5  and  C4_4 
REMARK    5  A    between atoms: C6_6  and  C5_5 
REMARK    6  A    between atoms: C7_7  and  C6_6 
REMARK    7  A    between atoms: C8_8  and  C7_7 
REMARK    8  A    between atoms: C9_22  and  C8_8 
REMARK    9  A    between atoms: C15_9  and  C16_10 
REMARK   10  A    between atoms: C13_26  and  C15_9 
REMARK   11  A    between atoms: C19_13  and  O22_28 
REMARK   12  A    between atoms: C23_15  and  C13_26 
REMARK       I    between atoms: N25_30  and  C23_15 
REMARK   13  A    between atoms: C28_32  and  C30_16 
REMARK   14  A    between atoms: C26_31  and  C31_17 
REMARK       I    between atoms: C31_17  and  N33_35 
REMARK   15  A    between atoms: N33_35  and  C34_18 
REMARK   16  A    between atoms: C40_21  and  C42_38 
REMARK   17  A    between atoms: C10_23  and  C9_22 
REMARK       I    between atoms: N12_25  and  C10_23 
REMARK   18  A    between atoms: C13_26  and  N12_25 
REMARK   19  A    between atoms: C26_31  and  N25_30 
REMARK   20  A    between atoms: C26_31  and  C28_32 
REMARK   21  A    between atoms: C28_32  and  C29_33 
REMARK   22  A    between atoms: C42_38  and  C43_39 
REMARK   23  A    between atoms: C46_42  and  O49_45 
REMARK   24  A    between atoms: C53_49  and  C60_55 
REMARK   25  A    between atoms: C60_55  and  C61_56 
REMARK   26  A    between atoms: C60_55  and  C62_57 
ROOT
ATOM      1  C26 G4B d   1      -4.026 -11.828  14.689  0.00  0.00     0.092 C 
ATOM      2  H35 G4B d   1      -4.757 -11.964  13.879  0.00  0.00     0.088 H 
ENDROOT
BRANCH   1   3
ATOM      3  C31 G4B d   1      -2.642 -11.764  14.085  0.00  0.00     0.241 C 
ATOM      4  O32 G4B d   1      -1.714 -11.512  14.844  0.00  0.00    -0.271 OA
ATOM      5  N33 G4B d   1      -2.508 -11.986  12.760  0.00  0.00    -0.353 N 
ATOM      6  H40 G4B d   1      -3.335 -12.189  12.236  0.00  0.00     0.163 HD
BRANCH   5   7
ATOM      7  C34 G4B d   1      -1.230 -11.950  12.033  0.00  0.00     0.034 C 
ATOM      8  C36 G4B d   1      -0.691 -13.360  11.765  0.00  0.00     0.048 C 
ATOM      9  O37 G4B d   1      -1.606 -14.207  11.074  0.00  0.00    -0.318 OA
ATOM     10  H25 G4B d   1      -0.448 -13.827  12.731  0.00  0.00     0.078 H 
ATOM     11  H26 G4B d   1       0.224 -13.272  11.160  0.00  0.00     0.078 H 
ATOM     12  C38 G4B d   1      -2.390 -15.316  11.625  0.00  0.00     0.282 C 
ATOM     13  C40 G4B d   1      -3.742 -15.633  11.012  0.00  0.00     0.100 C 
ATOM     14  O39 G4B d   1      -1.932 -15.960  12.555  0.00  0.00    -0.263 OA
ATOM     15  N50 G4B d   1      -3.908 -14.657   9.936  0.00  0.00    -0.345 N 
ATOM     16  H27 G4B d   1      -4.518 -15.414  11.760  0.00  0.00     0.088 H 
ATOM     17  C51 G4B d   1      -3.445 -14.729   8.677  0.00  0.00     0.241 C 
ATOM     18  H48 G4B d   1      -4.430 -13.835  10.165  0.00  0.00     0.163 HD
ATOM     19  O52 G4B d   1      -2.825 -15.679   8.221  0.00  0.00    -0.271 OA
ATOM     20  C53 G4B d   1      -3.660 -13.519   7.800  0.00  0.00     0.092 C 
ATOM     21  N55 G4B d   1      -2.295 -13.001   7.611  0.00  0.00    -0.347 N 
ATOM     22  H49 G4B d   1      -4.263 -12.772   8.337  0.00  0.00     0.088 H 
ATOM     23  C56 G4B d   1      -1.568 -12.169   8.406  0.00  0.00     0.218 C 
ATOM     24  H50 G4B d   1      -1.835 -13.305   6.777  0.00  0.00     0.163 HD
ATOM     25  O57 G4B d   1      -0.435 -11.869   8.057  0.00  0.00    -0.274 OA
ATOM     26  C58 G4B d   1      -2.117 -11.551   9.692  0.00  0.00     0.011 C 
ATOM     27  C59 G4B d   1      -1.250 -11.006  10.823  0.00  0.00    -0.036 C 
ATOM     28  H51 G4B d   1      -2.747 -12.328  10.149  0.00  0.00     0.047 H 
ATOM     29  H52 G4B d   1      -2.748 -10.710   9.371  0.00  0.00     0.047 H 
ATOM     30  H53 G4B d   1      -0.222 -10.879  10.454  0.00  0.00     0.036 H 
ATOM     31  H54 G4B d   1      -1.649 -10.031  11.139  0.00  0.00     0.036 H 
ATOM     32  H24 G4B d   1      -0.509 -11.497  12.729  0.00  0.00     0.075 H 
BRANCH  13  33
ATOM     33  C42 G4B d   1      -3.892 -17.132  10.692  0.00  0.00    -0.013 C 
ATOM     34  H41 G4B d   1      -3.693 -17.713  11.604  0.00  0.00     0.043 H 
ATOM     35  H42 G4B d   1      -3.162 -17.406   9.916  0.00  0.00     0.043 H 
BRANCH  33  36
ATOM     36  C43 G4B d   1      -5.281 -17.459  10.195  0.00  0.00    -0.056 A 
ATOM     37  C44 G4B d   1      -6.357 -17.522  11.095  0.00  0.00    -0.074 A 
ATOM     38  C45 G4B d   1      -7.649 -17.833  10.634  0.00  0.00    -0.051 A 
ATOM     39  H43 G4B d   1      -6.191 -17.330  12.149  0.00  0.00     0.084 H 
ATOM     40  C46 G4B d   1      -7.871 -18.086   9.269  0.00  0.00     0.065 A 
ATOM     41  H44 G4B d   1      -8.476 -17.878  11.333  0.00  0.00     0.087 H 
ATOM     42  C47 G4B d   1      -6.792 -18.023   8.371  0.00  0.00    -0.051 A 
ATOM     43  C48 G4B d   1      -5.502 -17.714   8.835  0.00  0.00    -0.074 A 
ATOM     44  H45 G4B d   1      -6.955 -18.213   7.316  0.00  0.00     0.087 H 
ATOM     45  H46 G4B d   1      -4.673 -17.673   8.137  0.00  0.00     0.084 H 
BRANCH  40  46
ATOM     46  O49 G4B d   1      -9.127 -18.385   8.825  0.00  0.00    -0.361 OA
ATOM     47  H47 G4B d   1      -9.730 -18.385   9.559  0.00  0.00     0.217 HD
ENDBRANCH  40  46
ENDBRANCH  33  36
ENDBRANCH  13  33
BRANCH  20  48
ATOM     48  C60 G4B d   1      -4.399 -13.860   6.491  0.00  0.00    -0.033 C 
ATOM     49  H55 G4B d   1      -3.885 -14.730   6.057  0.00  0.00     0.042 H 
BRANCH  48  50
ATOM     50  C61 G4B d   1      -4.299 -12.730   5.451  0.00  0.00    -0.071 C 
ATOM     51  H56 G4B d   1      -4.840 -13.022   4.539  0.00  0.00     0.028 H 
ATOM     52  H57 G4B d   1      -3.242 -12.548   5.207  0.00  0.00     0.028 H 
ATOM     53  H58 G4B d   1      -4.743 -11.812   5.863  0.00  0.00     0.028 H 
ENDBRANCH  48  50
BRANCH  48  54
ATOM     54  C62 G4B d   1      -5.857 -14.294   6.755  0.00  0.00    -0.071 C 
ATOM     55  H59 G4B d   1      -5.870 -15.101   7.503  0.00  0.00     0.028 H 
ATOM     56  H60 G4B d   1      -6.307 -14.655   5.819  0.00  0.00     0.028 H 
ATOM     57  H61 G4B d   1      -6.433 -13.436   7.132  0.00  0.00     0.028 H 
ENDBRANCH  48  54
ENDBRANCH  20  48
ENDBRANCH   5   7
ENDBRANCH   1   3
BRANCH   1  58
ATOM     58  N25 G4B d   1      -4.079 -12.987  15.587  0.00  0.00    -0.346 N 
ATOM     59  C23 G4B d   1      -4.530 -14.212  15.234  0.00  0.00     0.241 C 
ATOM     60  O24 G4B d   1      -4.929 -14.440  14.107  0.00  0.00    -0.271 OA
ATOM     61  H34 G4B d   1      -3.759 -12.862  16.526  0.00  0.00     0.163 HD
BRANCH  59  62
ATOM     62  C13 G4B d   1      -4.587 -15.421  16.163  0.00  0.00     0.093 C 
ATOM     63  H31 G4B d   1      -5.548 -15.913  15.954  0.00  0.00     0.088 H 
BRANCH  62  64
ATOM     64  C15 G4B d   1      -4.543 -15.220  17.693  0.00  0.00    -0.014 C 
ATOM     65  H16 G4B d   1      -3.977 -16.053  18.137  0.00  0.00     0.043 H 
ATOM     66  H17 G4B d   1      -4.026 -14.272  17.904  0.00  0.00     0.043 H 
BRANCH  64  67
ATOM     67  C16 G4B d   1      -5.915 -15.173  18.342  0.00  0.00    -0.056 A 
ATOM     68  C17 G4B d   1      -6.208 -16.014  19.434  0.00  0.00    -0.074 A 
ATOM     69  C18 G4B d   1      -7.471 -15.967  20.046  0.00  0.00    -0.051 A 
ATOM     70  H18 G4B d   1      -5.455 -16.701  19.803  0.00  0.00     0.084 H 
ATOM     71  C19 G4B d   1      -8.450 -15.075  19.579  0.00  0.00     0.065 A 
ATOM     72  H19 G4B d   1      -7.691 -16.621  20.882  0.00  0.00     0.087 H 
ATOM     73  C20 G4B d   1      -8.160 -14.228  18.497  0.00  0.00    -0.051 A 
ATOM     74  C21 G4B d   1      -6.897 -14.276  17.884  0.00  0.00    -0.074 A 
ATOM     75  H32 G4B d   1      -8.912 -13.536  18.134  0.00  0.00     0.087 H 
ATOM     76  H20 G4B d   1      -6.678 -13.617  17.052  0.00  0.00     0.084 H 
BRANCH  71  77
ATOM     77  O22 G4B d   1      -9.675 -15.034  20.177  0.00  0.00    -0.361 OA
ATOM     78  H33 G4B d   1      -9.702 -15.666  20.885  0.00  0.00     0.217 HD
ENDBRANCH  71  77
ENDBRANCH  64  67
ENDBRANCH  62  64
BRANCH  62  79
ATOM     79  N12 G4B d   1      -3.521 -16.336  15.792  0.00  0.00    -0.347 N 
ATOM     80  C10 G4B d   1      -3.621 -17.709  15.868  0.00  0.00     0.221 C 
ATOM     81  O11 G4B d   1      -4.625 -18.315  16.215  0.00  0.00    -0.273 OA
ATOM     82  H30 G4B d   1      -2.662 -15.946  15.461  0.00  0.00     0.163 HD
BRANCH  80  83
ATOM     83  C9  G4B d   1      -2.402 -18.520  15.487  0.00  0.00     0.024 C 
ATOM     84  H28 G4B d   1      -2.718 -19.455  15.001  0.00  0.00     0.053 H 
ATOM     85  H29 G4B d   1      -1.775 -17.940  14.793  0.00  0.00     0.053 H 
BRANCH  83  86
ATOM     86  C8  G4B d   1      -1.614 -18.839  16.737  0.00  0.00    -0.098 C 
ATOM     87  H15 G4B d   1      -2.045 -18.639  17.717  0.00  0.00     0.077 H 
BRANCH  86  88
ATOM     88  C7  G4B d   1      -0.396 -19.363  16.643  0.00  0.00    -0.106 C 
ATOM     89  H14 G4B d   1       0.171 -19.593  17.544  0.00  0.00     0.076 H 
BRANCH  88  90
ATOM     90  C6  G4B d   1       0.197 -19.637  15.283  0.00  0.00    -0.050 C 
ATOM     91  H12 G4B d   1      -0.444 -20.351  14.744  0.00  0.00     0.038 H 
ATOM     92  H13 G4B d   1       0.256 -18.696  14.716  0.00  0.00     0.038 H 
BRANCH  90  93
ATOM     93  C5  G4B d   1       1.594 -20.225  15.428  0.00  0.00    -0.062 C 
ATOM     94  H10 G4B d   1       2.227 -19.522  15.989  0.00  0.00     0.033 H 
ATOM     95  H11 G4B d   1       1.532 -21.178  15.974  0.00  0.00     0.033 H 
BRANCH  93  96
ATOM     96  C4  G4B d   1       2.209 -20.471  14.056  0.00  0.00    -0.065 C 
ATOM     97  H8  G4B d   1       1.536 -21.117  13.473  0.00  0.00     0.033 H 
ATOM     98  H9  G4B d   1       2.329 -19.507  13.540  0.00  0.00     0.033 H 
BRANCH  96  99
ATOM     99  C3  G4B d   1       3.571 -21.146  14.167  0.00  0.00    -0.065 C 
ATOM    100  H6  G4B d   1       4.247 -20.503  14.750  0.00  0.00     0.033 H 
ATOM    101  H7  G4B d   1       3.455 -22.113  14.678  0.00  0.00     0.033 H 
BRANCH  99 102
ATOM    102  C2  G4B d   1       4.168 -21.378  12.785  0.00  0.00    -0.069 C 
ATOM    103  H4  G4B d   1       3.516 -22.062  12.222  0.00  0.00     0.032 H 
ATOM    104  H5  G4B d   1       4.233 -20.416  12.256  0.00  0.00     0.032 H 
BRANCH 102 105
ATOM    105  C1  G4B d   1       5.551 -21.983  12.882  0.00  0.00    -0.077 C 
ATOM    106  H1  G4B d   1       5.955 -22.138  11.871  0.00  0.00     0.027 H 
ATOM    107  H2  G4B d   1       5.493 -22.948  13.406  0.00  0.00     0.027 H 
ATOM    108  H3  G4B d   1       6.211 -21.302  13.440  0.00  0.00     0.027 H 
ENDBRANCH 102 105
ENDBRANCH  99 102
ENDBRANCH  96  99
ENDBRANCH  93  96
ENDBRANCH  90  93
ENDBRANCH  88  90
ENDBRANCH  86  88
ENDBRANCH  83  86
ENDBRANCH  80  83
ENDBRANCH  62  79
ENDBRANCH  59  62
ENDBRANCH   1  58
BRANCH   1 109
ATOM    109  C28 G4B d   1      -4.398 -10.545  15.468  0.00  0.00    -0.033 C 
ATOM    110  H36 G4B d   1      -3.712 -10.502  16.326  0.00  0.00     0.042 H 
BRANCH 109 111
ATOM    111  C30 G4B d   1      -5.825 -10.607  16.023  0.00  0.00    -0.071 C 
ATOM    112  H21 G4B d   1      -6.047  -9.678  16.568  0.00  0.00     0.028 H 
ATOM    113  H22 G4B d   1      -5.915 -11.464  16.707  0.00  0.00     0.028 H 
ATOM    114  H23 G4B d   1      -6.537 -10.724  15.193  0.00  0.00     0.028 H 
ENDBRANCH 109 111
BRANCH 109 115
ATOM    115  C29 G4B d   1      -4.230  -9.220  14.703  0.00  0.00    -0.071 C 
ATOM    116  H37 G4B d   1      -4.522  -8.382  15.353  0.00  0.00     0.028 H 
ATOM    117  H38 G4B d   1      -4.869  -9.230  13.807  0.00  0.00     0.028 H 
ATOM    118  H39 G4B d   1      -3.179  -9.101  14.402  0.00  0.00     0.028 H 
ENDBRANCH 109 115
ENDBRANCH   1 109
TORSDOF 26
