REMARK  14 active torsions:
REMARK  status: ('A' for Active; 'I' for Inactive)
REMARK    1  A    between atoms: C1'_13  and  N9_10 
REMARK    2  A    between atoms: O3A_26  and  PA_11 
REMARK    3  A    between atoms: PA_11  and  O5'_34 
REMARK    4  A    between atoms: PB_12  and  O3A_26 
REMARK    5  A    between atoms: O5D_36  and  PB_12 
REMARK    6  A    between atoms: C1D_16  and  O1D_17 
REMARK    7  A    between atoms: C2'_18  and  O2'_19 
REMARK    8  A    between atoms: C2D_22  and  O2D_23 
REMARK    9  A    between atoms: C3'_24  and  O3'_25 
REMARK   10  A    between atoms: C3D_27  and  O3D_28 
REMARK   11  A    between atoms: C5'_33  and  C4'_29 
REMARK   12  A    between atoms: C5D_35  and  C4D_31 
REMARK   13  A    between atoms: O5'_34  and  C5'_33 
REMARK   14  A    between atoms: C5D_35  and  O5D_36 
ROOT
ATOM      1  C5' AR6 d   1      -7.689  -3.899  -7.181  0.00  0.00     0.058 C 
ATOM      2  H18 AR6 d   1      -7.252  -4.238  -8.132  0.00  0.00     0.079 H 
ATOM      3  H19 AR6 d   1      -7.306  -2.897  -6.938  0.00  0.00     0.079 H 
ENDROOT
BRANCH   1   4
ATOM      4  C4' AR6 d   1      -7.278  -4.831  -6.115  0.00  0.00     0.089 C 
ATOM      5  C3' AR6 d   1      -7.688  -6.235  -6.448  0.00  0.00     0.091 C 
ATOM      6  C2' AR6 d   1      -7.826  -6.800  -5.041  0.00  0.00     0.105 C 
ATOM      7  H12 AR6 d   1      -8.668  -6.235  -6.947  0.00  0.00     0.091 H 
ATOM      8  C1' AR6 d   1      -8.249  -5.644  -4.181  0.00  0.00     0.139 C 
ATOM      9  H8  AR6 d   1      -8.530  -7.644  -5.011  0.00  0.00     0.093 H 
ATOM     10  O4' AR6 d   1      -7.893  -4.457  -4.892  0.00  0.00    -0.353 OA
ATOM     11  H5  AR6 d   1      -7.710  -5.670  -3.222  0.00  0.00     0.122 H 
ATOM     12  H16 AR6 d   1      -6.184  -4.789  -6.004  0.00  0.00     0.090 H 
BRANCH   5  13
ATOM     13  O3' AR6 d   1      -6.754  -6.942  -7.334  0.00  0.00    -0.390 OA
ATOM     14  H13 AR6 d   1      -7.037  -7.843  -7.436  0.00  0.00     0.210 HD
ENDBRANCH   5  13
BRANCH   6  15
ATOM     15  O2' AR6 d   1      -6.546  -7.145  -4.499  0.00  0.00    -0.388 OA
ATOM     16  H9  AR6 d   1      -6.186  -7.879  -4.982  0.00  0.00     0.210 HD
ENDBRANCH   6  15
BRANCH   8  17
ATOM     17  N9  AR6 d   1      -9.685  -5.739  -3.918  0.00  0.00    -0.294 N 
ATOM     18  C4  AR6 d   1     -10.217  -6.635  -3.132  0.00  0.00     0.167 A 
ATOM     19  N3  AR6 d   1      -9.732  -7.672  -2.406  0.00  0.00    -0.222 NA
ATOM     20  C5  AR6 d   1     -11.633  -6.345  -3.107  0.00  0.00     0.149 A 
ATOM     21  C2  AR6 d   1     -10.546  -8.440  -1.664  0.00  0.00     0.091 A 
ATOM     22  N1  AR6 d   1     -11.887  -8.229  -1.624  0.00  0.00    -0.222 NA
ATOM     23  H1  AR6 d   1     -10.122  -9.250  -1.082  0.00  0.00     0.146 H 
ATOM     24  C6  AR6 d   1     -12.482  -7.231  -2.310  0.00  0.00     0.155 A 
ATOM     25  N6  AR6 d   1     -13.809  -7.007  -2.281  0.00  0.00    -0.382 N 
ATOM     26  H2  AR6 d   1     -14.212  -6.230  -2.824  0.00  0.00     0.157 HD
ATOM     27  H3  AR6 d   1     -14.421  -7.612  -1.716  0.00  0.00     0.157 HD
ATOM     28  N7  AR6 d   1     -11.843  -5.282  -3.869  0.00  0.00    -0.236 NA
ATOM     29  C8  AR6 d   1     -10.638  -4.923  -4.370  0.00  0.00     0.071 A 
ATOM     30  H4  AR6 d   1     -10.470  -4.086  -5.046  0.00  0.00     0.144 H 
ENDBRANCH   8  17
ENDBRANCH   1   4
BRANCH   1  31
ATOM     31  O5' AR6 d   1      -9.094  -3.821  -7.333  0.00  0.00    -0.287 OA
BRANCH  31  32
ATOM     32  PA  AR6 d   1      -9.644  -3.833  -8.831  0.00  0.00     0.417 P 
ATOM     33  O1A AR6 d   1      -8.957  -4.914  -9.615  0.00  0.00    -0.624 OA
ATOM     34  O2A AR6 d   1     -11.146  -3.659  -8.839  0.00  0.00    -0.624 OA
BRANCH  32  35
ATOM     35  O3A AR6 d   1      -8.837  -2.519  -9.390  0.00  0.00    -0.180 OA
BRANCH  35  36
ATOM     36  PB  AR6 d   1      -9.310  -1.005  -9.632  0.00  0.00     0.417 P 
ATOM     37  O1B AR6 d   1     -10.105  -0.611  -8.432  0.00  0.00    -0.624 OA
ATOM     38  O2B AR6 d   1      -9.767  -0.676 -11.049  0.00  0.00    -0.624 OA
BRANCH  36  39
ATOM     39  O5D AR6 d   1      -7.919  -0.168  -9.612  0.00  0.00    -0.287 OA
BRANCH  39  40
ATOM     40  C5D AR6 d   1      -7.245   0.080  -8.388  0.00  0.00     0.058 C 
ATOM     41  H20 AR6 d   1      -7.844   0.761  -7.766  0.00  0.00     0.079 H 
ATOM     42  H21 AR6 d   1      -7.090  -0.867  -7.851  0.00  0.00     0.079 H 
BRANCH  40  43
ATOM     43  C4D AR6 d   1      -5.902   0.718  -8.701  0.00  0.00     0.090 C 
ATOM     44  C3D AR6 d   1      -5.905   1.866  -9.684  0.00  0.00     0.092 C 
ATOM     45  C2D AR6 d   1      -5.178   1.432 -10.957  0.00  0.00     0.110 C 
ATOM     46  H14 AR6 d   1      -6.919   2.247  -9.875  0.00  0.00     0.091 H 
ATOM     47  C1D AR6 d   1      -4.367   0.248 -10.470  0.00  0.00     0.156 C 
ATOM     48  H10 AR6 d   1      -5.888   1.121 -11.737  0.00  0.00     0.094 H 
ATOM     49  O4D AR6 d   1      -5.002  -0.268  -9.291  0.00  0.00    -0.349 OA
ATOM     50  H6  AR6 d   1      -4.261  -0.519 -11.252  0.00  0.00     0.133 H 
ATOM     51  H17 AR6 d   1      -5.483   1.079  -7.750  0.00  0.00     0.090 H 
BRANCH  44  52
ATOM     52  O3D AR6 d   1      -5.031   2.830  -9.164  0.00  0.00    -0.390 OA
ATOM     53  H15 AR6 d   1      -4.928   3.534  -9.793  0.00  0.00     0.210 HD
ENDBRANCH  44  52
BRANCH  45  54
ATOM     54  O2D AR6 d   1      -4.369   2.516 -11.462  0.00  0.00    -0.388 OA
ATOM     55  H11 AR6 d   1      -3.794   2.828 -10.773  0.00  0.00     0.210 HD
ENDBRANCH  45  54
BRANCH  47  56
ATOM     56  O1D AR6 d   1      -3.098   0.744 -10.024  0.00  0.00    -0.369 OA
ATOM     57  H7  AR6 d   1      -3.235   1.423  -9.374  0.00  0.00     0.212 HD
ENDBRANCH  47  56
ENDBRANCH  40  43
ENDBRANCH  39  40
ENDBRANCH  36  39
ENDBRANCH  35  36
ENDBRANCH  32  35
ENDBRANCH  31  32
ENDBRANCH   1  31
TORSDOF 14
