REMARK  9 active torsions:
REMARK  status: ('A' for Active; 'I' for Inactive)
REMARK    1  A    between atoms: CBK_6  and  CBN_7 
REMARK    2  A    between atoms: CBO_17  and  CBL_18 
REMARK    3  A    between atoms: CBH_23  and  CAZ_24 
REMARK    4  A    between atoms: CAZ_24  and  NBT_25 
REMARK    5  A    between atoms: CBS_30  and  NBD_31 
REMARK       I    between atoms: NBD_31  and  CBG_32 
REMARK       I    between atoms: CBG_32  and  NBB_34 
REMARK    6  A    between atoms: NBB_34  and  CBJ_35 
REMARK    7  A    between atoms: CBM_41  and  NBC_42 
REMARK       I    between atoms: NBC_42  and  CBF_43 
REMARK    8  A    between atoms: CBF_43  and  CAF_45 
REMARK    9  A    between atoms: CAF_45  and  CAA_46 
ROOT
ATOM      1  NBT G4T d   1      12.845 -14.674 -13.978  0.00  0.00    -0.067 N 
ATOM      2  CAY G4T d   1      12.053 -15.777 -13.392  0.00  0.00     0.086 C 
ATOM      3  CAW G4T d   1      11.901 -16.926 -14.379  0.00  0.00    -0.023 C 
ATOM      4  CAX G4T d   1      12.156 -14.167 -15.171  0.00  0.00     0.086 C 
ATOM      5  CAV G4T d   1      12.013 -15.262 -16.218  0.00  0.00    -0.023 C 
ATOM      6  CBS G4T d   1      11.209 -16.411 -15.635  0.00  0.00     0.017 C 
ATOM      7  H16 G4T d   1      13.761 -15.013 -14.226  0.00  0.00     0.280 HD
ATOM      8  H17 G4T d   1      11.055 -15.400 -13.123  0.00  0.00     0.076 H 
ATOM      9  H18 G4T d   1      12.562 -16.144 -12.489  0.00  0.00     0.076 H 
ATOM     10  H19 G4T d   1      11.296 -17.725 -13.925  0.00  0.00     0.038 H 
ATOM     11  H20 G4T d   1      12.893 -17.322 -14.640  0.00  0.00     0.038 H 
ATOM     12  H21 G4T d   1      12.736 -13.335 -15.596  0.00  0.00     0.076 H 
ATOM     13  H22 G4T d   1      11.156 -13.809 -14.885  0.00  0.00     0.076 H 
ATOM     14  H23 G4T d   1      13.010 -15.623 -16.511  0.00  0.00     0.038 H 
ATOM     15  H24 G4T d   1      11.494 -14.861 -17.101  0.00  0.00     0.038 H 
ATOM     16  H25 G4T d   1      10.195 -16.069 -15.380  0.00  0.00     0.072 H 
ENDROOT
BRANCH   1  17
ATOM     17  CAZ G4T d   1      12.967 -13.560 -13.023  0.00  0.00     0.107 C 
ATOM     18  H14 G4T d   1      13.323 -12.669 -13.562  0.00  0.00     0.083 H 
ATOM     19  H15 G4T d   1      11.977 -13.355 -12.590  0.00  0.00     0.083 H 
BRANCH  17  20
ATOM     20  CBH G4T d   1      13.857 -13.846 -11.992  0.00  0.00    -0.033 A 
ATOM     21  CAN G4T d   1      13.501 -13.537 -10.686  0.00  0.00    -0.074 A 
ATOM     22  CAR G4T d   1      14.373 -13.816  -9.642  0.00  0.00    -0.070 A 
ATOM     23  H11 G4T d   1      12.541 -13.077 -10.481  0.00  0.00     0.084 H 
ATOM     24  CBL G4T d   1      15.621 -14.383  -9.894  0.00  0.00    -0.006 A 
ATOM     25  H10 G4T d   1      14.081 -13.591  -8.623  0.00  0.00     0.084 H 
ATOM     26  CAQ G4T d   1      15.971 -14.702 -11.202  0.00  0.00    -0.070 A 
ATOM     27  CAM G4T d   1      15.096 -14.426 -12.250  0.00  0.00    -0.074 A 
ATOM     28  H12 G4T d   1      16.928 -15.167 -11.406  0.00  0.00     0.084 H 
ATOM     29  H13 G4T d   1      15.380 -14.663 -13.269  0.00  0.00     0.084 H 
BRANCH  24  30
ATOM     30  CBO G4T d   1      16.497 -14.679  -8.847  0.00  0.00     0.078 A 
ATOM     31  CBN G4T d   1      16.920 -13.753  -7.876  0.00  0.00     0.005 A 
ATOM     32  CAU G4T d   1      17.784 -14.181  -6.874  0.00  0.00    -0.053 A 
ATOM     33  CBR G4T d   1      18.209 -15.501  -6.845  0.00  0.00     0.060 A 
ATOM     34  H6  G4T d   1      18.125 -13.484  -6.117  0.00  0.00     0.086 H 
ATOM     35  CBP G4T d   1      19.073 -15.958  -5.855  0.00  0.00     0.278 A 
ATOM     36  CBQ G4T d   1      17.762 -16.378  -7.820  0.00  0.00     0.056 A 
ATOM     37  OAD G4T d   1      19.485 -15.201  -4.978  0.00  0.00    -0.265 OA
ATOM     38  NBE G4T d   1      19.480 -17.299  -5.857  0.00  0.00    -0.226 NA
ATOM     39  CAJ G4T d   1      19.051 -18.132  -6.789  0.00  0.00    -0.009 A 
ATOM     40  CAS G4T d   1      18.186 -17.701  -7.790  0.00  0.00     0.007 A 
ATOM     41  H7  G4T d   1      19.379 -19.170  -6.773  0.00  0.00     0.108 H 
ATOM     42  H8  G4T d   1      17.281 -18.323  -7.717  0.00  0.00     0.050 H 
ATOM     43  H9  G4T d   1      18.688 -17.895  -8.749  0.00  0.00     0.050 H 
ATOM     44  NBA G4T d   1      16.929 -15.951  -8.781  0.00  0.00    -0.251 NA
BRANCH  31  45
ATOM     45  CBK G4T d   1      16.542 -12.408  -7.845  0.00  0.00    -0.024 A 
ATOM     46  CAK G4T d   1      16.704 -11.581  -8.956  0.00  0.00    -0.072 A 
ATOM     47  CAH G4T d   1      16.328 -10.245  -8.896  0.00  0.00    -0.082 A 
ATOM     48  H1  G4T d   1      17.125 -11.982  -9.871  0.00  0.00     0.084 H 
ATOM     49  CAG G4T d   1      15.805  -9.722  -7.718  0.00  0.00    -0.083 A 
ATOM     50  H2  G4T d   1      16.442  -9.610  -9.767  0.00  0.00     0.083 H 
ATOM     51  CAI G4T d   1      15.657 -10.542  -6.605  0.00  0.00    -0.082 A 
ATOM     52  H3  G4T d   1      15.514  -8.679  -7.668  0.00  0.00     0.083 H 
ATOM     53  CAL G4T d   1      16.032 -11.879  -6.668  0.00  0.00    -0.072 A 
ATOM     54  H4  G4T d   1      15.248 -10.138  -5.686  0.00  0.00     0.083 H 
ATOM     55  H5  G4T d   1      15.925 -12.511  -5.794  0.00  0.00     0.084 H 
ENDBRANCH  31  45
ENDBRANCH  24  30
ENDBRANCH  17  20
ENDBRANCH   1  17
BRANCH   6  56
ATOM     56  NBD G4T d   1      11.135 -17.465 -16.655  0.00  0.00    -0.338 N 
ATOM     57  CBG G4T d   1      10.009 -17.723 -17.331  0.00  0.00     0.321 C 
ATOM     58  OAC G4T d   1       8.975 -17.101 -17.087  0.00  0.00    -0.247 OA
ATOM     59  NBB G4T d   1      10.076 -18.697 -18.259  0.00  0.00    -0.309 N 
ATOM     60  H27 G4T d   1      10.939 -19.178 -18.414  0.00  0.00     0.170 HD
ATOM     61  H26 G4T d   1      11.952 -18.007 -16.851  0.00  0.00     0.164 HD
BRANCH  59  62
ATOM     62  CBJ G4T d   1       8.994 -19.024 -18.974  0.00  0.00     0.038 A 
ATOM     63  CAT G4T d   1       8.263 -18.065 -19.675  0.00  0.00    -0.030 A 
ATOM     64  CBM G4T d   1       7.146 -18.447 -20.407  0.00  0.00     0.058 A 
ATOM     65  H28 G4T d   1       8.566 -17.024 -19.649  0.00  0.00     0.090 H 
ATOM     66  CBI G4T d   1       6.763 -19.780 -20.476  0.00  0.00     0.060 A 
ATOM     67  CAO G4T d   1       7.500 -20.737 -19.789  0.00  0.00    -0.058 A 
ATOM     68 CL   G4T d   1       5.382 -20.251 -21.396  0.00  0.00    -0.082 Cl
ATOM     69  CAP G4T d   1       8.614 -20.359 -19.046  0.00  0.00    -0.055 A 
ATOM     70  H30 G4T d   1       7.207 -21.780 -19.832  0.00  0.00     0.086 H 
ATOM     71  H29 G4T d   1       9.190 -21.111 -18.519  0.00  0.00     0.087 H 
BRANCH  64  72
ATOM     72  NBC G4T d   1       6.406 -17.574 -21.088  0.00  0.00    -0.326 N 
ATOM     73  CBF G4T d   1       5.728 -16.638 -20.400  0.00  0.00     0.221 C 
ATOM     74  OAB G4T d   1       5.726 -16.535 -19.174  0.00  0.00    -0.273 OA
ATOM     75  H31 G4T d   1       6.356 -17.613 -22.086  0.00  0.00     0.169 HD
BRANCH  73  76
ATOM     76  CAF G4T d   1       4.913 -15.676 -21.270  0.00  0.00     0.006 C 
ATOM     77  H32 G4T d   1       4.198 -16.273 -21.854  0.00  0.00     0.046 H 
ATOM     78  H33 G4T d   1       5.609 -15.167 -21.953  0.00  0.00     0.046 H 
BRANCH  76  79
ATOM     79  CAA G4T d   1       4.125 -14.604 -20.520  0.00  0.00    -0.068 C 
ATOM     80  H34 G4T d   1       3.582 -13.976 -21.242  0.00  0.00     0.028 H 
ATOM     81  H35 G4T d   1       4.818 -13.979 -19.939  0.00  0.00     0.028 H 
ATOM     82  H36 G4T d   1       3.407 -15.085 -19.840  0.00  0.00     0.028 H 
ENDBRANCH  76  79
ENDBRANCH  73  76
ENDBRANCH  64  72
ENDBRANCH  59  62
ENDBRANCH   6  56
TORSDOF 9
