REMARK  9 active torsions:
REMARK  status: ('A' for Active; 'I' for Inactive)
REMARK    1  A    between atoms: CBG_6  and  CBH_7 
REMARK    2  A    between atoms: CBM_17  and  CBF_18 
REMARK    3  A    between atoms: CBC_23  and  CAW_24 
REMARK    4  A    between atoms: CAW_24  and  NAV_25 
REMARK    5  A    between atoms: CAS_30  and  NAN_31 
REMARK       I    between atoms: NAN_31  and  CAM_32 
REMARK    6  A    between atoms: CAM_32  and  CAK_34 
REMARK    7  A    between atoms: CAI_39  and  NAB_40 
REMARK       I    between atoms: NAB_40  and  CAA_41 
REMARK    8  A    between atoms: CAA_41  and  CAF_43 
REMARK    9  A    between atoms: CAF_43  and  CAG_44 
ROOT
ATOM      1  NAV G4N d   1      -3.343   5.043  -9.075  0.00  0.00    -0.067 N 
ATOM      2  CAU G4N d   1      -2.380   5.942  -9.729  0.00  0.00     0.086 C 
ATOM      3  CAT G4N d   1      -1.291   6.386  -8.756  0.00  0.00    -0.023 C 
ATOM      4  CAO G4N d   1      -3.957   5.705  -7.917  0.00  0.00     0.086 C 
ATOM      5  CAP G4N d   1      -2.919   6.112  -6.900  0.00  0.00    -0.023 C 
ATOM      6  CAS G4N d   1      -1.964   7.078  -7.570  0.00  0.00     0.015 C 
ATOM      7  H16 G4N d   1      -2.876   4.197  -8.789  0.00  0.00     0.280 HD
ATOM      8  H17 G4N d   1      -2.913   6.830 -10.101  0.00  0.00     0.076 H 
ATOM      9  H18 G4N d   1      -1.913   5.414 -10.574  0.00  0.00     0.076 H 
ATOM     10  H19 G4N d   1      -0.607   7.087  -9.257  0.00  0.00     0.038 H 
ATOM     11  H20 G4N d   1      -0.726   5.510  -8.405  0.00  0.00     0.038 H 
ATOM     12  H21 G4N d   1      -4.668   5.012  -7.444  0.00  0.00     0.076 H 
ATOM     13  H22 G4N d   1      -4.492   6.602  -8.260  0.00  0.00     0.076 H 
ATOM     14  H23 G4N d   1      -2.370   5.225  -6.551  0.00  0.00     0.038 H 
ATOM     15  H24 G4N d   1      -3.406   6.602  -6.044  0.00  0.00     0.038 H 
ATOM     16  H25 G4N d   1      -2.542   7.933  -7.951  0.00  0.00     0.072 H 
ENDROOT
BRANCH   1  17
ATOM     17  CAW G4N d   1      -4.442   4.738  -9.996  0.00  0.00     0.107 C 
ATOM     18  H14 G4N d   1      -5.264   4.288  -9.419  0.00  0.00     0.083 H 
ATOM     19  H15 G4N d   1      -4.785   5.679 -10.451  0.00  0.00     0.083 H 
BRANCH  17  20
ATOM     20  CBC G4N d   1      -4.089   3.861 -11.015  0.00  0.00    -0.033 A 
ATOM     21  CAR G4N d   1      -4.346   4.229 -12.327  0.00  0.00    -0.074 A 
ATOM     22  CBA G4N d   1      -4.004   3.371 -13.360  0.00  0.00    -0.070 A 
ATOM     23  H11 G4N d   1      -4.812   5.183 -12.543  0.00  0.00     0.084 H 
ATOM     24  CBF G4N d   1      -3.431   2.128 -13.096  0.00  0.00    -0.006 A 
ATOM     25  H10 G4N d   1      -4.184   3.670 -14.386  0.00  0.00     0.084 H 
ATOM     26  CAX G4N d   1      -3.173   1.765 -11.777  0.00  0.00    -0.070 A 
ATOM     27  CAY G4N d   1      -3.509   2.627 -10.738  0.00  0.00    -0.074 A 
ATOM     28  H12 G4N d   1      -2.710   0.809 -11.559  0.00  0.00     0.084 H 
ATOM     29  H13 G4N d   1      -3.319   2.337  -9.711  0.00  0.00     0.084 H 
BRANCH  24  30
ATOM     30  CBM G4N d   1      -3.097   1.273 -14.153  0.00  0.00     0.078 A 
ATOM     31  CBH G4N d   1      -4.023   0.850 -15.124  0.00  0.00     0.005 A 
ATOM     32  CBI G4N d   1      -3.603   0.013 -16.150  0.00  0.00    -0.053 A 
ATOM     33  CBQ G4N d   1      -2.278  -0.394 -16.192  0.00  0.00     0.060 A 
ATOM     34  H6  G4N d   1      -4.303  -0.318 -16.909  0.00  0.00     0.086 H 
ATOM     35  CBR G4N d   1      -1.816  -1.236 -17.201  0.00  0.00     0.278 A 
ATOM     36  CBP G4N d   1      -1.400   0.046 -15.213  0.00  0.00     0.056 A 
ATOM     37  OBK G4N d   1      -2.569  -1.645 -18.086  0.00  0.00    -0.265 OA
ATOM     38  NBN G4N d   1      -0.469  -1.622 -17.208  0.00  0.00    -0.226 NA
ATOM     39  CBO G4N d   1       0.364  -1.201 -16.273  0.00  0.00    -0.009 A 
ATOM     40  CBJ G4N d   1      -0.073  -0.362 -15.257  0.00  0.00     0.007 A 
ATOM     41  H7  G4N d   1       1.406  -1.516 -16.300  0.00  0.00     0.108 H 
ATOM     42  H8  G4N d   1       0.538   0.551 -15.315  0.00  0.00     0.050 H 
ATOM     43  H9  G4N d   1       0.131  -0.880 -14.308  0.00  0.00     0.050 H 
ATOM     44  NBL G4N d   1      -1.823   0.855 -14.231  0.00  0.00    -0.251 NA
BRANCH  31  45
ATOM     45  CBG G4N d   1      -5.367   1.230 -15.116  0.00  0.00    -0.024 A 
ATOM     46  CAQ G4N d   1      -5.924   1.795 -16.254  0.00  0.00    -0.072 A 
ATOM     47  CBB G4N d   1      -7.260   2.179 -16.255  0.00  0.00    -0.082 A 
ATOM     48  H1  G4N d   1      -5.318   1.937 -17.142  0.00  0.00     0.084 H 
ATOM     49  CBD G4N d   1      -8.043   1.993 -15.123  0.00  0.00    -0.083 A 
ATOM     50  H2  G4N d   1      -7.693   2.626 -17.143  0.00  0.00     0.083 H 
ATOM     51  CBE G4N d   1      -7.494   1.421 -13.982  0.00  0.00    -0.082 A 
ATOM     52  H3  G4N d   1      -9.084   2.295 -15.130  0.00  0.00     0.083 H 
ATOM     53  CAZ G4N d   1      -6.163   1.031 -13.986  0.00  0.00    -0.072 A 
ATOM     54  H4  G4N d   1      -8.101   1.281 -13.095  0.00  0.00     0.083 H 
ATOM     55  H5  G4N d   1      -5.737   0.567 -13.104  0.00  0.00     0.084 H 
ENDBRANCH  31  45
ENDBRANCH  24  30
ENDBRANCH  17  20
ENDBRANCH   1  17
BRANCH   6  56
ATOM     56  NAN G4N d   1      -0.978   7.589  -6.603  0.00  0.00    -0.352 N 
ATOM     57  CAM G4N d   1      -0.100   6.838  -5.920  0.00  0.00     0.252 C 
ATOM     58  OAL G4N d   1       0.010   5.615  -6.005  0.00  0.00    -0.268 OA
ATOM     59  H26 G4N d   1      -0.961   8.576  -6.442  0.00  0.00     0.163 HD
BRANCH  57  60
ATOM     60  CAK G4N d   1       0.718   7.575  -5.073  0.00  0.00     0.034 A 
ATOM     61  CAJ G4N d   1       0.561   8.954  -5.008  0.00  0.00    -0.042 A 
ATOM     62  CAI G4N d   1       1.365   9.710  -4.167  0.00  0.00     0.035 A 
ATOM     63  H27 G4N d   1      -0.192   9.441  -5.617  0.00  0.00     0.088 H 
ATOM     64  CAH G4N d   1       2.337   9.089  -3.394  0.00  0.00    -0.057 A 
ATOM     65  CAD G4N d   1       2.494   7.710  -3.459  0.00  0.00    -0.080 A 
ATOM     66  H30 G4N d   1       2.971   9.678  -2.742  0.00  0.00     0.086 H 
ATOM     67  CAC G4N d   1       1.688   6.950  -4.299  0.00  0.00    -0.068 A 
ATOM     68  H29 G4N d   1       3.249   7.224  -2.852  0.00  0.00     0.083 H 
ATOM     69  H28 G4N d   1       1.816   5.875  -4.350  0.00  0.00     0.085 H 
BRANCH  62  70
ATOM     70  NAB G4N d   1       1.200  11.029  -4.129  0.00  0.00    -0.327 N 
ATOM     71  CAA G4N d   1       1.804  11.712  -5.110  0.00  0.00     0.221 C 
ATOM     72  OAE G4N d   1       2.482  11.182  -5.983  0.00  0.00    -0.273 OA
ATOM     73  H31 G4N d   1       0.662  11.480  -3.417  0.00  0.00     0.169 HD
BRANCH  71  74
ATOM     74  CAF G4N d   1       1.623  13.224  -5.098  0.00  0.00     0.006 C 
ATOM     75  H32 G4N d   1       2.018  13.611  -4.147  0.00  0.00     0.046 H 
ATOM     76  H33 G4N d   1       0.547  13.443  -5.164  0.00  0.00     0.046 H 
BRANCH  74  77
ATOM     77  CAG G4N d   1       2.331  13.948  -6.242  0.00  0.00    -0.068 C 
ATOM     78  H34 G4N d   1       2.150  15.030  -6.159  0.00  0.00     0.028 H 
ATOM     79  H35 G4N d   1       1.941  13.584  -7.204  0.00  0.00     0.028 H 
ATOM     80  H36 G4N d   1       3.412  13.752  -6.187  0.00  0.00     0.028 H 
ENDBRANCH  74  77
ENDBRANCH  71  74
ENDBRANCH  62  70
ENDBRANCH  57  60
ENDBRANCH   6  56
TORSDOF 9
