REMARK  9 active torsions:
REMARK  status: ('A' for Active; 'I' for Inactive)
REMARK    1  A    between atoms: CBJ_6  and  CBM_7 
REMARK    2  A    between atoms: CBL_17  and  CBI_18 
REMARK    3  A    between atoms: CBF_23  and  CBC_24 
REMARK    4  A    between atoms: CBC_24  and  NBB_25 
REMARK    5  A    between atoms: CAY_30  and  NAQ_31 
REMARK    6  A    between atoms: NAJ_36  and  CAO_37 
REMARK    7  A    between atoms: CAG_41  and  NAC_42 
REMARK       I    between atoms: NAC_42  and  CAB_43 
REMARK    8  A    between atoms: CAB_43  and  CAA_45 
REMARK    9  A    between atoms: CAA_45  and  CAM_46 
ROOT
ATOM      1  NBB G4H d   1      12.599 -14.838 -14.188  0.00  0.00    -0.067 N 
ATOM      2  CBA G4H d   1      11.412 -15.518 -13.643  0.00  0.00     0.086 C 
ATOM      3  CAZ G4H d   1      10.986 -16.706 -14.504  0.00  0.00    -0.023 C 
ATOM      4  CAW G4H d   1      12.292 -14.375 -15.551  0.00  0.00     0.086 C 
ATOM      5  CAX G4H d   1      11.968 -15.545 -16.462  0.00  0.00    -0.023 C 
ATOM      6  CAY G4H d   1      10.724 -16.233 -15.940  0.00  0.00     0.025 C 
ATOM      7  H16 G4H d   1      13.387 -15.466 -14.197  0.00  0.00     0.280 HD
ATOM      8  H17 G4H d   1      10.581 -14.798 -13.595  0.00  0.00     0.076 H 
ATOM      9  H18 G4H d   1      11.643 -15.879 -12.630  0.00  0.00     0.076 H 
ATOM     10  H19 G4H d   1      10.067 -17.147 -14.091  0.00  0.00     0.038 H 
ATOM     11  H20 G4H d   1      11.786 -17.461 -14.508  0.00  0.00     0.038 H 
ATOM     12  H21 G4H d   1      13.163 -13.836 -15.953  0.00  0.00     0.076 H 
ATOM     13  H22 G4H d   1      11.427 -13.697 -15.514  0.00  0.00     0.076 H 
ATOM     14  H23 G4H d   1      12.809 -16.254 -16.468  0.00  0.00     0.038 H 
ATOM     15  H24 G4H d   1      11.789 -15.180 -17.484  0.00  0.00     0.038 H 
ATOM     16  H25 G4H d   1       9.905 -15.499 -15.910  0.00  0.00     0.073 H 
ENDROOT
BRANCH   1  17
ATOM     17  CBC G4H d   1      12.896 -13.651 -13.371  0.00  0.00     0.107 C 
ATOM     18  H14 G4H d   1      13.365 -12.893 -14.016  0.00  0.00     0.083 H 
ATOM     19  H15 G4H d   1      11.949 -13.258 -12.972  0.00  0.00     0.083 H 
BRANCH  17  20
ATOM     20  CBF G4H d   1      13.752 -13.909 -12.300  0.00  0.00    -0.033 A 
ATOM     21  CBG G4H d   1      13.337 -13.618 -11.006  0.00  0.00    -0.074 A 
ATOM     22  CBH G4H d   1      14.183 -13.863  -9.927  0.00  0.00    -0.070 A 
ATOM     23  H11 G4H d   1      12.352 -13.199 -10.836  0.00  0.00     0.084 H 
ATOM     24  CBI G4H d   1      15.459 -14.383 -10.139  0.00  0.00    -0.006 A 
ATOM     25  H10 G4H d   1      13.848 -13.649  -8.919  0.00  0.00     0.084 H 
ATOM     26  CBD G4H d   1      15.871 -14.681 -11.433  0.00  0.00    -0.070 A 
ATOM     27  CBE G4H d   1      15.025 -14.436 -12.513  0.00  0.00    -0.074 A 
ATOM     28  H12 G4H d   1      16.854 -15.105 -11.602  0.00  0.00     0.084 H 
ATOM     29  H13 G4H d   1      15.357 -14.656 -13.521  0.00  0.00     0.084 H 
BRANCH  24  30
ATOM     30  CBL G4H d   1      16.313 -14.652  -9.068  0.00  0.00     0.078 A 
ATOM     31  CBM G4H d   1      16.726 -13.700  -8.122  0.00  0.00     0.005 A 
ATOM     32  CBN G4H d   1      17.568 -14.104  -7.092  0.00  0.00    -0.053 A 
ATOM     33  CBS G4H d   1      17.985 -15.423  -7.016  0.00  0.00     0.060 A 
ATOM     34  H6  G4H d   1      17.898 -13.387  -6.349  0.00  0.00     0.086 H 
ATOM     35  CBQ G4H d   1      18.828 -15.844  -5.996  0.00  0.00     0.278 A 
ATOM     36  CBP G4H d   1      17.551 -16.327  -7.968  0.00  0.00     0.056 A 
ATOM     37  OAN G4H d   1      19.222 -15.053  -5.143  0.00  0.00    -0.265 OA
ATOM     38  NBT G4H d   1      19.234 -17.183  -5.938  0.00  0.00    -0.226 NA
ATOM     39  CBR G4H d   1      18.819 -18.047  -6.848  0.00  0.00    -0.009 A 
ATOM     40  CBO G4H d   1      17.972 -17.649  -7.881  0.00  0.00     0.007 A 
ATOM     41  H7  G4H d   1      19.143 -19.085  -6.790  0.00  0.00     0.108 H 
ATOM     42  H8  G4H d   1      17.065 -18.266  -7.803  0.00  0.00     0.050 H 
ATOM     43  H9  G4H d   1      18.491 -17.879  -8.823  0.00  0.00     0.050 H 
ATOM     44  NBK G4H d   1      16.737 -15.924  -8.954  0.00  0.00    -0.251 NA
BRANCH  31  45
ATOM     45  CBJ G4H d   1      16.360 -12.354  -8.127  0.00  0.00    -0.024 A 
ATOM     46  CAR G4H d   1      15.858 -11.802  -6.954  0.00  0.00    -0.072 A 
ATOM     47  CAS G4H d   1      15.494 -10.462  -6.913  0.00  0.00    -0.082 A 
ATOM     48  H1  G4H d   1      15.750 -12.419  -6.069  0.00  0.00     0.084 H 
ATOM     49  CAT G4H d   1      15.645  -9.663  -8.039  0.00  0.00    -0.083 A 
ATOM     50  H2  G4H d   1      15.091 -10.039  -6.000  0.00  0.00     0.083 H 
ATOM     51  CAU G4H d   1      16.160 -10.206  -9.211  0.00  0.00    -0.082 A 
ATOM     52  H3  G4H d   1      15.362  -8.617  -8.004  0.00  0.00     0.083 H 
ATOM     53  CAV G4H d   1      16.525 -11.547  -9.251  0.00  0.00    -0.072 A 
ATOM     54  H4  G4H d   1      16.277  -9.585 -10.092  0.00  0.00     0.083 H 
ATOM     55  H5  G4H d   1      16.940 -11.966 -10.160  0.00  0.00     0.084 H 
ENDBRANCH  31  45
ENDBRANCH  24  30
ENDBRANCH  17  20
ENDBRANCH   1  17
BRANCH   6  56
ATOM     56  NAQ G4H d   1      10.311 -17.333 -16.862  0.00  0.00    -0.292 N 
ATOM     57  CAL G4H d   1       9.289 -17.315 -17.728  0.00  0.00     0.068 A 
ATOM     58  CAH G4H d   1       8.372 -16.381 -18.005  0.00  0.00    -0.029 A 
ATOM     59  CAK G4H d   1       9.267 -18.491 -18.375  0.00  0.00     0.065 A 
ATOM     60  CAG G4H d   1       7.388 -16.623 -18.964  0.00  0.00     0.037 A 
ATOM     61  H26 G4H d   1       8.394 -15.432 -17.482  0.00  0.00     0.090 H 
ATOM     62  CAF G4H d   1       7.377 -17.841 -19.623  0.00  0.00    -0.055 A 
ATOM     63  CAE G4H d   1       8.350 -18.770 -19.298  0.00  0.00    -0.052 A 
ATOM     64  H31 G4H d   1       6.626 -18.061 -20.373  0.00  0.00     0.087 H 
ATOM     65  H30 G4H d   1       8.365 -19.731 -19.799  0.00  0.00     0.087 H 
ATOM     66  NAJ G4H d   1      10.272 -19.231 -17.922  0.00  0.00    -0.302 N 
ATOM     67  CAI G4H d   1      10.904 -18.513 -17.010  0.00  0.00     0.330 A 
ATOM     68  OAD G4H d   1      11.889 -18.912 -16.393  0.00  0.00    -0.246 OA
BRANCH  60  69
ATOM     69  NAC G4H d   1       6.447 -15.728 -19.272  0.00  0.00    -0.327 N 
ATOM     70  CAB G4H d   1       5.564 -15.403 -18.315  0.00  0.00     0.221 C 
ATOM     71  OAP G4H d   1       5.577 -15.863 -17.176  0.00  0.00    -0.273 OA
ATOM     72  H32 G4H d   1       6.402 -15.315 -20.182  0.00  0.00     0.169 HD
BRANCH  70  73
ATOM     73  CAA G4H d   1       4.490 -14.400 -18.732  0.00  0.00     0.006 C 
ATOM     74  H33 G4H d   1       4.717 -13.438 -18.249  0.00  0.00     0.046 H 
ATOM     75  H34 G4H d   1       3.519 -14.771 -18.371  0.00  0.00     0.046 H 
BRANCH  73  76
ATOM     76  CAM G4H d   1       4.374 -14.158 -20.237  0.00  0.00    -0.068 C 
ATOM     77  H35 G4H d   1       3.577 -13.425 -20.430  0.00  0.00     0.028 H 
ATOM     78  H36 G4H d   1       4.132 -15.104 -20.743  0.00  0.00     0.028 H 
ATOM     79  H37 G4H d   1       5.329 -13.771 -20.621  0.00  0.00     0.028 H 
ENDBRANCH  73  76
ENDBRANCH  70  73
ENDBRANCH  60  69
BRANCH  66  80
ATOM     80  CAO G4H d   1      10.621 -20.599 -18.359  0.00  0.00    -0.009 C 
ATOM     81  H27 G4H d   1      11.502 -20.948 -17.801  0.00  0.00     0.057 H 
ATOM     82  H28 G4H d   1      10.847 -20.594 -19.436  0.00  0.00     0.057 H 
ATOM     83  H29 G4H d   1       9.774 -21.273 -18.165  0.00  0.00     0.057 H 
ENDBRANCH  66  80
ENDBRANCH   6  56
TORSDOF 9
