REMARK  19 active torsions:
REMARK  status: ('A' for Active; 'I' for Inactive)
REMARK    1  A    between atoms: N_1  and  CA_2 
REMARK    2  A    between atoms: CA_2  and  C_3 
REMARK    3  A    between atoms: CA_2  and  CB_5 
REMARK       I    between atoms: C_3  and  N_12 
REMARK    4  A    between atoms: CB_5  and  CG_6 
REMARK    5  A    between atoms: CA_13  and  C_14 
REMARK       I    between atoms: C_14  and  N_19 
REMARK    6  A    between atoms: N_19  and  CA_20 
REMARK    7  A    between atoms: CA_20  and  C_21 
REMARK    8  A    between atoms: CA_20  and  CB_23 
REMARK       I    between atoms: C_21  and  N_24 
REMARK    9  A    between atoms: N_24  and  CA_25 
REMARK   10  A    between atoms: CA_25  and  CB_26 
REMARK   11  A    between atoms: CA_25  and  C_33 
REMARK   12  A    between atoms: CB_26  and  CG2_27 
REMARK   13  A    between atoms: CB_26  and  OG1_28 
REMARK   14  A    between atoms: OG1_28  and  P_29 
REMARK       I    between atoms: C_33  and  N_35 
REMARK   15  A    between atoms: N_35  and  CA_36 
REMARK   16  A    between atoms: CA_36  and  C_37 
REMARK   17  A    between atoms: CA_36  and  CB_39 
REMARK   18  A    between atoms: CB_39  and  CG1_40 
REMARK   19  A    between atoms: CB_39  and  CG2_41 
ROOT
ATOM      1  CA  PHE d   1      13.295  14.240  10.215  0.00  0.00     0.086 C 
ATOM      2  H20 PHE d   1      13.687  13.325   9.747  0.00  0.00     0.086 H 
ENDROOT
BRANCH   1   3
ATOM      3  N   PHE d   1      12.865  13.906  11.563  0.00  0.00    -0.346 N 
ATOM      4  C   PHE d   1      13.578  13.075  12.320  0.00  0.00     0.241 C 
ATOM      5  O   PHE d   1      14.653  12.597  11.953  0.00  0.00    -0.271 OA
ATOM      6  H19 PHE d   1      12.023  14.306  11.926  0.00  0.00     0.163 HD
BRANCH   4   7
ATOM      7  CA  PHE d   1      12.970  12.746  13.675  0.00  0.00     0.091 C 
ATOM      8  N   PHE d   1      13.558  11.526  14.238  0.00  0.00    -0.337 N 
ATOM      9  C   PHE d   1      13.210  10.331  13.760  0.00  0.00     0.251 C 
ATOM     10  CD  PHE d   1      14.519  11.825  15.318  0.00  0.00    -0.001 C 
ATOM     11  O   PHE d   1      12.365  10.188  12.869  0.00  0.00    -0.271 OA
ATOM     12  CG  PHE d   1      14.615  13.343  15.288  0.00  0.00    -0.048 A 
ATOM     13  H17 PHE d   1      15.497  11.364  15.115  0.00  0.00     0.064 H 
ATOM     14  H18 PHE d   1      14.142  11.473  16.290  0.00  0.00     0.064 H 
ATOM     15  CB  PHE d   1      13.315  13.815  14.715  0.00  0.00    -0.036 C 
ATOM     16  H15 PHE d   1      14.754  13.739  16.305  0.00  0.00     0.035 H 
ATOM     17  H16 PHE d   1      15.454  13.663  14.652  0.00  0.00     0.035 H 
ATOM     18  H13 PHE d   1      12.540  13.870  15.493  0.00  0.00     0.036 H 
ATOM     19  H14 PHE d   1      13.430  14.801  14.241  0.00  0.00     0.036 H 
ATOM     20  H12 PHE d   1      11.880  12.642  13.568  0.00  0.00     0.087 H 
BRANCH   9  21
ATOM     21  CA  PHE d   1      13.908   9.108  14.373  0.00  0.00     0.179 C 
ATOM     22  H4  PHE d   1      14.149   9.343  15.420  0.00  0.00     0.099 H 
BRANCH  21  23
ATOM     23  N   PHE d   1      13.043   7.932  14.362  0.00  0.00    -0.066 N 
ATOM     24  H1  PHE d   1      13.532   7.151  14.771  0.00  0.00     0.275 HD
ATOM     25  H2  PHE d   1      12.790   7.710  13.412  0.00  0.00     0.275 HD
ATOM     26  H3  PHE d   1      12.210   8.123  14.896  0.00  0.00     0.275 HD
ENDBRANCH  21  23
BRANCH  21  27
ATOM     27  CB  PHE d   1      15.221   8.813  13.631  0.00  0.00    -0.006 C 
ATOM     28  H5  PHE d   1      15.815   8.119  14.243  0.00  0.00     0.043 H 
ATOM     29  H6  PHE d   1      15.770   9.759  13.511  0.00  0.00     0.043 H 
BRANCH  27  30
ATOM     30  CG  PHE d   1      15.033   8.200  12.270  0.00  0.00    -0.056 A 
ATOM     31  CD1 PHE d   1      14.913   9.000  11.141  0.00  0.00    -0.077 A 
ATOM     32  CE1 PHE d   1      14.739   8.430   9.884  0.00  0.00    -0.082 A 
ATOM     33  H7  PHE d   1      14.955  10.079  11.240  0.00  0.00     0.084 H 
ATOM     34  CZ  PHE d   1      14.693   7.051   9.750  0.00  0.00    -0.083 A 
ATOM     35  H9  PHE d   1      14.639   9.064   9.010  0.00  0.00     0.083 H 
ATOM     36  CE2 PHE d   1      14.814   6.249  10.864  0.00  0.00    -0.082 A 
ATOM     37  H11 PHE d   1      14.562   6.604   8.771  0.00  0.00     0.083 H 
ATOM     38  CD2 PHE d   1      14.988   6.820  12.115  0.00  0.00    -0.077 A 
ATOM     39  H10 PHE d   1      14.773   5.171  10.762  0.00  0.00     0.083 H 
ATOM     40  H8  PHE d   1      15.090   6.181  12.985  0.00  0.00     0.084 H 
ENDBRANCH  27  30
ENDBRANCH  21  27
ENDBRANCH   9  21
ENDBRANCH   4   7
ENDBRANCH   1   3
BRANCH   1  41
ATOM     41  C   PHE d   1      14.410  15.285  10.213  0.00  0.00     0.240 C 
ATOM     42  O   PHE d   1      14.355  16.252  10.962  0.00  0.00    -0.271 OA
ATOM     43  N   PHE d   1      15.417  15.061   9.371  0.00  0.00    -0.344 N 
ATOM     44  H24 PHE d   1      15.444  14.180   8.899  0.00  0.00     0.163 HD
BRANCH  43  45
ATOM     45  CA  PHE d   1      16.489  16.023   9.091  0.00  0.00     0.114 C 
ATOM     46  H25 PHE d   1      16.172  17.026   9.413  0.00  0.00     0.091 H 
BRANCH  45  47
ATOM     47  CB  PHE d   1      17.783  15.653   9.835  0.00  0.00     0.076 C 
ATOM     48  H26 PHE d   1      18.627  16.263   9.481  0.00  0.00     0.087 H 
BRANCH  47  49
ATOM     49  CG2 PHE d   1      17.608  15.865  11.344  0.00  0.00    -0.049 C 
ATOM     50  H27 PHE d   1      18.540  15.597  11.863  0.00  0.00     0.031 H 
ATOM     51  H28 PHE d   1      16.788  15.230  11.711  0.00  0.00     0.031 H 
ATOM     52  H29 PHE d   1      17.370  16.921  11.541  0.00  0.00     0.031 H 
ENDBRANCH  47  49
BRANCH  47  53
ATOM     53  OG1 PHE d   1      17.984  14.281   9.496  0.00  0.00    -0.275 OA
BRANCH  53  54
ATOM     54  P   PHE d   1      19.442  13.699   9.869  0.00  0.00     0.422 P 
ATOM     55  O1P PHE d   1      19.571  12.366   8.993  0.00  0.00    -0.617 OA
ATOM     56  O2P PHE d   1      19.446  13.331  11.300  0.00  0.00    -0.617 OA
ATOM     57  O3P PHE d   1      20.605  14.743   9.516  0.00  0.00    -0.617 OA
ENDBRANCH  53  54
ENDBRANCH  47  53
ENDBRANCH  45  47
BRANCH  45  58
ATOM     58  C   PHE d   1      16.717  16.021   7.583  0.00  0.00     0.243 C 
ATOM     59  O   PHE d   1      16.390  15.036   6.917  0.00  0.00    -0.271 OA
ATOM     60  N   PHE d   1      17.250  17.111   7.035  0.00  0.00    -0.344 N 
ATOM     61  H30 PHE d   1      17.457  17.899   7.614  0.00  0.00     0.163 HD
BRANCH  60  62
ATOM     62  CA  PHE d   1      17.538  17.178   5.604  0.00  0.00     0.099 C 
ATOM     63  H31 PHE d   1      17.370  16.177   5.181  0.00  0.00     0.090 H 
BRANCH  62  64
ATOM     64  C   PHE d   1      18.975  17.561   5.361  0.00  0.00     0.197 C 
ATOM     65  O   PHE d   1      19.724  17.858   6.294  0.00  0.00    -0.646 OA
ATOM     66  OXT PHE d   1      19.400  17.594   4.200  0.00  0.00    -0.646 OA
ENDBRANCH  62  64
BRANCH  62  67
ATOM     67  CB  PHE d   1      16.616  18.173   4.862  0.00  0.00    -0.032 C 
ATOM     68  H32 PHE d   1      16.930  18.215   3.809  0.00  0.00     0.042 H 
BRANCH  67  69
ATOM     69  CG1 PHE d   1      15.190  17.703   4.904  0.00  0.00    -0.071 C 
ATOM     70  H33 PHE d   1      14.551  18.423   4.372  0.00  0.00     0.028 H 
ATOM     71  H34 PHE d   1      14.861  17.624   5.950  0.00  0.00     0.028 H 
ATOM     72  H35 PHE d   1      15.114  16.718   4.420  0.00  0.00     0.028 H 
ENDBRANCH  67  69
BRANCH  67  73
ATOM     73  CG2 PHE d   1      16.762  19.572   5.457  0.00  0.00    -0.071 C 
ATOM     74  H36 PHE d   1      17.816  19.882   5.410  0.00  0.00     0.028 H 
ATOM     75  H37 PHE d   1      16.430  19.561   6.506  0.00  0.00     0.028 H 
ATOM     76  H38 PHE d   1      16.145  20.280   4.884  0.00  0.00     0.028 H 
ENDBRANCH  67  73
ENDBRANCH  62  67
ENDBRANCH  60  62
ENDBRANCH  45  58
ENDBRANCH  43  45
ENDBRANCH   1  41
BRANCH   1  77
ATOM     77  CB  PHE d   1      12.115  14.731   9.390  0.00  0.00    -0.049 C 
ATOM     78  H21 PHE d   1      12.456  14.979   8.374  0.00  0.00     0.030 H 
ATOM     79  H22 PHE d   1      11.685  15.627   9.862  0.00  0.00     0.030 H 
ATOM     80  H23 PHE d   1      11.351  13.942   9.338  0.00  0.00     0.030 H 
ENDBRANCH   1  77
TORSDOF 19
