REMARK  12 active torsions:
REMARK  status: ('A' for Active; 'I' for Inactive)
REMARK    1  A    between atoms: C10_1  and  C11_19 
REMARK    2  A    between atoms: N14_21  and  C13_2 
REMARK       I    between atoms: C15_3  and  N14_21 
REMARK    3  A    between atoms: C16_22  and  C15_3 
REMARK    4  A    between atoms: C17_4  and  C16_22 
REMARK    5  A    between atoms: C18_23  and  C17_4 
REMARK    6  A    between atoms: C21_6  and  C22_7 
REMARK    7  A    between atoms: C02_11  and  N01_10 
REMARK    8  A    between atoms: C09_18  and  C08_17 
REMARK    9  A    between atoms: C18_23  and  C19_24 
REMARK   10  A    between atoms: N35_35  and  C36_36 
REMARK   11  A    between atoms: C36_36  and  C37_37 
REMARK   12  A    between atoms: C36_36  and  C38_38 
ROOT
ATOM      1  C10 G7T d   1       7.680 -28.488  -7.491  0.00  0.00    -0.047 A 
ATOM      2  C13 G7T d   1       7.927 -26.990  -9.356  0.00  0.00     0.035 A 
ATOM      3  C09 G7T d   1       6.273 -28.543  -7.751  0.00  0.00     0.002 A 
ATOM      4  C12 G7T d   1       8.485 -27.723  -8.282  0.00  0.00    -0.051 A 
ATOM      5  C32 G7T d   1       6.570 -27.037  -9.604  0.00  0.00    -0.056 A 
ATOM      6  C33 G7T d   1       5.738 -27.826  -8.794  0.00  0.00    -0.068 A 
ATOM      7  H11 G7T d   1       9.551 -27.676  -8.088  0.00  0.00     0.087 H 
ATOM      8  H16 G7T d   1       6.147 -26.466 -10.423  0.00  0.00     0.086 H 
ATOM      9  H17 G7T d   1       4.673 -27.870  -8.991  0.00  0.00     0.085 H 
ENDROOT
BRANCH   2  10
ATOM     10  N14 G7T d   1       8.810 -26.164 -10.188  0.00  0.00    -0.327 N 
ATOM     11  C15 G7T d   1       9.602 -25.153  -9.538  0.00  0.00     0.222 C 
ATOM     12  O31 G7T d   1       9.535 -24.992  -8.315  0.00  0.00    -0.273 OA
ATOM     13  H12 G7T d   1       8.860 -26.300 -11.178  0.00  0.00     0.169 HD
BRANCH  11  14
ATOM     14  C16 G7T d   1      10.541 -24.265 -10.329  0.00  0.00     0.016 C 
ATOM     15  H13 G7T d   1      10.073 -24.041 -11.299  0.00  0.00     0.047 H 
ATOM     16  H14 G7T d   1      11.481 -24.812 -10.493  0.00  0.00     0.047 H 
BRANCH  14  17
ATOM     17  C17 G7T d   1      10.825 -23.116  -9.725  0.00  0.00     0.003 C 
ATOM     18  H1  G7T d   1      10.298 -23.115  -8.760  0.00  0.00     0.045 H 
ATOM     19  H2  G7T d   1      10.432 -22.307 -10.359  0.00  0.00     0.045 H 
BRANCH  17  20
ATOM     20  C18 G7T d   1      12.296 -22.798  -9.441  0.00  0.00     0.160 C 
ATOM     21  O30 G7T d   1      13.148 -23.598  -9.628  0.00  0.00    -0.292 OA
BRANCH  20  22
ATOM     22  C19 G7T d   1      12.650 -21.384  -8.901  0.00  0.00     0.011 A 
ATOM     23  C20 G7T d   1      13.895 -20.873  -9.152  0.00  0.00    -0.052 A 
ATOM     24  C21 G7T d   1      14.221 -19.612  -8.681  0.00  0.00     0.087 A 
ATOM     25  H3  G7T d   1      14.620 -21.451  -9.715  0.00  0.00     0.086 H 
ATOM     26  C26 G7T d   1      13.301 -18.884  -7.965  0.00  0.00     0.131 A 
ATOM     27  C28 G7T d   1      12.034 -19.404  -7.708  0.00  0.00    -0.044 A 
ATOM     28  F27 G7T d   1      13.619 -17.686  -7.520  0.00  0.00    -0.205 F 
ATOM     29  C29 G7T d   1      11.705 -20.648  -8.175  0.00  0.00    -0.067 A 
ATOM     30  H4  G7T d   1      11.313 -18.826  -7.141  0.00  0.00     0.088 H 
ATOM     31  H15 G7T d   1      10.721 -21.060  -7.984  0.00  0.00     0.085 H 
BRANCH  24  32
ATOM     32  C22 G7T d   1      15.648 -19.038  -8.973  0.00  0.00     0.420 C 
ATOM     33  F23 G7T d   1      15.895 -18.048  -8.141  0.00  0.00    -0.166 F 
ATOM     34  F24 G7T d   1      15.686 -18.601 -10.222  0.00  0.00    -0.166 F 
ATOM     35  F25 G7T d   1      16.530 -19.988  -8.802  0.00  0.00    -0.166 F 
ENDBRANCH  24  32
ENDBRANCH  20  22
ENDBRANCH  17  20
ENDBRANCH  14  17
ENDBRANCH  11  14
ENDBRANCH   2  10
BRANCH   1  36
ATOM     36  C11 G7T d   1       8.347 -29.258  -6.352  0.00  0.00    -0.050 C 
ATOM     37  H8  G7T d   1       9.428 -29.056  -6.356  0.00  0.00     0.033 H 
ATOM     38  H9  G7T d   1       8.175 -30.336  -6.488  0.00  0.00     0.033 H 
ATOM     39  H10 G7T d   1       7.918 -28.937  -5.391  0.00  0.00     0.033 H 
ENDBRANCH   1  36
BRANCH   3  40
ATOM     40  C08 G7T d   1       5.360 -29.411  -6.867  0.00  0.00     0.105 A 
ATOM     41  C07 G7T d   1       4.337 -30.340  -7.266  0.00  0.00     0.088 A 
ATOM     42  C02 G7T d   1       3.743 -30.853  -8.467  0.00  0.00     0.139 A 
ATOM     43  C06 G7T d   1       3.847 -30.858  -5.993  0.00  0.00     0.164 A 
ATOM     44  N03 G7T d   1       2.749 -31.793  -8.392  0.00  0.00    -0.224 NA
ATOM     45  C04 G7T d   1       2.330 -32.241  -7.186  0.00  0.00     0.091 A 
ATOM     46  N05 G7T d   1       2.862 -31.798  -6.031  0.00  0.00    -0.222 NA
ATOM     47  H7  G7T d   1       1.539 -32.982  -7.148  0.00  0.00     0.146 H 
ATOM     48  N35 G7T d   1       4.541 -30.257  -4.991  0.00  0.00    -0.247 N 
ATOM     49  N34 G7T d   1       5.433 -29.404  -5.491  0.00  0.00    -0.169 NA
BRANCH  42  50
ATOM     50  N01 G7T d   1       4.160 -30.406  -9.789  0.00  0.00    -0.383 N 
ATOM     51  H5  G7T d   1       4.904 -29.700  -9.883  0.00  0.00     0.157 HD
ATOM     52  H6  G7T d   1       3.710 -30.796 -10.630  0.00  0.00     0.157 HD
ENDBRANCH  42  50
BRANCH  48  53
ATOM     53  C36 G7T d   1       4.457 -30.428  -3.536  0.00  0.00     0.029 C 
ATOM     54  H18 G7T d   1       5.482 -30.349  -3.144  0.00  0.00     0.074 H 
BRANCH  53  55
ATOM     55  C37 G7T d   1       3.948 -31.793  -3.087  0.00  0.00    -0.056 C 
ATOM     56  H19 G7T d   1       3.918 -31.830  -1.988  0.00  0.00     0.030 H 
ATOM     57  H20 G7T d   1       4.622 -32.577  -3.462  0.00  0.00     0.030 H 
ATOM     58  H21 G7T d   1       2.936 -31.957  -3.487  0.00  0.00     0.030 H 
ENDBRANCH  53  55
BRANCH  53  59
ATOM     59  C38 G7T d   1       3.676 -29.252  -2.977  0.00  0.00    -0.056 C 
ATOM     60  H22 G7T d   1       3.595 -29.351  -1.885  0.00  0.00     0.030 H 
ATOM     61  H23 G7T d   1       2.669 -29.237  -3.419  0.00  0.00     0.030 H 
ATOM     62  H24 G7T d   1       4.198 -28.315  -3.222  0.00  0.00     0.030 H 
ENDBRANCH  53  59
ENDBRANCH  48  53
ENDBRANCH   3  40
TORSDOF 12
