REMARK  10 active torsions:
REMARK  status: ('A' for Active; 'I' for Inactive)
REMARK    1  A    between atoms: C15_2  and  C14_18 
REMARK    2  A    between atoms: C18_21  and  C20_3 
REMARK    3  A    between atoms: C06_11  and  C05_10 
REMARK    4  A    between atoms: C07_12  and  C06_11 
REMARK    5  A    between atoms: C09_14  and  C08_13 
REMARK       I    between atoms: N10_15  and  C09_14 
REMARK    6  A    between atoms: C11_16  and  N10_15 
REMARK    7  A    between atoms: N17_20  and  C18_21 
REMARK    8  A    between atoms: C18_21  and  C19_22 
REMARK    9  A    between atoms: C25_26  and  N26_27 
REMARK   10  A    between atoms: C33_33  and  C34_34 
ROOT
ATOM      1  C13 G7W d   1     -28.421  -8.520  -6.320  0.00  0.00    -0.069 A 
ATOM      2  C28 G7W d   1     -27.603  -9.291  -8.418  0.00  0.00    -0.069 A 
ATOM      3  C11 G7W d   1     -26.083  -9.040  -6.555  0.00  0.00     0.035 A 
ATOM      4  C12 G7W d   1     -27.150  -8.607  -5.786  0.00  0.00    -0.056 A 
ATOM      5  C14 G7W d   1     -28.653  -8.861  -7.654  0.00  0.00    -0.004 A 
ATOM      6  C29 G7W d   1     -26.313  -9.378  -7.874  0.00  0.00    -0.056 A 
ATOM      7  H1  G7W d   1     -29.244  -8.185  -5.699  0.00  0.00     0.085 H 
ATOM      8  H5  G7W d   1     -27.769  -9.567  -9.453  0.00  0.00     0.085 H 
ATOM      9  H11 G7W d   1     -26.986  -8.332  -4.750  0.00  0.00     0.086 H 
ATOM     10  H19 G7W d   1     -25.490  -9.713  -8.494  0.00  0.00     0.086 H 
ENDROOT
BRANCH   3  11
ATOM     11  N10 G7W d   1     -24.754  -9.123  -6.012  0.00  0.00    -0.324 N 
ATOM     12  C09 G7W d   1     -24.484  -9.543  -4.658  0.00  0.00     0.245 C 
ATOM     13  O30 G7W d   1     -25.366  -9.861  -3.902  0.00  0.00    -0.268 OA
ATOM     14  H10 G7W d   1     -23.982  -8.879  -6.599  0.00  0.00     0.169 HD
BRANCH  12  15
ATOM     15  C08 G7W d   1     -23.019  -9.601  -4.165  0.00  0.00    -0.014 C 
ATOM     16  C07 G7W d   1     -22.736  -9.969  -2.879  0.00  0.00    -0.029 C 
ATOM     17  H8  G7W d   1     -23.533 -10.097  -2.147  0.00  0.00     0.089 H 
ATOM     18  H9  G7W d   1     -22.208  -9.347  -4.846  0.00  0.00     0.092 H 
BRANCH  16  19
ATOM     19  C06 G7W d   1     -21.251 -10.201  -2.486  0.00  0.00     0.182 C 
ATOM     20  O31 G7W d   1     -20.367  -9.923  -3.293  0.00  0.00    -0.288 OA
BRANCH  19  21
ATOM     21  C05 G7W d   1     -20.854 -10.750  -1.124  0.00  0.00     0.015 A 
ATOM     22  C04 G7W d   1     -19.504 -10.652  -0.712  0.00  0.00    -0.066 A 
ATOM     23  C03 G7W d   1     -19.103 -11.139   0.533  0.00  0.00    -0.044 A 
ATOM     24  H7  G7W d   1     -18.774 -10.194  -1.370  0.00  0.00     0.085 H 
ATOM     25  C02 G7W d   1     -20.041 -11.725   1.368  0.00  0.00     0.131 A 
ATOM     26  H6  G7W d   1     -18.068 -11.060   0.844  0.00  0.00     0.088 H 
ATOM     27  F01 G7W d   1     -19.662 -12.199   2.568  0.00  0.00    -0.205 F 
ATOM     28  C33 G7W d   1     -21.398 -11.829   0.950  0.00  0.00     0.087 A 
ATOM     29  C32 G7W d   1     -21.805 -11.341  -0.278  0.00  0.00    -0.051 A 
ATOM     30  H20 G7W d   1     -22.843 -11.414  -0.583  0.00  0.00     0.086 H 
BRANCH  28  31
ATOM     31  C34 G7W d   1     -22.415 -12.463   1.884  0.00  0.00     0.420 C 
ATOM     32  F35 G7W d   1     -21.863 -13.473   2.550  0.00  0.00    -0.166 F 
ATOM     33  F36 G7W d   1     -23.487 -12.896   1.175  0.00  0.00    -0.166 F 
ATOM     34  F37 G7W d   1     -22.778 -11.506   2.730  0.00  0.00    -0.166 F 
ENDBRANCH  28  31
ENDBRANCH  19  21
ENDBRANCH  16  19
ENDBRANCH  12  15
ENDBRANCH   3  11
BRANCH   5  35
ATOM     35  C15 G7W d   1     -30.048  -8.768  -8.245  0.00  0.00     0.105 A 
ATOM     36  N16 G7W d   1     -31.148  -9.408  -7.769  0.00  0.00    -0.169 NA
ATOM     37  N17 G7W d   1     -32.203  -9.089  -8.551  0.00  0.00    -0.247 N 
ATOM     38  C21 G7W d   1     -31.856  -8.245  -9.545  0.00  0.00     0.164 A 
ATOM     39  N22 G7W d   1     -32.563  -7.649 -10.573  0.00  0.00    -0.222 NA
ATOM     40  C27 G7W d   1     -30.461  -7.982  -9.406  0.00  0.00     0.088 A 
ATOM     41  C23 G7W d   1     -31.960  -6.847 -11.436  0.00  0.00     0.091 A 
ATOM     42  N24 G7W d   1     -30.648  -6.570 -11.343  0.00  0.00    -0.224 NA
ATOM     43  H16 G7W d   1     -32.538  -6.402 -12.238  0.00  0.00     0.146 H 
ATOM     44  C25 G7W d   1     -29.882  -7.106 -10.366  0.00  0.00     0.139 A 
BRANCH  37  45
ATOM     45  C18 G7W d   1     -33.561  -9.587  -8.378  0.00  0.00     0.029 C 
ATOM     46  H12 G7W d   1     -34.254  -8.733  -8.396  0.00  0.00     0.074 H 
BRANCH  45  47
ATOM     47  C20 G7W d   1     -33.893 -10.489  -9.555  0.00  0.00    -0.056 C 
ATOM     48  H2  G7W d   1     -34.916 -10.876  -9.443  0.00  0.00     0.030 H 
ATOM     49  H3  G7W d   1     -33.184 -11.330  -9.584  0.00  0.00     0.030 H 
ATOM     50  H4  G7W d   1     -33.819  -9.914 -10.490  0.00  0.00     0.030 H 
ENDBRANCH  45  47
BRANCH  45  51
ATOM     51  C19 G7W d   1     -33.709 -10.277  -7.023  0.00  0.00    -0.056 C 
ATOM     52  H13 G7W d   1     -33.454  -9.569  -6.221  0.00  0.00     0.030 H 
ATOM     53  H14 G7W d   1     -33.032 -11.143  -6.976  0.00  0.00     0.030 H 
ATOM     54  H15 G7W d   1     -34.748 -10.616  -6.896  0.00  0.00     0.030 H 
ENDBRANCH  45  51
ENDBRANCH  37  45
BRANCH  44  55
ATOM     55  N26 G7W d   1     -28.497  -6.765 -10.317  0.00  0.00    -0.383 N 
ATOM     56  H17 G7W d   1     -27.895  -7.162  -9.582  0.00  0.00     0.157 HD
ATOM     57  H18 G7W d   1     -28.100  -6.122 -11.017  0.00  0.00     0.157 HD
ENDBRANCH  44  55
ENDBRANCH   5  35
TORSDOF 10
