REMARK  3 active torsions:
REMARK  status: ('A' for Active; 'I' for Inactive)
REMARK    1  A    between atoms: C6_4  and  C7_6 
REMARK       I    between atoms: N2_13  and  C6_4 
REMARK    2  A    between atoms: C7_6  and  C8_7 
REMARK    3  A    between atoms: N2_13  and  C1_15 
ROOT
ATOM      1  C14 G8H d   1     -70.201 -24.878  79.035  0.00  0.00    -0.072 A 
ATOM      2  C11 G8H d   1     -71.103 -23.888  79.511  0.00  0.00    -0.026 A 
ATOM      3  C8  G8H d   1     -72.862 -21.889  80.421  0.00  0.00    -0.049 A 
ATOM      4  C9  G8H d   1     -72.818 -23.157  81.035  0.00  0.00    -0.076 A 
ATOM      5  C10 G8H d   1     -71.963 -24.125  80.602  0.00  0.00    -0.072 A 
ATOM      6  C12 G8H d   1     -71.137 -22.619  78.876  0.00  0.00    -0.025 A 
ATOM      7  C13 G8H d   1     -72.039 -21.638  79.352  0.00  0.00    -0.066 A 
ATOM      8  C15 G8H d   1     -69.382 -24.614  77.982  0.00  0.00    -0.082 A 
ATOM      9  C16 G8H d   1     -69.419 -23.355  77.347  0.00  0.00    -0.082 A 
ATOM     10  C17 G8H d   1     -70.271 -22.385  77.780  0.00  0.00    -0.072 A 
ATOM     11  H2  G8H d   1     -70.166 -25.850  79.514  0.00  0.00     0.084 H 
ATOM     12  H6  G8H d   1     -73.478 -23.366  81.869  0.00  0.00     0.084 H 
ATOM     13  H7  G8H d   1     -71.944 -25.087  81.101  0.00  0.00     0.084 H 
ATOM     14  H8  G8H d   1     -72.081 -20.671  78.864  0.00  0.00     0.085 H 
ATOM     15  H12 G8H d   1     -68.697 -25.376  77.629  0.00  0.00     0.083 H 
ATOM     16  H13 G8H d   1     -68.763 -23.158  76.507  0.00  0.00     0.083 H 
ATOM     17  H14 G8H d   1     -70.287 -21.423  77.280  0.00  0.00     0.084 H 
ENDROOT
BRANCH   3  18
ATOM     18  C7  G8H d   1     -73.837 -20.853  80.916  0.00  0.00     0.033 C 
ATOM     19  H4  G8H d   1     -74.272 -20.334  80.049  0.00  0.00     0.054 H 
ATOM     20  H5  G8H d   1     -74.635 -21.359  81.479  0.00  0.00     0.054 H 
BRANCH  18  21
ATOM     21  C6  G8H d   1     -73.185 -19.836  81.811  0.00  0.00     0.227 C 
ATOM     22  N2  G8H d   1     -73.217 -20.107  83.146  0.00  0.00    -0.311 N 
ATOM     23  H9  G8H d   1     -73.611 -20.989  83.404  0.00  0.00     0.170 HD
ATOM     24  O1  G8H d   1     -72.705 -18.825  81.328  0.00  0.00    -0.273 OA
BRANCH  22  25
ATOM     25  C1  G8H d   1     -72.765 -19.301  84.205  0.00  0.00     0.129 A 
ATOM     26  N1  G8H d   1     -72.850 -19.899  85.400  0.00  0.00    -0.243 NA
ATOM     27  C5  G8H d   1     -72.421 -19.205  86.469  0.00  0.00     0.004 A 
ATOM     28  C4  G8H d   1     -71.908 -17.937  86.402  0.00  0.00    -0.066 A 
ATOM     29  H3  G8H d   1     -72.485 -19.678  87.442  0.00  0.00     0.114 H 
ATOM     30  C3  G8H d   1     -71.818 -17.339  85.163  0.00  0.00    -0.078 A 
ATOM     31  H1  G8H d   1     -71.582 -17.419  87.297  0.00  0.00     0.085 H 
ATOM     32  C2  G8H d   1     -72.249 -18.013  84.042  0.00  0.00    -0.038 A 
ATOM     33  H10 G8H d   1     -71.409 -16.340  85.071  0.00  0.00     0.083 H 
ATOM     34  H11 G8H d   1     -72.189 -17.557  83.061  0.00  0.00     0.089 H 
ENDBRANCH  22  25
ENDBRANCH  18  21
ENDBRANCH   3  18
TORSDOF 3
