REMARK  10 active torsions:
REMARK  status: ('A' for Active; 'I' for Inactive)
REMARK    1  A    between atoms: N1_1  and  C1_16 
REMARK       I    between atoms: C15_11  and  N5_5 
REMARK    2  A    between atoms: N5_5  and  C16_12 
REMARK    3  A    between atoms: C8_24  and  C11_8 
REMARK    4  A    between atoms: C14_10  and  C15_11 
REMARK    5  A    between atoms: C16_12  and  C17_13 
REMARK    6  A    between atoms: C17_13  and  O4_30 
REMARK    7  A    between atoms: O4_30  and  C19_15 
REMARK    8  A    between atoms: S1_19  and  N2_18 
REMARK    9  A    between atoms: C5_22  and  S1_19 
REMARK   10  A    between atoms: C13_26  and  N6_29 
ROOT
ATOM      1  C6  G8N d   1     -13.843 -17.546 -57.828  0.00  0.00    -0.060 A 
ATOM      2  C10 G8N d   1     -12.487 -16.064 -59.213  0.00  0.00    -0.060 A 
ATOM      3  C5  G8N d   1     -13.697 -16.560 -58.790  0.00  0.00     0.074 A 
ATOM      4  C7  G8N d   1     -12.685 -18.049 -57.246  0.00  0.00    -0.069 A 
ATOM      5  C8  G8N d   1     -11.449 -17.546 -57.606  0.00  0.00    -0.006 A 
ATOM      6  C9  G8N d   1     -11.312 -16.564 -58.621  0.00  0.00    -0.069 A 
ATOM      7  H6  G8N d   1     -14.822 -17.911 -57.540  0.00  0.00     0.085 H 
ATOM      8  H7  G8N d   1     -12.439 -15.305 -59.985  0.00  0.00     0.085 H 
ATOM      9  H22 G8N d   1     -12.752 -18.839 -56.507  0.00  0.00     0.085 H 
ATOM     10  H23 G8N d   1     -10.335 -16.211 -58.930  0.00  0.00     0.085 H 
ENDROOT
BRANCH   5  11
ATOM     11  C11 G8N d   1     -10.193 -18.135 -56.983  0.00  0.00     0.085 A 
ATOM     12  C12 G8N d   1     -10.205 -19.495 -56.695  0.00  0.00     0.033 A 
ATOM     13  N3  G8N d   1      -9.117 -20.055 -56.181  0.00  0.00    -0.239 NA
ATOM     14  H8  G8N d   1     -11.091 -20.090 -56.888  0.00  0.00     0.118 H 
ATOM     15  C13 G8N d   1      -7.990 -19.378 -55.958  0.00  0.00     0.155 A 
ATOM     16  C14 G8N d   1      -8.007 -17.988 -56.258  0.00  0.00     0.170 A 
ATOM     17  N4  G8N d   1      -9.117 -17.409 -56.779  0.00  0.00    -0.237 NA
BRANCH  15  18
ATOM     18  N6  G8N d   1      -6.867 -20.188 -55.439  0.00  0.00    -0.382 N 
ATOM     19  H24 G8N d   1      -5.960 -19.743 -55.240  0.00  0.00     0.157 HD
ATOM     20  H25 G8N d   1      -6.992 -21.198 -55.277  0.00  0.00     0.157 HD
ENDBRANCH  15  18
BRANCH  16  21
ATOM     21  C15 G8N d   1      -6.844 -17.005 -56.108  0.00  0.00     0.274 C 
ATOM     22  N5  G8N d   1      -7.236 -15.575 -56.547  0.00  0.00    -0.353 N 
ATOM     23  H5  G8N d   1      -8.167 -15.427 -56.880  0.00  0.00     0.162 HD
ATOM     24  O3  G8N d   1      -5.744 -17.378 -55.734  0.00  0.00    -0.266 OA
BRANCH  22  25
ATOM     25  C16 G8N d   1      -6.321 -14.408 -56.507  0.00  0.00     0.015 C 
ATOM     26  H9  G8N d   1      -6.893 -13.475 -56.620  0.00  0.00     0.067 H 
ATOM     27  H10 G8N d   1      -5.578 -14.483 -57.315  0.00  0.00     0.067 H 
BRANCH  25  28
ATOM     28  C17 G8N d   1      -5.596 -14.434 -55.097  0.00  0.00     0.034 C 
ATOM     29  H11 G8N d   1      -4.769 -15.157 -55.155  0.00  0.00     0.076 H 
ATOM     30  H12 G8N d   1      -6.327 -14.771 -54.347  0.00  0.00     0.076 H 
BRANCH  28  31
ATOM     31  O4  G8N d   1      -5.067 -13.206 -54.664  0.00  0.00    -0.394 OA
BRANCH  31  32
ATOM     32  C19 G8N d   1      -4.405 -12.552 -55.727  0.00  0.00     0.004 C 
ATOM     33  H15 G8N d   1      -3.998 -11.594 -55.371  0.00  0.00     0.066 H 
ATOM     34  H16 G8N d   1      -5.118 -12.367 -56.544  0.00  0.00     0.066 H 
ATOM     35  H17 G8N d   1      -3.584 -13.186 -56.093  0.00  0.00     0.066 H 
ENDBRANCH  31  32
ENDBRANCH  28  31
ENDBRANCH  25  28
ENDBRANCH  22  25
ENDBRANCH  16  21
ENDBRANCH   5  11
BRANCH   3  36
ATOM     36  S1  G8N d   1     -15.254 -16.074 -59.474  0.00  0.00     0.243 S 
ATOM     37  O1  G8N d   1     -16.444 -16.797 -58.469  0.00  0.00    -0.206 OA
ATOM     38  O2  G8N d   1     -15.463 -14.457 -59.326  0.00  0.00    -0.206 OA
BRANCH  36  39
ATOM     39  N2  G8N d   1     -15.312 -16.401 -60.981  0.00  0.00    -0.203 NA
ATOM     40  C4  G8N d   1     -14.704 -15.519 -61.794  0.00  0.00     0.025 C 
ATOM     41  C3  G8N d   1     -14.733 -15.816 -63.321  0.00  0.00     0.177 C 
ATOM     42  H3  G8N d   1     -15.184 -14.542 -61.639  0.00  0.00     0.060 H 
ATOM     43  H4  G8N d   1     -13.649 -15.462 -61.489  0.00  0.00     0.060 H 
ATOM     44  N1  G8N d   1     -14.881 -17.103 -63.734  0.00  0.00     0.093 N 
ATOM     45  H21 G8N d   1     -14.637 -15.008 -64.045  0.00  0.00     0.094 H 
ATOM     46  C2  G8N d   1     -15.518 -17.865 -62.831  0.00  0.00     0.125 C 
ATOM     47  C18 G8N d   1     -15.006 -17.641 -61.395  0.00  0.00     0.018 C 
ATOM     48  H1  G8N d   1     -15.370 -18.922 -63.096  0.00  0.00     0.081 H 
ATOM     49  H2  G8N d   1     -16.591 -17.625 -62.863  0.00  0.00     0.081 H 
ATOM     50  H13 G8N d   1     -13.914 -17.772 -61.374  0.00  0.00     0.060 H 
ATOM     51  H14 G8N d   1     -15.476 -18.374 -60.723  0.00  0.00     0.060 H 
BRANCH  44  52
ATOM     52  C1  G8N d   1     -15.304 -17.255 -64.984  0.00  0.00     0.096 C 
ATOM     53  H18 G8N d   1     -14.728 -16.595 -65.649  0.00  0.00     0.071 H 
ATOM     54  H19 G8N d   1     -16.371 -16.995 -65.044  0.00  0.00     0.071 H 
ATOM     55  H20 G8N d   1     -15.163 -18.301 -65.294  0.00  0.00     0.071 H 
ENDBRANCH  44  52
ENDBRANCH  36  39
ENDBRANCH   3  36
TORSDOF 10
