REMARK  8 active torsions:
REMARK  status: ('A' for Active; 'I' for Inactive)
REMARK    1  A    between atoms: C6_3  and  O7_16 
REMARK    2  A    between atoms: O7_16  and  C8_4 
REMARK    3  A    between atoms: C17_7  and  C20_8 
REMARK    4  A    between atoms: C26_11  and  O27_28 
REMARK    5  A    between atoms: O27_28  and  C28_12 
REMARK    6  A    between atoms: C2_14  and  C3_15 
REMARK       I    between atoms: C2_14  and  N14_21 
REMARK    7  A    between atoms: C29_29  and  O30_30 
REMARK    8  A    between atoms: O30_30  and  C31_31 
ROOT
ATOM      1  C15 G92 d   1       2.456 -38.979  -7.981  0.00  0.00    -0.001 C 
ATOM      2  C17 G92 d   1       1.509 -41.024  -9.140  0.00  0.00    -0.008 C 
ATOM      3  O1  G92 d   1       2.339 -36.269  -8.628  0.00  0.00    -0.267 OA
ATOM      4  C2  G92 d   1       1.317 -36.914  -8.764  0.00  0.00     0.253 C 
ATOM      5  N14 G92 d   1       1.274 -38.243  -8.477  0.00  0.00    -0.348 N 
ATOM      6  C16 G92 d   1       2.757 -40.178  -8.885  0.00  0.00    -0.041 C 
ATOM      7  C18 G92 d   1       0.431 -40.112  -9.717  0.00  0.00    -0.041 C 
ATOM      8  C19 G92 d   1       0.065 -39.083  -8.642  0.00  0.00    -0.001 C 
ATOM      9  H4  G92 d   1       2.258 -39.336  -6.960  0.00  0.00     0.064 H 
ATOM     10  H5  G92 d   1       3.325 -38.305  -7.972  0.00  0.00     0.064 H 
ATOM     11  H6  G92 d   1       1.141 -41.476  -8.207  0.00  0.00     0.050 H 
ATOM     12  H12 G92 d   1       3.520 -40.806  -8.402  0.00  0.00     0.036 H 
ATOM     13  H13 G92 d   1       3.141 -39.810  -9.848  0.00  0.00     0.036 H 
ATOM     14  H14 G92 d   1      -0.456 -40.704  -9.986  0.00  0.00     0.036 H 
ATOM     15  H15 G92 d   1       0.814 -39.599 -10.611  0.00  0.00     0.036 H 
ATOM     16  H16 G92 d   1      -0.788 -38.471  -8.970  0.00  0.00     0.064 H 
ATOM     17  H17 G92 d   1      -0.186 -39.586  -7.697  0.00  0.00     0.064 H 
ENDROOT
BRANCH   2  18
ATOM     18  C20 G92 d   1       1.960 -42.105 -10.092  0.00  0.00     0.052 A 
ATOM     19  N21 G92 d   1       2.025 -41.796 -11.383  0.00  0.00    -0.245 NA
ATOM     20  C22 G92 d   1       2.430 -42.668 -12.292  0.00  0.00     0.087 A 
ATOM     21  N23 G92 d   1       2.808 -43.895 -11.990  0.00  0.00    -0.241 NA
ATOM     22  H7  G92 d   1       2.452 -42.360 -13.331  0.00  0.00     0.146 H 
ATOM     23  C24 G92 d   1       2.808 -44.314 -10.719  0.00  0.00     0.073 A 
ATOM     24  C25 G92 d   1       3.226 -45.614 -10.393  0.00  0.00    -0.019 A 
ATOM     25  C33 G92 d   1       2.375 -43.412  -9.686  0.00  0.00     0.021 A 
ATOM     26  C26 G92 d   1       3.228 -46.044  -9.084  0.00  0.00     0.103 A 
ATOM     27  H18 G92 d   1       3.550 -46.286 -11.179  0.00  0.00     0.091 H 
ATOM     28  C29 G92 d   1       2.806 -45.173  -8.051  0.00  0.00     0.102 A 
ATOM     29  C32 G92 d   1       2.384 -43.886  -8.348  0.00  0.00    -0.034 A 
ATOM     30  H22 G92 d   1       2.056 -43.233  -7.547  0.00  0.00     0.089 H 
BRANCH  26  31
ATOM     31  O27 G92 d   1       3.651 -47.296  -8.733  0.00  0.00    -0.353 OA
BRANCH  31  32
ATOM     32  C28 G92 d   1       3.347 -48.485  -9.481  0.00  0.00     0.010 C 
ATOM     33  H8  G92 d   1       3.804 -49.355  -8.988  0.00  0.00     0.066 H 
ATOM     34  H9  G92 d   1       3.748 -48.389 -10.501  0.00  0.00     0.066 H 
ATOM     35  H10 G92 d   1       2.256 -48.620  -9.527  0.00  0.00     0.066 H 
ENDBRANCH  31  32
ENDBRANCH  26  31
BRANCH  28  36
ATOM     36  O30 G92 d   1       2.844 -45.661  -6.769  0.00  0.00    -0.353 OA
BRANCH  36  37
ATOM     37  C31 G92 d   1       2.265 -44.971  -5.650  0.00  0.00     0.010 C 
ATOM     38  H19 G92 d   1       2.424 -45.559  -4.734  0.00  0.00     0.066 H 
ATOM     39  H20 G92 d   1       1.186 -44.839  -5.819  0.00  0.00     0.066 H 
ATOM     40  H21 G92 d   1       2.742 -43.986  -5.540  0.00  0.00     0.066 H 
ENDBRANCH  36  37
ENDBRANCH  28  36
ENDBRANCH   2  18
BRANCH   4  41
ATOM     41  C3  G92 d   1       0.111 -36.212  -9.230  0.00  0.00     0.032 A 
ATOM     42  C4  G92 d   1      -0.903 -35.947  -8.302  0.00  0.00    -0.065 A 
ATOM     43  C5  G92 d   1      -2.049 -35.305  -8.701  0.00  0.00    -0.050 A 
ATOM     44  H1  G92 d   1      -0.783 -36.249  -7.268  0.00  0.00     0.085 H 
ATOM     45  C6  G92 d   1      -2.197 -34.906 -10.026  0.00  0.00     0.078 A 
ATOM     46  H2  G92 d   1      -2.838 -35.109  -7.984  0.00  0.00     0.087 H 
ATOM     47  C12 G92 d   1      -1.194 -35.173 -10.949  0.00  0.00    -0.050 A 
ATOM     48  C13 G92 d   1      -0.042 -35.818 -10.554  0.00  0.00    -0.065 A 
ATOM     49  H11 G92 d   1      -1.318 -34.873 -11.983  0.00  0.00     0.087 H 
ATOM     50  H3  G92 d   1       0.743 -36.018 -11.274  0.00  0.00     0.085 H 
BRANCH  45  51
ATOM     51  O7  G92 d   1      -3.328 -34.287 -10.432  0.00  0.00    -0.255 OA
BRANCH  51  52
ATOM     52  C8  G92 d   1      -3.561 -32.939 -10.107  0.00  0.00     0.530 C 
ATOM     53  F9  G92 d   1      -4.867 -32.656 -10.473  0.00  0.00    -0.144 F 
ATOM     54  F10 G92 d   1      -3.415 -32.705  -8.739  0.00  0.00    -0.144 F 
ATOM     55  F11 G92 d   1      -2.674 -32.164 -10.830  0.00  0.00    -0.144 F 
ENDBRANCH  51  52
ENDBRANCH  45  51
ENDBRANCH   4  41
TORSDOF 8
