REMARK  7 active torsions:
REMARK  status: ('A' for Active; 'I' for Inactive)
REMARK    1  A    between atoms: C6_3  and  O7_13 
REMARK    2  A    between atoms: O7_13  and  C8_4 
REMARK    3  A    between atoms: C13_5  and  N14_18 
REMARK    4  A    between atoms: C21_8  and  C18_21 
REMARK    5  A    between atoms: C2_11  and  C3_12 
REMARK       I    between atoms: N15_19  and  C2_11 
REMARK    6  A    between atoms: C27_27  and  O28_28 
REMARK    7  A    between atoms: O28_28  and  C29_29 
ROOT
ATOM      1  C17 G9E d   1       2.333 -40.237 -10.550  0.00  0.00    -0.041 C 
ATOM      2  C20 G9E d   1      -0.319 -39.271  -9.818  0.00  0.00    -0.001 C 
ATOM      3  O1  G9E d   1       1.807 -36.373 -10.128  0.00  0.00    -0.267 OA
ATOM      4  C2  G9E d   1       0.813 -37.076 -10.111  0.00  0.00     0.256 C 
ATOM      5  N15 G9E d   1       0.872 -38.400  -9.846  0.00  0.00    -0.348 N 
ATOM      6  C16 G9E d   1       2.153 -39.081  -9.569  0.00  0.00    -0.001 C 
ATOM      7  C18 G9E d   1       1.087 -41.113 -10.630  0.00  0.00    -0.008 C 
ATOM      8  C19 G9E d   1      -0.131 -40.277 -10.941  0.00  0.00    -0.041 C 
ATOM      9  H3  G9E d   1       3.182 -40.855 -10.220  0.00  0.00     0.036 H 
ATOM     10  H4  G9E d   1       2.544 -39.827 -11.549  0.00  0.00     0.036 H 
ATOM     11  H5  G9E d   1      -1.230 -38.678  -9.985  0.00  0.00     0.064 H 
ATOM     12  H6  G9E d   1      -0.391 -39.788  -8.850  0.00  0.00     0.064 H 
ATOM     13  H11 G9E d   1       2.982 -38.367  -9.687  0.00  0.00     0.064 H 
ATOM     14  H12 G9E d   1       2.147 -39.470  -8.540  0.00  0.00     0.064 H 
ATOM     15  H13 G9E d   1       0.930 -41.639  -9.677  0.00  0.00     0.050 H 
ATOM     16  H14 G9E d   1       0.015 -39.748 -11.894  0.00  0.00     0.036 H 
ATOM     17  H15 G9E d   1      -1.018 -40.924 -11.013  0.00  0.00     0.036 H 
ENDROOT
BRANCH   7  18
ATOM     18  C21 G9E d   1       1.358 -42.105 -11.731  0.00  0.00     0.052 A 
ATOM     19  N22 G9E d   1       1.302 -41.695 -12.994  0.00  0.00    -0.245 NA
ATOM     20  C23 G9E d   1       1.555 -42.504 -14.012  0.00  0.00     0.087 A 
ATOM     21  N24 G9E d   1       1.875 -43.772 -13.856  0.00  0.00    -0.241 NA
ATOM     22  H16 G9E d   1       1.496 -42.105 -15.018  0.00  0.00     0.146 H 
ATOM     23  C25 G9E d   1       1.973 -44.292 -12.624  0.00  0.00     0.073 A 
ATOM     24  C26 G9E d   1       2.321 -45.637 -12.428  0.00  0.00    -0.022 A 
ATOM     25  C32 G9E d   1       1.713 -43.455 -11.486  0.00  0.00     0.018 A 
ATOM     26  C27 G9E d   1       2.424 -46.148 -11.144  0.00  0.00     0.070 A 
ATOM     27  H7  G9E d   1       2.510 -46.277 -13.282  0.00  0.00     0.091 H 
ATOM     28  C30 G9E d   1       2.162 -45.331 -10.035  0.00  0.00    -0.050 A 
ATOM     29  C31 G9E d   1       1.820 -44.025 -10.195  0.00  0.00    -0.066 A 
ATOM     30  H20 G9E d   1       2.233 -45.746  -9.036  0.00  0.00     0.087 H 
ATOM     31  H21 G9E d   1       1.627 -43.412  -9.322  0.00  0.00     0.085 H 
BRANCH  26  32
ATOM     32  O28 G9E d   1       2.759 -47.451 -10.953  0.00  0.00    -0.356 OA
BRANCH  32  33
ATOM     33  C29 G9E d   1       3.975 -47.724 -10.250  0.00  0.00     0.010 C 
ATOM     34  H17 G9E d   1       4.116 -48.812 -10.171  0.00  0.00     0.066 H 
ATOM     35  H18 G9E d   1       3.922 -47.287  -9.242  0.00  0.00     0.066 H 
ATOM     36  H19 G9E d   1       4.822 -47.283 -10.797  0.00  0.00     0.066 H 
ENDBRANCH  32  33
ENDBRANCH  26  32
ENDBRANCH   7  18
BRANCH   4  37
ATOM     37  C3  G9E d   1      -0.468 -36.422 -10.361  0.00  0.00     0.058 A 
ATOM     38  C4  G9E d   1      -0.809 -36.081 -11.675  0.00  0.00    -0.063 A 
ATOM     39  C5  G9E d   1      -2.004 -35.466 -11.937  0.00  0.00    -0.049 A 
ATOM     40  H1  G9E d   1      -0.126 -36.304 -12.487  0.00  0.00     0.085 H 
ATOM     41  C6  G9E d   1      -2.892 -35.169 -10.900  0.00  0.00     0.080 A 
ATOM     42  H2  G9E d   1      -2.263 -35.207 -12.957  0.00  0.00     0.087 H 
ATOM     43  C12 G9E d   1      -2.563 -35.510  -9.585  0.00  0.00    -0.024 A 
ATOM     44  C13 G9E d   1      -1.351 -36.136  -9.295  0.00  0.00     0.044 A 
ATOM     45  H8  G9E d   1      -3.257 -35.286  -8.783  0.00  0.00     0.091 H 
BRANCH  41  46
ATOM     46  O7  G9E d   1      -4.078 -34.572 -11.192  0.00  0.00    -0.255 OA
BRANCH  46  47
ATOM     47  C8  G9E d   1      -4.244 -33.191 -10.893  0.00  0.00     0.530 C 
ATOM     48  F9  G9E d   1      -4.129 -32.955  -9.518  0.00  0.00    -0.144 F 
ATOM     49  F10 G9E d   1      -5.506 -32.803 -11.325  0.00  0.00    -0.144 F 
ATOM     50  F11 G9E d   1      -3.286 -32.455 -11.572  0.00  0.00    -0.144 F 
ENDBRANCH  46  47
ENDBRANCH  41  46
BRANCH  44  51
ATOM     51  N14 G9E d   1      -1.043 -36.480  -7.974  0.00  0.00    -0.398 N 
ATOM     52  H9  G9E d   1      -0.148 -36.942  -7.757  0.00  0.00     0.156 HD
ATOM     53  H10 G9E d   1      -1.711 -36.271  -7.218  0.00  0.00     0.156 HD
ENDBRANCH  44  51
ENDBRANCH   4  37
TORSDOF 7
