REMARK WARNING: 32 MAX_TORS EXCEEDED!!!
REMARK  38 active torsions:
REMARK  status: ('A' for Active; 'I' for Inactive)
REMARK    1  A    between atoms: N_1  and  CA_2 
REMARK    2  A    between atoms: CA_2  and  C_3 
REMARK    3  A    between atoms: CA_2  and  CB_5 
REMARK       I    between atoms: C_3  and  N_8 
REMARK    4  A    between atoms: CB_5  and  OG1_6 
REMARK    5  A    between atoms: CB_5  and  CG2_7 
REMARK    6  A    between atoms: N_8  and  CA_9 
REMARK    7  A    between atoms: CA_9  and  C_10 
REMARK    8  A    between atoms: CA_9  and  CB_12 
REMARK       I    between atoms: C_10  and  N_19 
REMARK    9  A    between atoms: CB_12  and  CG_13 
REMARK   10  A    between atoms: CG_13  and  CD_14 
REMARK   11  A    between atoms: CD_14  and  NE_15 
REMARK       I    between atoms: NE_15  and  CZ_16 
REMARK       I    between atoms: CZ_16  and  NH1_17 
REMARK       I    between atoms: CZ_16  and  NH2_18 
REMARK   12  A    between atoms: N_19  and  CA_20 
REMARK   13  A    between atoms: CA_20  and  C_21 
REMARK   14  A    between atoms: CA_20  and  CB_23 
REMARK       I    between atoms: C_21  and  N_30 
REMARK   15  A    between atoms: CB_23  and  CG_24 
REMARK   16  A    between atoms: CG_24  and  CD_25 
REMARK   17  A    between atoms: CD_25  and  NE_26 
REMARK       I    between atoms: NE_26  and  CZ_27 
REMARK       I    between atoms: CZ_27  and  NH1_28 
REMARK   18  A    between atoms: N_30  and  CA_31 
REMARK   19  A    between atoms: CA_31  and  C_32 
REMARK   20  A    between atoms: CA_31  and  CB_34 
REMARK       I    between atoms: C_32  and  N_39 
REMARK   21  A    between atoms: CB_34  and  CG_35 
REMARK   22  A    between atoms: CG_35  and  CD_36 
REMARK   23  A    between atoms: N_39  and  CA_40 
REMARK   24  A    between atoms: CA_40  and  C_41 
REMARK   25  A    between atoms: CA_40  and  CB_43 
REMARK       I    between atoms: C_41  and  N_46 
REMARK   26  A    between atoms: CB_43  and  OG1_44 
REMARK   27  A    between atoms: CB_43  and  CG2_45 
REMARK   28  A    between atoms: N_46  and  CA_47 
REMARK   29  A    between atoms: CA_47  and  C_48 
REMARK   30  A    between atoms: CA_47  and  CB_50 
REMARK       I    between atoms: C_48  and  N_55 
REMARK   31  A    between atoms: CB_50  and  CG_51 
REMARK   32  A    between atoms: CG_51  and  CD_52 
REMARK       I    between atoms: CD_52  and  NE2_54 
REMARK   33  A    between atoms: N_55  and  CA_56 
REMARK   34  A    between atoms: CA_56  and  C_57 
REMARK   35  A    between atoms: CA_56  and  CB_59 
REMARK   36  A    between atoms: CB_59  and  CG_60 
REMARK   37  A    between atoms: CG_60  and  CD1_61 
REMARK   38  A    between atoms: CG_60  and  CD2_62 
ROOT
ATOM      1  C   THR d   1       1.715  18.404  60.528  0.00  0.00     0.241 C 
ATOM      2  O   THR d   1       1.852  18.962  59.438  0.00  0.00    -0.271 OA
ATOM      3  N   THR d   1       0.712  18.675  61.354  0.00  0.00    -0.346 N 
ATOM      4  H36 THR d   1       0.532  18.045  62.109  0.00  0.00     0.163 HD
ENDROOT
BRANCH   3   5
ATOM      5  CA  THR d   1      -0.137  19.848  61.209  0.00  0.00     0.090 C 
ATOM      6  H37 THR d   1       0.368  20.595  60.580  0.00  0.00     0.087 H 
BRANCH   5   7
ATOM      7  C   THR d   1      -0.315  20.400  62.611  0.00  0.00     0.241 C 
ATOM      8  O   THR d   1      -0.627  19.646  63.535  0.00  0.00    -0.271 OA
ATOM      9  N   THR d   1      -0.039  21.684  62.795  0.00  0.00    -0.344 N 
ATOM     10  H42 THR d   1       0.157  22.260  62.001  0.00  0.00     0.163 HD
BRANCH   9  11
ATOM     11  CA  THR d   1      -0.014  22.274  64.125  0.00  0.00     0.113 C 
ATOM     12  H43 THR d   1      -0.364  21.523  64.849  0.00  0.00     0.091 H 
BRANCH  11  13
ATOM     13  C   THR d   1      -0.971  23.453  64.140  0.00  0.00     0.243 C 
ATOM     14  O   THR d   1      -0.954  24.284  63.223  0.00  0.00    -0.271 OA
ATOM     15  N   THR d   1      -1.825  23.497  65.159  0.00  0.00    -0.346 N 
ATOM     16  H49 THR d   1      -1.824  22.744  65.817  0.00  0.00     0.163 HD
BRANCH  15  17
ATOM     17  CA  THR d   1      -2.760  24.593  65.357  0.00  0.00     0.090 C 
ATOM     18  H50 THR d   1      -3.063  24.982  64.374  0.00  0.00     0.087 H 
BRANCH  17  19
ATOM     19  C   THR d   1      -2.085  25.689  66.147  0.00  0.00     0.241 C 
ATOM     20  O   THR d   1      -1.535  25.431  67.220  0.00  0.00    -0.271 OA
ATOM     21  N   THR d   1      -2.173  26.913  65.654  0.00  0.00    -0.345 N 
ATOM     22  H57 THR d   1      -2.515  27.070  64.728  0.00  0.00     0.163 HD
BRANCH  21  23
ATOM     23  CA  THR d   1      -1.758  28.027  66.497  0.00  0.00     0.096 C 
ATOM     24  H58 THR d   1      -1.910  27.725  67.544  0.00  0.00     0.089 H 
BRANCH  23  25
ATOM     25  C   THR d   1      -2.579  29.300  66.268  0.00  0.00     0.196 C 
ATOM     26  O   THR d   1      -3.652  29.275  65.655  0.00  0.00    -0.646 OA
ATOM     27  OXT THR d   1      -2.194  30.378  66.726  0.00  0.00    -0.646 OA
ENDBRANCH  23  25
BRANCH  23  28
ATOM     28  CB  THR d   1      -0.270  28.289  66.294  0.00  0.00    -0.034 C 
ATOM     29  H59 THR d   1       0.295  27.432  66.690  0.00  0.00     0.037 H 
ATOM     30  H60 THR d   1       0.006  29.198  66.848  0.00  0.00     0.037 H 
BRANCH  28  31
ATOM     31  CG  THR d   1       0.097  28.480  64.835  0.00  0.00    -0.059 C 
ATOM     32  H61 THR d   1      -0.698  28.065  64.198  0.00  0.00     0.038 H 
BRANCH  31  33
ATOM     33  CD1 THR d   1       0.200  29.944  64.607  0.00  0.00    -0.073 C 
ATOM     34  H62 THR d   1       0.466  30.134  63.557  0.00  0.00     0.028 H 
ATOM     35  H63 THR d   1       0.977  30.364  65.263  0.00  0.00     0.028 H 
ATOM     36  H64 THR d   1      -0.766  30.419  64.832  0.00  0.00     0.028 H 
ENDBRANCH  31  33
BRANCH  31  37
ATOM     37  CD2 THR d   1       1.395  27.778  64.506  0.00  0.00    -0.073 C 
ATOM     38  H65 THR d   1       1.284  26.698  64.686  0.00  0.00     0.028 H 
ATOM     39  H66 THR d   1       2.199  28.175  65.144  0.00  0.00     0.028 H 
ATOM     40  H67 THR d   1       1.647  27.950  63.449  0.00  0.00     0.028 H 
ENDBRANCH  31  37
ENDBRANCH  28  31
ENDBRANCH  23  28
ENDBRANCH  21  23
ENDBRANCH  17  19
BRANCH  17  41
ATOM     41  CB  THR d   1      -4.011  24.150  66.125  0.00  0.00    -0.030 C 
ATOM     42  H51 THR d   1      -4.504  25.053  66.514  0.00  0.00     0.037 H 
ATOM     43  H52 THR d   1      -3.684  23.520  66.966  0.00  0.00     0.037 H 
BRANCH  41  44
ATOM     44  CG  THR d   1      -5.023  23.378  65.343  0.00  0.00     0.011 C 
ATOM     45  H53 THR d   1      -4.506  22.592  64.773  0.00  0.00     0.047 H 
ATOM     46  H54 THR d   1      -5.531  24.062  64.647  0.00  0.00     0.047 H 
BRANCH  44  47
ATOM     47  CD  THR d   1      -6.062  22.730  66.238  0.00  0.00     0.215 C 
ATOM     48  OE1 THR d   1      -6.578  21.664  65.916  0.00  0.00    -0.274 OA
ATOM     49  NE2 THR d   1      -6.354  23.360  67.378  0.00  0.00    -0.370 N 
ATOM     50  H55 THR d   1      -7.032  22.974  68.003  0.00  0.00     0.159 HD
ATOM     51  H56 THR d   1      -5.894  24.218  67.607  0.00  0.00     0.159 HD
ENDBRANCH  44  47
ENDBRANCH  41  44
ENDBRANCH  17  41
ENDBRANCH  15  17
ENDBRANCH  11  13
BRANCH  11  52
ATOM     52  CB  THR d   1       1.409  22.713  64.538  0.00  0.00     0.060 C 
ATOM     53  H44 THR d   1       1.863  23.271  63.706  0.00  0.00     0.086 H 
BRANCH  52  54
ATOM     54  OG1 THR d   1       2.214  21.559  64.837  0.00  0.00    -0.393 OA
ATOM     55  H45 THR d   1       2.269  21.005  64.067  0.00  0.00     0.210 HD
ENDBRANCH  52  54
BRANCH  52  56
ATOM     56  CG2 THR d   1       1.381  23.599  65.780  0.00  0.00    -0.050 C 
ATOM     57  H46 THR d   1       2.408  23.892  66.045  0.00  0.00     0.031 H 
ATOM     58  H47 THR d   1       0.931  23.044  66.616  0.00  0.00     0.031 H 
ATOM     59  H48 THR d   1       0.784  24.500  65.574  0.00  0.00     0.031 H 
ENDBRANCH  52  56
ENDBRANCH  11  52
ENDBRANCH   9  11
ENDBRANCH   5   7
BRANCH   5  60
ATOM     60  CB  THR d   1      -1.477  19.497  60.561  0.00  0.00    -0.029 C 
ATOM     61  H38 THR d   1      -2.118  19.030  61.323  0.00  0.00     0.037 H 
ATOM     62  H39 THR d   1      -1.290  18.779  59.748  0.00  0.00     0.037 H 
BRANCH  60  63
ATOM     63  CG  THR d   1      -2.219  20.694  59.981  0.00  0.00     0.018 C 
ATOM     64  H40 THR d   1      -1.664  21.055  59.102  0.00  0.00     0.049 H 
ATOM     65  H41 THR d   1      -2.253  21.486  60.744  0.00  0.00     0.049 H 
BRANCH  63  66
ATOM     66  CD  THR d   1      -3.652  20.375  59.551  0.00  0.00     0.172 C 
ATOM     67  OE1 THR d   1      -4.077  19.200  59.671  0.00  0.00    -0.648 OA
ATOM     68  OE2 THR d   1      -4.354  21.311  59.098  0.00  0.00    -0.648 OA
ENDBRANCH  63  66
ENDBRANCH  60  63
ENDBRANCH   5  60
ENDBRANCH   3   5
BRANCH   1  69
ATOM     69  CA  THR d   1       2.693  17.338  61.009  0.00  0.00     0.089 C 
ATOM     70  H24 THR d   1       2.212  16.776  61.824  0.00  0.00     0.087 H 
BRANCH  69  71
ATOM     71  N   THR d   1       3.045  16.389  59.959  0.00  0.00    -0.346 N 
ATOM     72  C   THR d   1       2.288  15.322  59.696  0.00  0.00     0.241 C 
ATOM     73  O   THR d   1       1.132  15.196  60.110  0.00  0.00    -0.271 OA
ATOM     74  H23 THR d   1       3.875  16.542  59.422  0.00  0.00     0.163 HD
BRANCH  72  75
ATOM     75  CA  THR d   1       2.928  14.253  58.815  0.00  0.00     0.089 C 
ATOM     76  H11 THR d   1       4.020  14.382  58.857  0.00  0.00     0.087 H 
BRANCH  75  77
ATOM     77  N   THR d   1       2.605  12.910  59.290  0.00  0.00    -0.346 N 
ATOM     78  C   THR d   1       3.229  12.349  60.328  0.00  0.00     0.251 C 
ATOM     79  O   THR d   1       4.015  12.971  61.052  0.00  0.00    -0.271 OA
ATOM     80  H10 THR d   1       1.890  12.392  58.820  0.00  0.00     0.163 HD
BRANCH  78  81
ATOM     81  CA  THR d   1       2.922  10.864  60.610  0.00  0.00     0.199 C 
ATOM     82  H4  THR d   1       3.865  10.378  60.900  0.00  0.00     0.103 H 
BRANCH  81  83
ATOM     83  N   THR d   1       1.983  10.698  61.714  0.00  0.00    -0.064 N 
ATOM     84  H1  THR d   1       2.343  11.161  62.534  0.00  0.00     0.275 HD
ATOM     85  H2  THR d   1       1.863   9.716  61.908  0.00  0.00     0.275 HD
ATOM     86  H3  THR d   1       1.094  11.102  61.463  0.00  0.00     0.275 HD
ENDBRANCH  81  83
BRANCH  81  87
ATOM     87  CB  THR d   1       2.396  10.158  59.319  0.00  0.00     0.068 C 
ATOM     88  H5  THR d   1       2.555   9.076  59.435  0.00  0.00     0.086 H 
BRANCH  87  89
ATOM     89  OG1 THR d   1       3.137  10.601  58.173  0.00  0.00    -0.393 OA
ATOM     90  H6  THR d   1       2.807  10.165  57.396  0.00  0.00     0.210 HD
ENDBRANCH  87  89
BRANCH  87  91
ATOM     91  CG2 THR d   1       0.894  10.397  59.112  0.00  0.00    -0.050 C 
ATOM     92  H7  THR d   1       0.564   9.885  58.196  0.00  0.00     0.031 H 
ATOM     93  H8  THR d   1       0.704  11.476  59.018  0.00  0.00     0.031 H 
ATOM     94  H9  THR d   1       0.337  10.001  59.974  0.00  0.00     0.031 H 
ENDBRANCH  87  91
ENDBRANCH  81  87
ENDBRANCH  78  81
ENDBRANCH  75  77
BRANCH  75  95
ATOM     95  CB  THR d   1       2.477  14.413  57.363  0.00  0.00    -0.036 C 
ATOM     96  H12 THR d   1       2.275  15.478  57.174  0.00  0.00     0.036 H 
ATOM     97  H13 THR d   1       1.553  13.834  57.218  0.00  0.00     0.036 H 
BRANCH  95  98
ATOM     98  CG  THR d   1       3.517  13.930  56.356  0.00  0.00    -0.048 C 
ATOM     99  H14 THR d   1       3.125  14.054  55.336  0.00  0.00     0.035 H 
ATOM    100  H15 THR d   1       3.737  12.868  56.537  0.00  0.00     0.035 H 
BRANCH  98 101
ATOM    101  CD  THR d   1       4.785  14.741  56.511  0.00  0.00     0.009 C 
ATOM    102  H16 THR d   1       4.859  15.059  57.561  0.00  0.00     0.064 H 
ATOM    103  H17 THR d   1       4.703  15.627  55.864  0.00  0.00     0.064 H 
BRANCH 101 104
ATOM    104  NE  THR d   1       6.026  14.036  56.161  0.00  0.00    -0.227 N 
ATOM    105  CZ  THR d   1       6.939  13.641  57.048  0.00  0.00     0.665 C 
ATOM    106  NH1 THR d   1       6.747  13.871  58.345  0.00  0.00    -0.235 N 
ATOM    107  NH2 THR d   1       8.047  13.032  56.639  0.00  0.00    -0.235 N 
ATOM    108  H19 THR d   1       7.452  13.566  59.032  0.00  0.00     0.174 HD
ATOM    109  H20 THR d   1       5.894  14.354  58.662  0.00  0.00     0.174 HD
ATOM    110  H21 THR d   1       8.196  12.854  55.636  0.00  0.00     0.174 HD
ATOM    111  H22 THR d   1       8.757  12.738  57.325  0.00  0.00     0.174 HD
ATOM    112  H18 THR d   1       6.202  13.834  55.166  0.00  0.00     0.177 HD
ENDBRANCH 101 104
ENDBRANCH  98 101
ENDBRANCH  95  98
ENDBRANCH  75  95
ENDBRANCH  72  75
ENDBRANCH  69  71
BRANCH  69 113
ATOM    113  CB  THR d   1       3.945  18.014  61.561  0.00  0.00    -0.036 C 
ATOM    114  H25 THR d   1       3.634  18.746  62.321  0.00  0.00     0.036 H 
ATOM    115  H26 THR d   1       4.447  18.535  60.733  0.00  0.00     0.036 H 
BRANCH 113 116
ATOM    116  CG  THR d   1       4.934  17.073  62.193  0.00  0.00    -0.048 C 
ATOM    117  H27 THR d   1       5.914  17.571  62.240  0.00  0.00     0.035 H 
ATOM    118  H28 THR d   1       5.011  16.171  61.568  0.00  0.00     0.035 H 
BRANCH 116 119
ATOM    119  CD  THR d   1       4.532  16.659  63.596  0.00  0.00     0.009 C 
ATOM    120  H29 THR d   1       5.206  15.857  63.932  0.00  0.00     0.064 H 
ATOM    121  H30 THR d   1       3.499  16.283  63.569  0.00  0.00     0.064 H 
BRANCH 119 122
ATOM    122  NE  THR d   1       4.602  17.755  64.551  0.00  0.00    -0.227 N 
ATOM    123  CZ  THR d   1       5.725  18.234  65.073  0.00  0.00     0.665 C 
ATOM    124  NH1 THR d   1       6.910  17.729  64.727  0.00  0.00    -0.235 N 
ATOM    125  NH2 THR d   1       5.660  19.233  65.940  0.00  0.00    -0.235 N 
ATOM    126  H32 THR d   1       7.773  18.111  65.140  0.00  0.00     0.174 HD
ATOM    127  H33 THR d   1       6.962  16.957  64.047  0.00  0.00     0.174 HD
ATOM    128  H34 THR d   1       4.745  19.624  66.208  0.00  0.00     0.174 HD
ATOM    129  H35 THR d   1       6.524  19.619  66.346  0.00  0.00     0.174 HD
ATOM    130  H31 THR d   1       3.716  18.191  64.843  0.00  0.00     0.177 HD
ENDBRANCH 119 122
ENDBRANCH 116 119
ENDBRANCH 113 116
ENDBRANCH  69 113
ENDBRANCH   1  69
TORSDOF 38
