REMARK  9 active torsions:
REMARK  status: ('A' for Active; 'I' for Inactive)
REMARK    1  A    between atoms: C08_15  and  C10_1 
REMARK    2  A    between atoms: C18_4  and  C19_6 
REMARK    3  A    between atoms: C06_14  and  C18_4 
REMARK    4  A    between atoms: C19_6  and  C20_7 
REMARK    5  A    between atoms: C20_7  and  N21_26 
REMARK    6  A    between atoms: C06_14  and  C22_8 
REMARK    7  A    between atoms: O28_28  and  C29_11 
REMARK    8  A    between atoms: N02_23  and  C01_12 
REMARK       I    between atoms: N02_23  and  C03_13 
REMARK       I    between atoms: C03_13  and  N05_24 
REMARK    9  A    between atoms: N02_23  and  O28_28 
ROOT
ATOM      1  C03 GCE d   1     -17.905   5.610 -25.008  0.00  0.00     0.369 C 
ATOM      2  C06 GCE d   1     -16.709   8.036 -24.606  0.00  0.00     0.143 C 
ATOM      3  C08 GCE d   1     -14.707   7.057 -23.468  0.00  0.00     0.198 C 
ATOM      4  N02 GCE d   1     -17.737   4.133 -25.074  0.00  0.00    -0.211 N 
ATOM      5  N05 GCE d   1     -16.765   6.460 -24.673  0.00  0.00    -0.133 N 
ATOM      6  N09 GCE d   1     -15.298   6.041 -24.421  0.00  0.00     0.029 N 
ATOM      7  O04 GCE d   1     -18.956   6.145 -25.194  0.00  0.00    -0.243 OA
ATOM      8  S07 GCE d   1     -15.252   8.439 -24.016  0.00  0.00    -0.091 SA
ATOM      9  H17 GCE d   1     -13.767   7.154 -24.031  0.00  0.00     0.113 H 
ATOM     10  H22 GCE d   1     -15.266   5.121 -24.010  0.00  0.00     0.308 HD
ATOM     11  H23 GCE d   1     -14.784   6.040 -25.288  0.00  0.00     0.308 HD
ENDROOT
BRANCH   2  12
ATOM     12  C18 GCE d   1     -17.893   8.717 -23.874  0.00  0.00    -0.025 C 
ATOM     13  H2  GCE d   1     -17.557   9.701 -23.514  0.00  0.00     0.038 H 
ATOM     14  H3  GCE d   1     -18.713   8.851 -24.595  0.00  0.00     0.038 H 
BRANCH  12  15
ATOM     15  C19 GCE d   1     -18.433   7.918 -22.667  0.00  0.00    -0.039 C 
ATOM     16  H5  GCE d   1     -17.975   6.918 -22.663  0.00  0.00     0.035 H 
ATOM     17  H6  GCE d   1     -19.525   7.821 -22.759  0.00  0.00     0.035 H 
BRANCH  15  18
ATOM     18  C20 GCE d   1     -18.100   8.629 -21.346  0.00  0.00     0.080 C 
ATOM     19  H7  GCE d   1     -17.573   9.570 -21.560  0.00  0.00     0.075 H 
ATOM     20  H8  GCE d   1     -17.457   7.980 -20.733  0.00  0.00     0.075 H 
BRANCH  18  21
ATOM     21  N21 GCE d   1     -19.334   8.917 -20.620  0.00  0.00    -0.079 N 
ATOM     22  H24 GCE d   1     -19.113   9.383 -19.754  0.00  0.00     0.274 HD
ATOM     23  H25 GCE d   1     -19.817   8.055 -20.424  0.00  0.00     0.274 HD
ATOM     24  H26 GCE d   1     -19.923   9.512 -21.181  0.00  0.00     0.274 HD
ENDBRANCH  18  21
ENDBRANCH  15  18
ENDBRANCH  12  15
ENDBRANCH   2  12
BRANCH   2  25
ATOM     25  C22 GCE d   1     -16.750   8.437 -26.069  0.00  0.00    -0.018 A 
ATOM     26  C23 GCE d   1     -15.888   7.787 -26.931  0.00  0.00    -0.074 A 
ATOM     27  C24 GCE d   1     -15.873   8.141 -28.267  0.00  0.00    -0.082 A 
ATOM     28  H9  GCE d   1     -15.230   7.008 -26.564  0.00  0.00     0.084 H 
ATOM     29  C25 GCE d   1     -16.720   9.136 -28.725  0.00  0.00    -0.083 A 
ATOM     30  H10 GCE d   1     -15.200   7.641 -28.954  0.00  0.00     0.083 H 
ATOM     31  C26 GCE d   1     -17.583   9.777 -27.854  0.00  0.00    -0.082 A 
ATOM     32  H20 GCE d   1     -16.707   9.415 -29.773  0.00  0.00     0.083 H 
ATOM     33  C27 GCE d   1     -17.606   9.422 -26.508  0.00  0.00    -0.074 A 
ATOM     34  H4  GCE d   1     -18.242  10.556 -28.220  0.00  0.00     0.083 H 
ATOM     35  H21 GCE d   1     -18.285   9.912 -25.819  0.00  0.00     0.084 H 
ENDBRANCH   2  25
BRANCH   3  36
ATOM     36  C10 GCE d   1     -13.883   6.696 -22.237  0.00  0.00     0.026 A 
ATOM     37  C11 GCE d   1     -12.851   7.498 -21.880  0.00  0.00     0.125 A 
ATOM     38  C12 GCE d   1     -12.054   7.225 -20.770  0.00  0.00    -0.042 A 
ATOM     39  F17 GCE d   1     -12.660   8.592 -22.655  0.00  0.00    -0.205 F 
ATOM     40  C13 GCE d   1     -12.321   6.086 -20.041  0.00  0.00    -0.043 A 
ATOM     41  H18 GCE d   1     -11.246   7.890 -20.488  0.00  0.00     0.088 H 
ATOM     42  C14 GCE d   1     -13.378   5.269 -20.425  0.00  0.00     0.117 A 
ATOM     43  H1  GCE d   1     -11.715   5.831 -19.180  0.00  0.00     0.088 H 
ATOM     44  C15 GCE d   1     -14.160   5.566 -21.525  0.00  0.00    -0.034 A 
ATOM     45  F16 GCE d   1     -13.665   4.134 -19.725  0.00  0.00    -0.206 F 
ATOM     46  H19 GCE d   1     -14.976   4.915 -21.816  0.00  0.00     0.089 H 
ENDBRANCH   3  36
BRANCH   4  47
ATOM     47  C01 GCE d   1     -16.442   3.491 -24.851  0.00  0.00     0.011 C 
ATOM     48  H14 GCE d   1     -16.552   2.401 -24.948  0.00  0.00     0.060 H 
ATOM     49  H15 GCE d   1     -16.081   3.735 -23.841  0.00  0.00     0.060 H 
ATOM     50  H16 GCE d   1     -15.719   3.854 -25.596  0.00  0.00     0.060 H 
ENDBRANCH   4  47
BRANCH   4  51
ATOM     51  O28 GCE d   1     -18.831   3.282 -25.363  0.00  0.00    -0.279 OA
BRANCH  51  52
ATOM     52  C29 GCE d   1     -19.555   3.777 -26.470  0.00  0.00     0.029 C 
ATOM     53  H11 GCE d   1     -20.401   3.107 -26.684  0.00  0.00     0.069 H 
ATOM     54  H12 GCE d   1     -18.895   3.825 -27.348  0.00  0.00     0.069 H 
ATOM     55  H13 GCE d   1     -19.933   4.784 -26.240  0.00  0.00     0.069 H 
ENDBRANCH  51  52
ENDBRANCH   4  51
TORSDOF 9
