REMARK  9 active torsions:
REMARK  status: ('A' for Active; 'I' for Inactive)
REMARK    1  A    between atoms: C08_15  and  C10_1 
REMARK    2  A    between atoms: C18_4  and  C19_6 
REMARK    3  A    between atoms: C06_14  and  C18_4 
REMARK    4  A    between atoms: C19_6  and  C20_7 
REMARK    5  A    between atoms: C20_7  and  N21_26 
REMARK    6  A    between atoms: C06_14  and  C22_8 
REMARK    7  A    between atoms: O28_28  and  C29_11 
REMARK    8  A    between atoms: N02_23  and  C01_12 
REMARK       I    between atoms: N02_23  and  C03_13 
REMARK       I    between atoms: C03_13  and  N05_24 
REMARK    9  A    between atoms: N02_23  and  O28_28 
ROOT
ATOM      1  C03 GCE d   1      55.633  41.449   0.227  0.00  0.00     0.369 C 
ATOM      2  C06 GCE d   1      58.151  41.793   1.120  0.00  0.00     0.143 C 
ATOM      3  C08 GCE d   1      59.119  42.584  -1.075  0.00  0.00     0.198 C 
ATOM      4  N02 GCE d   1      54.605  41.572  -0.818  0.00  0.00    -0.211 N 
ATOM      5  N05 GCE d   1      56.992  41.909   0.034  0.00  0.00    -0.133 N 
ATOM      6  N09 GCE d   1      57.598  42.567  -1.230  0.00  0.00     0.029 N 
ATOM      7  O04 GCE d   1      55.370  40.965   1.280  0.00  0.00    -0.243 OA
ATOM      8  S07 GCE d   1      59.432  42.590   0.496  0.00  0.00    -0.091 SA
ATOM      9  H17 GCE d   1      59.212  41.489  -1.125  0.00  0.00     0.113 H 
ATOM     10  H22 GCE d   1      57.344  42.035  -2.047  0.00  0.00     0.308 HD
ATOM     11  H23 GCE d   1      57.254  43.510  -1.323  0.00  0.00     0.308 HD
ENDROOT
BRANCH   2  12
ATOM     12  C18 GCE d   1      58.463  40.274   1.323  0.00  0.00    -0.025 C 
ATOM     13  H2  GCE d   1      59.382  40.184   1.921  0.00  0.00     0.038 H 
ATOM     14  H3  GCE d   1      57.625  39.816   1.869  0.00  0.00     0.038 H 
BRANCH  12  15
ATOM     15  C19 GCE d   1      58.663  39.504   0.001  0.00  0.00    -0.039 C 
ATOM     16  H5  GCE d   1      59.484  39.967  -0.566  0.00  0.00     0.035 H 
ATOM     17  H6  GCE d   1      57.736  39.553  -0.590  0.00  0.00     0.035 H 
BRANCH  15  18
ATOM     18  C20 GCE d   1      59.006  38.039   0.278  0.00  0.00     0.080 C 
ATOM     19  H7  GCE d   1      58.949  37.466  -0.659  0.00  0.00     0.075 H 
ATOM     20  H8  GCE d   1      58.290  37.627   1.004  0.00  0.00     0.075 H 
BRANCH  18  21
ATOM     21  N21 GCE d   1      60.356  37.945   0.822  0.00  0.00    -0.079 N 
ATOM     22  H24 GCE d   1      60.579  36.979   1.003  0.00  0.00     0.274 HD
ATOM     23  H25 GCE d   1      60.409  38.469   1.681  0.00  0.00     0.274 HD
ATOM     24  H26 GCE d   1      61.013  38.322   0.157  0.00  0.00     0.274 HD
ENDBRANCH  18  21
ENDBRANCH  15  18
ENDBRANCH  12  15
ENDBRANCH   2  12
BRANCH   2  25
ATOM     25  C22 GCE d   1      57.708  42.401   2.482  0.00  0.00    -0.018 A 
ATOM     26  C23 GCE d   1      57.317  43.729   2.581  0.00  0.00    -0.074 A 
ATOM     27  C24 GCE d   1      56.957  44.279   3.812  0.00  0.00    -0.082 A 
ATOM     28  H9  GCE d   1      57.291  44.347   1.691  0.00  0.00     0.084 H 
ATOM     29  C25 GCE d   1      56.967  43.511   4.958  0.00  0.00    -0.083 A 
ATOM     30  H10 GCE d   1      56.666  45.322   3.868  0.00  0.00     0.083 H 
ATOM     31  C26 GCE d   1      57.351  42.191   4.857  0.00  0.00    -0.082 A 
ATOM     32  H20 GCE d   1      56.680  43.935   5.914  0.00  0.00     0.083 H 
ATOM     33  C27 GCE d   1      57.717  41.631   3.634  0.00  0.00    -0.074 A 
ATOM     34  H4  GCE d   1      57.369  41.575   5.748  0.00  0.00     0.083 H 
ATOM     35  H21 GCE d   1      58.010  40.589   3.584  0.00  0.00     0.084 H 
ENDBRANCH   2  25
BRANCH   3  36
ATOM     36  C10 GCE d   1      60.045  42.696  -2.291  0.00  0.00     0.026 A 
ATOM     37  C11 GCE d   1      61.358  43.134  -2.175  0.00  0.00     0.125 A 
ATOM     38  C12 GCE d   1      62.164  43.226  -3.308  0.00  0.00    -0.042 A 
ATOM     39  F17 GCE d   1      61.905  43.474  -0.963  0.00  0.00    -0.205 F 
ATOM     40  C13 GCE d   1      61.647  42.889  -4.535  0.00  0.00    -0.043 A 
ATOM     41  H18 GCE d   1      63.191  43.561  -3.222  0.00  0.00     0.088 H 
ATOM     42  C14 GCE d   1      60.342  42.463  -4.636  0.00  0.00     0.117 A 
ATOM     43  H1  GCE d   1      62.266  42.958  -5.422  0.00  0.00     0.088 H 
ATOM     44  C15 GCE d   1      59.520  42.364  -3.521  0.00  0.00    -0.034 A 
ATOM     45  F16 GCE d   1      59.893  42.158  -5.877  0.00  0.00    -0.206 F 
ATOM     46  H19 GCE d   1      58.492  42.034  -3.616  0.00  0.00     0.089 H 
ENDBRANCH   3  36
BRANCH   4  47
ATOM     47  C01 GCE d   1      54.884  42.163  -2.119  0.00  0.00     0.011 C 
ATOM     48  H14 GCE d   1      53.971  42.148  -2.732  0.00  0.00     0.060 H 
ATOM     49  H15 GCE d   1      55.673  41.585  -2.623  0.00  0.00     0.060 H 
ATOM     50  H16 GCE d   1      55.219  43.202  -1.986  0.00  0.00     0.060 H 
ENDBRANCH   4  47
BRANCH   4  51
ATOM     51  O28 GCE d   1      53.294  41.089  -0.541  0.00  0.00    -0.279 OA
BRANCH  51  52
ATOM     52  C29 GCE d   1      53.236  39.674  -0.601  0.00  0.00     0.029 C 
ATOM     53  H11 GCE d   1      52.211  39.340  -0.382  0.00  0.00     0.069 H 
ATOM     54  H12 GCE d   1      53.927  39.247   0.141  0.00  0.00     0.069 H 
ATOM     55  H13 GCE d   1      53.525  39.337  -1.608  0.00  0.00     0.069 H 
ENDBRANCH  51  52
ENDBRANCH   4  51
TORSDOF 9
