REMARK  16 active torsions:
REMARK  status: ('A' for Active; 'I' for Inactive)
REMARK    1  A    between atoms: CBA_2  and  CAZ_4 
REMARK    2  A    between atoms: CAZ_4  and  CAY_5 
REMARK    3  A    between atoms: CAY_5  and  CAW_6 
REMARK    4  A    between atoms: CAW_6  and  CAX_7 
REMARK    5  A    between atoms: CAW_6  and  NAV_10 
REMARK       I    between atoms: NAV_10  and  CAU_11 
REMARK       I    between atoms: CAU_11  and  N_13 
REMARK    6  A    between atoms: N_13  and  CA_14 
REMARK    7  A    between atoms: CA_14  and  C_15 
REMARK    8  A    between atoms: CA_14  and  CB_18 
REMARK    9  A    between atoms: CB_18  and  CAP_19 
REMARK   10  A    between atoms: CAP_19  and  CAO_20 
REMARK   11  A    between atoms: CAO_20  and  CAN_21 
REMARK       I    between atoms: CAN_21  and  NAM_23 
REMARK   12  A    between atoms: NAM_23  and  CBJ_24 
REMARK   13  A    between atoms: NAM_23  and  CAL_30 
REMARK   14  A    between atoms: CAL_30  and  CAJ_31 
REMARK   15  A    between atoms: CAJ_31  and  NAI_32 
REMARK       I    between atoms: NAI_32  and  CAH_33 
REMARK   16  A    between atoms: CAH_33  and  CAE_35 
ROOT
ATOM      1  CAO GBZ d   1      22.702  47.689  43.146  0.00  0.00     0.010 C 
ATOM      2  H13 GBZ d   1      22.590  48.644  42.611  0.00  0.00     0.047 H 
ATOM      3  H14 GBZ d   1      22.695  46.860  42.423  0.00  0.00     0.047 H 
ENDROOT
BRANCH   1   4
ATOM      4  CAP GBZ d   1      21.515  47.513  44.149  0.00  0.00    -0.055 C 
ATOM      5  H11 GBZ d   1      21.723  48.061  45.080  0.00  0.00     0.033 H 
ATOM      6  H12 GBZ d   1      20.583  47.890  43.702  0.00  0.00     0.033 H 
BRANCH   4   7
ATOM      7  CB  GBZ d   1      21.392  46.019  44.436  0.00  0.00    -0.036 C 
ATOM      8  H9  GBZ d   1      21.356  45.476  43.480  0.00  0.00     0.036 H 
ATOM      9  H10 GBZ d   1      22.273  45.694  45.009  0.00  0.00     0.036 H 
BRANCH   7  10
ATOM     10  CA  GBZ d   1      20.140  45.691  45.234  0.00  0.00     0.098 C 
ATOM     11  H8  GBZ d   1      20.119  44.606  45.413  0.00  0.00     0.089 H 
BRANCH  10  12
ATOM     12  N   GBZ d   1      18.865  46.049  44.546  0.00  0.00    -0.329 N 
ATOM     13  CAU GBZ d   1      18.142  45.257  43.704  0.00  0.00     0.317 C 
ATOM     14  NAV GBZ d   1      16.934  45.719  43.330  0.00  0.00    -0.329 N 
ATOM     15  OBE GBZ d   1      18.519  44.172  43.269  0.00  0.00    -0.247 OA
ATOM     16  H6  GBZ d   1      16.521  46.476  43.837  0.00  0.00     0.165 HD
ATOM     17  H7  GBZ d   1      18.503  46.965  44.721  0.00  0.00     0.165 HD
BRANCH  14  18
ATOM     18  CAW GBZ d   1      16.211  45.138  42.197  0.00  0.00     0.098 C 
ATOM     19  H5  GBZ d   1      15.967  44.087  42.411  0.00  0.00     0.089 H 
BRANCH  18  20
ATOM     20  CAY GBZ d   1      14.884  45.907  41.818  0.00  0.00    -0.028 C 
ATOM     21  H3  GBZ d   1      14.508  45.526  40.857  0.00  0.00     0.037 H 
ATOM     22  H4  GBZ d   1      14.131  45.735  42.601  0.00  0.00     0.037 H 
BRANCH  20  23
ATOM     23  CAZ GBZ d   1      15.148  47.408  41.695  0.00  0.00     0.018 C 
ATOM     24  H1  GBZ d   1      15.321  47.826  42.698  0.00  0.00     0.049 H 
ATOM     25  H2  GBZ d   1      16.041  47.566  41.072  0.00  0.00     0.049 H 
BRANCH  23  26
ATOM     26  CBA GBZ d   1      13.953  48.127  41.051  0.00  0.00     0.172 C 
ATOM     27  OBN GBZ d   1      13.867  49.360  41.294  0.00  0.00    -0.648 OA
ATOM     28  OBO GBZ d   1      13.163  47.480  40.313  0.00  0.00    -0.648 OA
ENDBRANCH  23  26
ENDBRANCH  20  23
ENDBRANCH  18  20
BRANCH  18  29
ATOM     29  CAX GBZ d   1      17.214  45.246  40.997  0.00  0.00     0.196 C 
ATOM     30  OBG GBZ d   1      17.143  44.424  40.062  0.00  0.00    -0.646 OA
ATOM     31  OBF GBZ d   1      18.019  46.201  41.037  0.00  0.00    -0.646 OA
ENDBRANCH  18  29
ENDBRANCH  14  18
ENDBRANCH  10  12
BRANCH  10  32
ATOM     32  C   GBZ d   1      20.294  46.417  46.594  0.00  0.00     0.196 C 
ATOM     33  OXT GBZ d   1      19.813  47.582  46.705  0.00  0.00    -0.646 OA
ATOM     34  O   GBZ d   1      20.971  45.805  47.460  0.00  0.00    -0.646 OA
ENDBRANCH  10  32
ENDBRANCH   7  10
ENDBRANCH   4   7
ENDBRANCH   1   4
BRANCH   1  35
ATOM     35  CAN GBZ d   1      24.067  47.687  43.930  0.00  0.00     0.224 C 
ATOM     36  OBB GBZ d   1      24.035  47.462  45.126  0.00  0.00    -0.273 OA
ATOM     37  NAM GBZ d   1      25.275  47.878  43.291  0.00  0.00    -0.317 N 
BRANCH  37  38
ATOM     38  CBJ GBZ d   1      25.323  47.993  41.936  0.00  0.00     0.037 A 
ATOM     39  CBH GBZ d   1      25.159  46.837  41.165  0.00  0.00    -0.057 A 
ATOM     40  CBI GBZ d   1      25.184  46.888  39.768  0.00  0.00    -0.081 A 
ATOM     41  H15 GBZ d   1      25.010  45.884  41.660  0.00  0.00     0.086 H 
ATOM     42  CBK GBZ d   1      25.372  48.111  39.124  0.00  0.00    -0.083 A 
ATOM     43  H16 GBZ d   1      25.058  45.981  39.188  0.00  0.00     0.083 H 
ATOM     44  CBM GBZ d   1      25.535  49.268  39.878  0.00  0.00    -0.081 A 
ATOM     45  H17 GBZ d   1      25.391  48.159  38.041  0.00  0.00     0.083 H 
ATOM     46  CBL GBZ d   1      25.510  49.207  41.278  0.00  0.00    -0.057 A 
ATOM     47  H18 GBZ d   1      25.682  50.220  39.381  0.00  0.00     0.083 H 
ATOM     48  H19 GBZ d   1      25.638  50.115  41.856  0.00  0.00     0.086 H 
ENDBRANCH  37  38
BRANCH  37  49
ATOM     49  CAL GBZ d   1      26.492  47.786  44.106  0.00  0.00     0.018 C 
ATOM     50  H20 GBZ d   1      27.136  46.992  43.699  0.00  0.00     0.067 H 
ATOM     51  H21 GBZ d   1      26.212  47.536  45.140  0.00  0.00     0.067 H 
BRANCH  49  52
ATOM     52  CAJ GBZ d   1      27.255  49.082  44.106  0.00  0.00     0.011 C 
ATOM     53  H22 GBZ d   1      27.220  49.508  43.092  0.00  0.00     0.066 H 
ATOM     54  H23 GBZ d   1      28.299  48.873  44.380  0.00  0.00     0.066 H 
BRANCH  52  55
ATOM     55  NAI GBZ d   1      26.707  50.087  45.061  0.00  0.00    -0.355 N 
ATOM     56  CAH GBZ d   1      26.367  51.305  44.583  0.00  0.00     0.253 C 
ATOM     57  OAK GBZ d   1      26.427  51.593  43.389  0.00  0.00    -0.268 OA
ATOM     58  H24 GBZ d   1      26.594  49.866  46.030  0.00  0.00     0.162 HD
BRANCH  56  59
ATOM     59  CAE GBZ d   1      25.972  52.321  45.441  0.00  0.00     0.049 A 
ATOM     60  CAD GBZ d   1      24.938  53.157  44.994  0.00  0.00    -0.062 A 
ATOM     61  CAC GBZ d   1      24.518  54.230  45.775  0.00  0.00    -0.026 A 
ATOM     62  H25 GBZ d   1      24.465  52.967  44.038  0.00  0.00     0.085 H 
ATOM     63  CAA GBZ d   1      25.152  54.485  46.991  0.00  0.00     0.209 A 
ATOM     64  H26 GBZ d   1      23.704  54.863  45.441  0.00  0.00     0.090 H 
ATOM     65  FAB GBZ d   1      24.704  55.531  47.703  0.00  0.00    -0.184 F 
ATOM     66  NAG GBZ d   1      26.178  53.701  47.430  0.00  0.00    -0.232 NA
ATOM     67  CAF GBZ d   1      26.628  52.598  46.652  0.00  0.00     0.020 A 
ATOM     68  H27 GBZ d   1      27.458  51.986  46.986  0.00  0.00     0.116 H 
ENDBRANCH  56  59
ENDBRANCH  52  55
ENDBRANCH  49  52
ENDBRANCH  37  49
ENDBRANCH   1  35
TORSDOF 16
