REMARK WARNING: 32 MAX_TORS EXCEEDED!!!
REMARK  42 active torsions:
REMARK  status: ('A' for Active; 'I' for Inactive)
REMARK    1  A    between atoms: CA_2  and  N_1 
REMARK    2  A    between atoms: C_3  and  CA_2 
REMARK    3  A    between atoms: CA_2  and  CB_5 
REMARK       I    between atoms: N_12  and  C_3 
REMARK    4  A    between atoms: CB_5  and  CG_6 
REMARK    5  A    between atoms: CG_6  and  CD_7 
REMARK    6  A    between atoms: CD_7  and  NE_8 
REMARK       I    between atoms: NE_8  and  CZ_9 
REMARK       I    between atoms: CZ_9  and  NH1_10 
REMARK       I    between atoms: CZ_9  and  NH2_11 
REMARK    7  A    between atoms: CA_13  and  N_12 
REMARK    8  A    between atoms: C_14  and  CA_13 
REMARK    9  A    between atoms: CA_13  and  CB_16 
REMARK       I    between atoms: N_23  and  C_14 
REMARK   10  A    between atoms: CB_16  and  CG_17 
REMARK   11  A    between atoms: CG_17  and  CD_18 
REMARK   12  A    between atoms: CD_18  and  NE_19 
REMARK       I    between atoms: NE_19  and  CZ_20 
REMARK       I    between atoms: CZ_20  and  NH1_21 
REMARK       I    between atoms: CZ_20  and  NH2_22 
REMARK   13  A    between atoms: CA_24  and  N_23 
REMARK   14  A    between atoms: C_25  and  CA_24 
REMARK   15  A    between atoms: CA_24  and  CB_27 
REMARK       I    between atoms: N_34  and  C_25 
REMARK   16  A    between atoms: CB_27  and  CG_28 
REMARK   17  A    between atoms: CG_28  and  CD_29 
REMARK   18  A    between atoms: CD_29  and  NE_30 
REMARK       I    between atoms: NE_30  and  CZ_31 
REMARK       I    between atoms: CZ_31  and  NH1_32 
REMARK       I    between atoms: CZ_31  and  NH2_33 
REMARK   19  A    between atoms: CA_35  and  N_34 
REMARK   20  A    between atoms: C_36  and  CA_35 
REMARK   21  A    between atoms: CA_35  and  CB_38 
REMARK       I    between atoms: N_46  and  C_36 
REMARK   22  A    between atoms: CB_38  and  CG_39 
REMARK   23  A    between atoms: CG_39  and  CD_40 
REMARK   24  A    between atoms: CD_40  and  NE_41 
REMARK       I    between atoms: NE_41  and  CZ_42 
REMARK       I    between atoms: CZ_42  and  NH1_43 
REMARK       I    between atoms: CZ_42  and  NH2_44 
REMARK   25  A    between atoms: CA_48  and  C_45 
REMARK       I    between atoms: C_45  and  N_54 
REMARK   26  A    between atoms: CA_48  and  N_46 
REMARK   27  A    between atoms: CB_49  and  CA_48 
REMARK   28  A    between atoms: CG_52  and  CB_49 
REMARK   29  A    between atoms: CD_50  and  CE_51 
REMARK   30  A    between atoms: CD_50  and  CG_52 
REMARK   31  A    between atoms: CE_51  and  NZ_53 
REMARK   32  A    between atoms: N_54  and  CA_55 
REMARK   33  A    between atoms: CA_55  and  C_56 
REMARK   34  A    between atoms: CA_55  and  CB_58 
REMARK       I    between atoms: C_56  and  N23_65 
REMARK   35  A    between atoms: CB_58  and  CG_59 
REMARK   36  A    between atoms: CG_59  and  CD_60 
REMARK   37  A    between atoms: CD_60  and  NE_61 
REMARK       I    between atoms: NE_61  and  CZ_62 
REMARK       I    between atoms: CZ_62  and  NH1_63 
REMARK       I    between atoms: CZ_62  and  NH2_64 
REMARK   38  A    between atoms: N23_65  and  C16_66 
REMARK   39  A    between atoms: C16_66  and  C17_67 
REMARK   40  A    between atoms: C24_70  and  C27_71 
REMARK   41  A    between atoms: C27_71  and  N35_72 
REMARK   42  A    between atoms: C27_71  and  N34_73 
ROOT
ATOM      1  CA  ARG d   1      50.887 -34.860  -5.264  0.00  0.00     0.089 C 
ATOM      2  H43 ARG d   1      50.566 -35.673  -4.596  0.00  0.00     0.087 H 
ENDROOT
BRANCH   1   3
ATOM      3  N   ARG d   1      52.337 -34.621  -5.049  0.00  0.00    -0.346 N 
ATOM      4  C   ARG d   1      53.025 -35.138  -4.002  0.00  0.00     0.241 C 
ATOM      5  O   ARG d   1      52.513 -35.873  -3.149  0.00  0.00    -0.271 OA
ATOM      6  H42 ARG d   1      52.829 -34.052  -5.708  0.00  0.00     0.163 HD
BRANCH   4   7
ATOM      7  CA  ARG d   1      54.525 -34.739  -3.913  0.00  0.00     0.089 C 
ATOM      8  H30 ARG d   1      55.059 -35.466  -3.283  0.00  0.00     0.087 H 
BRANCH   7   9
ATOM      9  N   ARG d   1      55.099 -34.739  -5.278  0.00  0.00    -0.346 N 
ATOM     10  C   ARG d   1      55.283 -35.882  -5.951  0.00  0.00     0.241 C 
ATOM     11  O   ARG d   1      54.999 -36.982  -5.481  0.00  0.00    -0.271 OA
ATOM     12  H29 ARG d   1      55.353 -33.871  -5.704  0.00  0.00     0.163 HD
BRANCH  10  13
ATOM     13  CA  ARG d   1      55.840 -35.744  -7.381  0.00  0.00     0.089 C 
ATOM     14  H17 ARG d   1      56.489 -34.858  -7.447  0.00  0.00     0.087 H 
BRANCH  13  15
ATOM     15  N   ARG d   1      56.609 -36.949  -7.725  0.00  0.00    -0.346 N 
ATOM     16  C   ARG d   1      57.785 -37.249  -7.147  0.00  0.00     0.248 C 
ATOM     17  O   ARG d   1      58.324 -36.543  -6.293  0.00  0.00    -0.271 OA
ATOM     18  H16 ARG d   1      56.242 -37.571  -8.417  0.00  0.00     0.163 HD
BRANCH  16  19
ATOM     19  CA  ARG d   1      58.438 -38.558  -7.639  0.00  0.00     0.176 C 
ATOM     20  H4  ARG d   1      57.648 -39.221  -8.022  0.00  0.00     0.099 H 
BRANCH  19  21
ATOM     21  N   ARG d   1      59.374 -38.267  -8.740  0.00  0.00    -0.067 N 
ATOM     22  H1  ARG d   1      59.797 -39.125  -9.057  0.00  0.00     0.275 HD
ATOM     23  H2  ARG d   1      60.092 -37.639  -8.414  0.00  0.00     0.275 HD
ATOM     24  H3  ARG d   1      58.873 -37.838  -9.502  0.00  0.00     0.275 HD
ENDBRANCH  19  21
BRANCH  19  25
ATOM     25  CB  ARG d   1      59.144 -39.273  -6.476  0.00  0.00    -0.029 C 
ATOM     26  H5  ARG d   1      59.197 -40.350  -6.694  0.00  0.00     0.036 H 
ATOM     27  H6  ARG d   1      58.568 -39.114  -5.552  0.00  0.00     0.036 H 
BRANCH  25  28
ATOM     28  CG  ARG d   1      60.563 -38.730  -6.282  0.00  0.00    -0.047 C 
ATOM     29  H7  ARG d   1      60.599 -37.677  -6.598  0.00  0.00     0.035 H 
ATOM     30  H8  ARG d   1      61.267 -39.319  -6.888  0.00  0.00     0.035 H 
BRANCH  28  31
ATOM     31  CD  ARG d   1      60.953 -38.833  -4.804  0.00  0.00     0.009 C 
ATOM     32  H9  ARG d   1      60.173 -38.364  -4.187  0.00  0.00     0.064 H 
ATOM     33  H10 ARG d   1      61.910 -38.315  -4.642  0.00  0.00     0.064 H 
BRANCH  31  34
ATOM     34  NE  ARG d   1      61.093 -40.246  -4.421  0.00  0.00    -0.227 N 
ATOM     35  CZ  ARG d   1      61.984 -40.693  -3.525  0.00  0.00     0.665 C 
ATOM     36  NH1 ARG d   1      62.812 -39.833  -2.917  0.00  0.00    -0.235 N 
ATOM     37  NH2 ARG d   1      62.045 -42.000  -3.234  0.00  0.00    -0.235 N 
ATOM     38  H12 ARG d   1      63.497 -40.177  -2.228  0.00  0.00     0.174 HD
ATOM     39  H13 ARG d   1      62.764 -38.828  -3.138  0.00  0.00     0.174 HD
ATOM     40  H14 ARG d   1      61.409 -42.662  -3.701  0.00  0.00     0.174 HD
ATOM     41  H15 ARG d   1      62.728 -42.343  -2.543  0.00  0.00     0.174 HD
ATOM     42  H11 ARG d   1      60.469 -40.933  -4.868  0.00  0.00     0.177 HD
ENDBRANCH  31  34
ENDBRANCH  28  31
ENDBRANCH  25  28
ENDBRANCH  19  25
ENDBRANCH  16  19
ENDBRANCH  13  15
BRANCH  13  43
ATOM     43  CB  ARG d   1      54.652 -35.597  -8.353  0.00  0.00    -0.036 C 
ATOM     44  H18 ARG d   1      54.167 -34.626  -8.176  0.00  0.00     0.036 H 
ATOM     45  H19 ARG d   1      53.933 -36.406  -8.158  0.00  0.00     0.036 H 
BRANCH  43  46
ATOM     46  CG  ARG d   1      55.090 -35.669  -9.818  0.00  0.00    -0.048 C 
ATOM     47  H20 ARG d   1      55.503 -36.666 -10.029  0.00  0.00     0.035 H 
ATOM     48  H21 ARG d   1      55.858 -34.906 -10.009  0.00  0.00     0.035 H 
BRANCH  46  49
ATOM     49  CD  ARG d   1      53.871 -35.413 -10.731  0.00  0.00     0.009 C 
ATOM     50  H22 ARG d   1      53.282 -36.336 -10.832  0.00  0.00     0.064 H 
ATOM     51  H23 ARG d   1      54.212 -35.085 -11.724  0.00  0.00     0.064 H 
BRANCH  49  52
ATOM     52  NE  ARG d   1      53.044 -34.358 -10.113  0.00  0.00    -0.227 N 
ATOM     53  CZ  ARG d   1      52.484 -33.326 -10.768  0.00  0.00     0.665 C 
ATOM     54  NH1 ARG d   1      52.638 -33.202 -12.104  0.00  0.00    -0.235 N 
ATOM     55  NH2 ARG d   1      51.775 -32.411 -10.083  0.00  0.00    -0.235 N 
ATOM     56  H25 ARG d   1      52.207 -32.409 -12.601  0.00  0.00     0.174 HD
ATOM     57  H26 ARG d   1      53.187 -33.900 -12.626  0.00  0.00     0.174 HD
ATOM     58  H27 ARG d   1      51.658 -32.507  -9.064  0.00  0.00     0.174 HD
ATOM     59  H28 ARG d   1      51.349 -31.614 -10.577  0.00  0.00     0.174 HD
ATOM     60  H24 ARG d   1      52.883 -34.417  -9.097  0.00  0.00     0.177 HD
ENDBRANCH  49  52
ENDBRANCH  46  49
ENDBRANCH  43  46
ENDBRANCH  13  43
ENDBRANCH  10  13
ENDBRANCH   7   9
BRANCH   7  61
ATOM     61  CB  ARG d   1      54.687 -33.329  -3.315  0.00  0.00    -0.036 C 
ATOM     62  H31 ARG d   1      54.091 -32.624  -3.913  0.00  0.00     0.036 H 
ATOM     63  H32 ARG d   1      55.749 -33.047  -3.366  0.00  0.00     0.036 H 
BRANCH  61  64
ATOM     64  CG  ARG d   1      54.220 -33.238  -1.828  0.00  0.00    -0.048 C 
ATOM     65  H33 ARG d   1      54.693 -34.039  -1.241  0.00  0.00     0.035 H 
ATOM     66  H34 ARG d   1      53.126 -33.343  -1.776  0.00  0.00     0.035 H 
BRANCH  64  67
ATOM     67  CD  ARG d   1      54.637 -31.869  -1.267  0.00  0.00     0.009 C 
ATOM     68  H35 ARG d   1      54.285 -31.087  -1.956  0.00  0.00     0.064 H 
ATOM     69  H36 ARG d   1      55.735 -31.837  -1.206  0.00  0.00     0.064 H 
BRANCH  67  70
ATOM     70  NE  ARG d   1      54.084 -31.593   0.078  0.00  0.00    -0.227 N 
ATOM     71  CZ  ARG d   1      52.911 -30.958   0.300  0.00  0.00     0.665 C 
ATOM     72  NH1 ARG d   1      52.160 -30.568  -0.753  0.00  0.00    -0.235 N 
ATOM     73  NH2 ARG d   1      52.488 -30.727   1.574  0.00  0.00    -0.235 N 
ATOM     74  H38 ARG d   1      51.265 -30.084  -0.596  0.00  0.00     0.174 HD
ATOM     75  H39 ARG d   1      52.483 -30.755  -1.713  0.00  0.00     0.174 HD
ATOM     76  H40 ARG d   1      53.067 -31.028   2.371  0.00  0.00     0.174 HD
ATOM     77  H41 ARG d   1      51.589 -30.252   1.740  0.00  0.00     0.174 HD
ATOM     78  H37 ARG d   1      54.627 -31.904   0.896  0.00  0.00     0.177 HD
ENDBRANCH  67  70
ENDBRANCH  64  67
ENDBRANCH  61  64
ENDBRANCH   7  61
ENDBRANCH   4   7
ENDBRANCH   1   3
BRANCH   1  79
ATOM     79  C   ARG d   1      50.618 -35.295  -6.720  0.00  0.00     0.241 C 
ATOM     80  O   ARG d   1      51.210 -34.769  -7.664  0.00  0.00    -0.271 OA
ATOM     81  N   ARG d   1      49.698 -36.263  -6.887  0.00  0.00    -0.346 N 
ATOM     82  H55 ARG d   1      49.215 -36.622  -6.088  0.00  0.00     0.163 HD
BRANCH  81  83
ATOM     83  CA  ARG d   1      49.387 -36.805  -8.223  0.00  0.00     0.089 C 
ATOM     84  H56 ARG d   1      49.996 -36.289  -8.980  0.00  0.00     0.087 H 
BRANCH  83  85
ATOM     85  C   ARG d   1      47.897 -36.691  -8.597  0.00  0.00     0.241 C 
ATOM     86  O   ARG d   1      47.028 -36.715  -7.731  0.00  0.00    -0.271 OA
ATOM     87  N   ARG d   1      47.626 -36.636  -9.918  0.00  0.00    -0.346 N 
ATOM     88  H68 ARG d   1      48.389 -36.586 -10.562  0.00  0.00     0.163 HD
BRANCH  87  89
ATOM     89  CA  ARG d   1      46.254 -36.647 -10.450  0.00  0.00     0.089 C 
ATOM     90  H69 ARG d   1      45.651 -35.832 -10.024  0.00  0.00     0.087 H 
BRANCH  89  91
ATOM     91  C   ARG d   1      45.696 -38.037 -10.059  0.00  0.00     0.240 C 
ATOM     92  O   ARG d   1      46.403 -39.036 -10.213  0.00  0.00    -0.271 OA
ATOM     93  N23 ARG d   1      44.464 -38.081  -9.502  0.00  0.00    -0.355 N 
ATOM     94  H81 ARG d   1      43.944 -37.231  -9.418  0.00  0.00     0.162 HD
BRANCH  93  95
ATOM     95  C16 ARG d   1      43.852 -39.346  -9.009  0.00  0.00     0.019 C 
ATOM     96  H82 ARG d   1      44.374 -40.204  -9.458  0.00  0.00     0.071 H 
ATOM     97  H83 ARG d   1      42.790 -39.373  -9.294  0.00  0.00     0.071 H 
BRANCH  95  98
ATOM     98  C17 ARG d   1      43.964 -39.416  -7.574  0.00  0.00    -0.040 A 
ATOM     99  C22 ARG d   1      45.183 -39.715  -6.967  0.00  0.00    -0.074 A 
ATOM    100  C21 ARG d   1      45.310 -39.773  -5.561  0.00  0.00    -0.069 A 
ATOM    101  H84 ARG d   1      46.051 -39.907  -7.587  0.00  0.00     0.084 H 
ATOM    102  C24 ARG d   1      44.221 -39.538  -4.720  0.00  0.00     0.007 A 
ATOM    103  H85 ARG d   1      46.275 -40.005  -5.125  0.00  0.00     0.085 H 
ATOM    104  C19 ARG d   1      42.995 -39.234  -5.328  0.00  0.00    -0.069 A 
ATOM    105  C18 ARG d   1      42.870 -39.178  -6.731  0.00  0.00    -0.074 A 
ATOM    106  H90 ARG d   1      42.127 -39.038  -4.708  0.00  0.00     0.085 H 
ATOM    107  H91 ARG d   1      41.906 -38.946  -7.168  0.00  0.00     0.084 H 
BRANCH 102 108
ATOM    108  C27 ARG d   1      44.366 -39.603  -3.309  0.00  0.00     0.102 C 
BRANCH 108 109
ATOM    109  N35 ARG d   1      45.562 -39.894  -2.778  0.00  0.00    -0.385 N 
ATOM    110  H86 ARG d   1      45.673 -39.943  -1.755  0.00  0.00     0.157 HD
ATOM    111  H87 ARG d   1      46.370 -40.069  -3.393  0.00  0.00     0.157 HD
ENDBRANCH 108 109
BRANCH 108 112
ATOM    112  N34 ARG d   1      43.314 -39.337  -2.528  0.00  0.00    -0.385 N 
ATOM    113  H88 ARG d   1      42.401 -39.115  -2.951  0.00  0.00     0.157 HD
ATOM    114  H89 ARG d   1      43.416 -39.354  -1.503  0.00  0.00     0.157 HD
ENDBRANCH 108 112
ENDBRANCH 102 108
ENDBRANCH  95  98
ENDBRANCH  93  95
ENDBRANCH  89  91
BRANCH  89 115
ATOM    115  CB  ARG d   1      46.290 -36.551 -11.988  0.00  0.00    -0.036 C 
ATOM    116  H70 ARG d   1      45.285 -36.773 -12.376  0.00  0.00     0.036 H 
ATOM    117  H71 ARG d   1      47.003 -37.297 -12.369  0.00  0.00     0.036 H 
BRANCH 115 118
ATOM    118  CG  ARG d   1      46.718 -35.155 -12.498  0.00  0.00    -0.048 C 
ATOM    119  H72 ARG d   1      47.616 -34.821 -11.958  0.00  0.00     0.035 H 
ATOM    120  H73 ARG d   1      45.903 -34.434 -12.337  0.00  0.00     0.035 H 
BRANCH 118 121
ATOM    121  CD  ARG d   1      47.027 -35.267 -14.011  0.00  0.00     0.009 C 
ATOM    122  H74 ARG d   1      46.134 -35.650 -14.526  0.00  0.00     0.064 H 
ATOM    123  H75 ARG d   1      47.861 -35.971 -14.150  0.00  0.00     0.064 H 
BRANCH 121 124
ATOM    124  NE  ARG d   1      47.399 -33.966 -14.609  0.00  0.00    -0.227 N 
ATOM    125  CZ  ARG d   1      48.632 -33.437 -14.538  0.00  0.00     0.665 C 
ATOM    126  NH1 ARG d   1      49.597 -34.080 -13.853  0.00  0.00    -0.235 N 
ATOM    127  NH2 ARG d   1      48.894 -32.253 -15.125  0.00  0.00    -0.235 N 
ATOM    128  H77 ARG d   1      50.544 -33.678 -13.796  0.00  0.00     0.174 HD
ATOM    129  H78 ARG d   1      49.389 -34.974 -13.386  0.00  0.00     0.174 HD
ATOM    130  H79 ARG d   1      48.155 -31.763 -15.648  0.00  0.00     0.174 HD
ATOM    131  H80 ARG d   1      49.834 -31.838 -15.050  0.00  0.00     0.174 HD
ATOM    132  H76 ARG d   1      46.671 -33.435 -15.108  0.00  0.00     0.177 HD
ENDBRANCH 121 124
ENDBRANCH 118 121
ENDBRANCH 115 118
ENDBRANCH  89 115
ENDBRANCH  87  89
ENDBRANCH  83  85
BRANCH  83 133
ATOM    133  CB  ARG d   1      49.723 -38.305  -8.181  0.00  0.00    -0.038 C 
ATOM    134  H57 ARG d   1      49.390 -38.770  -9.121  0.00  0.00     0.036 H 
ATOM    135  H58 ARG d   1      49.190 -38.765  -7.335  0.00  0.00     0.036 H 
BRANCH 133 136
ATOM    136  CG  ARG d   1      51.227 -38.552  -8.012  0.00  0.00    -0.061 C 
ATOM    137  H63 ARG d   1      51.397 -39.227  -7.160  0.00  0.00     0.033 H 
ATOM    138  H64 ARG d   1      51.740 -37.596  -7.831  0.00  0.00     0.033 H 
BRANCH 136 139
ATOM    139  CD  ARG d   1      51.773 -39.197  -9.300  0.00  0.00    -0.043 C 
ATOM    140  H59 ARG d   1      51.174 -40.088  -9.538  0.00  0.00     0.035 H 
ATOM    141  H60 ARG d   1      51.697 -38.473 -10.125  0.00  0.00     0.035 H 
BRANCH 139 142
ATOM    142  CE  ARG d   1      53.247 -39.612  -9.128  0.00  0.00     0.080 C 
ATOM    143  H61 ARG d   1      53.286 -40.626  -8.704  0.00  0.00     0.075 H 
ATOM    144  H62 ARG d   1      53.740 -38.908  -8.441  0.00  0.00     0.075 H 
BRANCH 142 145
ATOM    145  NZ  ARG d   1      53.963 -39.603 -10.422  0.00  0.00    -0.079 N 
ATOM    146  H65 ARG d   1      54.922 -39.878 -10.277  0.00  0.00     0.274 HD
ATOM    147  H66 ARG d   1      53.935 -38.675 -10.815  0.00  0.00     0.274 HD
ATOM    148  H67 ARG d   1      53.520 -40.250 -11.056  0.00  0.00     0.274 HD
ENDBRANCH 142 145
ENDBRANCH 139 142
ENDBRANCH 136 139
ENDBRANCH 133 136
ENDBRANCH  83 133
ENDBRANCH  81  83
ENDBRANCH   1  79
BRANCH   1 149
ATOM    149  CB  ARG d   1      50.079 -33.589  -4.907  0.00  0.00    -0.036 C 
ATOM    150  H44 ARG d   1      49.005 -33.813  -4.987  0.00  0.00     0.036 H 
ATOM    151  H45 ARG d   1      50.340 -32.788  -5.614  0.00  0.00     0.036 H 
BRANCH 149 152
ATOM    152  CG  ARG d   1      50.389 -33.113  -3.469  0.00  0.00    -0.048 C 
ATOM    153  H46 ARG d   1      50.002 -32.092  -3.334  0.00  0.00     0.035 H 
ATOM    154  H47 ARG d   1      51.478 -33.116  -3.313  0.00  0.00     0.035 H 
BRANCH 152 155
ATOM    155  CD  ARG d   1      49.726 -34.048  -2.439  0.00  0.00     0.009 C 
ATOM    156  H48 ARG d   1      50.164 -35.052  -2.535  0.00  0.00     0.064 H 
ATOM    157  H49 ARG d   1      48.647 -34.098  -2.645  0.00  0.00     0.064 H 
BRANCH 155 158
ATOM    158  NE  ARG d   1      49.928 -33.567  -1.053  0.00  0.00    -0.227 N 
ATOM    159  CZ  ARG d   1      50.765 -34.133  -0.157  0.00  0.00     0.665 C 
ATOM    160  NH1 ARG d   1      51.517 -35.180  -0.511  0.00  0.00    -0.235 N 
ATOM    161  NH2 ARG d   1      50.847 -33.667   1.106  0.00  0.00    -0.235 N 
ATOM    162  H51 ARG d   1      52.155 -35.611   0.173  0.00  0.00     0.174 HD
ATOM    163  H52 ARG d   1      51.459 -35.556  -1.468  0.00  0.00     0.174 HD
ATOM    164  H53 ARG d   1      50.275 -32.861   1.396  0.00  0.00     0.174 HD
ATOM    165  H54 ARG d   1      51.482 -34.117   1.781  0.00  0.00     0.174 HD
ATOM    166  H50 ARG d   1      49.392 -32.741  -0.751  0.00  0.00     0.177 HD
ENDBRANCH 155 158
ENDBRANCH 152 155
ENDBRANCH 149 152
ENDBRANCH   1 149
TORSDOF 42
