REMARK WARNING: 32 MAX_TORS EXCEEDED!!!
REMARK  40 active torsions:
REMARK  status: ('A' for Active; 'I' for Inactive)
REMARK    1  A    between atoms: CA_2  and  N_1 
REMARK    2  A    between atoms: C_3  and  CA_2 
REMARK    3  A    between atoms: CA_2  and  CB_5 
REMARK       I    between atoms: N_16  and  C_3 
REMARK    4  A    between atoms: CB_5  and  CG1_6 
REMARK    5  A    between atoms: CA_17  and  N_16 
REMARK    6  A    between atoms: C_18  and  CA_17 
REMARK    7  A    between atoms: CA_17  and  CB_20 
REMARK       I    between atoms: N_27  and  C_18 
REMARK    8  A    between atoms: CB_20  and  CG_21 
REMARK    9  A    between atoms: CG_21  and  CD_22 
REMARK   10  A    between atoms: CD_22  and  NE_23 
REMARK       I    between atoms: NE_23  and  CZ_24 
REMARK       I    between atoms: CZ_24  and  NH1_25 
REMARK       I    between atoms: CZ_24  and  NH2_26 
REMARK   11  A    between atoms: CA_28  and  N_27 
REMARK   12  A    between atoms: C_29  and  CA_28 
REMARK   13  A    between atoms: CA_28  and  CB_31 
REMARK       I    between atoms: N_38  and  C_29 
REMARK   14  A    between atoms: CB_31  and  CG_32 
REMARK   15  A    between atoms: CG_32  and  CD_33 
REMARK   16  A    between atoms: CD_33  and  NE_34 
REMARK       I    between atoms: NE_34  and  CZ_35 
REMARK       I    between atoms: CZ_35  and  NH1_36 
REMARK       I    between atoms: CZ_35  and  NH2_37 
REMARK   17  A    between atoms: CA_39  and  N_38 
REMARK   18  A    between atoms: C_40  and  CA_39 
REMARK   19  A    between atoms: CA_39  and  CB_42 
REMARK       I    between atoms: N_50  and  C_40 
REMARK   20  A    between atoms: CB_42  and  CG_43 
REMARK   21  A    between atoms: CG_43  and  CD_44 
REMARK   22  A    between atoms: CD_44  and  NE_45 
REMARK       I    between atoms: NE_45  and  CZ_46 
REMARK       I    between atoms: CZ_46  and  NH1_47 
REMARK       I    between atoms: CZ_46  and  NH2_48 
REMARK   23  A    between atoms: CA_52  and  C_49 
REMARK       I    between atoms: C_49  and  N_58 
REMARK   24  A    between atoms: CA_52  and  N_50 
REMARK   25  A    between atoms: CB_53  and  CA_52 
REMARK   26  A    between atoms: CG_56  and  CB_53 
REMARK   27  A    between atoms: CD_54  and  CE_55 
REMARK   28  A    between atoms: CD_54  and  CG_56 
REMARK   29  A    between atoms: CE_55  and  NZ_57 
REMARK   30  A    between atoms: N_58  and  CA_59 
REMARK   31  A    between atoms: CA_59  and  C_60 
REMARK   32  A    between atoms: CA_59  and  CB_62 
REMARK       I    between atoms: C_60  and  N23_67 
REMARK   33  A    between atoms: CB_62  and  CG_63 
REMARK   34  A    between atoms: CG_63  and  CD_64 
REMARK   35  A    between atoms: CD_64  and  CE_65 
REMARK   36  A    between atoms: CE_65  and  NZ_66 
REMARK   37  A    between atoms: N23_67  and  C16_68 
REMARK   38  A    between atoms: C16_68  and  C17_69 
REMARK   39  A    between atoms: C24_72  and  C27_73 
REMARK   40  A    between atoms: C27_73  and  N35_74 
ROOT
ATOM      1  CA  ALN d   1      51.087 -34.843  -5.197  0.00  0.00     0.089 C 
ATOM      2  H41 ALN d   1      50.837 -35.659  -4.502  0.00  0.00     0.087 H 
ENDROOT
BRANCH   1   3
ATOM      3  N   ALN d   1      52.517 -34.495  -5.027  0.00  0.00    -0.346 N 
ATOM      4  C   ALN d   1      53.267 -34.973  -4.005  0.00  0.00     0.241 C 
ATOM      5  O   ALN d   1      52.815 -35.720  -3.134  0.00  0.00    -0.271 OA
ATOM      6  H40 ALN d   1      52.945 -33.884  -5.692  0.00  0.00     0.163 HD
BRANCH   4   7
ATOM      7  CA  ALN d   1      54.750 -34.515  -3.949  0.00  0.00     0.089 C 
ATOM      8  H28 ALN d   1      55.308 -35.236  -3.334  0.00  0.00     0.087 H 
BRANCH   7   9
ATOM      9  N   ALN d   1      55.334 -34.497  -5.306  0.00  0.00    -0.346 N 
ATOM     10  C   ALN d   1      55.639 -35.627  -5.969  0.00  0.00     0.241 C 
ATOM     11  O   ALN d   1      55.446 -36.754  -5.512  0.00  0.00    -0.271 OA
ATOM     12  H27 ALN d   1      55.508 -33.616  -5.746  0.00  0.00     0.163 HD
BRANCH  10  13
ATOM     13  CA  ALN d   1      56.233 -35.417  -7.376  0.00  0.00     0.089 C 
ATOM     14  H15 ALN d   1      56.600 -34.382  -7.443  0.00  0.00     0.087 H 
BRANCH  13  15
ATOM     15  N   ALN d   1      57.368 -36.328  -7.639  0.00  0.00    -0.346 N 
ATOM     16  C   ALN d   1      58.648 -35.945  -7.448  0.00  0.00     0.249 C 
ATOM     17  O   ALN d   1      58.964 -34.830  -7.031  0.00  0.00    -0.271 OA
ATOM     18  H14 ALN d   1      57.182 -37.254  -7.968  0.00  0.00     0.163 HD
BRANCH  16  19
ATOM     19  CA  ALN d   1      59.746 -36.987  -7.785  0.00  0.00     0.179 C 
ATOM     20  H4  ALN d   1      60.440 -37.041  -6.933  0.00  0.00     0.099 H 
BRANCH  19  21
ATOM     21  N   ALN d   1      59.183 -38.337  -7.993  0.00  0.00    -0.066 N 
ATOM     22  H1  ALN d   1      59.927 -38.982  -8.209  0.00  0.00     0.275 HD
ATOM     23  H2  ALN d   1      58.527 -38.313  -8.758  0.00  0.00     0.275 HD
ATOM     24  H3  ALN d   1      58.711 -38.637  -7.154  0.00  0.00     0.275 HD
ENDBRANCH  19  21
BRANCH  19  25
ATOM     25  CB  ALN d   1      60.532 -36.515  -9.018  0.00  0.00    -0.005 C 
ATOM     26  H5  ALN d   1      60.332 -35.447  -9.187  0.00  0.00     0.043 H 
ATOM     27  H6  ALN d   1      60.207 -37.092  -9.896  0.00  0.00     0.043 H 
BRANCH  25  28
ATOM     28  CG1 ALN d   1      61.901 -36.701  -8.828  0.00  0.00    -0.045 A 
ATOM     29  CD1 ALN d   1      62.394 -37.152  -7.607  0.00  0.00    -0.076 A 
ATOM     30  CE1 ALN d   1      63.760 -37.332  -7.428  0.00  0.00    -0.082 A 
ATOM     31  H7  ALN d   1      61.710 -37.364  -6.793  0.00  0.00     0.084 H 
ATOM     32  CZ1 ALN d   1      64.637 -37.059  -8.470  0.00  0.00    -0.072 A 
ATOM     33  H8  ALN d   1      64.141 -37.685  -6.476  0.00  0.00     0.083 H 
ATOM     34  CE2 ALN d   1      64.148 -36.607  -9.690  0.00  0.00    -0.025 A 
ATOM     35  H9  ALN d   1      65.703 -37.199  -8.332  0.00  0.00     0.084 H 
ATOM     36  CD2 ALN d   1      62.781 -36.427  -9.869  0.00  0.00    -0.020 A 
ATOM     37  CZ2 ALN d   1      65.026 -36.334 -10.732  0.00  0.00    -0.072 A 
ATOM     38  CG2 ALN d   1      62.294 -35.974 -11.090  0.00  0.00    -0.072 A 
ATOM     39  CD3 ALN d   1      63.172 -35.701 -12.132  0.00  0.00    -0.082 A 
ATOM     40  H10 ALN d   1      61.228 -35.834 -11.229  0.00  0.00     0.084 H 
ATOM     41  CE3 ALN d   1      64.539 -35.881 -11.952  0.00  0.00    -0.082 A 
ATOM     42  H11 ALN d   1      62.792 -35.348 -13.084  0.00  0.00     0.083 H 
ATOM     43  H12 ALN d   1      65.225 -35.668 -12.764  0.00  0.00     0.083 H 
ATOM     44  H13 ALN d   1      66.092 -36.475 -10.593  0.00  0.00     0.084 H 
ENDBRANCH  25  28
ENDBRANCH  19  25
ENDBRANCH  16  19
ENDBRANCH  13  15
BRANCH  13  45
ATOM     45  CB  ALN d   1      55.144 -35.620  -8.440  0.00  0.00    -0.036 C 
ATOM     46  H16 ALN d   1      54.152 -35.462  -7.991  0.00  0.00     0.036 H 
ATOM     47  H17 ALN d   1      55.205 -36.641  -8.844  0.00  0.00     0.036 H 
BRANCH  45  48
ATOM     48  CG  ALN d   1      55.371 -34.603  -9.565  0.00  0.00    -0.048 C 
ATOM     49  H18 ALN d   1      56.402 -34.701  -9.934  0.00  0.00     0.035 H 
ATOM     50  H19 ALN d   1      55.219 -33.589  -9.168  0.00  0.00     0.035 H 
BRANCH  48  51
ATOM     51  CD  ALN d   1      54.398 -34.836 -10.729  0.00  0.00     0.009 C 
ATOM     52  H20 ALN d   1      54.331 -35.917 -10.920  0.00  0.00     0.064 H 
ATOM     53  H21 ALN d   1      54.791 -34.329 -11.623  0.00  0.00     0.064 H 
BRANCH  51  54
ATOM     54  NE  ALN d   1      53.035 -34.319 -10.452  0.00  0.00    -0.227 N 
ATOM     55  CZ  ALN d   1      52.665 -33.033 -10.207  0.00  0.00     0.665 C 
ATOM     56  NH1 ALN d   1      51.369 -32.751 -10.009  0.00  0.00    -0.235 N 
ATOM     57  NH2 ALN d   1      53.558 -32.026 -10.152  0.00  0.00    -0.235 N 
ATOM     58  H23 ALN d   1      51.076 -31.781  -9.823  0.00  0.00     0.174 HD
ATOM     59  H24 ALN d   1      50.667 -33.504 -10.043  0.00  0.00     0.174 HD
ATOM     60  H25 ALN d   1      54.559 -32.217 -10.301  0.00  0.00     0.174 HD
ATOM     61  H26 ALN d   1      53.240 -31.065  -9.961  0.00  0.00     0.174 HD
ATOM     62  H22 ALN d   1      52.278 -35.018 -10.444  0.00  0.00     0.177 HD
ENDBRANCH  51  54
ENDBRANCH  48  51
ENDBRANCH  45  48
ENDBRANCH  13  45
ENDBRANCH  10  13
ENDBRANCH   7   9
BRANCH   7  63
ATOM     63  CB  ALN d   1      54.899 -33.116  -3.315  0.00  0.00    -0.036 C 
ATOM     64  H29 ALN d   1      54.324 -32.392  -3.910  0.00  0.00     0.036 H 
ATOM     65  H30 ALN d   1      55.962 -32.833  -3.321  0.00  0.00     0.036 H 
BRANCH  63  66
ATOM     66  CG  ALN d   1      54.379 -33.090  -1.849  0.00  0.00    -0.048 C 
ATOM     67  H31 ALN d   1      54.834 -33.916  -1.282  0.00  0.00     0.035 H 
ATOM     68  H32 ALN d   1      53.285 -33.202  -1.844  0.00  0.00     0.035 H 
BRANCH  66  69
ATOM     69  CD  ALN d   1      54.762 -31.750  -1.203  0.00  0.00     0.009 C 
ATOM     70  H33 ALN d   1      54.453 -30.936  -1.875  0.00  0.00     0.064 H 
ATOM     71  H34 ALN d   1      55.854 -31.723  -1.073  0.00  0.00     0.064 H 
BRANCH  69  72
ATOM     72  NE  ALN d   1      54.127 -31.539   0.113  0.00  0.00    -0.227 N 
ATOM     73  CZ  ALN d   1      52.948 -30.904   0.288  0.00  0.00     0.665 C 
ATOM     74  NH1 ALN d   1      52.269 -30.463  -0.794  0.00  0.00    -0.235 N 
ATOM     75  NH2 ALN d   1      52.446 -30.728   1.541  0.00  0.00    -0.235 N 
ATOM     76  H36 ALN d   1      51.369 -29.977  -0.674  0.00  0.00     0.174 HD
ATOM     77  H37 ALN d   1      52.652 -30.613  -1.738  0.00  0.00     0.174 HD
ATOM     78  H38 ALN d   1      52.972 -31.068   2.359  0.00  0.00     0.174 HD
ATOM     79  H39 ALN d   1      51.540 -30.255   1.671  0.00  0.00     0.174 HD
ATOM     80  H35 ALN d   1      54.612 -31.898   0.948  0.00  0.00     0.177 HD
ENDBRANCH  69  72
ENDBRANCH  66  69
ENDBRANCH  63  66
ENDBRANCH   7  63
ENDBRANCH   4   7
ENDBRANCH   1   3
BRANCH   1  81
ATOM     81  C   ALN d   1      50.844 -35.350  -6.645  0.00  0.00     0.241 C 
ATOM     82  O   ALN d   1      51.493 -34.898  -7.588  0.00  0.00    -0.271 OA
ATOM     83  N   ALN d   1      49.926 -36.323  -6.786  0.00  0.00    -0.346 N 
ATOM     84  H53 ALN d   1      49.424 -36.628  -5.977  0.00  0.00     0.163 HD
BRANCH  83  85
ATOM     85  CA  ALN d   1      49.626 -36.963  -8.089  0.00  0.00     0.089 C 
ATOM     86  H54 ALN d   1      50.220 -36.493  -8.887  0.00  0.00     0.087 H 
BRANCH  85  87
ATOM     87  C   ALN d   1      48.126 -36.866  -8.422  0.00  0.00     0.241 C 
ATOM     88  O   ALN d   1      47.283 -36.839  -7.519  0.00  0.00    -0.271 OA
ATOM     89  N   ALN d   1      47.824 -36.835  -9.742  0.00  0.00    -0.346 N 
ATOM     90  H66 ALN d   1      48.579 -36.829 -10.398  0.00  0.00     0.163 HD
BRANCH  89  91
ATOM     91  CA  ALN d   1      46.449 -36.810 -10.266  0.00  0.00     0.089 C 
ATOM     92  H67 ALN d   1      45.868 -36.001  -9.799  0.00  0.00     0.087 H 
BRANCH  91  93
ATOM     93  C   ALN d   1      45.859 -38.181  -9.924  0.00  0.00     0.240 C 
ATOM     94  O   ALN d   1      46.558 -39.179 -10.043  0.00  0.00    -0.271 OA
ATOM     95  N23 ALN d   1      44.595 -38.214  -9.461  0.00  0.00    -0.355 N 
ATOM     96  H79 ALN d   1      44.067 -37.365  -9.431  0.00  0.00     0.162 HD
BRANCH  95  97
ATOM     97  C16 ALN d   1      43.966 -39.468  -8.996  0.00  0.00     0.019 C 
ATOM     98  H80 ALN d   1      44.478 -40.333  -9.443  0.00  0.00     0.071 H 
ATOM     99  H81 ALN d   1      42.904 -39.483  -9.282  0.00  0.00     0.071 H 
BRANCH  97 100
ATOM    100  C17 ALN d   1      44.089 -39.513  -7.555  0.00  0.00    -0.040 A 
ATOM    101  C22 ALN d   1      43.005 -39.245  -6.731  0.00  0.00    -0.074 A 
ATOM    102  C21 ALN d   1      43.100 -39.261  -5.327  0.00  0.00    -0.069 A 
ATOM    103  H82 ALN d   1      42.049 -39.014  -7.186  0.00  0.00     0.084 H 
ATOM    104  C24 ALN d   1      44.305 -39.567  -4.688  0.00  0.00     0.007 A 
ATOM    105  H83 ALN d   1      42.224 -39.032  -4.731  0.00  0.00     0.085 H 
ATOM    106  C19 ALN d   1      45.400 -39.843  -5.510  0.00  0.00    -0.069 A 
ATOM    107  C18 ALN d   1      45.298 -39.812  -6.920  0.00  0.00    -0.074 A 
ATOM    108  H88 ALN d   1      46.353 -40.087  -5.055  0.00  0.00     0.085 H 
ATOM    109  H89 ALN d   1      46.175 -40.024  -7.521  0.00  0.00     0.084 H 
BRANCH 104 110
ATOM    110  C27 ALN d   1      44.412 -39.598  -3.277  0.00  0.00     0.102 C 
ATOM    111  N34 ALN d   1      43.326 -39.347  -2.533  0.00  0.00    -0.385 N 
ATOM    112  H86 ALN d   1      42.420 -39.166  -2.989  0.00  0.00     0.157 HD
ATOM    113  H87 ALN d   1      43.397 -39.335  -1.506  0.00  0.00     0.157 HD
BRANCH 110 114
ATOM    114  N35 ALN d   1      45.607 -39.837  -2.710  0.00  0.00    -0.385 N 
ATOM    115  H84 ALN d   1      45.695 -39.861  -1.684  0.00  0.00     0.157 HD
ATOM    116  H85 ALN d   1      46.435 -39.996  -3.301  0.00  0.00     0.157 HD
ENDBRANCH 110 114
ENDBRANCH 104 110
ENDBRANCH  97 100
ENDBRANCH  95  97
ENDBRANCH  91  93
BRANCH  91 117
ATOM    117  CB  ALN d   1      46.455 -36.641 -11.805  0.00  0.00    -0.038 C 
ATOM    118  H68 ALN d   1      45.429 -36.763 -12.183  0.00  0.00     0.036 H 
ATOM    119  H69 ALN d   1      47.103 -37.412 -12.248  0.00  0.00     0.036 H 
BRANCH 117 120
ATOM    120  CG  ALN d   1      46.974 -35.262 -12.211  0.00  0.00    -0.061 C 
ATOM    121  H70 ALN d   1      47.981 -35.119 -11.792  0.00  0.00     0.033 H 
ATOM    122  H71 ALN d   1      46.298 -34.492 -11.812  0.00  0.00     0.033 H 
BRANCH 120 123
ATOM    123  CD  ALN d   1      47.044 -35.124 -13.760  0.00  0.00    -0.043 C 
ATOM    124  H72 ALN d   1      46.122 -35.521 -14.210  0.00  0.00     0.035 H 
ATOM    125  H73 ALN d   1      47.910 -35.683 -14.144  0.00  0.00     0.035 H 
BRANCH 123 126
ATOM    126  CE  ALN d   1      47.192 -33.634 -14.109  0.00  0.00     0.080 C 
ATOM    127  H74 ALN d   1      47.860 -33.167 -13.370  0.00  0.00     0.075 H 
ATOM    128  H75 ALN d   1      46.200 -33.163 -14.056  0.00  0.00     0.075 H 
BRANCH 126 129
ATOM    129  NZ  ALN d   1      47.749 -33.404 -15.456  0.00  0.00    -0.079 N 
ATOM    130  H76 ALN d   1      47.821 -32.413 -15.625  0.00  0.00     0.274 HD
ATOM    131  H77 ALN d   1      47.142 -33.819 -16.146  0.00  0.00     0.274 HD
ATOM    132  H78 ALN d   1      48.664 -33.823 -15.517  0.00  0.00     0.274 HD
ENDBRANCH 126 129
ENDBRANCH 123 126
ENDBRANCH 120 123
ENDBRANCH 117 120
ENDBRANCH  91 117
ENDBRANCH  89  91
ENDBRANCH  85  87
BRANCH  85 133
ATOM    133  CB  ALN d   1      49.976 -38.457  -7.952  0.00  0.00    -0.038 C 
ATOM    134  H55 ALN d   1      49.682 -38.975  -8.877  0.00  0.00     0.036 H 
ATOM    135  H56 ALN d   1      49.414 -38.875  -7.104  0.00  0.00     0.036 H 
BRANCH 133 136
ATOM    136  CG  ALN d   1      51.483 -38.689  -7.711  0.00  0.00    -0.061 C 
ATOM    137  H61 ALN d   1      51.615 -39.388  -6.872  0.00  0.00     0.033 H 
ATOM    138  H62 ALN d   1      51.965 -37.730  -7.470  0.00  0.00     0.033 H 
BRANCH 136 139
ATOM    139  CD  ALN d   1      52.133 -39.284  -8.979  0.00  0.00    -0.043 C 
ATOM    140  H57 ALN d   1      51.586 -40.192  -9.272  0.00  0.00     0.035 H 
ATOM    141  H58 ALN d   1      52.079 -38.545  -9.792  0.00  0.00     0.035 H 
BRANCH 139 142
ATOM    142  CE  ALN d   1      53.608 -39.644  -8.721  0.00  0.00     0.080 C 
ATOM    143  H59 ALN d   1      53.653 -40.607  -8.191  0.00  0.00     0.075 H 
ATOM    144  H60 ALN d   1      54.063 -38.860  -8.097  0.00  0.00     0.075 H 
BRANCH 142 145
ATOM    145  NZ  ALN d   1      54.369 -39.755  -9.982  0.00  0.00    -0.079 N 
ATOM    146  H63 ALN d   1      55.327 -39.991  -9.777  0.00  0.00     0.274 HD
ATOM    147  H64 ALN d   1      54.337 -38.875 -10.472  0.00  0.00     0.274 HD
ATOM    148  H65 ALN d   1      53.962 -40.475 -10.558  0.00  0.00     0.274 HD
ENDBRANCH 142 145
ENDBRANCH 139 142
ENDBRANCH 136 139
ENDBRANCH 133 136
ENDBRANCH  85 133
ENDBRANCH  83  85
ENDBRANCH   1  81
BRANCH   1 149
ATOM    149  CB  ALN d   1      50.207 -33.622  -4.840  0.00  0.00    -0.036 C 
ATOM    150  H42 ALN d   1      49.148 -33.915  -4.889  0.00  0.00     0.036 H 
ATOM    151  H43 ALN d   1      50.399 -32.816  -5.564  0.00  0.00     0.036 H 
BRANCH 149 152
ATOM    152  CG  ALN d   1      50.526 -33.107  -3.410  0.00  0.00    -0.048 C 
ATOM    153  H44 ALN d   1      50.144 -32.082  -3.296  0.00  0.00     0.035 H 
ATOM    154  H45 ALN d   1      51.615 -33.112  -3.253  0.00  0.00     0.035 H 
BRANCH 152 155
ATOM    155  CD  ALN d   1      49.855 -34.022  -2.372  0.00  0.00     0.009 C 
ATOM    156  H46 ALN d   1      50.281 -35.032  -2.465  0.00  0.00     0.064 H 
ATOM    157  H47 ALN d   1      48.776 -34.059  -2.581  0.00  0.00     0.064 H 
BRANCH 155 158
ATOM    158  NE  ALN d   1      50.052 -33.552  -0.984  0.00  0.00    -0.227 N 
ATOM    159  CZ  ALN d   1      50.864 -34.176  -0.095  0.00  0.00     0.665 C 
ATOM    160  NH1 ALN d   1      50.960 -33.746   1.182  0.00  0.00    -0.235 N 
ATOM    161  NH2 ALN d   1      51.576 -35.246  -0.478  0.00  0.00    -0.235 N 
ATOM    162  H49 ALN d   1      51.582 -34.232   1.844  0.00  0.00     0.174 HD
ATOM    163  H50 ALN d   1      50.411 -32.932   1.494  0.00  0.00     0.174 HD
ATOM    164  H51 ALN d   1      51.513 -35.586  -1.448  0.00  0.00     0.174 HD
ATOM    165  H52 ALN d   1      52.185 -35.728   0.198  0.00  0.00     0.174 HD
ATOM    166  H48 ALN d   1      49.547 -32.708  -0.677  0.00  0.00     0.177 HD
ENDBRANCH 155 158
ENDBRANCH 152 155
ENDBRANCH 149 152
ENDBRANCH   1 149
TORSDOF 40
