REMARK  18 active torsions:
REMARK  status: ('A' for Active; 'I' for Inactive)
REMARK    1  A    between atoms: CA_2  and  N_1 
REMARK    2  A    between atoms: CA_11  and  CB_14 
REMARK    3  A    between atoms: CB_14  and  CG_15 
REMARK    4  A    between atoms: CG_15  and  CD_16 
REMARK    5  A    between atoms: CD_16  and  NE_17 
REMARK       I    between atoms: NE_17  and  CZ_18 
REMARK       I    between atoms: CZ_18  and  NH1_19 
REMARK       I    between atoms: CZ_18  and  NH2_20 
REMARK    6  A    between atoms: CA_22  and  CB_25 
REMARK    7  A    between atoms: CB_25  and  CG_26 
REMARK    8  A    between atoms: CG_26  and  CD_27 
REMARK    9  A    between atoms: CD_27  and  NE_28 
REMARK       I    between atoms: NE_28  and  CZ_29 
REMARK       I    between atoms: CZ_29  and  NH1_30 
REMARK       I    between atoms: CZ_29  and  NH2_31 
REMARK   10  A    between atoms: CA_33  and  CB_34 
REMARK   11  A    between atoms: CB_34  and  CG1_35 
REMARK   12  A    between atoms: CB_34  and  CG2_36 
REMARK   13  A    between atoms: CB_34  and  CG3_37 
REMARK   14  A    between atoms: CA_41  and  C_42 
REMARK       I    between atoms: C_42  and  N23_49 
REMARK   15  A    between atoms: N23_49  and  C16_50 
REMARK   16  A    between atoms: C16_50  and  C17_51 
REMARK   17  A    between atoms: C24_54  and  C27_55 
REMARK   18  A    between atoms: C27_55  and  N35_56 
ROOT
ATOM      1  CA  LYS d   1      56.254 -36.676  -6.686  0.00  0.00     0.176 C 
ATOM      2  C   LYS d   1      55.397 -36.452  -5.597  0.00  0.00     0.248 C 
ATOM      3  O   LYS d   1      54.695 -37.358  -5.151  0.00  0.00    -0.271 OA
ATOM      4  CB  LYS d   1      55.662 -36.179  -7.995  0.00  0.00    -0.030 C 
ATOM      5  CG  LYS d   1      56.758 -35.487  -8.813  0.00  0.00    -0.061 C 
ATOM      6  CD  LYS d   1      57.947 -36.400  -9.093  0.00  0.00    -0.050 C 
ATOM      7  CE  LYS d   1      58.681 -35.817 -10.283  0.00  0.00    -0.005 C 
ATOM      8  NZ  LYS d   1      57.685 -35.583 -11.352  0.00  0.00    -0.361 N 
ATOM      9  N   LYS d   1      55.352 -35.190  -4.971  0.00  0.00    -0.346 N 
ATOM     10  CA  LYS d   1      54.501 -34.960  -3.772  0.00  0.00     0.089 C 
ATOM     11  C   LYS d   1      53.122 -35.218  -3.988  0.00  0.00     0.241 C 
ATOM     12  O   LYS d   1      52.494 -35.902  -3.175  0.00  0.00    -0.271 OA
ATOM     13  N   LYS d   1      52.436 -34.742  -5.122  0.00  0.00    -0.346 N 
ATOM     14  CA  LYS d   1      50.973 -34.993  -5.295  0.00  0.00     0.089 C 
ATOM     15  C   LYS d   1      50.706 -35.489  -6.599  0.00  0.00     0.241 C 
ATOM     16  O   LYS d   1      51.343 -35.092  -7.580  0.00  0.00    -0.271 OA
ATOM     17  N   LYS d   1      49.716 -36.481  -6.782  0.00  0.00    -0.345 N 
ATOM     18  CA  LYS d   1      49.420 -37.137  -8.083  0.00  0.00     0.095 C 
ATOM     19  C   LYS d   1      48.046 -37.030  -8.429  0.00  0.00     0.241 C 
ATOM     20  O   LYS d   1      47.160 -36.973  -7.572  0.00  0.00    -0.271 OA
ATOM     21  N   LYS d   1      47.667 -37.028  -9.783  0.00  0.00    -0.346 N 
ATOM     22  CA  LYS d   1      46.263 -37.000 -10.291  0.00  0.00     0.089 C 
ATOM     23  CB  LYS d   1      46.227 -36.710 -11.827  0.00  0.00    -0.038 C 
ATOM     24  CG  LYS d   1      46.792 -35.302 -12.111  0.00  0.00    -0.061 C 
ATOM     25  CD  LYS d   1      47.179 -35.081 -13.613  0.00  0.00    -0.050 C 
ATOM     26  CE  LYS d   1      47.361 -33.557 -13.846  0.00  0.00    -0.005 C 
ATOM     27  NZ  LYS d   1      48.166 -33.135 -15.035  0.00  0.00    -0.361 N 
ATOM     28  C32 LYS d   1      57.772 -34.502 -12.234  0.00  0.00     0.219 C 
ATOM     29  C33 LYS d   1      56.789 -34.341 -13.203  0.00  0.00     0.032 C 
ATOM     30  C34 LYS d   1      55.673 -33.450 -12.669  0.00  0.00     0.091 C 
ATOM     31  C35 LYS d   1      53.611 -32.299 -13.242  0.00  0.00     0.106 C 
ATOM     32  C36 LYS d   1      52.690 -31.938 -14.409  0.00  0.00     0.106 C 
ATOM     33  C37 LYS d   1      51.424 -32.975 -16.294  0.00  0.00     0.091 C 
ATOM     34  C38 LYS d   1      50.273 -32.067 -15.829  0.00  0.00     0.032 C 
ATOM     35  C39 LYS d   1      49.452 -32.561 -14.795  0.00  0.00     0.219 C 
ATOM     36  C43 LYS d   1      52.700 -34.353 -14.764  0.00  0.00     0.106 C 
ATOM     37  C44 LYS d   1      54.047 -34.519 -14.065  0.00  0.00     0.106 C 
ATOM     38  N16 LYS d   1      54.651 -33.225 -13.704  0.00  0.00    -0.067 N 
ATOM     39  N17 LYS d   1      52.602 -33.035 -15.397  0.00  0.00    -0.067 N 
ATOM     40  O6  LYS d   1      58.711 -33.712 -12.151  0.00  0.00    -0.274 OA
ATOM     41  O7  LYS d   1      49.812 -32.436 -13.626  0.00  0.00    -0.274 OA
ATOM     42  H4  LYS d   1      57.185 -36.118  -6.507  0.00  0.00     0.099 H 
ATOM     43  H5  LYS d   1      54.853 -35.464  -7.785  0.00  0.00     0.036 H 
ATOM     44  H6  LYS d   1      55.260 -37.031  -8.564  0.00  0.00     0.036 H 
ATOM     45  H7  LYS d   1      57.113 -34.608  -8.254  0.00  0.00     0.033 H 
ATOM     46  H8  LYS d   1      56.329 -35.163  -9.773  0.00  0.00     0.033 H 
ATOM     47  H9  LYS d   1      57.597 -37.416  -9.326  0.00  0.00     0.035 H 
ATOM     48  H10 LYS d   1      58.612 -36.433  -8.218  0.00  0.00     0.035 H 
ATOM     49  H11 LYS d   1      59.448 -36.523 -10.633  0.00  0.00     0.064 H 
ATOM     50  H12 LYS d   1      59.158 -34.867 -10.001  0.00  0.00     0.064 H 
ATOM     51  H13 LYS d   1      56.922 -36.222 -11.447  0.00  0.00     0.162 HD
ATOM     52  H14 LYS d   1      55.900 -34.438  -5.338  0.00  0.00     0.163 HD
ATOM     53  H15 LYS d   1      54.835 -35.675  -3.006  0.00  0.00     0.087 H 
ATOM     54  H27 LYS d   1      52.934 -34.229  -5.821  0.00  0.00     0.163 HD
ATOM     55  H28 LYS d   1      50.678 -35.774  -4.579  0.00  0.00     0.087 H 
ATOM     56  H40 LYS d   1      49.180 -36.760  -5.985  0.00  0.00     0.163 HD
ATOM     57  H41 LYS d   1      50.015 -36.649  -8.869  0.00  0.00     0.088 H 
ATOM     58  H51 LYS d   1      48.400 -37.047 -10.463  0.00  0.00     0.163 HD
ATOM     59  H52 LYS d   1      45.701 -36.209  -9.772  0.00  0.00     0.087 H 
ATOM     60  H53 LYS d   1      45.188 -36.764 -12.184  0.00  0.00     0.036 H 
ATOM     61  H54 LYS d   1      46.836 -37.460 -12.354  0.00  0.00     0.036 H 
ATOM     62  H55 LYS d   1      47.691 -35.155 -11.494  0.00  0.00     0.033 H 
ATOM     63  H56 LYS d   1      46.031 -34.558 -11.833  0.00  0.00     0.033 H 
ATOM     64  H57 LYS d   1      46.380 -35.465 -14.264  0.00  0.00     0.035 H 
ATOM     65  H58 LYS d   1      48.119 -35.607 -13.837  0.00  0.00     0.035 H 
ATOM     66  H59 LYS d   1      47.850 -33.142 -12.952  0.00  0.00     0.064 H 
ATOM     67  H60 LYS d   1      46.358 -33.117 -13.953  0.00  0.00     0.064 H 
ATOM     68  H61 LYS d   1      47.816 -33.251 -15.965  0.00  0.00     0.162 HD
ATOM     69  H73 LYS d   1      56.374 -35.325 -13.469  0.00  0.00     0.049 H 
ATOM     70  H74 LYS d   1      57.231 -33.876 -14.097  0.00  0.00     0.049 H 
ATOM     71  H75 LYS d   1      56.098 -32.482 -12.364  0.00  0.00     0.076 H 
ATOM     72  H76 LYS d   1      55.206 -33.937 -11.800  0.00  0.00     0.076 H 
ATOM     73  H77 LYS d   1      53.022 -32.778 -12.445  0.00  0.00     0.078 H 
ATOM     74  H78 LYS d   1      54.082 -31.385 -12.851  0.00  0.00     0.078 H 
ATOM     75  H79 LYS d   1      53.083 -31.040 -14.908  0.00  0.00     0.078 H 
ATOM     76  H80 LYS d   1      51.683 -31.730 -14.017  0.00  0.00     0.078 H 
ATOM     77  H81 LYS d   1      51.765 -32.612 -17.275  0.00  0.00     0.076 H 
ATOM     78  H82 LYS d   1      51.027 -33.996 -16.398  0.00  0.00     0.076 H 
ATOM     79  H83 LYS d   1      49.630 -31.872 -16.700  0.00  0.00     0.049 H 
ATOM     80  H84 LYS d   1      50.715 -31.122 -15.480  0.00  0.00     0.049 H 
ATOM     81  H85 LYS d   1      51.894 -34.458 -14.023  0.00  0.00     0.078 H 
ATOM     82  H86 LYS d   1      52.595 -35.132 -15.534  0.00  0.00     0.078 H 
ATOM     83  H87 LYS d   1      54.732 -35.054 -14.739  0.00  0.00     0.078 H 
ATOM     84  H88 LYS d   1      53.900 -35.109 -13.148  0.00  0.00     0.078 H 
ATOM     85  H89 LYS d   1      55.095 -32.829 -14.518  0.00  0.00     0.280 HD
ATOM     86  H90 LYS d   1      53.411 -32.937 -15.990  0.00  0.00     0.280 HD
ENDROOT
BRANCH  22  87
ATOM     87  C   LYS d   1      45.695 -38.253  -9.988  0.00  0.00     0.240 C 
ATOM     88  O   LYS d   1      46.357 -39.276 -10.173  0.00  0.00    -0.271 OA
ATOM     89  N23 LYS d   1      44.446 -38.263  -9.457  0.00  0.00    -0.355 N 
ATOM     90  H62 LYS d   1      43.954 -37.397  -9.371  0.00  0.00     0.162 HD
BRANCH  89  91
ATOM     91  C16 LYS d   1      43.778 -39.516  -8.996  0.00  0.00     0.019 C 
ATOM     92  H63 LYS d   1      44.275 -40.392  -9.437  0.00  0.00     0.071 H 
ATOM     93  H64 LYS d   1      42.718 -39.508  -9.291  0.00  0.00     0.071 H 
BRANCH  91  94
ATOM     94  C17 LYS d   1      43.891 -39.555  -7.561  0.00  0.00    -0.040 A 
ATOM     95  C22 LYS d   1      45.037 -40.063  -6.952  0.00  0.00    -0.074 A 
ATOM     96  C21 LYS d   1      45.180 -40.084  -5.555  0.00  0.00    -0.069 A 
ATOM     97  H65 LYS d   1      45.837 -40.451  -7.572  0.00  0.00     0.084 H 
ATOM     98  C24 LYS d   1      44.178 -39.597  -4.712  0.00  0.00     0.007 A 
ATOM     99  H66 LYS d   1      46.088 -40.487  -5.121  0.00  0.00     0.085 H 
ATOM    100  C19 LYS d   1      43.027 -39.082  -5.318  0.00  0.00    -0.069 A 
ATOM    101  C18 LYS d   1      42.885 -39.068  -6.725  0.00  0.00    -0.074 A 
ATOM    102  H71 LYS d   1      42.230 -38.687  -4.698  0.00  0.00     0.085 H 
ATOM    103  H72 LYS d   1      41.976 -38.671  -7.163  0.00  0.00     0.084 H 
BRANCH  98 104
ATOM    104  C27 LYS d   1      44.338 -39.631  -3.304  0.00  0.00     0.102 C 
ATOM    105  N34 LYS d   1      43.295 -39.371  -2.511  0.00  0.00    -0.385 N 
ATOM    106  H69 LYS d   1      42.370 -39.181  -2.922  0.00  0.00     0.157 HD
ATOM    107  H70 LYS d   1      43.416 -39.360  -1.488  0.00  0.00     0.157 HD
BRANCH 104 108
ATOM    108  N35 LYS d   1      45.543 -39.879  -2.786  0.00  0.00    -0.385 N 
ATOM    109  H67 LYS d   1      45.669 -39.906  -1.764  0.00  0.00     0.157 HD
ATOM    110  H68 LYS d   1      46.347 -40.044  -3.408  0.00  0.00     0.157 HD
ENDBRANCH 104 108
ENDBRANCH  98 104
ENDBRANCH  91  94
ENDBRANCH  89  91
ENDBRANCH  22  87
BRANCH  18 111
ATOM    111  CB  LYS d   1      49.838 -38.649  -7.985  0.00  0.00    -0.022 C 
BRANCH 111 112
ATOM    112  CG1 LYS d   1      49.733 -39.326  -9.369  0.00  0.00    -0.067 C 
ATOM    113  H42 LYS d   1      50.028 -40.382  -9.284  0.00  0.00     0.028 H 
ATOM    114  H43 LYS d   1      50.400 -38.815 -10.079  0.00  0.00     0.028 H 
ATOM    115  H44 LYS d   1      48.696 -39.263  -9.730  0.00  0.00     0.028 H 
ENDBRANCH 111 112
BRANCH 111 116
ATOM    116  CG2 LYS d   1      51.275 -38.816  -7.471  0.00  0.00    -0.067 C 
ATOM    117  H45 LYS d   1      51.369 -38.339  -6.484  0.00  0.00     0.028 H 
ATOM    118  H46 LYS d   1      51.974 -38.342  -8.176  0.00  0.00     0.028 H 
ATOM    119  H47 LYS d   1      51.511 -39.887  -7.385  0.00  0.00     0.028 H 
ENDBRANCH 111 116
BRANCH 111 120
ATOM    120  CG3 LYS d   1      48.936 -39.420  -7.003  0.00  0.00    -0.067 C 
ATOM    121  H48 LYS d   1      47.887 -39.334  -7.324  0.00  0.00     0.028 H 
ATOM    122  H49 LYS d   1      49.046 -38.996  -5.994  0.00  0.00     0.028 H 
ATOM    123  H50 LYS d   1      49.230 -40.480  -6.990  0.00  0.00     0.028 H 
ENDBRANCH 111 120
ENDBRANCH  18 111
BRANCH  14 124
ATOM    124  CB  LYS d   1      50.153 -33.720  -4.956  0.00  0.00    -0.036 C 
ATOM    125  H29 LYS d   1      49.081 -33.959  -5.023  0.00  0.00     0.036 H 
ATOM    126  H30 LYS d   1      50.399 -32.934  -5.685  0.00  0.00     0.036 H 
BRANCH 124 127
ATOM    127  CG  LYS d   1      50.461 -33.194  -3.529  0.00  0.00    -0.048 C 
ATOM    128  H31 LYS d   1      50.111 -32.155  -3.440  0.00  0.00     0.035 H 
ATOM    129  H32 LYS d   1      51.546 -33.232  -3.353  0.00  0.00     0.035 H 
BRANCH 127 130
ATOM    130  CD  LYS d   1      49.742 -34.067  -2.479  0.00  0.00     0.009 C 
ATOM    131  H33 LYS d   1      50.118 -35.098  -2.559  0.00  0.00     0.064 H 
ATOM    132  H34 LYS d   1      48.662 -34.053  -2.687  0.00  0.00     0.064 H 
BRANCH 130 133
ATOM    133  NE  LYS d   1      49.967 -33.583  -1.096  0.00  0.00    -0.227 N 
ATOM    134  CZ  LYS d   1      50.793 -34.177  -0.200  0.00  0.00     0.665 C 
ATOM    135  NH1 LYS d   1      50.904 -33.694   1.050  0.00  0.00    -0.235 N 
ATOM    136  NH2 LYS d   1      51.508 -35.262  -0.544  0.00  0.00    -0.235 N 
ATOM    137  H36 LYS d   1      51.534 -34.151   1.725  0.00  0.00     0.174 HD
ATOM    138  H37 LYS d   1      50.359 -32.867   1.333  0.00  0.00     0.174 HD
ATOM    139  H38 LYS d   1      51.435 -35.646  -1.497  0.00  0.00     0.174 HD
ATOM    140  H39 LYS d   1      52.129 -35.710   0.145  0.00  0.00     0.174 HD
ATOM    141  H35 LYS d   1      49.461 -32.738  -0.795  0.00  0.00     0.177 HD
ENDBRANCH 130 133
ENDBRANCH 127 130
ENDBRANCH 124 127
ENDBRANCH  14 124
BRANCH  10 142
ATOM    142  CB  LYS d   1      54.737 -33.539  -3.203  0.00  0.00    -0.036 C 
ATOM    143  H16 LYS d   1      54.195 -32.813  -3.827  0.00  0.00     0.036 H 
ATOM    144  H17 LYS d   1      55.814 -33.319  -3.235  0.00  0.00     0.036 H 
BRANCH 142 145
ATOM    145  CG  LYS d   1      54.241 -33.404  -1.731  0.00  0.00    -0.048 C 
ATOM    146  H18 LYS d   1      54.735 -34.158  -1.101  0.00  0.00     0.035 H 
ATOM    147  H19 LYS d   1      53.151 -33.550  -1.691  0.00  0.00     0.035 H 
BRANCH 145 148
ATOM    148  CD  LYS d   1      54.595 -31.998  -1.230  0.00  0.00     0.009 C 
ATOM    149  H20 LYS d   1      54.198 -31.263  -1.946  0.00  0.00     0.064 H 
ATOM    150  H21 LYS d   1      55.691 -31.910  -1.185  0.00  0.00     0.064 H 
BRANCH 148 151
ATOM    151  NE  LYS d   1      54.044 -31.691   0.112  0.00  0.00    -0.227 N 
ATOM    152  CZ  LYS d   1      52.923 -30.956   0.317  0.00  0.00     0.665 C 
ATOM    153  NH1 LYS d   1      52.238 -30.507  -0.763  0.00  0.00    -0.235 N 
ATOM    154  NH2 LYS d   1      52.497 -30.682   1.593  0.00  0.00    -0.235 N 
ATOM    155  H23 LYS d   1      51.383 -29.947  -0.634  0.00  0.00     0.174 HD
ATOM    156  H24 LYS d   1      52.572 -30.726  -1.712  0.00  0.00     0.174 HD
ATOM    157  H25 LYS d   1      53.032 -31.032   2.401  0.00  0.00     0.174 HD
ATOM    158  H26 LYS d   1      51.643 -30.126   1.743  0.00  0.00     0.174 HD
ATOM    159  H22 LYS d   1      54.541 -32.057   0.936  0.00  0.00     0.177 HD
ENDBRANCH 148 151
ENDBRANCH 145 148
ENDBRANCH 142 145
ENDBRANCH  10 142
BRANCH   1 160
ATOM    160  N   LYS d   1      56.586 -38.119  -6.765  0.00  0.00    -0.067 N 
ATOM    161  H1  LYS d   1      57.201 -38.280  -7.547  0.00  0.00     0.275 HD
ATOM    162  H2  LYS d   1      55.740 -38.652  -6.888  0.00  0.00     0.275 HD
ATOM    163  H3  LYS d   1      57.043 -38.406  -5.913  0.00  0.00     0.275 HD
ENDBRANCH   1 160
TORSDOF 18
