REMARK  12 active torsions:
REMARK  status: ('A' for Active; 'I' for Inactive)
REMARK    1  A    between atoms: CA_5  and  C_6 
REMARK    2  A    between atoms: N_8  and  CAG_9 
REMARK    3  A    between atoms: CAG_9  and  CAH_10 
REMARK    4  A    between atoms: CAH_10  and  OAP_11 
REMARK    5  A    between atoms: CAH_10  and  CAI_12 
REMARK    6  A    between atoms: CAI_12  and  OAQ_13 
REMARK    7  A    between atoms: CAI_12  and  CAJ_14 
REMARK    8  A    between atoms: CAJ_14  and  OAR_15 
REMARK    9  A    between atoms: CAJ_14  and  CAK_16 
REMARK   10  A    between atoms: CAK_16  and  OAT_17 
REMARK   11  A    between atoms: CAK_16  and  CAL_18 
REMARK   12  A    between atoms: CAL_18  and  OAS_19 
ROOT
ATOM      1  CAH G9Z d   1      19.868 -25.543  21.197  0.00  0.00     0.078 C 
ATOM      2  H8  G9Z d   1      20.560 -25.438  20.349  0.00  0.00     0.089 H 
ENDROOT
BRANCH   1   3
ATOM      3  CAG G9Z d   1      19.397 -27.010  21.302  0.00  0.00     0.025 C 
ATOM      4  H6  G9Z d   1      20.271 -27.661  21.452  0.00  0.00     0.068 H 
ATOM      5  H7  G9Z d   1      18.714 -27.110  22.158  0.00  0.00     0.068 H 
BRANCH   3   6
ATOM      6  N   G9Z d   1      18.688 -27.420  20.058  0.00  0.00    -0.335 N 
ATOM      7  CAB G9Z d   1      19.249 -27.839  18.915  0.00  0.00     0.220 C 
ATOM      8  OAM G9Z d   1      20.474 -28.012  18.720  0.00  0.00    -0.273 OA
ATOM      9  CAC G9Z d   1      18.288 -28.172  17.966  0.00  0.00     0.012 C 
ATOM     10  CB  G9Z d   1      16.914 -28.039  18.589  0.00  0.00    -0.029 C 
ATOM     11  H1  G9Z d   1      18.443 -29.209  17.632  0.00  0.00     0.047 H 
ATOM     12  H2  G9Z d   1      18.370 -27.493  17.104  0.00  0.00     0.047 H 
ATOM     13  CA  G9Z d   1      17.165 -27.385  19.922  0.00  0.00     0.099 C 
ATOM     14  H3  G9Z d   1      16.450 -29.028  18.722  0.00  0.00     0.037 H 
ATOM     15  H4  G9Z d   1      16.263 -27.410  17.964  0.00  0.00     0.037 H 
ATOM     16  H5  G9Z d   1      16.830 -26.337  19.902  0.00  0.00     0.089 H 
BRANCH  13  17
ATOM     17  C   G9Z d   1      16.424 -28.066  20.956  0.00  0.00     0.197 C 
ATOM     18  O   G9Z d   1      15.196 -27.795  21.070  0.00  0.00    -0.646 OA
ATOM     19  OXT G9Z d   1      17.041 -28.881  21.684  0.00  0.00    -0.646 OA
ENDBRANCH  13  17
ENDBRANCH   3   6
ENDBRANCH   1   3
BRANCH   1  20
ATOM     20  OAP G9Z d   1      18.697 -24.731  20.976  0.00  0.00    -0.391 OA
ATOM     21  H9  G9Z d   1      18.954 -23.819  20.907  0.00  0.00     0.210 HD
ENDBRANCH   1  20
BRANCH   1  22
ATOM     22  CAI G9Z d   1      20.587 -25.091  22.498  0.00  0.00     0.089 C 
ATOM     23  H10 G9Z d   1      20.511 -23.995  22.551  0.00  0.00     0.091 H 
BRANCH  22  24
ATOM     24  OAQ G9Z d   1      19.916 -25.635  23.663  0.00  0.00    -0.390 OA
ATOM     25  H11 G9Z d   1      19.925 -26.584  23.618  0.00  0.00     0.210 HD
ENDBRANCH  22  24
BRANCH  22  26
ATOM     26  CAJ G9Z d   1      22.111 -25.449  22.504  0.00  0.00     0.089 C 
ATOM     27  H12 G9Z d   1      22.581 -25.010  21.611  0.00  0.00     0.091 H 
BRANCH  26  28
ATOM     28  OAR G9Z d   1      22.278 -26.882  22.460  0.00  0.00    -0.390 OA
ATOM     29  H13 G9Z d   1      21.878 -27.222  21.668  0.00  0.00     0.210 HD
ENDBRANCH  26  28
BRANCH  26  30
ATOM     30  CAK G9Z d   1      22.798 -24.866  23.762  0.00  0.00     0.083 C 
ATOM     31  H14 G9Z d   1      22.330 -25.346  24.634  0.00  0.00     0.090 H 
BRANCH  30  32
ATOM     32  OAT G9Z d   1      22.550 -23.460  23.839  0.00  0.00    -0.391 OA
ATOM     33  H15 G9Z d   1      21.614 -23.307  23.892  0.00  0.00     0.210 HD
ENDBRANCH  30  32
BRANCH  30  34
ATOM     34  CAL G9Z d   1      24.336 -25.123  23.869  0.00  0.00     0.043 C 
ATOM     35  H16 G9Z d   1      24.517 -26.194  24.045  0.00  0.00     0.078 H 
ATOM     36  H17 G9Z d   1      24.747 -24.539  24.706  0.00  0.00     0.078 H 
BRANCH  34  37
ATOM     37  OAS G9Z d   1      24.980 -24.723  22.642  0.00  0.00    -0.398 OA
ATOM     38  H18 G9Z d   1      24.625 -25.228  21.920  0.00  0.00     0.209 HD
ENDBRANCH  34  37
ENDBRANCH  30  34
ENDBRANCH  26  30
ENDBRANCH  22  26
ENDBRANCH   1  22
TORSDOF 12
