REMARK WARNING: 32 MAX_TORS EXCEEDED!!!
REMARK  35 active torsions:
REMARK  status: ('A' for Active; 'I' for Inactive)
REMARK    1  A    between atoms: N_1  and  CA_2 
REMARK    2  A    between atoms: CA_2  and  C_3 
REMARK       I    between atoms: C_3  and  N_5 
REMARK    3  A    between atoms: N_5  and  CA_6 
REMARK    4  A    between atoms: CA_6  and  C_7 
REMARK    5  A    between atoms: CA_6  and  CB_9 
REMARK       I    between atoms: C_7  and  N_12 
REMARK    6  A    between atoms: CB_9  and  CG1_10 
REMARK    7  A    between atoms: CB_9  and  CG2_11 
REMARK    8  A    between atoms: N_12  and  CA_13 
REMARK    9  A    between atoms: CA_13  and  C_14 
REMARK   10  A    between atoms: CA_13  and  CB_16 
REMARK       I    between atoms: C_14  and  N_20 
REMARK   11  A    between atoms: CB_16  and  CG_17 
REMARK   12  A    between atoms: CG_17  and  SD_18 
REMARK   13  A    between atoms: SD_18  and  CE_19 
REMARK   14  A    between atoms: N_20  and  CA_21 
REMARK   15  A    between atoms: CA_21  and  C_22 
REMARK   16  A    between atoms: CA_21  and  CB_24 
REMARK       I    between atoms: C_22  and  N_27 
REMARK   17  A    between atoms: CB_24  and  OG1_25 
REMARK   18  A    between atoms: CB_24  and  CG2_26 
REMARK   19  A    between atoms: N_27  and  CA_28 
REMARK   20  A    between atoms: CA_28  and  C_29 
REMARK   21  A    between atoms: CA_28  and  CB_31 
REMARK       I    between atoms: C_29  and  N_34 
REMARK   22  A    between atoms: CB_31  and  CG1_32 
REMARK   23  A    between atoms: CB_31  and  CG2_33 
REMARK   24  A    between atoms: CA_35  and  C_36 
REMARK       I    between atoms: C_36  and  N_41 
REMARK   25  A    between atoms: N_41  and  CA_42 
REMARK   26  A    between atoms: CA_42  and  C_43 
REMARK   27  A    between atoms: CA_42  and  CB_45 
REMARK       I    between atoms: C_43  and  N_49 
REMARK   28  A    between atoms: CB_45  and  CG_46 
REMARK       I    between atoms: CG_46  and  ND2_48 
REMARK   29  A    between atoms: N_49  and  CA_50 
REMARK   30  A    between atoms: CA_50  and  CB_51 
REMARK   31  A    between atoms: CA_50  and  C_58 
REMARK   32  A    between atoms: CB_51  and  CG2_52 
REMARK   33  A    between atoms: CB_51  and  OG1_53 
REMARK   34  A    between atoms: OG1_53  and  P_54 
REMARK       I    between atoms: C_58  and  N_60 
REMARK   35  A    between atoms: CA_61  and  C_62 
ROOT
ATOM      1  CA  VAL d   1     -44.744   8.145 -11.834  0.00  0.00     0.092 C 
ATOM      2  H32 VAL d   1     -45.844   8.147 -11.859  0.00  0.00     0.088 H 
ENDROOT
BRANCH   1   3
ATOM      3  N   VAL d   1     -44.246   7.521 -13.050  0.00  0.00    -0.346 N 
ATOM      4  C   THR d   1     -45.053   7.263 -14.073  0.00  0.00     0.243 C 
ATOM      5  O   THR d   1     -46.276   7.154 -13.955  0.00  0.00    -0.271 OA
ATOM      6  H31 VAL d   1     -43.277   7.282 -13.117  0.00  0.00     0.163 HD
BRANCH   4   7
ATOM      7  CA  THR d   1     -44.369   7.080 -15.415  0.00  0.00     0.113 C 
ATOM      8  H25 THR d   1     -43.477   6.449 -15.287  0.00  0.00     0.091 H 
BRANCH   7   9
ATOM      9  N   THR d   1     -45.283   6.405 -16.325  0.00  0.00    -0.344 N 
ATOM     10  C   MET d   1     -44.867   5.476 -17.186  0.00  0.00     0.241 C 
ATOM     11  O   MET d   1     -43.683   5.114 -17.252  0.00  0.00    -0.271 OA
ATOM     12  H24 THR d   1     -46.253   6.646 -16.304  0.00  0.00     0.163 HD
BRANCH  10  13
ATOM     13  CA  MET d   1     -45.913   4.880 -18.119  0.00  0.00     0.090 C 
ATOM     14  H16 MET d   1     -45.583   3.873 -18.414  0.00  0.00     0.087 H 
BRANCH  13  15
ATOM     15  N   MET d   1     -47.202   4.767 -17.445  0.00  0.00    -0.346 N 
ATOM     16  C   VAL d   1     -47.426   3.760 -16.600  0.00  0.00     0.241 C 
ATOM     17  O   VAL d   1     -46.636   2.826 -16.442  0.00  0.00    -0.271 OA
ATOM     18  H15 MET d   1     -47.917   5.444 -17.617  0.00  0.00     0.163 HD
BRANCH  16  19
ATOM     19  CA  VAL d   1     -48.737   3.815 -15.833  0.00  0.00     0.092 C 
ATOM     20  H7  VAL d   1     -49.516   4.257 -16.472  0.00  0.00     0.088 H 
BRANCH  19  21
ATOM     21  N   VAL d   1     -49.108   2.444 -15.520  0.00  0.00    -0.346 N 
ATOM     22  C   GLY d   1     -50.361   2.006 -15.594  0.00  0.00     0.243 C 
ATOM     23  O   GLY d   1     -51.316   2.760 -15.715  0.00  0.00    -0.272 OA
ATOM     24  H6  VAL d   1     -48.392   1.805 -15.238  0.00  0.00     0.163 HD
BRANCH  22  25
ATOM     25  CA  GLY d   1     -50.545   0.511 -15.475  0.00  0.00     0.152 C 
ATOM     26  H4  GLY d   1     -51.456   0.312 -14.892  0.00  0.00     0.090 H 
ATOM     27  H5  GLY d   1     -50.656   0.087 -16.484  0.00  0.00     0.090 H 
BRANCH  25  28
ATOM     28  N   GLY d   1     -49.418  -0.134 -14.817  0.00  0.00    -0.071 N 
ATOM     29  H1  GLY d   1     -49.585  -1.127 -14.761  0.00  0.00     0.274 HD
ATOM     30  H2  GLY d   1     -49.311   0.242 -13.888  0.00  0.00     0.274 HD
ATOM     31  H3  GLY d   1     -48.578   0.036 -15.347  0.00  0.00     0.274 HD
ENDBRANCH  25  28
ENDBRANCH  22  25
ENDBRANCH  19  21
BRANCH  19  32
ATOM     32  CB  VAL d   1     -48.584   4.700 -14.572  0.00  0.00    -0.033 C 
ATOM     33  H8  VAL d   1     -48.310   5.715 -14.896  0.00  0.00     0.042 H 
BRANCH  32  34
ATOM     34  CG1 VAL d   1     -49.890   4.789 -13.804  0.00  0.00    -0.071 C 
ATOM     35  H9  VAL d   1     -49.751   5.423 -12.916  0.00  0.00     0.028 H 
ATOM     36  H10 VAL d   1     -50.200   3.781 -13.491  0.00  0.00     0.028 H 
ATOM     37  H11 VAL d   1     -50.666   5.228 -14.449  0.00  0.00     0.028 H 
ENDBRANCH  32  34
BRANCH  32  38
ATOM     38  CG2 VAL d   1     -47.456   4.161 -13.677  0.00  0.00    -0.071 C 
ATOM     39  H12 VAL d   1     -46.523   4.106 -14.256  0.00  0.00     0.028 H 
ATOM     40  H13 VAL d   1     -47.723   3.157 -13.316  0.00  0.00     0.028 H 
ATOM     41  H14 VAL d   1     -47.316   4.834 -12.818  0.00  0.00     0.028 H 
ENDBRANCH  32  38
ENDBRANCH  19  32
ENDBRANCH  16  19
ENDBRANCH  13  15
BRANCH  13  42
ATOM     42  CB  MET d   1     -46.054   5.733 -19.374  0.00  0.00    -0.030 C 
ATOM     43  H17 MET d   1     -46.250   6.770 -19.063  0.00  0.00     0.037 H 
ATOM     44  H18 MET d   1     -46.911   5.355 -19.950  0.00  0.00     0.037 H 
BRANCH  42  45
ATOM     45  CG  MET d   1     -44.840   5.735 -20.281  0.00  0.00    -0.021 C 
ATOM     46  H19 MET d   1     -44.850   4.827 -20.901  0.00  0.00     0.049 H 
ATOM     47  H20 MET d   1     -43.928   5.748 -19.665  0.00  0.00     0.049 H 
BRANCH  45  48
ATOM     48  SD  MET d   1     -44.853   7.189 -21.355  0.00  0.00    -0.173 SA
BRANCH  48  49
ATOM     49  CE  MET d   1     -45.615   6.508 -22.817  0.00  0.00    -0.035 C 
ATOM     50  H21 MET d   1     -45.697   7.290 -23.586  0.00  0.00     0.041 H 
ATOM     51  H22 MET d   1     -46.619   6.133 -22.567  0.00  0.00     0.041 H 
ATOM     52  H23 MET d   1     -45.000   5.681 -23.200  0.00  0.00     0.041 H 
ENDBRANCH  48  49
ENDBRANCH  45  48
ENDBRANCH  42  45
ENDBRANCH  13  42
ENDBRANCH  10  13
ENDBRANCH   7   9
BRANCH   7  53
ATOM     53  CB  THR d   1     -43.922   8.464 -15.928  0.00  0.00     0.060 C 
ATOM     54  H26 THR d   1     -43.039   8.784 -15.355  0.00  0.00     0.086 H 
BRANCH  53  55
ATOM     55  OG1 THR d   1     -44.984   9.406 -15.722  0.00  0.00    -0.393 OA
ATOM     56  H27 THR d   1     -45.755   9.121 -16.199  0.00  0.00     0.210 HD
ENDBRANCH  53  55
BRANCH  53  57
ATOM     57  CG2 THR d   1     -43.556   8.432 -17.404  0.00  0.00    -0.050 C 
ATOM     58  H28 THR d   1     -43.244   9.437 -17.726  0.00  0.00     0.031 H 
ATOM     59  H29 THR d   1     -44.429   8.113 -17.992  0.00  0.00     0.031 H 
ATOM     60  H30 THR d   1     -42.730   7.723 -17.562  0.00  0.00     0.031 H 
ENDBRANCH  53  57
ENDBRANCH   7  53
ENDBRANCH   4   7
ENDBRANCH   1   3
BRANCH   1  61
ATOM     61  C   VAL d   1     -44.237   9.584 -11.852  0.00  0.00     0.243 C 
ATOM     62  O   VAL d   1     -43.022   9.811 -11.742  0.00  0.00    -0.271 OA
ATOM     63  N   PRO d   1     -45.106  10.573 -12.012  0.00  0.00    -0.337 N 
ATOM     64  CA  PRO d   1     -44.631  11.950 -12.173  0.00  0.00     0.091 C 
ATOM     65  CD  PRO d   1     -46.538  10.449 -12.325  0.00  0.00    -0.001 C 
ATOM     66  CB  PRO d   1     -45.913  12.732 -12.489  0.00  0.00    -0.036 C 
ATOM     67  H40 PRO d   1     -43.918  12.016 -13.008  0.00  0.00     0.087 H 
ATOM     68  CG  PRO d   1     -46.813  11.712 -13.104  0.00  0.00    -0.048 C 
ATOM     69  H41 PRO d   1     -45.708  13.550 -13.195  0.00  0.00     0.036 H 
ATOM     70  H42 PRO d   1     -46.357  13.143 -11.570  0.00  0.00     0.036 H 
ATOM     71  H43 PRO d   1     -46.573  11.573 -14.168  0.00  0.00     0.035 H 
ATOM     72  H44 PRO d   1     -47.867  12.011 -13.002  0.00  0.00     0.035 H 
ATOM     73  H45 PRO d   1     -47.143  10.408 -11.408  0.00  0.00     0.064 H 
ATOM     74  H46 PRO d   1     -46.736   9.555 -12.935  0.00  0.00     0.064 H 
BRANCH  64  75
ATOM     75  C   PRO d   1     -43.968  12.481 -10.916  0.00  0.00     0.241 C 
ATOM     76  O   PRO d   1     -44.299  12.091  -9.794  0.00  0.00    -0.271 OA
ATOM     77  N   ASN d   1     -43.004  13.366 -11.138  0.00  0.00    -0.346 N 
ATOM     78  H47 ASN d   1     -42.729  13.533 -12.085  0.00  0.00     0.163 HD
BRANCH  77  79
ATOM     79  CA  ASN d   1     -42.321  14.111 -10.084  0.00  0.00     0.097 C 
ATOM     80  H48 ASN d   1     -41.613  13.444  -9.570  0.00  0.00     0.088 H 
BRANCH  79  81
ATOM     81  C   ASN d   1     -43.349  14.607  -9.077  0.00  0.00     0.241 C 
ATOM     82  O   ASN d   1     -44.418  15.092  -9.463  0.00  0.00    -0.271 OA
ATOM     83  N   TPO d   1     -43.049  14.432  -7.795  0.00  0.00    -0.344 N 
ATOM     84  H53 TPO d   1     -42.203  13.954  -7.559  0.00  0.00     0.163 HD
BRANCH  83  85
ATOM     85  CA  TPO d   1     -43.908  14.911  -6.720  0.00  0.00     0.114 C 
ATOM     86  H54 TPO d   1     -44.898  14.444  -6.826  0.00  0.00     0.091 H 
BRANCH  85  87
ATOM     87  CB  TPO d   1     -43.320  14.513  -5.362  0.00  0.00     0.076 C 
ATOM     88  H55 TPO d   1     -42.288  14.885  -5.281  0.00  0.00     0.087 H 
BRANCH  87  89
ATOM     89  CG2 TPO d   1     -44.173  15.119  -4.233  0.00  0.00    -0.049 C 
ATOM     90  H56 TPO d   1     -43.749  14.832  -3.259  0.00  0.00     0.031 H 
ATOM     91  H57 TPO d   1     -45.204  14.742  -4.310  0.00  0.00     0.031 H 
ATOM     92  H58 TPO d   1     -44.175  16.215  -4.323  0.00  0.00     0.031 H 
ENDBRANCH  87  89
BRANCH  87  93
ATOM     93  OG1 TPO d   1     -43.325  13.091  -5.265  0.00  0.00    -0.275 OA
BRANCH  93  94
ATOM     94  P   TPO d   1     -41.807  12.553  -5.127  0.00  0.00     0.422 P 
ATOM     95  O1P TPO d   1     -41.034  13.106  -6.261  0.00  0.00    -0.617 OA
ATOM     96  O2P TPO d   1     -41.224  13.030  -3.726  0.00  0.00    -0.617 OA
ATOM     97  O3P TPO d   1     -41.915  10.964  -5.103  0.00  0.00    -0.617 OA
ENDBRANCH  93  94
ENDBRANCH  87  93
ENDBRANCH  85  87
BRANCH  85  98
ATOM     98  C   TPO d   1     -44.073  16.433  -6.801  0.00  0.00     0.246 C 
ATOM     99  O   TPO d   1     -43.094  17.167  -6.755  0.00  0.00    -0.271 OA
ATOM    100  N   PRO d   1     -45.313  16.906  -6.949  0.00  0.00    -0.336 N 
ATOM    101  CA  PRO d   1     -45.555  18.353  -7.065  0.00  0.00     0.098 C 
ATOM    102  CD  PRO d   1     -46.549  16.117  -7.068  0.00  0.00    -0.001 C 
ATOM    103  CB  PRO d   1     -47.076  18.443  -7.228  0.00  0.00    -0.035 C 
ATOM    104  H59 PRO d   1     -45.043  18.757  -7.950  0.00  0.00     0.089 H 
ATOM    105  CG  PRO d   1     -47.494  17.086  -7.727  0.00  0.00    -0.048 C 
ATOM    106  H60 PRO d   1     -47.341  19.222  -7.958  0.00  0.00     0.036 H 
ATOM    107  H61 PRO d   1     -47.556  18.665  -6.263  0.00  0.00     0.036 H 
ATOM    108  H62 PRO d   1     -47.401  17.032  -8.822  0.00  0.00     0.035 H 
ATOM    109  H63 PRO d   1     -48.533  16.871  -7.436  0.00  0.00     0.035 H 
ATOM    110  H64 PRO d   1     -46.921  15.810  -6.079  0.00  0.00     0.064 H 
ATOM    111  H65 PRO d   1     -46.393  15.226  -7.694  0.00  0.00     0.064 H 
BRANCH 101 112
ATOM    112  C   PRO d   1     -45.098  19.130  -5.830  0.00  0.00     0.196 C 
ATOM    113  O   PRO d   1     -45.487  18.746  -4.722  0.00  0.00    -0.646 OA
ATOM    114  OXT PRO d   1     -44.360  20.107  -5.995  0.00  0.00    -0.646 OA
ENDBRANCH 101 112
ENDBRANCH  85  98
ENDBRANCH  83  85
ENDBRANCH  79  81
BRANCH  79 115
ATOM    115  CB  ASN d   1     -41.536  15.285 -10.704  0.00  0.00     0.036 C 
ATOM    116  H49 ASN d   1     -42.253  16.056 -11.021  0.00  0.00     0.051 H 
ATOM    117  H50 ASN d   1     -40.986  14.913 -11.581  0.00  0.00     0.051 H 
BRANCH 115 118
ATOM    118  CG  ASN d   1     -40.545  15.914  -9.744  0.00  0.00     0.217 C 
ATOM    119  OD1 ASN d   1     -40.024  15.260  -8.837  0.00  0.00    -0.274 OA
ATOM    120  ND2 ASN d   1     -40.265  17.196  -9.954  0.00  0.00    -0.370 N 
ATOM    121  H51 ASN d   1     -39.619  17.671  -9.357  0.00  0.00     0.159 HD
ATOM    122  H52 ASN d   1     -40.700  17.686 -10.710  0.00  0.00     0.159 HD
ENDBRANCH 115 118
ENDBRANCH  79 115
ENDBRANCH  77  79
ENDBRANCH  64  75
ENDBRANCH   1  61
BRANCH   1 123
ATOM    123  CB  VAL d   1     -44.301   7.416 -10.557  0.00  0.00    -0.033 C 
ATOM    124  H33 VAL d   1     -43.207   7.493 -10.474  0.00  0.00     0.042 H 
BRANCH 123 125
ATOM    125  CG1 VAL d   1     -44.934   8.081  -9.328  0.00  0.00    -0.071 C 
ATOM    126  H34 VAL d   1     -44.612   7.553  -8.418  0.00  0.00     0.028 H 
ATOM    127  H35 VAL d   1     -46.030   8.035  -9.410  0.00  0.00     0.028 H 
ATOM    128  H36 VAL d   1     -44.614   9.132  -9.274  0.00  0.00     0.028 H 
ENDBRANCH 123 125
BRANCH 123 129
ATOM    129  CG2 VAL d   1     -44.676   5.940 -10.611  0.00  0.00    -0.071 C 
ATOM    130  H37 VAL d   1     -44.216   5.477 -11.496  0.00  0.00     0.028 H 
ATOM    131  H38 VAL d   1     -45.770   5.842 -10.673  0.00  0.00     0.028 H 
ATOM    132  H39 VAL d   1     -44.313   5.436  -9.703  0.00  0.00     0.028 H 
ENDBRANCH 123 129
ENDBRANCH   1 123
TORSDOF 35
