REMARK  5 active torsions:
REMARK  status: ('A' for Active; 'I' for Inactive)
REMARK    1  A    between atoms: C8_6  and  C5_3 
REMARK    2  A    between atoms: O_17  and  C13_8 
REMARK    3  A    between atoms: C13_8  and  C14_18 
REMARK    4  A    between atoms: C2_12  and  C1_11 
REMARK    5  A    between atoms: C12_14  and  O_17 
ROOT
ATOM      1  N1  GDK d   1      22.872 -42.329  39.868  0.00  0.00    -0.257 NA
ATOM      2  C8  GDK d   1      23.124 -42.054  38.557  0.00  0.00     0.100 A 
ATOM      3  C10 GDK d   1      24.530 -44.064  39.792  0.00  0.00    -0.063 A 
ATOM      4  C12 GDK d   1      24.083 -42.758  37.826  0.00  0.00     0.098 A 
ATOM      5  C11 GDK d   1      24.797 -43.790  38.451  0.00  0.00    -0.047 A 
ATOM      6  C9  GDK d   1      23.565 -43.318  40.471  0.00  0.00     0.003 A 
ATOM      7  H4  GDK d   1      25.069 -44.852  40.305  0.00  0.00     0.085 H 
ATOM      8  H13 GDK d   1      25.539 -44.361  37.905  0.00  0.00     0.087 H 
ATOM      9  H14 GDK d   1      23.366 -43.539  41.513  0.00  0.00     0.114 H 
ENDROOT
BRANCH   2  10
ATOM     10  C5  GDK d   1      22.323 -40.939  37.964  0.00  0.00    -0.005 A 
ATOM     11  C4  GDK d   1      20.940 -40.930  38.066  0.00  0.00    -0.070 A 
ATOM     12  C3  GDK d   1      20.188 -39.887  37.516  0.00  0.00    -0.076 A 
ATOM     13  H1  GDK d   1      20.436 -41.741  38.578  0.00  0.00     0.084 H 
ATOM     14  C2  GDK d   1      20.821 -38.840  36.855  0.00  0.00    -0.062 A 
ATOM     15  H12 GDK d   1      19.108 -39.895  37.605  0.00  0.00     0.084 H 
ATOM     16  C7  GDK d   1      22.213 -38.839  36.750  0.00  0.00    -0.076 A 
ATOM     17  C6  GDK d   1      22.958 -39.881  37.303  0.00  0.00    -0.070 A 
ATOM     18  H3  GDK d   1      22.716 -38.027  36.238  0.00  0.00     0.084 H 
ATOM     19  H2  GDK d   1      24.039 -39.871  37.220  0.00  0.00     0.084 H 
BRANCH  14  20
ATOM     20  C1  GDK d   1      20.006 -37.724  36.259  0.00  0.00    -0.051 C 
ATOM     21  H9  GDK d   1      18.938 -37.909  36.448  0.00  0.00     0.033 H 
ATOM     22  H10 GDK d   1      20.184 -37.679  35.175  0.00  0.00     0.033 H 
ATOM     23  H11 GDK d   1      20.300 -36.769  36.719  0.00  0.00     0.033 H 
ENDBRANCH  14  20
ENDBRANCH   2  10
BRANCH   4  24
ATOM     24  O   GDK d   1      24.234 -42.398  36.506  0.00  0.00    -0.343 OA
BRANCH  24  25
ATOM     25  C13 GDK d   1      25.482 -42.574  35.864  0.00  0.00     0.066 C 
ATOM     26  H5  GDK d   1      25.674 -43.650  35.740  0.00  0.00     0.084 H 
ATOM     27  H6  GDK d   1      26.273 -42.130  36.487  0.00  0.00     0.084 H 
BRANCH  25  28
ATOM     28  C14 GDK d   1      25.491 -41.914  34.514  0.00  0.00     0.058 A 
ATOM     29  C15 GDK d   1      24.391 -41.182  34.039  0.00  0.00    -0.057 A 
ATOM     30  C16 GDK d   1      24.462 -40.588  32.789  0.00  0.00    -0.080 A 
ATOM     31  H7  GDK d   1      23.497 -41.083  34.643  0.00  0.00     0.086 H 
ATOM     32  C17 GDK d   1      25.628 -40.721  32.052  0.00  0.00    -0.066 A 
ATOM     33  H16 GDK d   1      23.621 -40.029  32.395  0.00  0.00     0.083 H 
ATOM     34  C18 GDK d   1      26.693 -41.447  32.578  0.00  0.00     0.003 A 
ATOM     35  H8  GDK d   1      25.710 -40.263  31.073  0.00  0.00     0.085 H 
ATOM     36  N2  GDK d   1      26.635 -42.043  33.787  0.00  0.00    -0.263 NA
ATOM     37  H15 GDK d   1      27.602 -41.537  31.995  0.00  0.00     0.114 H 
ENDBRANCH  25  28
ENDBRANCH  24  25
ENDBRANCH   4  24
TORSDOF 5
