REMARK  7 active torsions:
REMARK  status: ('A' for Active; 'I' for Inactive)
REMARK    1  A    between atoms: O8_17  and  C7_4 
REMARK    2  A    between atoms: C10_5  and  C9_18 
REMARK    3  A    between atoms: C12_20  and  C13_6 
REMARK    4  A    between atoms: C17_8  and  C18_23 
REMARK    5  A    between atoms: O2_15  and  C1_14 
REMARK    6  A    between atoms: C3_16  and  O2_15 
REMARK    7  A    between atoms: C9_18  and  O8_17 
ROOT
ATOM      1  C4  GDH d   1      25.831 -42.780  40.774  0.00  0.00    -0.050 A 
ATOM      2  C5  GDH d   1      26.683 -43.604  40.073  0.00  0.00    -0.078 A 
ATOM      3  C6  GDH d   1      26.852 -43.395  38.715  0.00  0.00    -0.050 A 
ATOM      4  C7  GDH d   1      26.165 -42.357  38.101  0.00  0.00     0.083 A 
ATOM      5  C17 GDH d   1      25.311 -41.516  38.791  0.00  0.00     0.041 A 
ATOM      6  C3  GDH d   1      25.157 -41.748  40.145  0.00  0.00     0.082 A 
ATOM      7  H1  GDH d   1      25.686 -42.942  41.836  0.00  0.00     0.087 H 
ATOM      8  H2  GDH d   1      27.213 -44.404  40.577  0.00  0.00     0.083 H 
ATOM      9  H3  GDH d   1      27.512 -44.033  38.139  0.00  0.00     0.087 H 
ENDROOT
BRANCH   5  10
ATOM     10  C18 GDH d   1      24.620 -40.423  38.105  0.00  0.00    -0.020 A 
ATOM     11  C28 GDH d   1      25.302 -39.348  37.544  0.00  0.00    -0.065 A 
ATOM     12  C27 GDH d   1      24.641 -38.319  36.883  0.00  0.00    -0.049 A 
ATOM     13  H13 GDH d   1      26.382 -39.312  37.625  0.00  0.00     0.085 H 
ATOM     14  C21 GDH d   1      23.257 -38.352  36.772  0.00  0.00    -0.050 A 
ATOM     15  C26 GDH d   1      25.442 -37.194  36.282  0.00  0.00    -0.018 C 
ATOM     16  C20 GDH d   1      22.574 -39.412  37.332  0.00  0.00    -0.075 A 
ATOM     17  C22 GDH d   1      22.453 -37.293  36.064  0.00  0.00    -0.018 C 
ATOM     18  C19 GDH d   1      23.242 -40.427  37.982  0.00  0.00    -0.071 A 
ATOM     19  H8  GDH d   1      21.493 -39.447  37.259  0.00  0.00     0.084 H 
ATOM     20  H21 GDH d   1      22.675 -41.247  38.407  0.00  0.00     0.084 H 
ATOM     21  C23 GDH d   1      22.630 -35.913  36.689  0.00  0.00     0.085 C 
ATOM     22  H9  GDH d   1      21.389 -37.568  36.110  0.00  0.00     0.042 H 
ATOM     23  H10 GDH d   1      22.775 -37.249  35.013  0.00  0.00     0.042 H 
ATOM     24  N24 GDH d   1      23.894 -35.309  36.256  0.00  0.00    -0.075 N 
ATOM     25  H22 GDH d   1      22.632 -36.010  37.785  0.00  0.00     0.076 H 
ATOM     26  H23 GDH d   1      21.796 -35.266  36.380  0.00  0.00     0.076 H 
ATOM     27  C25 GDH d   1      25.052 -35.881  36.941  0.00  0.00     0.085 C 
ATOM     28  H24 GDH d   1      23.862 -34.320  36.447  0.00  0.00     0.277 HD
ATOM     29  H25 GDH d   1      24.000 -35.456  35.264  0.00  0.00     0.277 HD
ATOM     30  H26 GDH d   1      25.896 -35.178  36.882  0.00  0.00     0.076 H 
ATOM     31  H27 GDH d   1      24.799 -36.063  37.996  0.00  0.00     0.076 H 
ATOM     32  H11 GDH d   1      26.514 -37.381  36.444  0.00  0.00     0.042 H 
ATOM     33  H12 GDH d   1      25.239 -37.136  35.203  0.00  0.00     0.042 H 
ENDBRANCH   5  10
BRANCH   4  34
ATOM     34  O8  GDH d   1      26.251 -42.081  36.752  0.00  0.00    -0.344 OA
BRANCH  34  35
ATOM     35  C9  GDH d   1      27.376 -42.604  36.042  0.00  0.00     0.066 C 
ATOM     36  H17 GDH d   1      28.299 -42.444  36.619  0.00  0.00     0.084 H 
ATOM     37  H18 GDH d   1      27.242 -43.680  35.856  0.00  0.00     0.084 H 
BRANCH  35  38
ATOM     38  C10 GDH d   1      27.438 -41.855  34.743  0.00  0.00     0.058 A 
ATOM     39  C11 GDH d   1      26.457 -40.938  34.397  0.00  0.00    -0.051 A 
ATOM     40  C12 GDH d   1      26.521 -40.277  33.187  0.00  0.00    -0.059 A 
ATOM     41  H19 GDH d   1      25.638 -40.740  35.079  0.00  0.00     0.087 H 
ATOM     42  C14 GDH d   1      27.604 -40.530  32.369  0.00  0.00    -0.060 A 
ATOM     43  C15 GDH d   1      28.547 -41.448  32.784  0.00  0.00     0.003 A 
ATOM     44  H20 GDH d   1      27.711 -40.018  31.420  0.00  0.00     0.086 H 
ATOM     45  N16 GDH d   1      28.478 -42.120  33.947  0.00  0.00    -0.263 NA
ATOM     46  H7  GDH d   1      29.393 -41.639  32.134  0.00  0.00     0.114 H 
BRANCH  40  47
ATOM     47  C13 GDH d   1      25.475 -39.284  32.775  0.00  0.00    -0.051 C 
ATOM     48  H4  GDH d   1      24.700 -39.223  33.553  0.00  0.00     0.033 H 
ATOM     49  H5  GDH d   1      25.018 -39.605  31.827  0.00  0.00     0.033 H 
ATOM     50  H6  GDH d   1      25.940 -38.296  32.642  0.00  0.00     0.033 H 
ENDBRANCH  40  47
ENDBRANCH  35  38
ENDBRANCH  34  35
ENDBRANCH   4  34
BRANCH   6  51
ATOM     51  O2  GDH d   1      24.303 -40.884  40.813  0.00  0.00    -0.355 OA
BRANCH  51  52
ATOM     52  C1  GDH d   1      24.067 -41.065  42.219  0.00  0.00     0.010 C 
ATOM     53  H14 GDH d   1      23.369 -40.294  42.576  0.00  0.00     0.066 H 
ATOM     54  H15 GDH d   1      25.018 -40.979  42.764  0.00  0.00     0.066 H 
ATOM     55  H16 GDH d   1      23.633 -42.061  42.393  0.00  0.00     0.066 H 
ENDBRANCH  51  52
ENDBRANCH   6  51
TORSDOF 7
