REMARK  3 active torsions:
REMARK  status: ('A' for Active; 'I' for Inactive)
REMARK    1  A    between atoms: C5_5  and  C23_23 
REMARK    2  A    between atoms: C10_10  and  N15_15 
REMARK    3  A    between atoms: N15_15  and  C16_16 
ROOT
ATOM      1  C1  MOL d   1      43.970  31.567   9.150  0.00  0.00     0.071 A 
ATOM      2  C2  MOL d   1      44.453  31.870  10.424  0.00  0.00     0.005 A 
ATOM      3  C3  MOL d   1      45.768  32.355  10.555  0.00  0.00    -0.069 A 
ATOM      4  C4  MOL d   1      46.530  32.576   9.423  0.00  0.00    -0.066 A 
ATOM      5  C5  MOL d   1      46.030  32.278   8.153  0.00  0.00     0.043 A 
ATOM      6  C6  MOL d   1      44.755  31.760   8.010  0.00  0.00    -0.038 A 
ATOM      7  C7  MOL d   1      42.349  31.073  11.321  0.00  0.00     0.024 A 
ATOM      8  C8  MOL d   1      43.606  31.614  11.551  0.00  0.00     0.008 A 
ATOM      9  N9  MOL d   1      42.699  31.109   8.956  0.00  0.00    -0.230 NA
ATOM     10  C10 MOL d   1      41.921  30.859   9.988  0.00  0.00     0.140 A 
ATOM     11  C11 MOL d   1      41.998  31.046  13.709  0.00  0.00     0.003 A 
ATOM     12  N12 MOL d   1      43.204  31.570  13.912  0.00  0.00    -0.272 NA
ATOM     13  C13 MOL d   1      44.004  31.834  12.884  0.00  0.00     0.013 A 
ATOM     14  C14 MOL d   1      41.547  30.773  12.430  0.00  0.00    -0.051 A 
ATOM     15  H1  MOL d   1      46.181  32.554  11.537  0.00  0.00     0.085 H 
ATOM     16  H2  MOL d   1      47.529  32.986   9.522  0.00  0.00     0.085 H 
ATOM     17  H3  MOL d   1      44.371  31.508   7.028  0.00  0.00     0.088 H 
ATOM     18  H4  MOL d   1      41.360  30.830  14.558  0.00  0.00     0.114 H 
ATOM     19  H5  MOL d   1      44.994  32.231  13.078  0.00  0.00     0.116 H 
ATOM     20  H6  MOL d   1      40.570  30.326  12.285  0.00  0.00     0.087 H 
ENDROOT
BRANCH  10  21
ATOM     21  N15 MOL d   1      40.585  30.413   9.813  0.00  0.00    -0.340 N 
ATOM     22  H7  MOL d   1      40.001  30.357  10.660  0.00  0.00     0.167 HD
BRANCH  21  23
ATOM     23  C16 MOL d   1      39.963  30.031   8.574  0.00  0.00     0.035 A 
ATOM     24  C17 MOL d   1      40.685  29.521   7.526  0.00  0.00    -0.036 A 
ATOM     25  C18 MOL d   1      40.010  29.125   6.391  0.00  0.00     0.036 A 
ATOM     26  H8  MOL d   1      41.764  29.431   7.588  0.00  0.00     0.089 H 
ATOM     27  C19 MOL d   1      38.637  29.221   6.280  0.00  0.00    -0.062 A 
ATOM     28 CL22 MOL d   1      40.951  28.497   5.033  0.00  0.00    -0.084 Cl
ATOM     29  C20 MOL d   1      37.922  29.708   7.348  0.00  0.00    -0.079 A 
ATOM     30  H9  MOL d   1      38.133  28.918   5.369  0.00  0.00     0.086 H 
ATOM     31  C21 MOL d   1      38.590  30.119   8.486  0.00  0.00    -0.057 A 
ATOM     32  H10 MOL d   1      36.841  29.769   7.298  0.00  0.00     0.083 H 
ATOM     33  H11 MOL d   1      38.026  30.517   9.322  0.00  0.00     0.086 H 
ENDBRANCH  21  23
ENDBRANCH  10  21
BRANCH   5  34
ATOM     34  C23 MOL d   1      46.884  32.570   6.935  0.00  0.00     0.209 C 
ATOM     35  O24 MOL d   1      46.605  32.017   5.849  0.00  0.00    -0.644 OA
ATOM     36  O25 MOL d   1      47.817  33.411   7.088  0.00  0.00    -0.644 OA
ENDBRANCH   5  34
TORSDOF 3
