REMARK  14 active torsions:
REMARK  status: ('A' for Active; 'I' for Inactive)
REMARK    1  A    between atoms: C10_1  and  C09_14 
REMARK    2  A    between atoms: C11_15  and  C10_1 
REMARK    3  A    between atoms: C15_2  and  N14_35 
REMARK    4  A    between atoms: C21_4  and  C17_3 
REMARK    5  A    between atoms: C22_5  and  C36_26 
REMARK    6  A    between atoms: N25_38  and  C24_6 
REMARK    7  A    between atoms: O02_41  and  C01_8 
REMARK    8  A    between atoms: C03_9  and  O02_41 
REMARK    9  A    between atoms: C06_12  and  O07_42 
REMARK   10  A    between atoms: O07_42  and  C08_13 
REMARK   11  A    between atoms: C12_16  and  C11_15 
REMARK       I    between atoms: N14_35  and  C12_16 
REMARK   12  A    between atoms: N26_39  and  C27_20 
REMARK   13  A    between atoms: N34_40  and  C35_25 
REMARK   14  A    between atoms: N25_38  and  N26_39 
ROOT
ATOM      1  C15 GEW d   1       1.487   3.377  16.218  0.00  0.00     0.130 A 
ATOM      2  C17 GEW d   1       2.774   3.591  18.242  0.00  0.00    -0.001 A 
ATOM      3  C16 GEW d   1       1.920   4.157  17.286  0.00  0.00    -0.026 A 
ATOM      4  C18 GEW d   1       3.107   2.252  18.080  0.00  0.00    -0.054 A 
ATOM      5  C19 GEW d   1       2.629   1.530  16.982  0.00  0.00     0.005 A 
ATOM      6  N20 GEW d   1       1.827   2.110  16.091  0.00  0.00    -0.243 NA
ATOM      7  H14 GEW d   1       1.601   5.189  17.377  0.00  0.00     0.090 H 
ATOM      8  H15 GEW d   1       3.742   1.763  18.810  0.00  0.00     0.087 H 
ATOM      9  H16 GEW d   1       2.913   0.492  16.855  0.00  0.00     0.114 H 
ENDROOT
BRANCH   2  10
ATOM     10  C21 GEW d   1       3.288   4.369  19.484  0.00  0.00     0.092 A 
ATOM     11  C22 GEW d   1       4.526   4.240  20.061  0.00  0.00     0.114 A 
ATOM     12  N23 GEW d   1       4.577   5.029  21.113  0.00  0.00    -0.058 NA
ATOM     13  C24 GEW d   1       3.398   5.650  21.233  0.00  0.00     0.748 A 
ATOM     14  N34 GEW d   1       2.602   5.232  20.220  0.00  0.00    -0.179 N 
BRANCH  11  15
ATOM     15  C36 GEW d   1       5.701   3.357  19.621  0.00  0.00    -0.004 A 
ATOM     16  C37 GEW d   1       6.255   2.463  20.542  0.00  0.00    -0.068 A 
ATOM     17  C38 GEW d   1       7.322   1.653  20.160  0.00  0.00    -0.045 A 
ATOM     18  H23 GEW d   1       5.856   2.400  21.548  0.00  0.00     0.085 H 
ATOM     19  C39 GEW d   1       7.829   1.742  18.863  0.00  0.00     0.116 A 
ATOM     20  H24 GEW d   1       7.757   0.956  20.867  0.00  0.00     0.088 H 
ATOM     21  C41 GEW d   1       7.273   2.639  17.954  0.00  0.00    -0.045 A 
ATOM     22  F40 GEW d   1       8.875   0.954  18.465  0.00  0.00    -0.206 F 
ATOM     23  C42 GEW d   1       6.204   3.450  18.333  0.00  0.00    -0.068 A 
ATOM     24  H25 GEW d   1       7.673   2.707  16.949  0.00  0.00     0.088 H 
ATOM     25  H26 GEW d   1       5.770   4.148  17.626  0.00  0.00     0.085 H 
ENDBRANCH  11  15
BRANCH  13  26
ATOM     26  N25 GEW d   1       3.136   6.608  22.327  0.00  0.00     0.044 NA
BRANCH  26  27
ATOM     27  N26 GEW d   1       2.081   7.236  22.509  0.00  0.00    -0.134 NA
BRANCH  27  28
ATOM     28  C27 GEW d   1       2.062   8.113  23.695  0.00  0.00     0.080 A 
ATOM     29  C28 GEW d   1       3.167   8.122  24.538  0.00  0.00    -0.051 A 
ATOM     30  C29 GEW d   1       3.172   8.914  25.683  0.00  0.00    -0.043 A 
ATOM     31  H3  GEW d   1       4.030   7.509  24.303  0.00  0.00     0.087 H 
ATOM     32  C30 GEW d   1       2.060   9.679  25.992  0.00  0.00     0.116 A 
ATOM     33  H17 GEW d   1       4.042   8.932  26.329  0.00  0.00     0.088 H 
ATOM     34  C32 GEW d   1       0.948   9.658  25.166  0.00  0.00    -0.043 A 
ATOM     35  F31 GEW d   1       2.059  10.458  27.114  0.00  0.00    -0.206 F 
ATOM     36  C33 GEW d   1       0.945   8.863  24.016  0.00  0.00    -0.051 A 
ATOM     37  H18 GEW d   1       0.080  10.258  25.412  0.00  0.00     0.088 H 
ATOM     38  H19 GEW d   1       0.070   8.834  23.378  0.00  0.00     0.087 H 
ENDBRANCH  27  28
ENDBRANCH  26  27
ENDBRANCH  13  26
BRANCH  14  39
ATOM     39  C35 GEW d   1       1.228   5.683  20.017  0.00  0.00     0.003 C 
ATOM     40  H20 GEW d   1       0.809   5.192  19.126  0.00  0.00     0.058 H 
ATOM     41  H21 GEW d   1       1.217   6.774  19.874  0.00  0.00     0.058 H 
ATOM     42  H22 GEW d   1       0.623   5.423  20.898  0.00  0.00     0.058 H 
ENDBRANCH  14  39
ENDBRANCH   2  10
BRANCH   1  43
ATOM     43  N14 GEW d   1       0.572   3.954  15.210  0.00  0.00    -0.312 N 
ATOM     44  C12 GEW d   1       0.242   5.379  15.157  0.00  0.00     0.223 C 
ATOM     45  O13 GEW d   1       0.694   6.173  15.910  0.00  0.00    -0.273 OA
ATOM     46  H28 GEW d   1       0.160   3.343  14.534  0.00  0.00     0.170 HD
BRANCH  44  47
ATOM     47  C11 GEW d   1      -0.765   5.830  14.047  0.00  0.00     0.013 C 
ATOM     48  H12 GEW d   1      -1.326   4.949  13.701  0.00  0.00     0.047 H 
ATOM     49  H13 GEW d   1      -1.463   6.561  14.481  0.00  0.00     0.047 H 
BRANCH  47  50
ATOM     50  C10 GEW d   1      -0.062   6.477  12.832  0.00  0.00    -0.030 C 
ATOM     51  H1  GEW d   1       0.511   7.358  13.157  0.00  0.00     0.041 H 
ATOM     52  H2  GEW d   1       0.617   5.750  12.363  0.00  0.00     0.041 H 
BRANCH  50  53
ATOM     53  C09 GEW d   1      -1.161   6.906  11.817  0.00  0.00    -0.022 A 
ATOM     54  C06 GEW d   1      -1.843   8.099  12.025  0.00  0.00     0.074 A 
ATOM     55  C05 GEW d   1      -2.841   8.486  11.132  0.00  0.00    -0.048 A 
ATOM     56  C04 GEW d   1      -3.142   7.662  10.045  0.00  0.00    -0.048 A 
ATOM     57  H8  GEW d   1      -3.378   9.416  11.280  0.00  0.00     0.087 H 
ATOM     58  C03 GEW d   1      -2.450   6.460   9.844  0.00  0.00     0.068 A 
ATOM     59  H7  GEW d   1      -3.920   7.956   9.349  0.00  0.00     0.087 H 
ATOM     60  C43 GEW d   1      -1.455   6.085  10.745  0.00  0.00    -0.042 A 
ATOM     61  H27 GEW d   1      -0.915   5.155  10.606  0.00  0.00     0.088 H 
BRANCH  54  62
ATOM     62  O07 GEW d   1      -1.493   8.867  13.156  0.00  0.00    -0.355 OA
BRANCH  62  63
ATOM     63  C08 GEW d   1      -1.600  10.264  13.028  0.00  0.00     0.010 C 
ATOM     64  H9  GEW d   1      -1.300  10.743  13.972  0.00  0.00     0.066 H 
ATOM     65  H10 GEW d   1      -2.641  10.532  12.795  0.00  0.00     0.066 H 
ATOM     66  H11 GEW d   1      -0.942  10.609  12.217  0.00  0.00     0.066 H 
ENDBRANCH  62  63
ENDBRANCH  54  62
BRANCH  58  67
ATOM     67  O02 GEW d   1      -2.773   5.652   8.722  0.00  0.00    -0.356 OA
BRANCH  67  68
ATOM     68  C01 GEW d   1      -2.291   4.313   8.635  0.00  0.00     0.010 C 
ATOM     69  H4  GEW d   1      -2.646   3.856   7.700  0.00  0.00     0.066 H 
ATOM     70  H5  GEW d   1      -2.664   3.733   9.492  0.00  0.00     0.066 H 
ATOM     71  H6  GEW d   1      -1.191   4.318   8.646  0.00  0.00     0.066 H 
ENDBRANCH  67  68
ENDBRANCH  58  67
ENDBRANCH  50  53
ENDBRANCH  47  50
ENDBRANCH  44  47
ENDBRANCH   1  43
TORSDOF 14
