REMARK  12 active torsions:
REMARK  status: ('A' for Active; 'I' for Inactive)
REMARK    1  A    between atoms: C10_1  and  C09_14 
REMARK    2  A    between atoms: C11_15  and  C10_1 
REMARK    3  A    between atoms: C15_2  and  N14_33 
REMARK    4  A    between atoms: C21_4  and  C17_3 
REMARK    5  A    between atoms: C22_5  and  C34_25 
REMARK    6  A    between atoms: N26_36  and  C24_6 
REMARK    7  A    between atoms: N27_37  and  C28_7 
REMARK    8  A    between atoms: O02_38  and  C01_8 
REMARK    9  A    between atoms: C03_9  and  O02_38 
REMARK   10  A    between atoms: C06_12  and  O07_39 
REMARK   11  A    between atoms: O07_39  and  C08_13 
REMARK   12  A    between atoms: C12_16  and  C11_15 
REMARK       I    between atoms: N14_33  and  C12_16 
ROOT
ATOM      1  C15 GE5 d   1       1.534   3.205  16.593  0.00  0.00     0.130 A 
ATOM      2  C17 GE5 d   1       2.906   3.283  18.525  0.00  0.00    -0.012 A 
ATOM      3  C16 GE5 d   1       2.044   3.921  17.661  0.00  0.00    -0.027 A 
ATOM      4  C18 GE5 d   1       3.221   1.953  18.309  0.00  0.00    -0.055 A 
ATOM      5  C19 GE5 d   1       2.676   1.306  17.223  0.00  0.00     0.005 A 
ATOM      6  N20 GE5 d   1       1.854   1.944  16.408  0.00  0.00    -0.243 NA
ATOM      7  H13 GE5 d   1       1.772   4.959  17.814  0.00  0.00     0.090 H 
ATOM      8  H14 GE5 d   1       3.887   1.429  18.985  0.00  0.00     0.087 H 
ATOM      9  H15 GE5 d   1       2.922   0.267  17.035  0.00  0.00     0.114 H 
ENDROOT
BRANCH   1  10
ATOM     10  N14 GE5 d   1       0.641   3.801  15.635  0.00  0.00    -0.312 N 
ATOM     11  C12 GE5 d   1       0.132   5.156  15.678  0.00  0.00     0.223 C 
ATOM     12  O13 GE5 d   1       0.434   5.904  16.549  0.00  0.00    -0.273 OA
ATOM     13  H26 GE5 d   1       0.345   3.228  14.871  0.00  0.00     0.170 HD
BRANCH  11  14
ATOM     14  C11 GE5 d   1      -0.811   5.597  14.539  0.00  0.00     0.013 C 
ATOM     15  H11 GE5 d   1      -1.214   4.701  14.045  0.00  0.00     0.047 H 
ATOM     16  H12 GE5 d   1      -1.637   6.182  14.969  0.00  0.00     0.047 H 
BRANCH  14  17
ATOM     17  C10 GE5 d   1      -0.092   6.450  13.501  0.00  0.00    -0.030 C 
ATOM     18  H1  GE5 d   1       0.395   7.283  14.028  0.00  0.00     0.041 H 
ATOM     19  H2  GE5 d   1       0.673   5.823  13.020  0.00  0.00     0.041 H 
BRANCH  17  20
ATOM     20  C09 GE5 d   1      -0.977   7.045  12.395  0.00  0.00    -0.022 A 
ATOM     21  C06 GE5 d   1      -1.480   8.324  12.549  0.00  0.00     0.074 A 
ATOM     22  C05 GE5 d   1      -2.274   8.884  11.555  0.00  0.00    -0.048 A 
ATOM     23  C04 GE5 d   1      -2.562   8.164  10.406  0.00  0.00    -0.048 A 
ATOM     24  H7  GE5 d   1      -2.669   9.886  11.679  0.00  0.00     0.087 H 
ATOM     25  C03 GE5 d   1      -2.052   6.890  10.232  0.00  0.00     0.068 A 
ATOM     26  H6  GE5 d   1      -3.191   8.602   9.639  0.00  0.00     0.087 H 
ATOM     27  C41 GE5 d   1      -1.255   6.329  11.231  0.00  0.00    -0.042 A 
ATOM     28  H25 GE5 d   1      -0.850   5.332  11.101  0.00  0.00     0.088 H 
BRANCH  21  29
ATOM     29  O07 GE5 d   1      -1.188   9.037  13.724  0.00  0.00    -0.355 OA
BRANCH  29  30
ATOM     30  C08 GE5 d   1      -0.972  10.415  13.567  0.00  0.00     0.010 C 
ATOM     31  H8  GE5 d   1      -0.753  10.866  14.546  0.00  0.00     0.066 H 
ATOM     32  H9  GE5 d   1      -1.873  10.881  13.142  0.00  0.00     0.066 H 
ATOM     33  H10 GE5 d   1      -0.120  10.578  12.890  0.00  0.00     0.066 H 
ENDBRANCH  29  30
ENDBRANCH  21  29
BRANCH  25  34
ATOM     34  O02 GE5 d   1      -2.375   6.217   9.038  0.00  0.00    -0.356 OA
BRANCH  34  35
ATOM     35  C01 GE5 d   1      -1.975   4.874   8.894  0.00  0.00     0.010 C 
ATOM     36  H3  GE5 d   1      -2.301   4.497   7.913  0.00  0.00     0.066 H 
ATOM     37  H4  GE5 d   1      -2.432   4.268   9.690  0.00  0.00     0.066 H 
ATOM     38  H5  GE5 d   1      -0.879   4.808   8.966  0.00  0.00     0.066 H 
ENDBRANCH  34  35
ENDBRANCH  25  34
ENDBRANCH  17  20
ENDBRANCH  14  17
ENDBRANCH  11  14
ENDBRANCH   1  10
BRANCH   2  39
ATOM     39  C21 GE5 d   1       3.431   4.052  19.723  0.00  0.00     0.048 A 
ATOM     40  C22 GE5 d   1       4.646   3.834  20.436  0.00  0.00     0.088 A 
ATOM     41  N23 GE5 d   1       4.721   4.801  21.541  0.00  0.00    -0.219 NA
ATOM     42  C24 GE5 d   1       3.585   5.615  21.605  0.00  0.00     0.215 A 
ATOM     43  S25 GE5 d   1       2.553   5.229  20.406  0.00  0.00    -0.045 SA
BRANCH  40  44
ATOM     44  C34 GE5 d   1       5.789   2.873  20.135  0.00  0.00    -0.006 A 
ATOM     45  C35 GE5 d   1       6.375   2.106  21.115  0.00  0.00    -0.068 A 
ATOM     46  C36 GE5 d   1       7.433   1.279  20.808  0.00  0.00    -0.045 A 
ATOM     47  H21 GE5 d   1       6.003   2.152  22.132  0.00  0.00     0.085 H 
ATOM     48  C37 GE5 d   1       7.949   1.254  19.522  0.00  0.00     0.116 A 
ATOM     49  H22 GE5 d   1       7.864   0.645  21.575  0.00  0.00     0.088 H 
ATOM     50  C39 GE5 d   1       7.380   2.039  18.544  0.00  0.00    -0.045 A 
ATOM     51  F38 GE5 d   1       8.995   0.446  19.201  0.00  0.00    -0.206 F 
ATOM     52  C40 GE5 d   1       6.312   2.861  18.850  0.00  0.00    -0.068 A 
ATOM     53  H23 GE5 d   1       7.770   2.012  17.533  0.00  0.00     0.088 H 
ATOM     54  H24 GE5 d   1       5.882   3.497  18.085  0.00  0.00     0.085 H 
ENDBRANCH  40  44
BRANCH  42  55
ATOM     55  N26 GE5 d   1       3.359   6.656  22.595  0.00  0.00    -0.122 NA
ATOM     56  N27 GE5 d   1       2.361   7.353  22.582  0.00  0.00    -0.148 NA
BRANCH  56  57
ATOM     57  C28 GE5 d   1       2.186   8.367  23.612  0.00  0.00     0.079 A 
ATOM     58  C29 GE5 d   1       1.075   9.201  23.616  0.00  0.00    -0.053 A 
ATOM     59  C30 GE5 d   1       0.920  10.150  24.623  0.00  0.00    -0.081 A 
ATOM     60  H16 GE5 d   1       0.329   9.113  22.835  0.00  0.00     0.087 H 
ATOM     61  C31 GE5 d   1       1.863  10.265  25.628  0.00  0.00    -0.083 A 
ATOM     62  H17 GE5 d   1       0.055  10.803  24.619  0.00  0.00     0.083 H 
ATOM     63  C32 GE5 d   1       2.968   9.435  25.627  0.00  0.00    -0.081 A 
ATOM     64  H18 GE5 d   1       1.736  11.002  26.412  0.00  0.00     0.083 H 
ATOM     65  C33 GE5 d   1       3.126   8.489  24.625  0.00  0.00    -0.053 A 
ATOM     66  H19 GE5 d   1       3.712   9.523  26.410  0.00  0.00     0.083 H 
ATOM     67  H20 GE5 d   1       3.993   7.838  24.634  0.00  0.00     0.087 H 
ENDBRANCH  56  57
ENDBRANCH  42  55
ENDBRANCH   2  39
TORSDOF 12
