REMARK  19 active torsions:
REMARK  status: ('A' for Active; 'I' for Inactive)
REMARK    1  A    between atoms: N_1  and  CA_2 
REMARK    2  A    between atoms: CA_2  and  C_3 
REMARK    3  A    between atoms: CA_2  and  CB_5 
REMARK       I    between atoms: C_3  and  N_12 
REMARK    4  A    between atoms: CB_5  and  CG_6 
REMARK    5  A    between atoms: CA_13  and  C_14 
REMARK       I    between atoms: C_14  and  N_19 
REMARK    6  A    between atoms: N_19  and  CA_20 
REMARK    7  A    between atoms: CA_20  and  C_21 
REMARK    8  A    between atoms: CA_20  and  CB_23 
REMARK       I    between atoms: C_21  and  N_24 
REMARK    9  A    between atoms: N_24  and  CA_25 
REMARK   10  A    between atoms: CA_25  and  CB_26 
REMARK   11  A    between atoms: CA_25  and  C_33 
REMARK   12  A    between atoms: CB_26  and  CG2_27 
REMARK   13  A    between atoms: CB_26  and  OG1_28 
REMARK   14  A    between atoms: OG1_28  and  P_29 
REMARK       I    between atoms: C_33  and  N_35 
REMARK   15  A    between atoms: N_35  and  CA_36 
REMARK   16  A    between atoms: CA_36  and  C_37 
REMARK   17  A    between atoms: CA_36  and  CB_39 
REMARK   18  A    between atoms: CB_39  and  CG1_40 
REMARK   19  A    between atoms: CB_39  and  CG2_41 
ROOT
ATOM      1  CA  PHE d   1      13.280  14.357  10.161  0.00  0.00     0.086 C 
ATOM      2  H20 PHE d   1      13.647  13.441   9.675  0.00  0.00     0.086 H 
ENDROOT
BRANCH   1   3
ATOM      3  N   PHE d   1      12.850  14.009  11.509  0.00  0.00    -0.346 N 
ATOM      4  C   PHE d   1      13.532  13.146  12.262  0.00  0.00     0.241 C 
ATOM      5  O   PHE d   1      14.594  12.638  11.901  0.00  0.00    -0.271 OA
ATOM      6  H19 PHE d   1      12.021  14.429  11.879  0.00  0.00     0.163 HD
BRANCH   4   7
ATOM      7  CA  PHE d   1      12.905  12.835  13.614  0.00  0.00     0.091 C 
ATOM      8  N   PHE d   1      13.467  11.612  14.192  0.00  0.00    -0.337 N 
ATOM      9  C   PHE d   1      13.109  10.421  13.722  0.00  0.00     0.251 C 
ATOM     10  CD  PHE d   1      14.433  11.901  15.268  0.00  0.00    -0.001 C 
ATOM     11  O   PHE d   1      12.273  10.284  12.827  0.00  0.00    -0.271 OA
ATOM     12  CG  PHE d   1      14.574  13.403  15.216  0.00  0.00    -0.048 A 
ATOM     13  H17 PHE d   1      15.397  11.408  15.075  0.00  0.00     0.064 H 
ATOM     14  H18 PHE d   1      14.044  11.576  16.244  0.00  0.00     0.064 H 
ATOM     15  CB  PHE d   1      13.284  13.902  14.645  0.00  0.00    -0.036 C 
ATOM     16  H15 PHE d   1      14.731  13.810  16.226  0.00  0.00     0.035 H 
ATOM     17  H16 PHE d   1      15.417  13.688  14.570  0.00  0.00     0.035 H 
ATOM     18  H13 PHE d   1      12.514  13.983  15.427  0.00  0.00     0.036 H 
ATOM     19  H14 PHE d   1      13.421  14.881  14.163  0.00  0.00     0.036 H 
ATOM     20  H12 PHE d   1      11.813  12.757  13.505  0.00  0.00     0.087 H 
BRANCH   9  21
ATOM     21  CA  PHE d   1      13.779   9.198  14.347  0.00  0.00     0.179 C 
ATOM     22  H4  PHE d   1      13.998   9.427  15.400  0.00  0.00     0.099 H 
BRANCH  21  23
ATOM     23  N   PHE d   1      12.892   8.039  14.307  0.00  0.00    -0.066 N 
ATOM     24  H1  PHE d   1      13.355   7.247  14.724  0.00  0.00     0.275 HD
ATOM     25  H2  PHE d   1      12.660   7.827  13.349  0.00  0.00     0.275 HD
ATOM     26  H3  PHE d   1      12.049   8.243  14.820  0.00  0.00     0.275 HD
ENDBRANCH  21  23
BRANCH  21  27
ATOM     27  CB  PHE d   1      15.104   8.890  13.637  0.00  0.00    -0.006 C 
ATOM     28  H5  PHE d   1      15.672   8.181  14.257  0.00  0.00     0.043 H 
ATOM     29  H6  PHE d   1      15.670   9.828  13.539  0.00  0.00     0.043 H 
BRANCH  27  30
ATOM     30  CG  PHE d   1      14.939   8.292  12.266  0.00  0.00    -0.056 A 
ATOM     31  CD1 PHE d   1      14.797   9.103  11.150  0.00  0.00    -0.077 A 
ATOM     32  CE1 PHE d   1      14.647   8.551   9.888  0.00  0.00    -0.082 A 
ATOM     33  H7  PHE d   1      14.803  10.181  11.266  0.00  0.00     0.084 H 
ATOM     34  CZ  PHE d   1      14.642   7.176   9.732  0.00  0.00    -0.083 A 
ATOM     35  H9  PHE d   1      14.534   9.195   9.024  0.00  0.00     0.083 H 
ATOM     36  CE2 PHE d   1      14.785   6.360  10.835  0.00  0.00    -0.082 A 
ATOM     37  H11 PHE d   1      14.526   6.741   8.746  0.00  0.00     0.083 H 
ATOM     38  CD2 PHE d   1      14.935   6.916  12.092  0.00  0.00    -0.077 A 
ATOM     39  H10 PHE d   1      14.780   5.282  10.716  0.00  0.00     0.083 H 
ATOM     40  H8  PHE d   1      15.051   6.268  12.953  0.00  0.00     0.084 H 
ENDBRANCH  27  30
ENDBRANCH  21  27
ENDBRANCH   9  21
ENDBRANCH   4   7
ENDBRANCH   1   3
BRANCH   1  41
ATOM     41  C   PHE d   1      14.414  15.380  10.157  0.00  0.00     0.240 C 
ATOM     42  O   PHE d   1      14.361  16.363  10.902  0.00  0.00    -0.271 OA
ATOM     43  N   PHE d   1      15.415  15.141   9.312  0.00  0.00    -0.344 N 
ATOM     44  H24 PHE d   1      15.435  14.259   8.842  0.00  0.00     0.163 HD
BRANCH  43  45
ATOM     45  CA  PHE d   1      16.489  16.098   9.032  0.00  0.00     0.114 C 
ATOM     46  H25 PHE d   1      16.165  17.099   9.352  0.00  0.00     0.091 H 
BRANCH  45  47
ATOM     47  CB  PHE d   1      17.775  15.734   9.796  0.00  0.00     0.076 C 
ATOM     48  H26 PHE d   1      18.613  16.360   9.457  0.00  0.00     0.087 H 
BRANCH  47  49
ATOM     49  CG2 PHE d   1      17.581  15.930  11.298  0.00  0.00    -0.049 C 
ATOM     50  H27 PHE d   1      18.509  15.665  11.825  0.00  0.00     0.031 H 
ATOM     51  H28 PHE d   1      16.763  15.284  11.649  0.00  0.00     0.031 H 
ATOM     52  H29 PHE d   1      17.331  16.982  11.501  0.00  0.00     0.031 H 
ENDBRANCH  47  49
BRANCH  47  53
ATOM     53  OG1 PHE d   1      18.020  14.355   9.470  0.00  0.00    -0.275 OA
BRANCH  53  54
ATOM     54  P   PHE d   1      19.435  13.698   9.889  0.00  0.00     0.422 P 
ATOM     55  O1P PHE d   1      19.524  12.398   8.992  0.00  0.00    -0.617 OA
ATOM     56  O2P PHE d   1      19.469  13.373  11.337  0.00  0.00    -0.617 OA
ATOM     57  O3P PHE d   1      20.582  14.734   9.526  0.00  0.00    -0.617 OA
ENDBRANCH  53  54
ENDBRANCH  47  53
ENDBRANCH  45  47
BRANCH  45  58
ATOM     58  C   PHE d   1      16.749  16.118   7.524  0.00  0.00     0.243 C 
ATOM     59  O   PHE d   1      16.438  15.147   6.825  0.00  0.00    -0.271 OA
ATOM     60  N   PHE d   1      17.309  17.208   7.014  0.00  0.00    -0.344 N 
ATOM     61  H30 PHE d   1      17.534  17.969   7.622  0.00  0.00     0.163 HD
BRANCH  60  62
ATOM     62  CA  PHE d   1      17.607  17.326   5.585  0.00  0.00     0.099 C 
ATOM     63  H31 PHE d   1      17.440  16.336   5.136  0.00  0.00     0.090 H 
BRANCH  62  64
ATOM     64  C   PHE d   1      19.053  17.703   5.343  0.00  0.00     0.197 C 
ATOM     65  O   PHE d   1      19.813  17.997   6.275  0.00  0.00    -0.646 OA
ATOM     66  OXT PHE d   1      19.480  17.727   4.181  0.00  0.00    -0.646 OA
ENDBRANCH  62  64
BRANCH  62  67
ATOM     67  CB  PHE d   1      16.676  18.329   4.861  0.00  0.00    -0.032 C 
ATOM     68  H32 PHE d   1      16.956  18.345   3.797  0.00  0.00     0.042 H 
BRANCH  67  69
ATOM     69  CG1 PHE d   1      15.241  17.895   4.953  0.00  0.00    -0.071 C 
ATOM     70  H33 PHE d   1      14.603  18.624   4.431  0.00  0.00     0.028 H 
ATOM     71  H34 PHE d   1      14.943  17.837   6.010  0.00  0.00     0.028 H 
ATOM     72  H35 PHE d   1      15.126  16.906   4.485  0.00  0.00     0.028 H 
ENDBRANCH  67  69
BRANCH  67  73
ATOM     73  CG2 PHE d   1      16.865  19.734   5.417  0.00  0.00    -0.071 C 
ATOM     74  H36 PHE d   1      17.924  20.021   5.335  0.00  0.00     0.028 H 
ATOM     75  H37 PHE d   1      16.560  19.754   6.474  0.00  0.00     0.028 H 
ATOM     76  H38 PHE d   1      16.248  20.441   4.844  0.00  0.00     0.028 H 
ENDBRANCH  67  73
ENDBRANCH  62  67
ENDBRANCH  60  62
ENDBRANCH  45  58
ENDBRANCH  43  45
ENDBRANCH   1  41
BRANCH   1  77
ATOM     77  CB  PHE d   1      12.102  14.889   9.361  0.00  0.00    -0.049 C 
ATOM     78  H21 PHE d   1      12.436  15.149   8.346  0.00  0.00     0.030 H 
ATOM     79  H22 PHE d   1      11.698  15.785   9.855  0.00  0.00     0.030 H 
ATOM     80  H23 PHE d   1      11.320  14.118   9.304  0.00  0.00     0.030 H 
ENDBRANCH   1  77
TORSDOF 19
