REMARK  11 active torsions:
REMARK  status: ('A' for Active; 'I' for Inactive)
REMARK    1  A    between atoms: C1_1  and  O2_2 
REMARK    2  A    between atoms: O2_2  and  C3_3 
REMARK    3  A    between atoms: C9_9  and  N10_10 
REMARK    4  A    between atoms: N10_10  and  C11_11 
REMARK    5  A    between atoms: C14_14  and  C15_15 
REMARK    6  A    between atoms: C16_16  and  C17_17 
REMARK    7  A    between atoms: C20_20  and  S21_21 
REMARK    8  A    between atoms: S21_21  and  C24_24 
REMARK    9  A    between atoms: C24_24  and  C25_25 
REMARK   10  A    between atoms: C24_24  and  C26_26 
REMARK   11  A    between atoms: C24_24  and  C27_27 
ROOT
ATOM      1  C3  GEZ d   1     -40.339  39.275  -4.669  0.00  0.00     0.092 A 
ATOM      2  C4  GEZ d   1     -40.888  38.023  -4.780  0.00  0.00    -0.021 A 
ATOM      3  C5  GEZ d   1     -40.768  37.059  -3.745  0.00  0.00     0.071 A 
ATOM      4  N6  GEZ d   1     -41.351  35.827  -3.954  0.00  0.00    -0.260 NA
ATOM      5  C7  GEZ d   1     -41.259  34.972  -2.930  0.00  0.00     0.005 A 
ATOM      6  C8  GEZ d   1     -40.638  35.231  -1.728  0.00  0.00    -0.039 A 
ATOM      7  C9  GEZ d   1     -40.025  36.457  -1.499  0.00  0.00     0.047 A 
ATOM      8  C18 GEZ d   1     -40.076  37.426  -2.549  0.00  0.00     0.021 A 
ATOM      9  C19 GEZ d   1     -39.526  38.729  -2.450  0.00  0.00    -0.045 A 
ATOM     10  C20 GEZ d   1     -39.659  39.615  -3.496  0.00  0.00     0.094 A 
ATOM     11  H4  GEZ d   1     -41.428  37.763  -5.683  0.00  0.00     0.091 H 
ATOM     12  H5  GEZ d   1     -41.710  33.995  -3.056  0.00  0.00     0.114 H 
ATOM     13  H6  GEZ d   1     -40.627  34.472  -0.954  0.00  0.00     0.089 H 
ATOM     14  H15 GEZ d   1     -39.000  39.028  -1.550  0.00  0.00     0.087 H 
ENDROOT
BRANCH   7  15
ATOM     15  N10 GEZ d   1     -39.367  36.779  -0.288  0.00  0.00    -0.340 N 
ATOM     16  H7  GEZ d   1     -38.961  37.723  -0.222  0.00  0.00     0.167 HD
BRANCH  15  17
ATOM     17  C11 GEZ d   1     -39.213  35.968   0.806  0.00  0.00     0.130 A 
ATOM     18  N12 GEZ d   1     -39.697  36.345   1.985  0.00  0.00    -0.262 N 
ATOM     19  N13 GEZ d   1     -39.370  35.315   2.792  0.00  0.00    -0.178 NA
ATOM     20  H8  GEZ d   1     -40.199  37.212   2.224  0.00  0.00     0.191 HD
ATOM     21  C14 GEZ d   1     -38.688  34.310   2.197  0.00  0.00     0.060 A 
ATOM     22  C16 GEZ d   1     -38.536  34.688   0.877  0.00  0.00     0.009 A 
BRANCH  21  23
ATOM     23  C15 GEZ d   1     -38.264  33.097   2.976  0.00  0.00    -0.033 C 
ATOM     24  H9  GEZ d   1     -37.726  32.404   2.312  0.00  0.00     0.035 H 
ATOM     25  H10 GEZ d   1     -39.153  32.596   3.386  0.00  0.00     0.035 H 
ATOM     26  H11 GEZ d   1     -37.602  33.403   3.800  0.00  0.00     0.035 H 
ENDBRANCH  21  23
BRANCH  22  27
ATOM     27  C17 GEZ d   1     -37.854  34.004  -0.248  0.00  0.00    -0.046 C 
ATOM     28  H12 GEZ d   1     -37.943  34.617  -1.157  0.00  0.00     0.033 H 
ATOM     29  H13 GEZ d   1     -38.322  33.024  -0.419  0.00  0.00     0.033 H 
ATOM     30  H14 GEZ d   1     -36.791  33.864  -0.002  0.00  0.00     0.033 H 
ENDBRANCH  22  27
ENDBRANCH  15  17
ENDBRANCH   7  15
BRANCH  10  31
ATOM     31  S21 GEZ d   1     -38.871  41.205  -3.256  0.00  0.00     0.185 S 
ATOM     32  O22 GEZ d   1     -37.868  40.990  -2.252  0.00  0.00    -0.222 OA
ATOM     33  O23 GEZ d   1     -38.463  41.748  -4.524  0.00  0.00    -0.222 OA
BRANCH  31  34
ATOM     34  C24 GEZ d   1     -40.087  42.366  -2.544  0.00  0.00     0.058 C 
BRANCH  34  35
ATOM     35  C25 GEZ d   1     -40.569  41.855  -1.199  0.00  0.00    -0.056 C 
ATOM     36  H16 GEZ d   1     -41.300  42.561  -0.779  0.00  0.00     0.029 H 
ATOM     37  H17 GEZ d   1     -39.714  41.763  -0.514  0.00  0.00     0.029 H 
ATOM     38  H18 GEZ d   1     -41.042  40.871  -1.329  0.00  0.00     0.029 H 
ENDBRANCH  34  35
BRANCH  34  39
ATOM     39  C26 GEZ d   1     -39.352  43.689  -2.372  0.00  0.00    -0.056 C 
ATOM     40  H19 GEZ d   1     -40.037  44.436  -1.943  0.00  0.00     0.029 H 
ATOM     41  H20 GEZ d   1     -38.994  44.039  -3.351  0.00  0.00     0.029 H 
ATOM     42  H21 GEZ d   1     -38.495  43.547  -1.697  0.00  0.00     0.029 H 
ENDBRANCH  34  39
BRANCH  34  43
ATOM     43  C27 GEZ d   1     -41.296  42.558  -3.453  0.00  0.00    -0.056 C 
ATOM     44  H22 GEZ d   1     -41.999  43.263  -2.985  0.00  0.00     0.029 H 
ATOM     45  H23 GEZ d   1     -41.796  41.590  -3.608  0.00  0.00     0.029 H 
ATOM     46  H24 GEZ d   1     -40.966  42.959  -4.423  0.00  0.00     0.029 H 
ENDBRANCH  34  43
ENDBRANCH  31  34
ENDBRANCH  10  31
BRANCH   1  47
ATOM     47  O2  GEZ d   1     -40.412  40.223  -5.667  0.00  0.00    -0.354 OA
BRANCH  47  48
ATOM     48  C1  GEZ d   1     -41.066  39.898  -6.902  0.00  0.00     0.010 C 
ATOM     49  H1  GEZ d   1     -41.029  40.767  -7.576  0.00  0.00     0.066 H 
ATOM     50  H2  GEZ d   1     -42.115  39.633  -6.703  0.00  0.00     0.066 H 
ATOM     51  H3  GEZ d   1     -40.555  39.046  -7.374  0.00  0.00     0.066 H 
ENDBRANCH  47  48
ENDBRANCH   1  47
TORSDOF 11
