REMARK WARNING: 32 MAX_TORS EXCEEDED!!!
REMARK  41 active torsions:
REMARK  status: ('A' for Active; 'I' for Inactive)
REMARK    1  A    between atoms: C2_2  and  C1_1 
REMARK    2  A    between atoms: O3_28  and  C2_2 
REMARK    3  A    between atoms: C4_4  and  O4_15 
REMARK    4  A    between atoms: C5_5  and  N5_12 
REMARK    5  A    between atoms: C6_6  and  C7_7 
REMARK    6  A    between atoms: C7_7  and  C8_8 
REMARK    7  A    between atoms: C7_7  and  O7_17 
REMARK    8  A    between atoms: C8_8  and  C9_9 
REMARK    9  A    between atoms: C8_8  and  O8_18 
REMARK   10  A    between atoms: C9_9  and  O9_19 
REMARK   11  A    between atoms: C10_10  and  C11_11 
REMARK       I    between atoms: N5_12  and  C10_10 
REMARK   12  A    between atoms: O4_76  and  C1_21 
REMARK   13  A    between atoms: C2_22  and  O2_27 
REMARK   14  A    between atoms: C3_23  and  O3_28 
REMARK   15  A    between atoms: C4_24  and  O4_29 
REMARK   16  A    between atoms: C5_25  and  C6_26 
REMARK   17  A    between atoms: C6_26  and  O6_31 
REMARK   18  A    between atoms: O4_29  and  C1_32 
REMARK   19  A    between atoms: C2_33  and  N2_40 
REMARK   20  A    between atoms: C3_34  and  O3_41 
REMARK   21  A    between atoms: C4_35  and  O4_42 
REMARK   22  A    between atoms: C5_36  and  C6_37 
REMARK   23  A    between atoms: C6_37  and  O6_44 
REMARK   24  A    between atoms: C7_38  and  C8_39 
REMARK       I    between atoms: N2_40  and  C7_38 
REMARK   25  A    between atoms: O3_41  and  C1_46 
REMARK   26  A    between atoms: C2_47  and  O2_52 
REMARK   27  A    between atoms: C3_48  and  O3_53 
REMARK   28  A    between atoms: C4_49  and  O4_54 
REMARK   29  A    between atoms: C5_50  and  C6_51 
REMARK   30  A    between atoms: C6_51  and  O6_56 
REMARK   31  A    between atoms: O2_52  and  C1_57 
REMARK   32  A    between atoms: C2_58  and  O2_63 
REMARK   33  A    between atoms: C3_59  and  O3_64 
REMARK   34  A    between atoms: C4_60  and  O4_65 
REMARK   35  A    between atoms: C5_61  and  C6_62 
REMARK   36  A    between atoms: C2_67  and  O2_74 
REMARK   37  A    between atoms: C3_68  and  O3_75 
REMARK   38  A    between atoms: C4_69  and  O4_76 
REMARK   39  A    between atoms: C5_70  and  C6_71 
REMARK   40  A    between atoms: C6_71  and  O6_78 
REMARK   41  A    between atoms: C1_72  and  O1_73 
ROOT
ATOM      1  C1  SIA d   1     -36.829  -3.880  68.606  0.00  0.00     0.159 C 
ATOM      2  C2  SIA d   1     -37.702  -3.727  67.384  0.00  0.00     0.110 C 
ATOM      3  C3  SIA d   1     -37.450  -4.934  66.460  0.00  0.00     0.099 C 
ATOM      4  C4  SIA d   1     -35.971  -5.079  66.129  0.00  0.00     0.096 C 
ATOM      5  C5  SIA d   1     -35.189  -5.146  67.419  0.00  0.00     0.089 C 
ATOM      6  O5  SIA d   1     -35.465  -3.937  68.201  0.00  0.00    -0.348 OA
ATOM      7  H18 SIA d   1     -37.075  -4.818  69.125  0.00  0.00     0.133 H 
ATOM      8  H19 SIA d   1     -37.439  -2.798  66.858  0.00  0.00     0.094 H 
ATOM      9  H20 SIA d   1     -37.801  -5.859  66.940  0.00  0.00     0.091 H 
ATOM     10  H21 SIA d   1     -35.816  -6.010  65.564  0.00  0.00     0.091 H 
ATOM     11  H22 SIA d   1     -35.518  -6.031  67.983  0.00  0.00     0.090 H 
ENDROOT
BRANCH   4  12
ATOM     12  O4  SIA d   1     -35.528  -3.967  65.325  0.00  0.00    -0.348 OA
BRANCH  12  13
ATOM     13  C1  SIA d   1     -35.141  -4.261  64.017  0.00  0.00     0.154 C 
ATOM     14  C2  SIA d   1     -35.261  -3.039  63.137  0.00  0.00     0.087 C 
ATOM     15  C3  SIA d   1     -34.768  -3.346  61.721  0.00  0.00     0.093 C 
ATOM     16  H28 SIA d   1     -34.639  -2.235  63.557  0.00  0.00     0.084 H 
ATOM     17  C4  SIA d   1     -33.349  -3.903  61.756  0.00  0.00     0.089 C 
ATOM     18  H29 SIA d   1     -35.422  -4.107  61.270  0.00  0.00     0.091 H 
ATOM     19  C5  SIA d   1     -33.359  -5.098  62.700  0.00  0.00     0.089 C 
ATOM     20  H30 SIA d   1     -33.047  -4.214  60.745  0.00  0.00     0.091 H 
ATOM     21  O5  SIA d   1     -33.829  -4.707  64.005  0.00  0.00    -0.349 OA
ATOM     22  H31 SIA d   1     -34.033  -5.857  62.277  0.00  0.00     0.090 H 
ATOM     23  H27 SIA d   1     -35.795  -5.052  63.622  0.00  0.00     0.132 H 
BRANCH  14  24
ATOM     24  N2  SIA d   1     -36.630  -2.607  63.122  0.00  0.00    -0.349 N 
ATOM     25  C7  SIA d   1     -37.144  -1.638  63.878  0.00  0.00     0.214 C 
ATOM     26  O7  SIA d   1     -36.452  -0.898  64.558  0.00  0.00    -0.274 OA
ATOM     27  H37 SIA d   1     -37.250  -3.073  62.491  0.00  0.00     0.163 HD
BRANCH  25  28
ATOM     28  C8  SIA d   1     -38.634  -1.527  63.870  0.00  0.00    -0.003 C 
ATOM     29  H34 SIA d   1     -38.944  -0.699  64.525  0.00  0.00     0.040 H 
ATOM     30  H35 SIA d   1     -39.074  -2.467  64.235  0.00  0.00     0.040 H 
ATOM     31  H36 SIA d   1     -38.982  -1.333  62.845  0.00  0.00     0.040 H 
ENDBRANCH  25  28
ENDBRANCH  14  24
BRANCH  15  32
ATOM     32  O3  SIA d   1     -34.873  -2.135  60.950  0.00  0.00    -0.348 OA
BRANCH  32  33
ATOM     33  C1  SIA d   1     -35.551  -2.228  59.726  0.00  0.00     0.159 C 
ATOM     34  C2  SIA d   1     -35.599  -0.882  59.034  0.00  0.00     0.116 C 
ATOM     35  C3  SIA d   1     -36.454  -1.035  57.773  0.00  0.00     0.092 C 
ATOM     36  H41 SIA d   1     -34.586  -0.553  58.761  0.00  0.00     0.095 H 
ATOM     37  C4  SIA d   1     -35.871  -2.118  56.851  0.00  0.00     0.090 C 
ATOM     38  H42 SIA d   1     -37.465  -1.352  58.067  0.00  0.00     0.091 H 
ATOM     39  C5  SIA d   1     -35.707  -3.424  57.661  0.00  0.00     0.089 C 
ATOM     40  H43 SIA d   1     -36.555  -2.295  56.008  0.00  0.00     0.091 H 
ATOM     41  O5  SIA d   1     -34.902  -3.154  58.849  0.00  0.00    -0.348 OA
ATOM     42  H44 SIA d   1     -36.706  -3.776  57.960  0.00  0.00     0.090 H 
ATOM     43  H40 SIA d   1     -36.578  -2.572  59.919  0.00  0.00     0.133 H 
BRANCH  34  44
ATOM     44  O2  SIA d   1     -36.191   0.061  59.944  0.00  0.00    -0.346 OA
BRANCH  44  45
ATOM     45  C1  SIA d   1     -35.580   1.352  60.035  0.00  0.00     0.159 C 
ATOM     46  C2  SIA d   1     -36.446   2.215  60.943  0.00  0.00     0.110 C 
ATOM     47  C3  SIA d   1     -36.363   1.759  62.379  0.00  0.00     0.092 C 
ATOM     48  H51 SIA d   1     -36.081   3.251  60.884  0.00  0.00     0.094 H 
ATOM     49  C4  SIA d   1     -34.943   1.592  62.881  0.00  0.00     0.087 C 
ATOM     50  H52 SIA d   1     -36.904   0.809  62.499  0.00  0.00     0.091 H 
ATOM     51  C5  SIA d   1     -34.099   0.813  61.886  0.00  0.00     0.065 C 
ATOM     52  H53 SIA d   1     -34.960   1.044  63.834  0.00  0.00     0.091 H 
ATOM     53  O5  SIA d   1     -34.230   1.355  60.549  0.00  0.00    -0.351 OA
ATOM     54  H54 SIA d   1     -34.445  -0.231  61.893  0.00  0.00     0.086 H 
ATOM     55  H50 SIA d   1     -35.559   1.791  59.026  0.00  0.00     0.133 H 
BRANCH  46  56
ATOM     56  O2  SIA d   1     -37.812   2.187  60.518  0.00  0.00    -0.388 OA
ATOM     57  H58 SIA d   1     -38.147   1.301  60.591  0.00  0.00     0.210 HD
ENDBRANCH  46  56
BRANCH  47  58
ATOM     58  O3  SIA d   1     -36.979   2.794  63.139  0.00  0.00    -0.390 OA
ATOM     59  H59 SIA d   1     -36.493   3.602  63.024  0.00  0.00     0.210 HD
ENDBRANCH  47  58
BRANCH  49  60
ATOM     60  O4  SIA d   1     -34.386   2.897  63.095  0.00  0.00    -0.390 OA
ATOM     61  H60 SIA d   1     -34.924   3.371  63.718  0.00  0.00     0.210 HD
ENDBRANCH  49  60
BRANCH  51  62
ATOM     62  C6  SIA d   1     -32.618   0.844  62.200  0.00  0.00    -0.050 C 
ATOM     63  H55 SIA d   1     -32.071   0.263  61.443  0.00  0.00     0.031 H 
ATOM     64  H56 SIA d   1     -32.445   0.406  63.194  0.00  0.00     0.031 H 
ATOM     65  H57 SIA d   1     -32.263   1.885  62.191  0.00  0.00     0.031 H 
ENDBRANCH  51  62
ENDBRANCH  44  45
ENDBRANCH  34  44
BRANCH  35  66
ATOM     66  O3  SIA d   1     -36.551   0.239  57.144  0.00  0.00    -0.390 OA
ATOM     67  H47 SIA d   1     -36.916   0.867  57.757  0.00  0.00     0.210 HD
ENDBRANCH  35  66
BRANCH  37  68
ATOM     68  O4  SIA d   1     -34.609  -1.672  56.350  0.00  0.00    -0.390 OA
ATOM     69  H48 SIA d   1     -34.240  -2.340  55.785  0.00  0.00     0.210 HD
ENDBRANCH  37  68
BRANCH  39  70
ATOM     70  C6  SIA d   1     -35.010  -4.523  56.903  0.00  0.00     0.043 C 
ATOM     71  H45 SIA d   1     -33.956  -4.243  56.758  0.00  0.00     0.078 H 
ATOM     72  H46 SIA d   1     -35.496  -4.644  55.924  0.00  0.00     0.078 H 
BRANCH  70  73
ATOM     73  O6  SIA d   1     -35.064  -5.742  57.589  0.00  0.00    -0.398 OA
ATOM     74  H49 SIA d   1     -34.641  -5.647  58.434  0.00  0.00     0.209 HD
ENDBRANCH  70  73
ENDBRANCH  39  70
ENDBRANCH  32  33
ENDBRANCH  15  32
BRANCH  17  75
ATOM     75  O4  SIA d   1     -32.420  -2.952  62.257  0.00  0.00    -0.390 OA
ATOM     76  H38 SIA d   1     -32.686  -2.680  63.127  0.00  0.00     0.210 HD
ENDBRANCH  17  75
BRANCH  19  77
ATOM     77  C6  SIA d   1     -32.013  -5.718  62.924  0.00  0.00     0.043 C 
ATOM     78  H32 SIA d   1     -31.367  -5.021  63.478  0.00  0.00     0.078 H 
ATOM     79  H33 SIA d   1     -31.547  -5.961  61.958  0.00  0.00     0.078 H 
BRANCH  77  80
ATOM     80  O6  SIA d   1     -32.209  -6.933  63.698  0.00  0.00    -0.398 OA
ATOM     81  H39 SIA d   1     -32.771  -7.528  63.215  0.00  0.00     0.209 HD
ENDBRANCH  77  80
ENDBRANCH  19  77
ENDBRANCH  12  13
ENDBRANCH   4  12
BRANCH   3  82
ATOM     82  O3  SIA d   1     -38.206  -4.669  65.304  0.00  0.00    -0.336 OA
BRANCH  82  83
ATOM     83  C2  SIA d   1     -38.984  -5.701  64.668  0.00  0.00     0.259 C 
ATOM     84  C3  SIA d   1     -40.159  -6.150  65.537  0.00  0.00     0.024 C 
ATOM     85  C4  SIA d   1     -40.862  -7.384  64.984  0.00  0.00     0.063 C 
ATOM     86  H1  SIA d   1     -40.887  -5.327  65.597  0.00  0.00     0.045 H 
ATOM     87  H2  SIA d   1     -39.783  -6.381  66.545  0.00  0.00     0.045 H 
ATOM     88  C5  SIA d   1     -39.866  -8.451  64.565  0.00  0.00     0.064 C 
ATOM     89  H3  SIA d   1     -41.456  -7.088  64.107  0.00  0.00     0.086 H 
ATOM     90  C6  SIA d   1     -38.739  -7.861  63.711  0.00  0.00     0.091 C 
ATOM     91  H4  SIA d   1     -39.413  -8.899  65.462  0.00  0.00     0.080 H 
ATOM     92  O6  SIA d   1     -38.106  -6.820  64.490  0.00  0.00    -0.336 OA
ATOM     93  H5  SIA d   1     -39.185  -7.437  62.800  0.00  0.00     0.090 H 
BRANCH  83  94
ATOM     94  C1  SIA d   1     -39.383  -5.007  63.351  0.00  0.00     0.239 C 
ATOM     95  O1A SIA d   1     -38.551  -4.871  62.421  0.00  0.00    -0.644 OA
ATOM     96  O1B SIA d   1     -40.564  -4.629  63.216  0.00  0.00    -0.644 OA
ENDBRANCH  83  94
BRANCH  85  97
ATOM     97  O4  SIA d   1     -41.736  -7.934  65.984  0.00  0.00    -0.393 OA
ATOM     98  H14 SIA d   1     -42.363  -7.273  66.253  0.00  0.00     0.210 HD
ENDBRANCH  85  97
BRANCH  88  99
ATOM     99  N5  SIA d   1     -40.639  -9.469  63.865  0.00  0.00    -0.352 N 
ATOM    100  C10 SIA d   1     -40.294 -10.745  63.810  0.00  0.00     0.214 C 
ATOM    101  O10 SIA d   1     -39.344 -11.201  64.444  0.00  0.00    -0.274 OA
ATOM    102  H13 SIA d   1     -41.478  -9.187  63.400  0.00  0.00     0.163 HD
BRANCH 100 103
ATOM    103  C11 SIA d   1     -41.172 -11.610  62.952  0.00  0.00    -0.003 C 
ATOM    104  H10 SIA d   1     -40.801 -12.645  62.974  0.00  0.00     0.040 H 
ATOM    105  H11 SIA d   1     -41.156 -11.237  61.917  0.00  0.00     0.040 H 
ATOM    106  H12 SIA d   1     -42.203 -11.581  63.336  0.00  0.00     0.040 H 
ENDBRANCH 100 103
ENDBRANCH  88  99
BRANCH  90 107
ATOM    107  C7  SIA d   1     -37.631  -8.817  63.303  0.00  0.00     0.089 C 
ATOM    108  H6  SIA d   1     -38.045  -9.493  62.540  0.00  0.00     0.091 H 
BRANCH 107 109
ATOM    109  C8  SIA d   1     -36.391  -8.113  62.708  0.00  0.00     0.083 C 
ATOM    110  H7  SIA d   1     -35.889  -7.587  63.533  0.00  0.00     0.090 H 
BRANCH 109 111
ATOM    111  C9  SIA d   1     -35.404  -9.075  62.093  0.00  0.00     0.043 C 
ATOM    112  H8  SIA d   1     -35.795  -9.428  61.127  0.00  0.00     0.078 H 
ATOM    113  H9  SIA d   1     -35.265  -9.932  62.768  0.00  0.00     0.078 H 
BRANCH 111 114
ATOM    114  O9  SIA d   1     -34.148  -8.431  61.885  0.00  0.00    -0.398 OA
ATOM    115  H17 SIA d   1     -34.266  -7.691  61.301  0.00  0.00     0.209 HD
ENDBRANCH 111 114
ENDBRANCH 109 111
BRANCH 109 116
ATOM    116  O8  SIA d   1     -36.734  -7.152  61.708  0.00  0.00    -0.391 OA
ATOM    117  H16 SIA d   1     -37.122  -7.596  60.964  0.00  0.00     0.210 HD
ENDBRANCH 109 116
ENDBRANCH 107 109
BRANCH 107 118
ATOM    118  O7  SIA d   1     -37.170  -9.604  64.415  0.00  0.00    -0.390 OA
ATOM    119  H15 SIA d   1     -37.907 -10.055  64.810  0.00  0.00     0.210 HD
ENDBRANCH 107 118
ENDBRANCH  90 107
ENDBRANCH  82  83
ENDBRANCH   3  82
BRANCH   5 120
ATOM    120  C6  SIA d   1     -33.718  -5.239  67.201  0.00  0.00     0.043 C 
ATOM    121  H23 SIA d   1     -33.397  -4.450  66.505  0.00  0.00     0.078 H 
ATOM    122  H24 SIA d   1     -33.469  -6.224  66.779  0.00  0.00     0.078 H 
BRANCH 120 123
ATOM    123  O6  SIA d   1     -33.051  -5.072  68.459  0.00  0.00    -0.398 OA
ATOM    124  H26 SIA d   1     -33.269  -4.221  68.822  0.00  0.00     0.209 HD
ENDBRANCH 120 123
ENDBRANCH   5 120
BRANCH   2 125
ATOM    125  O2  SIA d   1     -39.073  -3.680  67.759  0.00  0.00    -0.388 OA
ATOM    126  H25 SIA d   1     -39.219  -2.933  68.328  0.00  0.00     0.210 HD
ENDBRANCH   2 125
BRANCH   1 127
ATOM    127  O4  SIA d   1     -37.138  -2.789  69.461  0.00  0.00    -0.348 OA
BRANCH 127 128
ATOM    128  C4  SIA d   1     -36.848  -2.834  70.871  0.00  0.00     0.096 C 
ATOM    129  C3  SIA d   1     -36.057  -1.533  70.991  0.00  0.00     0.092 C 
ATOM    130  C2  SIA d   1     -35.775  -1.237  72.435  0.00  0.00     0.110 C 
ATOM    131  H62 SIA d   1     -36.695  -0.721  70.614  0.00  0.00     0.091 H 
ATOM    132  C1  SIA d   1     -37.100  -1.182  73.200  0.00  0.00     0.156 C 
ATOM    133  H61 SIA d   1     -35.137  -2.027  72.858  0.00  0.00     0.094 H 
ATOM    134  O5  SIA d   1     -37.692  -2.472  73.122  0.00  0.00    -0.349 OA
ATOM    135  H67 SIA d   1     -37.745  -0.441  72.705  0.00  0.00     0.133 H 
ATOM    136  C5  SIA d   1     -38.096  -2.792  71.771  0.00  0.00     0.089 C 
ATOM    137  H64 SIA d   1     -38.754  -2.001  71.382  0.00  0.00     0.090 H 
ATOM    138  H63 SIA d   1     -36.243  -3.715  71.130  0.00  0.00     0.091 H 
BRANCH 129 139
ATOM    139  O3  SIA d   1     -34.873  -1.557  70.157  0.00  0.00    -0.390 OA
ATOM    140  H70 SIA d   1     -35.129  -1.673  69.249  0.00  0.00     0.210 HD
ENDBRANCH 129 139
BRANCH 130 141
ATOM    141  O2  SIA d   1     -35.113   0.012  72.535  0.00  0.00    -0.388 OA
ATOM    142  H69 SIA d   1     -34.292  -0.027  72.059  0.00  0.00     0.210 HD
ENDBRANCH 130 141
BRANCH 132 143
ATOM    143  O1  SIA d   1     -37.033  -0.865  74.535  0.00  0.00    -0.369 OA
ATOM    144  H68 SIA d   1     -36.502  -1.511  74.987  0.00  0.00     0.212 HD
ENDBRANCH 132 143
BRANCH 136 145
ATOM    145  C6  SIA d   1     -38.910  -4.063  71.893  0.00  0.00     0.043 C 
ATOM    146  H65 SIA d   1     -39.765  -3.999  71.204  0.00  0.00     0.078 H 
ATOM    147  H66 SIA d   1     -39.277  -4.146  72.927  0.00  0.00     0.078 H 
BRANCH 145 148
ATOM    148  O6  SIA d   1     -38.164  -5.231  71.582  0.00  0.00    -0.398 OA
ATOM    149  H71 SIA d   1     -38.721  -5.995  71.674  0.00  0.00     0.209 HD
ENDBRANCH 145 148
ENDBRANCH 136 145
ENDBRANCH 127 128
ENDBRANCH   1 127
TORSDOF 41
