REMARK WARNING: 32 MAX_TORS EXCEEDED!!!
REMARK  38 active torsions:
REMARK  status: ('A' for Active; 'I' for Inactive)
REMARK    1  A    between atoms: N_1  and  CA_2 
REMARK    2  A    between atoms: CA_2  and  C_3 
REMARK    3  A    between atoms: CA_2  and  CB_5 
REMARK       I    between atoms: C_3  and  N_6 
REMARK    4  A    between atoms: N_6  and  CA_7 
REMARK    5  A    between atoms: CA_7  and  C_8 
REMARK    6  A    between atoms: CA_7  and  CB_10 
REMARK       I    between atoms: C_8  and  N_11 
REMARK    7  A    between atoms: N_11  and  CA_12 
REMARK    8  A    between atoms: CA_12  and  C_13 
REMARK    9  A    between atoms: CA_12  and  CB_15 
REMARK       I    between atoms: C_13  and  N_17 
REMARK   10  A    between atoms: CB_15  and  OG_16 
REMARK   11  A    between atoms: N_17  and  CA_18 
REMARK   12  A    between atoms: CA_18  and  C_19 
REMARK   13  A    between atoms: CA_18  and  CB_21 
REMARK       I    between atoms: C_19  and  N_28 
REMARK   14  A    between atoms: CB_21  and  CG_22 
REMARK   15  A    between atoms: N_28  and  CA_29 
REMARK   16  A    between atoms: CA_29  and  C_30 
REMARK   17  A    between atoms: CA_29  and  CB_32 
REMARK       I    between atoms: C_30  and  N_35 
REMARK   18  A    between atoms: CB_32  and  OG1_33 
REMARK   19  A    between atoms: CB_32  and  CG2_34 
REMARK   20  A    between atoms: N_35  and  CA_36 
REMARK   21  A    between atoms: CA_36  and  C_37 
REMARK   22  A    between atoms: CA_36  and  CB_39 
REMARK       I    between atoms: C_37  and  N_43 
REMARK   23  A    between atoms: CB_39  and  CG_40 
REMARK   24  A    between atoms: CG_40  and  CD1_41 
REMARK   25  A    between atoms: CG_40  and  CD2_42 
REMARK   26  A    between atoms: N_43  and  CA_44 
REMARK   27  A    between atoms: CA_44  and  C_45 
REMARK   28  A    between atoms: CA_44  and  CB_47 
REMARK       I    between atoms: C_45  and  N_51 
REMARK   29  A    between atoms: CB_47  and  CG1_48 
REMARK   30  A    between atoms: CB_47  and  CG2_49 
REMARK   31  A    between atoms: CG1_48  and  CD1_50 
REMARK   32  A    between atoms: N_51  and  CA_52 
REMARK   33  A    between atoms: CA_52  and  C_53 
REMARK       I    between atoms: C_53  and  N_55 
REMARK   34  A    between atoms: N_55  and  CA_56 
REMARK   35  A    between atoms: CA_56  and  C_57 
REMARK   36  A    between atoms: CA_56  and  CB_59 
REMARK   37  A    between atoms: CB_59  and  CG_60 
REMARK   38  A    between atoms: CG_60  and  CD_61 
ROOT
ATOM      1  CA  ALA d   1      -6.857  -4.997  -7.757  0.00  0.00     0.113 C 
ATOM      2  H28 ALA d   1      -7.556  -4.312  -7.255  0.00  0.00     0.091 H 
ENDROOT
BRANCH   1   3
ATOM      3  N   ALA d   1      -5.637  -4.280  -8.106  0.00  0.00    -0.344 N 
ATOM      4  C   ALA d   1      -5.366  -3.058  -7.658  0.00  0.00     0.241 C 
ATOM      5  O   ALA d   1      -6.147  -2.420  -6.945  0.00  0.00    -0.271 OA
ATOM      6  H27 ALA d   1      -4.975  -4.726  -8.708  0.00  0.00     0.163 HD
BRANCH   4   7
ATOM      7  CA  ALA d   1      -3.986  -2.510  -7.999  0.00  0.00     0.093 C 
ATOM      8  H19 ALA d   1      -3.663  -2.892  -8.979  0.00  0.00     0.088 H 
BRANCH   7   9
ATOM      9  N   ALA d   1      -4.007  -1.047  -8.035  0.00  0.00    -0.346 N 
ATOM     10  C   ALA d   1      -4.252  -0.366  -9.162  0.00  0.00     0.243 C 
ATOM     11  O   ALA d   1      -4.418  -0.919 -10.252  0.00  0.00    -0.271 OA
ATOM     12  H18 ALA d   1      -3.833  -0.540  -7.191  0.00  0.00     0.163 HD
BRANCH  10  13
ATOM     13  CA  ALA d   1      -4.282   1.152  -9.099  0.00  0.00     0.109 C 
ATOM     14  H14 ALA d   1      -5.254   1.491  -9.487  0.00  0.00     0.090 H 
BRANCH  13  15
ATOM     15  N   ALA d   1      -4.140   1.654  -7.746  0.00  0.00    -0.344 N 
ATOM     16  C   ALA d   1      -5.214   1.898  -7.007  0.00  0.00     0.240 C 
ATOM     17  O   ALA d   1      -6.359   1.688  -7.425  0.00  0.00    -0.271 OA
ATOM     18  H13 ALA d   1      -3.228   1.817  -7.369  0.00  0.00     0.163 HD
BRANCH  16  19
ATOM     19  CA  ALA d   1      -5.000   2.461  -5.610  0.00  0.00     0.086 C 
ATOM     20  H9  ALA d   1      -5.858   2.161  -4.991  0.00  0.00     0.086 H 
BRANCH  19  21
ATOM     21  N   ALA d   1      -3.788   1.943  -4.984  0.00  0.00    -0.346 N 
ATOM     22  C   ALA d   1      -3.602   0.627  -4.834  0.00  0.00     0.248 C 
ATOM     23  O   ALA d   1      -4.341  -0.220  -5.314  0.00  0.00    -0.271 OA
ATOM     24  H8  ALA d   1      -3.087   2.580  -4.663  0.00  0.00     0.163 HD
BRANCH  22  25
ATOM     25  CA  ALA d   1      -2.413   0.197  -4.002  0.00  0.00     0.172 C 
ATOM     26  H4  ALA d   1      -1.820  -0.515  -4.595  0.00  0.00     0.098 H 
BRANCH  25  27
ATOM     27  N   ALA d   1      -1.549   1.321  -3.661  0.00  0.00    -0.067 N 
ATOM     28  H1  ALA d   1      -0.772   0.992  -3.109  0.00  0.00     0.275 HD
ATOM     29  H2  ALA d   1      -2.074   2.000  -3.132  0.00  0.00     0.275 HD
ATOM     30  H3  ALA d   1      -1.203   1.748  -4.506  0.00  0.00     0.275 HD
ENDBRANCH  25  27
BRANCH  25  31
ATOM     31  CB  ALA d   1      -2.903  -0.513  -2.751  0.00  0.00    -0.042 C 
ATOM     32  H5  ALA d   1      -3.551  -1.355  -3.037  0.00  0.00     0.030 H 
ATOM     33  H6  ALA d   1      -3.472   0.193  -2.128  0.00  0.00     0.030 H 
ATOM     34  H7  ALA d   1      -2.041  -0.891  -2.182  0.00  0.00     0.030 H 
ENDBRANCH  25  31
ENDBRANCH  22  25
ENDBRANCH  19  21
BRANCH  19  35
ATOM     35  CB  ALA d   1      -4.942   3.994  -5.645  0.00  0.00    -0.049 C 
ATOM     36  H10 ALA d   1      -5.856   4.385  -6.117  0.00  0.00     0.030 H 
ATOM     37  H11 ALA d   1      -4.064   4.315  -6.225  0.00  0.00     0.030 H 
ATOM     38  H12 ALA d   1      -4.865   4.382  -4.618  0.00  0.00     0.030 H 
ENDBRANCH  19  35
ENDBRANCH  16  19
ENDBRANCH  13  15
BRANCH  13  39
ATOM     39  CB  ALA d   1      -3.176   1.720  -9.990  0.00  0.00     0.044 C 
ATOM     40  H15 ALA d   1      -3.232   2.818  -9.992  0.00  0.00     0.077 H 
ATOM     41  H16 ALA d   1      -3.301   1.345 -11.016  0.00  0.00     0.077 H 
BRANCH  39  42
ATOM     42  OG  ALA d   1      -1.915   1.310  -9.485  0.00  0.00    -0.398 OA
ATOM     43  H17 ALA d   1      -1.225   1.661 -10.036  0.00  0.00     0.209 HD
ENDBRANCH  39  42
ENDBRANCH  13  39
ENDBRANCH  10  13
ENDBRANCH   7   9
BRANCH   7  44
ATOM     44  CB  ALA d   1      -3.033  -2.997  -6.910  0.00  0.00    -0.014 C 
ATOM     45  H20 ALA d   1      -3.216  -4.069  -6.743  0.00  0.00     0.043 H 
ATOM     46  H21 ALA d   1      -3.249  -2.440  -5.986  0.00  0.00     0.043 H 
BRANCH  44  47
ATOM     47  CG  ALA d   1      -1.598  -2.814  -7.242  0.00  0.00    -0.056 A 
ATOM     48  CD1 ALA d   1      -0.951  -1.616  -6.958  0.00  0.00    -0.077 A 
ATOM     49  CE1 ALA d   1       0.390  -1.449  -7.248  0.00  0.00    -0.082 A 
ATOM     50  H22 ALA d   1      -1.506  -0.803  -6.503  0.00  0.00     0.084 H 
ATOM     51  CZ  ALA d   1       1.084  -2.473  -7.854  0.00  0.00    -0.083 A 
ATOM     52  H24 ALA d   1       0.891  -0.520  -7.001  0.00  0.00     0.083 H 
ATOM     53  CE2 ALA d   1       0.453  -3.677  -8.139  0.00  0.00    -0.082 A 
ATOM     54  H26 ALA d   1       2.129  -2.338  -8.110  0.00  0.00     0.083 H 
ATOM     55  CD2 ALA d   1      -0.868  -3.853  -7.825  0.00  0.00    -0.077 A 
ATOM     56  H25 ALA d   1       1.008  -4.479  -8.611  0.00  0.00     0.083 H 
ATOM     57  H23 ALA d   1      -1.349  -4.802  -8.030  0.00  0.00     0.084 H 
ENDBRANCH  44  47
ENDBRANCH   7  44
ENDBRANCH   4   7
ENDBRANCH   1   3
BRANCH   1  58
ATOM     58  C   ALA d   1      -6.492  -6.130  -6.806  0.00  0.00     0.243 C 
ATOM     59  O   ALA d   1      -5.745  -7.043  -7.187  0.00  0.00    -0.271 OA
ATOM     60  N   ALA d   1      -7.012  -6.076  -5.579  0.00  0.00    -0.346 N 
ATOM     61  H34 ALA d   1      -7.559  -5.286  -5.303  0.00  0.00     0.163 HD
BRANCH  60  62
ATOM     62  CA  ALA d   1      -6.784  -7.164  -4.642  0.00  0.00     0.089 C 
ATOM     63  H35 ALA d   1      -5.715  -7.421  -4.666  0.00  0.00     0.087 H 
BRANCH  62  64
ATOM     64  C   ALA d   1      -7.579  -8.378  -5.071  0.00  0.00     0.241 C 
ATOM     65  O   ALA d   1      -8.747  -8.271  -5.453  0.00  0.00    -0.271 OA
ATOM     66  N   ALA d   1      -6.958  -9.541  -5.003  0.00  0.00    -0.346 N 
ATOM     67  H45 ALA d   1      -5.995  -9.566  -4.736  0.00  0.00     0.163 HD
BRANCH  66  68
ATOM     68  CA  ALA d   1      -7.646 -10.788  -5.308  0.00  0.00     0.092 C 
ATOM     69  H46 ALA d   1      -8.720 -10.668  -5.102  0.00  0.00     0.088 H 
BRANCH  68  70
ATOM     70  C   ALA d   1      -7.095 -11.867  -4.402  0.00  0.00     0.241 C 
ATOM     71  O   ALA d   1      -5.893 -11.902  -4.133  0.00  0.00    -0.271 OA
ATOM     72  N   ALA d   1      -7.968 -12.752  -3.920  0.00  0.00    -0.351 N 
ATOM     73  H56 ALA d   1      -8.946 -12.624  -4.087  0.00  0.00     0.163 HD
BRANCH  72  74
ATOM     74  CA  ALA d   1      -7.515 -13.898  -3.157  0.00  0.00     0.069 C 
ATOM     75  H57 ALA d   1      -6.483 -14.119  -3.469  0.00  0.00     0.078 H 
ATOM     76  H58 ALA d   1      -8.165 -14.747  -3.414  0.00  0.00     0.078 H 
BRANCH  74  77
ATOM     77  C   ALA d   1      -7.518 -13.759  -1.649  0.00  0.00     0.236 C 
ATOM     78  O   ALA d   1      -7.237 -14.740  -0.963  0.00  0.00    -0.272 OA
ATOM     79  N   ALA d   1      -7.859 -12.602  -1.102  0.00  0.00    -0.345 N 
ATOM     80  H59 ALA d   1      -8.112 -11.829  -1.684  0.00  0.00     0.163 HD
BRANCH  79  81
ATOM     81  CA  ALA d   1      -7.865 -12.455   0.355  0.00  0.00     0.097 C 
ATOM     82  H60 ALA d   1      -6.882 -12.759   0.743  0.00  0.00     0.089 H 
BRANCH  81  83
ATOM     83  C   ALA d   1      -8.920 -13.356   0.956  0.00  0.00     0.196 C 
ATOM     84  O   ALA d   1     -10.066 -13.397   0.446  0.00  0.00    -0.646 OA
ATOM     85  OXT ALA d   1      -8.646 -14.031   1.974  0.00  0.00    -0.646 OA
ENDBRANCH  81  83
BRANCH  81  86
ATOM     86  CB  ALA d   1      -8.108 -11.002   0.744  0.00  0.00    -0.028 C 
ATOM     87  H61 ALA d   1      -8.191 -10.935   1.839  0.00  0.00     0.037 H 
ATOM     88  H62 ALA d   1      -9.047 -10.662   0.284  0.00  0.00     0.037 H 
BRANCH  86  89
ATOM     89  CG  ALA d   1      -6.977 -10.101   0.279  0.00  0.00     0.018 C 
ATOM     90  H63 ALA d   1      -6.896 -10.167  -0.816  0.00  0.00     0.049 H 
ATOM     91  H64 ALA d   1      -6.037 -10.444   0.737  0.00  0.00     0.049 H 
BRANCH  89  92
ATOM     92  CD  ALA d   1      -7.213  -8.663   0.666  0.00  0.00     0.172 C 
ATOM     93  OE1 ALA d   1      -8.251  -8.118   0.214  0.00  0.00    -0.648 OA
ATOM     94  OE2 ALA d   1      -6.405  -8.085   1.439  0.00  0.00    -0.648 OA
ENDBRANCH  89  92
ENDBRANCH  86  89
ENDBRANCH  81  86
ENDBRANCH  79  81
ENDBRANCH  74  77
ENDBRANCH  72  74
ENDBRANCH  68  70
BRANCH  68  95
ATOM     95  CB  ALA d   1      -7.472 -11.135  -6.806  0.00  0.00    -0.030 C 
ATOM     96  H47 ALA d   1      -7.804 -10.262  -7.387  0.00  0.00     0.043 H 
BRANCH  95  97
ATOM     97  CG1 ALA d   1      -8.342 -12.318  -7.218  0.00  0.00    -0.063 C 
ATOM     98  H48 ALA d   1      -9.380 -12.123  -6.911  0.00  0.00     0.033 H 
ATOM     99  H49 ALA d   1      -7.975 -13.225  -6.715  0.00  0.00     0.033 H 
BRANCH  97 100
ATOM    100  CD1 ALA d   1      -8.304 -12.538  -8.727  0.00  0.00    -0.076 C 
ATOM    101  H53 ALA d   1      -8.940 -13.396  -8.989  0.00  0.00     0.027 H 
ATOM    102  H54 ALA d   1      -7.269 -12.739  -9.042  0.00  0.00     0.027 H 
ATOM    103  H55 ALA d   1      -8.675 -11.637  -9.238  0.00  0.00     0.027 H 
ENDBRANCH  97 100
ENDBRANCH  95  97
BRANCH  95 104
ATOM    104  CG2 ALA d   1      -6.025 -11.386  -7.147  0.00  0.00    -0.071 C 
ATOM    105  H50 ALA d   1      -5.420 -10.520  -6.840  0.00  0.00     0.028 H 
ATOM    106  H51 ALA d   1      -5.925 -11.537  -8.232  0.00  0.00     0.028 H 
ATOM    107  H52 ALA d   1      -5.674 -12.284  -6.618  0.00  0.00     0.028 H 
ENDBRANCH  95 104
ENDBRANCH  68  95
ENDBRANCH  66  68
ENDBRANCH  62  64
BRANCH  62 108
ATOM    108  CB  ALA d   1      -7.144  -6.760  -3.206  0.00  0.00    -0.035 C 
ATOM    109  H36 ALA d   1      -7.378  -7.674  -2.641  0.00  0.00     0.037 H 
ATOM    110  H37 ALA d   1      -8.034  -6.115  -3.244  0.00  0.00     0.037 H 
BRANCH 108 111
ATOM    111  CG  ALA d   1      -6.033  -6.001  -2.453  0.00  0.00    -0.059 C 
ATOM    112  H38 ALA d   1      -5.591  -5.275  -3.151  0.00  0.00     0.038 H 
BRANCH 111 113
ATOM    113  CD1 ALA d   1      -6.562  -5.231  -1.263  0.00  0.00    -0.073 C 
ATOM    114  H39 ALA d   1      -5.731  -4.710  -0.764  0.00  0.00     0.028 H 
ATOM    115  H40 ALA d   1      -7.035  -5.928  -0.556  0.00  0.00     0.028 H 
ATOM    116  H41 ALA d   1      -7.304  -4.494  -1.603  0.00  0.00     0.028 H 
ENDBRANCH 111 113
BRANCH 111 117
ATOM    117  CD2 ALA d   1      -4.928  -6.979  -2.015  0.00  0.00    -0.073 C 
ATOM    118  H42 ALA d   1      -4.556  -7.529  -2.892  0.00  0.00     0.028 H 
ATOM    119  H43 ALA d   1      -5.337  -7.691  -1.283  0.00  0.00     0.028 H 
ATOM    120  H44 ALA d   1      -4.101  -6.417  -1.557  0.00  0.00     0.028 H 
ENDBRANCH 111 117
ENDBRANCH 108 111
ENDBRANCH  62 108
ENDBRANCH  60  62
ENDBRANCH   1  58
BRANCH   1 121
ATOM    121  CB  ALA d   1      -7.517  -5.541  -9.033  0.00  0.00     0.060 C 
ATOM    122  H29 ALA d   1      -6.789  -6.164  -9.573  0.00  0.00     0.086 H 
BRANCH 121 123
ATOM    123  OG1 ALA d   1      -7.918  -4.444  -9.866  0.00  0.00    -0.393 OA
ATOM    124  H30 ALA d   1      -8.538  -3.900  -9.395  0.00  0.00     0.210 HD
ENDBRANCH 121 123
BRANCH 121 125
ATOM    125  CG2 ALA d   1      -8.757  -6.386  -8.709  0.00  0.00    -0.050 C 
ATOM    126  H31 ALA d   1      -9.202  -6.758  -9.644  0.00  0.00     0.031 H 
ATOM    127  H32 ALA d   1      -9.492  -5.768  -8.173  0.00  0.00     0.031 H 
ATOM    128  H33 ALA d   1      -8.465  -7.238  -8.078  0.00  0.00     0.031 H 
ENDBRANCH 121 125
ENDBRANCH   1 121
TORSDOF 38
