REMARK WARNING: 32 MAX_TORS EXCEEDED!!!
REMARK  39 active torsions:
REMARK  status: ('A' for Active; 'I' for Inactive)
REMARK    1  A    between atoms: N_1  and  CA_2 
REMARK    2  A    between atoms: CA_2  and  C_3 
REMARK    3  A    between atoms: CA_2  and  CB_5 
REMARK       I    between atoms: C_3  and  N_9 
REMARK    4  A    between atoms: CB_5  and  CG_6 
REMARK    5  A    between atoms: N_9  and  CA_10 
REMARK    6  A    between atoms: CA_10  and  C_11 
REMARK    7  A    between atoms: CA_10  and  CB_13 
REMARK       I    between atoms: C_11  and  N_23 
REMARK    8  A    between atoms: CB_13  and  CG_14 
REMARK    9  A    between atoms: N_23  and  CA_24 
REMARK   10  A    between atoms: CA_24  and  C_25 
REMARK   11  A    between atoms: CA_24  and  CB_27 
REMARK       I    between atoms: C_25  and  N_32 
REMARK   12  A    between atoms: CB_27  and  CG_28 
REMARK   13  A    between atoms: CG_28  and  CD_29 
REMARK   14  A    between atoms: N_32  and  CA_33 
REMARK   15  A    between atoms: CA_33  and  C_34 
REMARK   16  A    between atoms: CA_33  and  CB_36 
REMARK       I    between atoms: C_34  and  N_40 
REMARK   17  A    between atoms: CB_36  and  CG_37 
REMARK       I    between atoms: CG_37  and  ND2_39 
REMARK   18  A    between atoms: N_40  and  CA_41 
REMARK   19  A    between atoms: CA_41  and  C_42 
REMARK   20  A    between atoms: CA_41  and  CB_44 
REMARK       I    between atoms: C_42  and  N_48 
REMARK   21  A    between atoms: CB_44  and  CG_45 
REMARK   22  A    between atoms: CG_45  and  CD1_46 
REMARK   23  A    between atoms: CG_45  and  CD2_47 
REMARK   24  A    between atoms: CA_49  and  C_50 
REMARK       I    between atoms: C_50  and  N_55 
REMARK   25  A    between atoms: N_55  and  CA_56 
REMARK   26  A    between atoms: CA_56  and  C_57 
REMARK   27  A    between atoms: CA_56  and  CB_59 
REMARK       I    between atoms: C_57  and  N_61 
REMARK   28  A    between atoms: CB_59  and  OG_60 
REMARK   29  A    between atoms: CA_62  and  C_63 
REMARK       I    between atoms: C_63  and  N_68 
REMARK   30  A    between atoms: N_68  and  CA_69 
REMARK   31  A    between atoms: CA_69  and  C_70 
REMARK   32  A    between atoms: CA_69  and  CB_72 
REMARK       I    between atoms: C_70  and  N_79 
REMARK   33  A    between atoms: CB_72  and  CG_73 
REMARK   34  A    between atoms: CG_73  and  CD_74 
REMARK   35  A    between atoms: CD_74  and  NE_75 
REMARK       I    between atoms: NE_75  and  CZ_76 
REMARK       I    between atoms: CZ_76  and  NH1_77 
REMARK       I    between atoms: CZ_76  and  NH2_78 
REMARK   36  A    between atoms: N_79  and  CA_80 
REMARK   37  A    between atoms: CA_80  and  C_81 
REMARK   38  A    between atoms: CA_80  and  CB_83 
REMARK   39  A    between atoms: CB_83  and  CG_84 
ROOT
ATOM      1  C   ASP d   1      16.448  -2.361  14.693  0.00  0.00     0.243 C 
ATOM      2  O   ASP d   1      17.614  -1.976  14.562  0.00  0.00    -0.271 OA
ATOM      3  N   ASP d   1      16.101  -3.642  14.771  0.00  0.00    -0.337 N 
ATOM      4  CA  ASP d   1      17.087  -4.716  14.576  0.00  0.00     0.091 C 
ATOM      5  CB  ASP d   1      16.300  -5.980  14.940  0.00  0.00    -0.036 C 
ATOM      6  CG  ASP d   1      14.884  -5.638  14.562  0.00  0.00    -0.048 C 
ATOM      7  CD  ASP d   1      14.728  -4.155  14.899  0.00  0.00    -0.001 C 
ATOM      8  H40 ASP d   1      17.958  -4.573  15.232  0.00  0.00     0.087 H 
ATOM      9  H41 ASP d   1      16.378  -6.195  16.016  0.00  0.00     0.036 H 
ATOM     10  H42 ASP d   1      16.661  -6.846  14.366  0.00  0.00     0.036 H 
ATOM     11  H43 ASP d   1      14.172  -6.243  15.143  0.00  0.00     0.035 H 
ATOM     12  H44 ASP d   1      14.719  -5.809  13.488  0.00  0.00     0.035 H 
ATOM     13  H45 ASP d   1      14.052  -3.657  14.189  0.00  0.00     0.064 H 
ATOM     14  H46 ASP d   1      14.349  -4.020  15.923  0.00  0.00     0.064 H 
ENDROOT
BRANCH   1  15
ATOM     15  CA  ASP d   1      15.321  -1.345  14.853  0.00  0.00     0.090 C 
ATOM     16  H30 ASP d   1      14.481  -1.817  15.384  0.00  0.00     0.087 H 
BRANCH  15  17
ATOM     17  N   ASP d   1      15.772  -0.170  15.615  0.00  0.00    -0.346 N 
ATOM     18  C   ASP d   1      15.758  -0.169  16.967  0.00  0.00     0.241 C 
ATOM     19  O   ASP d   1      15.384  -1.136  17.635  0.00  0.00    -0.271 OA
ATOM     20  H29 ASP d   1      16.094   0.640  15.125  0.00  0.00     0.163 HD
BRANCH  18  21
ATOM     21  CA  ASP d   1      16.229   1.105  17.657  0.00  0.00     0.097 C 
ATOM     22  H24 ASP d   1      16.584   1.833  16.913  0.00  0.00     0.088 H 
BRANCH  21  23
ATOM     23  N   ASP d   1      15.113   1.656  18.414  0.00  0.00    -0.346 N 
ATOM     24  C   ASP d   1      14.236   2.519  17.894  0.00  0.00     0.241 C 
ATOM     25  O   ASP d   1      14.315   2.950  16.741  0.00  0.00    -0.271 OA
ATOM     26  H23 ASP d   1      14.998   1.375  19.367  0.00  0.00     0.163 HD
BRANCH  24  27
ATOM     27  CA  ASP d   1      13.073   2.945  18.779  0.00  0.00     0.090 C 
ATOM     28  H18 ASP d   1      13.148   2.456  19.761  0.00  0.00     0.087 H 
BRANCH  27  29
ATOM     29  N   ASP d   1      13.160   4.390  18.935  0.00  0.00    -0.346 N 
ATOM     30  C   ASP d   1      13.196   4.936  20.132  0.00  0.00     0.241 C 
ATOM     31  O   ASP d   1      13.034   4.270  21.162  0.00  0.00    -0.271 OA
ATOM     32  H17 ASP d   1      13.193   4.974  18.124  0.00  0.00     0.163 HD
BRANCH  30  33
ATOM     33  CA  ASP d   1      13.442   6.444  20.144  0.00  0.00     0.093 C 
ATOM     34  H8  ASP d   1      12.903   6.906  19.303  0.00  0.00     0.088 H 
BRANCH  33  35
ATOM     35  N   ASP d   1      12.957   7.022  21.383  0.00  0.00    -0.346 N 
ATOM     36  C   ASP d   1      11.704   7.428  21.543  0.00  0.00     0.249 C 
ATOM     37  O   ASP d   1      10.873   7.421  20.629  0.00  0.00    -0.271 OA
ATOM     38  H7  ASP d   1      13.594   7.118  22.148  0.00  0.00     0.163 HD
BRANCH  36  39
ATOM     39  CA  ASP d   1      11.320   7.943  22.963  0.00  0.00     0.185 C 
ATOM     40  H4  ASP d   1      10.433   8.582  22.838  0.00  0.00     0.100 H 
BRANCH  39  41
ATOM     41  N   ASP d   1      10.946   6.868  23.878  0.00  0.00    -0.066 N 
ATOM     42  H1  ASP d   1      10.709   7.259  24.776  0.00  0.00     0.275 HD
ATOM     43  H2  ASP d   1      11.720   6.231  23.982  0.00  0.00     0.275 HD
ATOM     44  H3  ASP d   1      10.151   6.372  23.507  0.00  0.00     0.275 HD
ENDBRANCH  39  41
BRANCH  39  45
ATOM     45  CB  ASP d   1      12.429   8.818  23.580  0.00  0.00     0.050 C 
ATOM     46  H5  ASP d   1      12.078   9.190  24.554  0.00  0.00     0.052 H 
ATOM     47  H6  ASP d   1      12.616   9.669  22.908  0.00  0.00     0.052 H 
BRANCH  45  48
ATOM     48  CG  ASP d   1      13.756   8.064  23.794  0.00  0.00     0.175 C 
ATOM     49  OD1 ASP d   1      13.769   6.812  24.020  0.00  0.00    -0.648 OA
ATOM     50  OD2 ASP d   1      14.811   8.742  23.709  0.00  0.00    -0.648 OA
ENDBRANCH  45  48
ENDBRANCH  39  45
ENDBRANCH  36  39
ENDBRANCH  33  35
BRANCH  33  51
ATOM     51  CB  ASP d   1      14.940   6.693  19.975  0.00  0.00    -0.012 C 
ATOM     52  H9  ASP d   1      15.321   6.020  19.193  0.00  0.00     0.044 H 
ATOM     53  H10 ASP d   1      15.442   6.470  20.928  0.00  0.00     0.044 H 
BRANCH  51  54
ATOM     54  CG  ASP d   1      15.253   8.083  19.593  0.00  0.00    -0.028 A 
ATOM     55  CD1 ASP d   1      15.458   9.132  20.443  0.00  0.00    -0.015 A 
ATOM     56  NE1 ASP d   1      15.707  10.266  19.724  0.00  0.00    -0.365 N 
ATOM     57  H11 ASP d   1      15.428   9.073  21.530  0.00  0.00     0.112 H 
ATOM     58  CE2 ASP d   1      15.673   9.968  18.391  0.00  0.00     0.042 A 
ATOM     59  H12 ASP d   1      15.891  11.198  20.123  0.00  0.00     0.165 HD
ATOM     60  CD2 ASP d   1      15.396   8.602  18.273  0.00  0.00    -0.002 A 
ATOM     61  CZ2 ASP d   1      15.856  10.779  17.298  0.00  0.00    -0.056 A 
ATOM     62  CE3 ASP d   1      15.286   8.042  16.998  0.00  0.00    -0.070 A 
ATOM     63  CZ3 ASP d   1      15.451   8.851  15.919  0.00  0.00    -0.082 A 
ATOM     64  H13 ASP d   1      15.074   6.986  16.872  0.00  0.00     0.084 H 
ATOM     65  CH2 ASP d   1      15.740  10.208  16.072  0.00  0.00    -0.081 A 
ATOM     66  H15 ASP d   1      15.357   8.435  14.922  0.00  0.00     0.083 H 
ATOM     67  H16 ASP d   1      15.875  10.822  15.189  0.00  0.00     0.083 H 
ATOM     68  H14 ASP d   1      16.084  11.833  17.410  0.00  0.00     0.086 H 
ENDBRANCH  51  54
ENDBRANCH  33  51
ENDBRANCH  30  33
ENDBRANCH  27  29
BRANCH  27  69
ATOM     69  CB  ASP d   1      11.747   2.562  18.121  0.00  0.00    -0.029 C 
ATOM     70  H19 ASP d   1      11.671   3.108  17.169  0.00  0.00     0.037 H 
ATOM     71  H20 ASP d   1      10.933   2.877  18.791  0.00  0.00     0.037 H 
BRANCH  69  72
ATOM     72  CG  ASP d   1      11.565   1.069  17.825  0.00  0.00     0.018 C 
ATOM     73  H21 ASP d   1      12.425   0.726  17.230  0.00  0.00     0.049 H 
ATOM     74  H22 ASP d   1      10.641   0.941  17.242  0.00  0.00     0.049 H 
BRANCH  72  75
ATOM     75  CD  ASP d   1      11.468   0.197  19.080  0.00  0.00     0.172 C 
ATOM     76  OE1 ASP d   1      11.125   0.726  20.175  0.00  0.00    -0.648 OA
ATOM     77  OE2 ASP d   1      11.714  -1.030  18.952  0.00  0.00    -0.648 OA
ENDBRANCH  72  75
ENDBRANCH  69  72
ENDBRANCH  27  69
ENDBRANCH  24  27
ENDBRANCH  21  23
BRANCH  21  78
ATOM     78  CB  ASP d   1      17.351   0.757  18.633  0.00  0.00     0.036 C 
ATOM     79  H25 ASP d   1      17.022  -0.080  19.267  0.00  0.00     0.051 H 
ATOM     80  H26 ASP d   1      17.558   1.635  19.263  0.00  0.00     0.051 H 
BRANCH  78  81
ATOM     81  CG  ASP d   1      18.601   0.365  17.934  0.00  0.00     0.217 C 
ATOM     82  OD1 ASP d   1      18.959   0.991  16.943  0.00  0.00    -0.274 OA
ATOM     83  ND2 ASP d   1      19.278  -0.670  18.422  0.00  0.00    -0.370 N 
ATOM     84  H27 ASP d   1      20.125  -0.966  17.981  0.00  0.00     0.159 HD
ATOM     85  H28 ASP d   1      18.940  -1.152  19.230  0.00  0.00     0.159 HD
ENDBRANCH  78  81
ENDBRANCH  21  78
ENDBRANCH  18  21
ENDBRANCH  15  17
BRANCH  15  86
ATOM     86  CB  ASP d   1      14.872  -0.910  13.486  0.00  0.00    -0.035 C 
ATOM     87  H31 ASP d   1      14.673  -1.802  12.873  0.00  0.00     0.037 H 
ATOM     88  H32 ASP d   1      15.670  -0.315  13.019  0.00  0.00     0.037 H 
BRANCH  86  89
ATOM     89  CG  ASP d   1      13.597  -0.062  13.564  0.00  0.00    -0.059 C 
ATOM     90  H33 ASP d   1      13.819   0.899  14.051  0.00  0.00     0.038 H 
BRANCH  89  91
ATOM     91  CD1 ASP d   1      13.097   0.182  12.140  0.00  0.00    -0.073 C 
ATOM     92  H34 ASP d   1      12.181   0.790  12.172  0.00  0.00     0.028 H 
ATOM     93  H35 ASP d   1      12.880  -0.782  11.657  0.00  0.00     0.028 H 
ATOM     94  H36 ASP d   1      13.870   0.714  11.566  0.00  0.00     0.028 H 
ENDBRANCH  89  91
BRANCH  89  95
ATOM     95  CD2 ASP d   1      12.542  -0.793  14.354  0.00  0.00    -0.073 C 
ATOM     96  H37 ASP d   1      12.905  -0.967  15.378  0.00  0.00     0.028 H 
ATOM     97  H38 ASP d   1      12.327  -1.758  13.873  0.00  0.00     0.028 H 
ATOM     98  H39 ASP d   1      11.624  -0.188  14.388  0.00  0.00     0.028 H 
ENDBRANCH  89  95
ENDBRANCH  86  89
ENDBRANCH  15  86
ENDBRANCH   1  15
BRANCH   4  99
ATOM     99  C   ASP d   1      17.542  -4.840  13.128  0.00  0.00     0.241 C 
ATOM    100  O   ASP d   1      16.915  -4.339  12.191  0.00  0.00    -0.271 OA
ATOM    101  N   ASP d   1      18.659  -5.552  12.975  0.00  0.00    -0.344 N 
ATOM    102  H47 ASP d   1      19.220  -5.794  13.767  0.00  0.00     0.163 HD
BRANCH 101 103
ATOM    103  CA  ASP d   1      19.050  -5.973  11.632  0.00  0.00     0.109 C 
ATOM    104  H48 ASP d   1      18.485  -5.386  10.893  0.00  0.00     0.090 H 
BRANCH 103 105
ATOM    105  C   ASP d   1      18.778  -7.467  11.426  0.00  0.00     0.245 C 
ATOM    106  O   ASP d   1      18.762  -8.240  12.394  0.00  0.00    -0.271 OA
ATOM    107  N   ASP d   1      18.540  -7.909  10.186  0.00  0.00    -0.337 N 
ATOM    108  CA  ASP d   1      18.323  -9.335   9.942  0.00  0.00     0.091 C 
ATOM    109  CD  ASP d   1      18.441  -7.109   8.949  0.00  0.00    -0.001 C 
ATOM    110  CB  ASP d   1      17.758  -9.361   8.522  0.00  0.00    -0.036 C 
ATOM    111  H52 ASP d   1      17.612  -9.764  10.663  0.00  0.00     0.087 H 
ATOM    112  CG  ASP d   1      18.415  -8.191   7.846  0.00  0.00    -0.048 C 
ATOM    113  H53 ASP d   1      16.665  -9.242   8.534  0.00  0.00     0.036 H 
ATOM    114  H54 ASP d   1      18.018 -10.302   8.015  0.00  0.00     0.036 H 
ATOM    115  H55 ASP d   1      17.826  -7.856   6.979  0.00  0.00     0.035 H 
ATOM    116  H56 ASP d   1      19.434  -8.446   7.521  0.00  0.00     0.035 H 
ATOM    117  H57 ASP d   1      19.312  -6.447   8.834  0.00  0.00     0.064 H 
ATOM    118  H58 ASP d   1      17.519  -6.509   8.938  0.00  0.00     0.064 H 
BRANCH 108 119
ATOM    119  C   ASP d   1      19.642 -10.076  10.011  0.00  0.00     0.241 C 
ATOM    120  O   ASP d   1      20.713  -9.472  10.014  0.00  0.00    -0.271 OA
ATOM    121  N   ASP d   1      19.561 -11.403  10.037  0.00  0.00    -0.346 N 
ATOM    122  H59 ASP d   1      18.666 -11.833   9.921  0.00  0.00     0.163 HD
BRANCH 121 123
ATOM    123  CA  ASP d   1      20.729 -12.253  10.228  0.00  0.00     0.089 C 
ATOM    124  H60 ASP d   1      21.636 -11.655  10.056  0.00  0.00     0.087 H 
BRANCH 123 125
ATOM    125  C   ASP d   1      20.705 -13.432   9.254  0.00  0.00     0.241 C 
ATOM    126  O   ASP d   1      19.635 -13.900   8.844  0.00  0.00    -0.271 OA
ATOM    127  N   ASP d   1      21.903 -13.933   8.915  0.00  0.00    -0.344 N 
ATOM    128  H72 ASP d   1      22.726 -13.466   9.240  0.00  0.00     0.163 HD
BRANCH 127 129
ATOM    129  CA  ASP d   1      22.060 -15.146   8.081  0.00  0.00     0.100 C 
ATOM    130  H73 ASP d   1      21.274 -15.153   7.311  0.00  0.00     0.090 H 
BRANCH 129 131
ATOM    131  C   ASP d   1      21.918 -16.385   8.970  0.00  0.00     0.197 C 
ATOM    132  O   ASP d   1      22.105 -16.297  10.186  0.00  0.00    -0.646 OA
ATOM    133  OXT ASP d   1      21.643 -17.508   8.497  0.00  0.00    -0.646 OA
ENDBRANCH 129 131
BRANCH 129 134
ATOM    134  CB  ASP d   1      23.432 -15.197   7.394  0.00  0.00    -0.013 C 
ATOM    135  H74 ASP d   1      23.622 -16.231   7.069  0.00  0.00     0.043 H 
ATOM    136  H75 ASP d   1      24.199 -14.895   8.123  0.00  0.00     0.043 H 
BRANCH 134 137
ATOM    137  CG  ASP d   1      23.530 -14.308   6.213  0.00  0.00    -0.056 A 
ATOM    138  CD1 ASP d   1      22.891 -14.632   5.030  0.00  0.00    -0.077 A 
ATOM    139  CE1 ASP d   1      22.957 -13.788   3.951  0.00  0.00    -0.082 A 
ATOM    140  H76 ASP d   1      22.334 -15.559   4.955  0.00  0.00     0.084 H 
ATOM    141  CZ  ASP d   1      23.692 -12.616   4.026  0.00  0.00    -0.083 A 
ATOM    142  H78 ASP d   1      22.432 -14.039   3.036  0.00  0.00     0.083 H 
ATOM    143  CE2 ASP d   1      24.344 -12.287   5.184  0.00  0.00    -0.082 A 
ATOM    144  H80 ASP d   1      23.751 -11.958   3.166  0.00  0.00     0.083 H 
ATOM    145  CD2 ASP d   1      24.234 -13.131   6.292  0.00  0.00    -0.077 A 
ATOM    146  H79 ASP d   1      24.939 -11.382   5.241  0.00  0.00     0.083 H 
ATOM    147  H77 ASP d   1      24.710 -12.854   7.226  0.00  0.00     0.084 H 
ENDBRANCH 134 137
ENDBRANCH 129 134
ENDBRANCH 127 129
ENDBRANCH 123 125
BRANCH 123 148
ATOM    148  CB  ASP d   1      20.755 -12.825  11.657  0.00  0.00    -0.036 C 
ATOM    149  H61 ASP d   1      21.575 -13.556  11.719  0.00  0.00     0.036 H 
ATOM    150  H62 ASP d   1      19.797 -13.332  11.841  0.00  0.00     0.036 H 
BRANCH 148 151
ATOM    151  CG  ASP d   1      20.961 -11.785  12.757  0.00  0.00    -0.048 C 
ATOM    152  H63 ASP d   1      20.573 -12.176  13.709  0.00  0.00     0.035 H 
ATOM    153  H64 ASP d   1      20.424 -10.861  12.494  0.00  0.00     0.035 H 
BRANCH 151 154
ATOM    154  CD  ASP d   1      22.440 -11.488  12.897  0.00  0.00     0.009 C 
ATOM    155  H65 ASP d   1      22.812 -11.087  11.943  0.00  0.00     0.064 H 
ATOM    156  H66 ASP d   1      22.968 -12.424  13.132  0.00  0.00     0.064 H 
BRANCH 154 157
ATOM    157  NE  ASP d   1      22.713 -10.517  13.953  0.00  0.00    -0.227 N 
ATOM    158  CZ  ASP d   1      22.735  -9.204  13.776  0.00  0.00     0.665 C 
ATOM    159  NH1 ASP d   1      23.000  -8.408  14.805  0.00  0.00    -0.235 N 
ATOM    160  NH2 ASP d   1      22.495  -8.690  12.578  0.00  0.00    -0.235 N 
ATOM    161  H68 ASP d   1      23.019  -7.386  14.674  0.00  0.00     0.174 HD
ATOM    162  H69 ASP d   1      23.187  -8.812  15.734  0.00  0.00     0.174 HD
ATOM    163  H70 ASP d   1      22.290  -9.312  11.783  0.00  0.00     0.174 HD
ATOM    164  H71 ASP d   1      22.514  -7.669  12.443  0.00  0.00     0.174 HD
ATOM    165  H67 ASP d   1      22.901 -10.877  14.899  0.00  0.00     0.177 HD
ENDBRANCH 154 157
ENDBRANCH 151 154
ENDBRANCH 148 151
ENDBRANCH 123 148
ENDBRANCH 121 123
ENDBRANCH 108 119
ENDBRANCH 103 105
BRANCH 103 166
ATOM    166  CB  ASP d   1      20.554  -5.769  11.420  0.00  0.00     0.044 C 
ATOM    167  H49 ASP d   1      20.846  -6.193  10.448  0.00  0.00     0.077 H 
ATOM    168  H50 ASP d   1      21.107  -6.278  12.223  0.00  0.00     0.077 H 
BRANCH 166 169
ATOM    169  OG  ASP d   1      20.860  -4.401  11.440  0.00  0.00    -0.398 OA
ATOM    170  H51 ASP d   1      21.794  -4.285  11.308  0.00  0.00     0.209 HD
ENDBRANCH 166 169
ENDBRANCH 103 166
ENDBRANCH 101 103
ENDBRANCH   4  99
TORSDOF 39
