REMARK  5 active torsions:
REMARK  status: ('A' for Active; 'I' for Inactive)
REMARK    1  A    between atoms: C4_1  and  O4_13 
REMARK    2  A    between atoms: C3_4  and  O3_14 
REMARK    3  A    between atoms: C1_6  and  C7_8 
REMARK    4  A    between atoms: O3_14  and  C10_7 
REMARK    5  A    between atoms: C8_9  and  C9_10 
ROOT
ATOM      1  C4  FER d   1     -23.081  17.687 -11.112  0.00  0.00     0.099 A 
ATOM      2  C5  FER d   1     -23.192  16.535 -10.347  0.00  0.00    -0.047 A 
ATOM      3  C6  FER d   1     -23.074  15.319 -10.985  0.00  0.00    -0.070 A 
ATOM      4  C3  FER d   1     -22.841  17.632 -12.475  0.00  0.00     0.102 A 
ATOM      5  C2  FER d   1     -22.718  16.407 -13.108  0.00  0.00    -0.038 A 
ATOM      6  C1  FER d   1     -22.852  15.248 -12.344  0.00  0.00    -0.033 A 
ATOM      7  H1  FER d   1     -23.366  16.590  -9.278  0.00  0.00     0.087 H 
ATOM      8  H2  FER d   1     -23.157  14.404 -10.409  0.00  0.00     0.084 H 
ATOM      9  H3  FER d   1     -22.522  16.350 -14.173  0.00  0.00     0.089 H 
ENDROOT
BRANCH   6  10
ATOM     10  C7  FER d   1     -22.699  13.874 -12.929  0.00  0.00    -0.067 C 
ATOM     11  C8  FER d   1     -22.418  13.654 -14.212  0.00  0.00    -0.009 C 
ATOM     12  H8  FER d   1     -22.324  14.463 -14.935  0.00  0.00     0.094 H 
ATOM     13  H7  FER d   1     -22.824  13.015 -12.272  0.00  0.00     0.085 H 
BRANCH  11  14
ATOM     14  C9  FER d   1     -22.240  12.213 -14.593  0.00  0.00     0.198 C 
ATOM     15  O1  FER d   1     -22.196  11.906 -15.804  0.00  0.00    -0.645 OA
ATOM     16  O2  FER d   1     -22.062  11.351 -13.677  0.00  0.00    -0.645 OA
ENDBRANCH  11  14
ENDBRANCH   6  10
BRANCH   4  17
ATOM     17  O3  FER d   1     -22.736  18.839 -13.196  0.00  0.00    -0.353 OA
BRANCH  17  18
ATOM     18  C10 FER d   1     -22.684  18.705 -14.604  0.00  0.00     0.010 C 
ATOM     19  H4  FER d   1     -22.603  19.701 -15.064  0.00  0.00     0.066 H 
ATOM     20  H5  FER d   1     -23.600  18.210 -14.959  0.00  0.00     0.066 H 
ATOM     21  H6  FER d   1     -21.809  18.100 -14.883  0.00  0.00     0.066 H 
ENDBRANCH  17  18
ENDBRANCH   4  17
BRANCH   1  22
ATOM     22  O4  FER d   1     -23.195  18.926 -10.471  0.00  0.00    -0.358 OA
ATOM     23  H9  FER d   1     -23.358  18.788  -9.545  0.00  0.00     0.217 HD
ENDBRANCH   1  22
TORSDOF 5
