REMARK  6 active torsions:
REMARK  status: ('A' for Active; 'I' for Inactive)
REMARK    1  A    between atoms: C12_1  and  C13_2 
REMARK    2  A    between atoms: C11_13  and  C12_1 
REMARK    3  A    between atoms: O02_4  and  C01_3 
REMARK    4  A    between atoms: C03_5  and  O02_4 
REMARK    5  A    between atoms: C04_6  and  O05_7 
REMARK    6  A    between atoms: C10_12  and  C08_10 
ROOT
ATOM      1  C03 GJK d   1     -22.276  12.506 -14.853  0.00  0.00     0.102 A 
ATOM      2  C04 GJK d   1     -22.356  11.658 -13.749  0.00  0.00     0.099 A 
ATOM      3  C06 GJK d   1     -22.591  12.149 -12.466  0.00  0.00    -0.047 A 
ATOM      4  C07 GJK d   1     -22.753  13.516 -12.295  0.00  0.00    -0.070 A 
ATOM      5  C08 GJK d   1     -22.672  14.374 -13.385  0.00  0.00    -0.033 A 
ATOM      6  C09 GJK d   1     -22.440  13.881 -14.672  0.00  0.00    -0.038 A 
ATOM      7  H8  GJK d   1     -22.646  11.476 -11.618  0.00  0.00     0.087 H 
ATOM      8  H9  GJK d   1     -22.944  13.917 -11.306  0.00  0.00     0.084 H 
ATOM      9  H10 GJK d   1     -22.388  14.557 -15.518  0.00  0.00     0.089 H 
ENDROOT
BRANCH   5  10
ATOM     10  C10 GJK d   1     -22.859  15.860 -13.118  0.00  0.00    -0.070 C 
ATOM     11  C11 GJK d   1     -22.662  16.773 -14.084  0.00  0.00    -0.038 C 
ATOM     12  H12 GJK d   1     -22.355  16.472 -15.085  0.00  0.00     0.089 H 
ATOM     13  H11 GJK d   1     -23.158  16.190 -12.124  0.00  0.00     0.085 H 
BRANCH  11  14
ATOM     14  C12 GJK d   1     -22.878  18.228 -13.742  0.00  0.00     0.145 C 
ATOM     15  O14 GJK d   1     -22.687  19.079 -14.584  0.00  0.00    -0.294 OA
BRANCH  14  16
ATOM     16  C13 GJK d   1     -23.361  18.611 -12.362  0.00  0.00    -0.017 C 
ATOM     17  H1  GJK d   1     -23.459  19.705 -12.299  0.00  0.00     0.038 H 
ATOM     18  H2  GJK d   1     -22.637  18.264 -11.611  0.00  0.00     0.038 H 
ATOM     19  H3  GJK d   1     -24.338  18.143 -12.173  0.00  0.00     0.038 H 
ENDBRANCH  14  16
ENDBRANCH  11  14
ENDBRANCH   5  10
BRANCH   1  20
ATOM     20  O02 GJK d   1     -22.043  11.919 -16.109  0.00  0.00    -0.353 OA
BRANCH  20  21
ATOM     21  C01 GJK d   1     -21.985  12.777 -17.236  0.00  0.00     0.010 C 
ATOM     22  H4  GJK d   1     -21.798  12.181 -18.141  0.00  0.00     0.066 H 
ATOM     23  H5  GJK d   1     -21.171  13.505 -17.102  0.00  0.00     0.066 H 
ATOM     24  H6  GJK d   1     -22.941  13.311 -17.340  0.00  0.00     0.066 H 
ENDBRANCH  20  21
ENDBRANCH   1  20
BRANCH   2  25
ATOM     25  O05 GJK d   1     -22.198  10.281 -13.938  0.00  0.00    -0.358 OA
ATOM     26  H7  GJK d   1     -22.277   9.837 -13.102  0.00  0.00     0.217 HD
ENDBRANCH   2  25
TORSDOF 6
