REMARK  5 active torsions:
REMARK  status: ('A' for Active; 'I' for Inactive)
REMARK    1  A    between atoms: C1_1  and  C7_9 
REMARK    2  A    between atoms: C3_3  and  O3_4 
REMARK    3  A    between atoms: O3_4  and  C3M_13 
REMARK    4  A    between atoms: C4_5  and  O4_6 
REMARK    5  A    between atoms: C8_10  and  C9_11 
ROOT
ATOM      1  C1  CIY d   1     -22.860  14.213 -13.227  0.00  0.00    -0.033 A 
ATOM      2  C2  CIY d   1     -22.625  13.779 -14.532  0.00  0.00    -0.038 A 
ATOM      3  C3  CIY d   1     -22.459  12.408 -14.776  0.00  0.00     0.102 A 
ATOM      4  C4  CIY d   1     -22.534  11.527 -13.703  0.00  0.00     0.099 A 
ATOM      5  C5  CIY d   1     -22.767  11.968 -12.411  0.00  0.00    -0.047 A 
ATOM      6  C6  CIY d   1     -22.942  13.316 -12.171  0.00  0.00    -0.070 A 
ATOM      7  H1  CIY d   1     -22.571  14.492 -15.347  0.00  0.00     0.089 H 
ATOM      8  H3  CIY d   1     -22.812  11.258 -11.593  0.00  0.00     0.087 H 
ATOM      9  H4  CIY d   1     -23.142  13.671 -11.166  0.00  0.00     0.084 H 
ENDROOT
BRANCH   1  10
ATOM     10  C7  CIY d   1     -23.048  15.678 -12.894  0.00  0.00    -0.070 C 
ATOM     11  C8  CIY d   1     -22.885  16.644 -13.813  0.00  0.00    -0.046 C 
ATOM     12  H6  CIY d   1     -22.608  16.402 -14.838  0.00  0.00     0.088 H 
ATOM     13  H5  CIY d   1     -23.324  15.957 -11.878  0.00  0.00     0.084 H 
BRANCH  11  14
ATOM     14  C9  CIY d   1     -23.097  18.076 -13.382  0.00  0.00     0.108 C 
ATOM     15  O9  CIY d   1     -23.022  18.976 -14.199  0.00  0.00    -0.302 OA
ATOM     16  H7  CIY d   1     -23.317  18.304 -12.340  0.00  0.00     0.150 H 
ENDBRANCH  11  14
ENDBRANCH   1  10
BRANCH   3  17
ATOM     17  O3  CIY d   1     -22.215  11.861 -16.049  0.00  0.00    -0.353 OA
BRANCH  17  18
ATOM     18  C3M CIY d   1     -22.217  12.739 -17.166  0.00  0.00     0.010 C 
ATOM     19  H8  CIY d   1     -22.013  12.166 -18.083  0.00  0.00     0.066 H 
ATOM     20  H9  CIY d   1     -21.439  13.505 -17.032  0.00  0.00     0.066 H 
ATOM     21  H10 CIY d   1     -23.200  13.225 -17.249  0.00  0.00     0.066 H 
ENDBRANCH  17  18
ENDBRANCH   3  17
BRANCH   4  22
ATOM     22  O4  CIY d   1     -22.359  10.174 -13.984  0.00  0.00    -0.358 OA
ATOM     23  H2  CIY d   1     -22.431   9.673 -13.180  0.00  0.00     0.217 HD
ENDBRANCH   4  22
TORSDOF 5
