REMARK  4 active torsions:
REMARK  status: ('A' for Active; 'I' for Inactive)
REMARK    1  A    between atoms: CAI_1  and  CAD_8 
REMARK    2  A    between atoms: CAK_3  and  OAH_10 
REMARK    3  A    between atoms: CAJ_4  and  OAC_11 
REMARK    4  A    between atoms: OAH_10  and  CAA_9 
ROOT
ATOM      1  CAI V55 d   1     -22.769  15.639 -13.412  0.00  0.00     0.004 A 
ATOM      2  CAG V55 d   1     -22.550  15.151 -14.699  0.00  0.00    -0.035 A 
ATOM      3  CAK V55 d   1     -22.393  13.784 -14.890  0.00  0.00     0.102 A 
ATOM      4  CAJ V55 d   1     -22.456  12.923 -13.797  0.00  0.00     0.099 A 
ATOM      5  CAF V55 d   1     -22.669  13.411 -12.516  0.00  0.00    -0.047 A 
ATOM      6  CAE V55 d   1     -22.829  14.774 -12.326  0.00  0.00    -0.067 A 
ATOM      7  H1  V55 d   1     -22.503  15.831 -15.542  0.00  0.00     0.089 H 
ATOM      8  H2  V55 d   1     -22.710  12.732 -11.672  0.00  0.00     0.087 H 
ATOM      9  H3  V55 d   1     -23.001  15.166 -11.330  0.00  0.00     0.085 H 
ENDROOT
BRANCH   3  10
ATOM     10  OAH V55 d   1     -22.172  13.232 -16.169  0.00  0.00    -0.353 OA
BRANCH  10  11
ATOM     11  CAA V55 d   1     -22.032  14.148 -17.237  0.00  0.00     0.010 C 
ATOM     12  H5  V55 d   1     -21.865  13.596 -18.174  0.00  0.00     0.066 H 
ATOM     13  H6  V55 d   1     -21.174  14.809 -17.043  0.00  0.00     0.066 H 
ATOM     14  H7  V55 d   1     -22.947  14.752 -17.325  0.00  0.00     0.066 H 
ENDBRANCH  10  11
ENDBRANCH   3  10
BRANCH   4  15
ATOM     15  OAC V55 d   1     -22.293  11.543 -13.996  0.00  0.00    -0.358 OA
ATOM     16  H8  V55 d   1     -21.540  11.240 -13.503  0.00  0.00     0.217 HD
ENDBRANCH   4  15
BRANCH   1  17
ATOM     17  CAD V55 d   1     -22.943  17.126 -13.179  0.00  0.00     0.118 C 
ATOM     18  OAB V55 d   1     -22.680  17.905 -14.076  0.00  0.00    -0.301 OA
ATOM     19  H4  V55 d   1     -23.300  17.494 -12.218  0.00  0.00     0.151 H 
ENDBRANCH   1  17
TORSDOF 4
