REMARK  11 active torsions:
REMARK  status: ('A' for Active; 'I' for Inactive)
REMARK    1  A    between atoms: N1_4  and  O1_1 
REMARK       I    between atoms: C13_18  and  N1_4 
REMARK    2  A    between atoms: C4_9  and  N2_5 
REMARK    3  A    between atoms: N2_5  and  C17_21 
REMARK    4  A    between atoms: N2_5  and  C16_22 
REMARK    5  A    between atoms: C7_12  and  C1_6 
REMARK    6  A    between atoms: C8_13  and  C7_12 
REMARK    7  A    between atoms: C9_14  and  C8_13 
REMARK    8  A    between atoms: C8_13  and  C14_19 
REMARK    9  A    between atoms: C11_16  and  C10_15 
REMARK   10  A    between atoms: C10_15  and  C15_20 
REMARK   11  A    between atoms: C12_17  and  C13_18 
ROOT
ATOM      1  C8  TSN d   1     -24.890  26.122  19.172  0.00  0.00     0.022 C 
ATOM      2  H7  TSN d   1     -25.402  26.097  20.145  0.00  0.00     0.058 H 
ENDROOT
BRANCH   1   3
ATOM      3  C7  TSN d   1     -25.857  26.549  18.052  0.00  0.00     0.166 C 
ATOM      4  O3  TSN d   1     -25.675  25.978  17.073  0.00  0.00    -0.292 OA
BRANCH   3   5
ATOM      5  C1  TSN d   1     -26.770  27.735  17.699  0.00  0.00     0.011 A 
ATOM      6  C2  TSN d   1     -27.203  28.606  18.703  0.00  0.00    -0.067 A 
ATOM      7  C3  TSN d   1     -27.979  29.736  18.356  0.00  0.00    -0.057 A 
ATOM      8  H3  TSN d   1     -26.946  28.417  19.739  0.00  0.00     0.085 H 
ATOM      9  C4  TSN d   1     -28.289  30.000  16.991  0.00  0.00     0.029 A 
ATOM     10  H4  TSN d   1     -28.339  30.403  19.131  0.00  0.00     0.086 H 
ATOM     11  C5  TSN d   1     -27.829  29.133  16.001  0.00  0.00    -0.057 A 
ATOM     12  C6  TSN d   1     -27.070  28.018  16.344  0.00  0.00    -0.067 A 
ATOM     13  H5  TSN d   1     -28.063  29.328  14.961  0.00  0.00     0.086 H 
ATOM     14  H6  TSN d   1     -26.704  27.359  15.565  0.00  0.00     0.085 H 
BRANCH   9  15
ATOM     15  N2  TSN d   1     -29.122  31.173  16.611  0.00  0.00    -0.390 N 
BRANCH  15  16
ATOM     16  C17 TSN d   1     -29.535  31.333  15.213  0.00  0.00    -0.019 C 
ATOM     17  H17 TSN d   1     -30.140  32.246  15.112  0.00  0.00     0.056 H 
ATOM     18  H18 TSN d   1     -30.131  30.462  14.905  0.00  0.00     0.056 H 
ATOM     19  H19 TSN d   1     -28.643  31.411  14.574  0.00  0.00     0.056 H 
ENDBRANCH  15  16
BRANCH  15  20
ATOM     20  C16 TSN d   1     -29.580  32.176  17.573  0.00  0.00    -0.019 C 
ATOM     21  H20 TSN d   1     -29.195  31.927  18.573  0.00  0.00     0.056 H 
ATOM     22  H21 TSN d   1     -30.680  32.187  17.596  0.00  0.00     0.056 H 
ATOM     23  H22 TSN d   1     -29.209  33.167  17.273  0.00  0.00     0.056 H 
ENDBRANCH  15  20
ENDBRANCH   9  15
ENDBRANCH   3   5
ENDBRANCH   1   3
BRANCH   1  24
ATOM     24  C9  TSN d   1     -24.283  24.711  18.768  0.00  0.00    -0.086 C 
ATOM     25  C10 TSN d   1     -24.712  23.494  19.266  0.00  0.00    -0.065 C 
ATOM     26  H8  TSN d   1     -23.468  24.701  18.045  0.00  0.00     0.078 H 
BRANCH  25  27
ATOM     27  C11 TSN d   1     -24.122  22.154  18.903  0.00  0.00    -0.072 C 
ATOM     28  C12 TSN d   1     -24.388  20.996  19.423  0.00  0.00    -0.015 C 
ATOM     29  H10 TSN d   1     -25.141  20.884  20.202  0.00  0.00     0.092 H 
ATOM     30  H9  TSN d   1     -23.381  22.160  18.105  0.00  0.00     0.084 H 
BRANCH  28  31
ATOM     31  C13 TSN d   1     -23.611  19.808  18.905  0.00  0.00     0.264 C 
ATOM     32  O2  TSN d   1     -22.819  19.875  17.968  0.00  0.00    -0.266 OA
ATOM     33  N1  TSN d   1     -23.918  18.653  19.472  0.00  0.00    -0.234 N 
ATOM     34  H2  TSN d   1     -24.625  18.611  20.178  0.00  0.00     0.197 HD
BRANCH  33  35
ATOM     35  O1  TSN d   1     -23.272  17.536  19.092  0.00  0.00    -0.287 OA
ATOM     36  H1  TSN d   1     -22.342  17.638  19.256  0.00  0.00     0.244 HD
ENDBRANCH  33  35
ENDBRANCH  28  31
ENDBRANCH  25  27
BRANCH  25  37
ATOM     37  C15 TSN d   1     -25.772  23.275  20.321  0.00  0.00    -0.051 C 
ATOM     38  H14 TSN d   1     -26.216  24.242  20.601  0.00  0.00     0.033 H 
ATOM     39  H15 TSN d   1     -25.316  22.811  21.208  0.00  0.00     0.033 H 
ATOM     40  H16 TSN d   1     -26.555  22.613  19.922  0.00  0.00     0.033 H 
ENDBRANCH  25  37
ENDBRANCH   1  24
BRANCH   1  41
ATOM     41  C14 TSN d   1     -23.627  27.053  19.201  0.00  0.00    -0.063 C 
ATOM     42  H11 TSN d   1     -23.931  28.074  19.474  0.00  0.00     0.028 H 
ATOM     43  H12 TSN d   1     -23.157  27.064  18.207  0.00  0.00     0.028 H 
ATOM     44  H13 TSN d   1     -22.909  26.674  19.942  0.00  0.00     0.028 H 
ENDBRANCH   1  41
TORSDOF 11
