REMARK  7 active torsions:
REMARK  status: ('A' for Active; 'I' for Inactive)
REMARK    1  A    between atoms: C6_5  and  N1_1 
REMARK    2  A    between atoms: C17_11  and  N3_2 
REMARK    3  A    between atoms: N3_2  and  C18_24 
REMARK    4  A    between atoms: C3_28  and  C4_3 
REMARK    5  A    between atoms: C8_7  and  C9_29 
REMARK       I    between atoms: N_16  and  C_17 
REMARK    6  A    between atoms: C1_19  and  N_16 
REMARK    7  A    between atoms: C_17  and  C12_21 
ROOT
ATOM      1  C13 GKB d   1      37.087   0.471 -38.713  0.00  0.00    -0.061 A 
ATOM      2  C15 GKB d   1      39.421   0.095 -39.136  0.00  0.00    -0.050 A 
ATOM      3  C17 GKB d   1      39.753  -2.070 -38.189  0.00  0.00     0.017 C 
ATOM      4  C22 GKB d   1      38.262  -1.852 -38.446  0.00  0.00    -0.021 C 
ATOM      5  C24 GKB d   1      38.443   2.251 -39.577  0.00  0.00    -0.067 A 
ATOM      6  C12 GKB d   1      37.205   1.797 -39.123  0.00  0.00     0.032 A 
ATOM      7  C14 GKB d   1      38.184  -0.378 -38.731  0.00  0.00    -0.049 A 
ATOM      8  C16 GKB d   1      40.463  -0.983 -39.000  0.00  0.00    -0.021 C 
ATOM      9  C23 GKB d   1      39.546   1.411 -39.574  0.00  0.00    -0.075 A 
ATOM     10  H5  GKB d   1      36.127   0.098 -38.376  0.00  0.00     0.085 H 
ATOM     11  H6  GKB d   1      40.073  -3.066 -38.528  0.00  0.00     0.073 H 
ATOM     12  H9  GKB d   1      37.665  -2.116 -37.561  0.00  0.00     0.043 H 
ATOM     13  H10 GKB d   1      37.919  -2.441 -39.309  0.00  0.00     0.043 H 
ATOM     14  H11 GKB d   1      38.544   3.269 -39.935  0.00  0.00     0.085 H 
ATOM     15  H14 GKB d   1      41.348  -0.609 -38.465  0.00  0.00     0.043 H 
ATOM     16  H15 GKB d   1      40.765  -1.364 -39.987  0.00  0.00     0.043 H 
ATOM     17  H18 GKB d   1      40.507   1.779 -39.913  0.00  0.00     0.084 H 
ENDROOT
BRANCH   6  18
ATOM     18  C   GKB d   1      35.999   2.664 -38.940  0.00  0.00     0.256 C 
ATOM     19  N   GKB d   1      35.864   3.704 -39.796  0.00  0.00    -0.323 N 
ATOM     20  H12 GKB d   1      36.489   3.724 -40.576  0.00  0.00     0.169 HD
ATOM     21  O   GKB d   1      35.171   2.405 -38.071  0.00  0.00    -0.267 OA
BRANCH  19  22
ATOM     22  C1  GKB d   1      34.931   4.767 -39.705  0.00  0.00     0.037 A 
ATOM     23  C11 GKB d   1      34.700   5.525 -40.845  0.00  0.00    -0.031 A 
ATOM     24  C6  GKB d   1      33.666   6.457 -40.857  0.00  0.00     0.042 A 
ATOM     25  H13 GKB d   1      35.322   5.392 -41.722  0.00  0.00     0.090 H 
ATOM     26  C5  GKB d   1      32.872   6.659 -39.729  0.00  0.00    -0.042 A 
ATOM     27  C3  GKB d   1      33.122   5.913 -38.584  0.00  0.00     0.052 A 
ATOM     28  H2  GKB d   1      32.070   7.388 -39.745  0.00  0.00     0.088 H 
ATOM     29  C2  GKB d   1      34.145   4.967 -38.571  0.00  0.00    -0.042 A 
ATOM     30  H17 GKB d   1      34.330   4.384 -37.676  0.00  0.00     0.088 H 
BRANCH  24  31
ATOM     31  N1  GKB d   1      33.400   7.194 -42.053  0.00  0.00    -0.315 N 
ATOM     32  C7  GKB d   1      34.294   7.408 -43.084  0.00  0.00     0.010 A 
ATOM     33  C8  GKB d   1      33.632   8.072 -44.069  0.00  0.00     0.048 A 
ATOM     34  H3  GKB d   1      35.339   7.101 -43.104  0.00  0.00     0.115 H 
ATOM     35  N2  GKB d   1      32.290   8.297 -43.634  0.00  0.00    -0.247 NA
ATOM     36  C10 GKB d   1      32.221   7.753 -42.440  0.00  0.00     0.070 A 
ATOM     37  H4  GKB d   1      31.320   7.750 -41.828  0.00  0.00     0.144 H 
BRANCH  33  38
ATOM     38  C9  GKB d   1      34.127   8.495 -45.421  0.00  0.00    -0.034 C 
ATOM     39  H19 GKB d   1      33.321   9.013 -45.961  0.00  0.00     0.035 H 
ATOM     40  H20 GKB d   1      34.439   7.608 -45.991  0.00  0.00     0.035 H 
ATOM     41  H21 GKB d   1      34.984   9.174 -45.302  0.00  0.00     0.035 H 
ENDBRANCH  33  38
ENDBRANCH  24  31
BRANCH  27  42
ATOM     42  C4  GKB d   1      32.320   6.150 -37.342  0.00  0.00     0.417 C 
ATOM     43  F   GKB d   1      31.653   7.293 -37.358  0.00  0.00    -0.166 F 
ATOM     44  F1  GKB d   1      33.089   6.170 -36.244  0.00  0.00    -0.166 F 
ATOM     45  F2  GKB d   1      31.393   5.226 -37.132  0.00  0.00    -0.166 F 
ENDBRANCH  27  42
ENDBRANCH  19  22
ENDBRANCH   6  18
BRANCH   3  46
ATOM     46  N3  GKB d   1      39.985  -1.943 -36.757  0.00  0.00    -0.382 N 
ATOM     47  H1  GKB d   1      40.461  -1.098 -36.409  0.00  0.00     0.160 HD
BRANCH  46  48
ATOM     48  C18 GKB d   1      39.594  -2.909 -35.838  0.00  0.00     0.063 A 
ATOM     49  C21 GKB d   1      39.771  -2.702 -34.474  0.00  0.00     0.030 A 
ATOM     50  N5  GKB d   1      39.413  -3.589 -33.545  0.00  0.00    -0.252 NA
ATOM     51  H8  GKB d   1      40.223  -1.772 -34.150  0.00  0.00     0.118 H 
ATOM     52  C20 GKB d   1      38.876  -4.716 -33.998  0.00  0.00     0.086 A 
ATOM     53  N4  GKB d   1      38.665  -5.049 -35.268  0.00  0.00    -0.252 NA
ATOM     54  H7  GKB d   1      38.577  -5.443 -33.252  0.00  0.00     0.146 H 
ATOM     55  C19 GKB d   1      39.031  -4.137 -36.171  0.00  0.00     0.030 A 
ATOM     56  H16 GKB d   1      38.882  -4.365 -37.220  0.00  0.00     0.118 H 
ENDBRANCH  46  48
ENDBRANCH   3  46
TORSDOF 7
