REMARK WARNING: 32 MAX_TORS EXCEEDED!!!
REMARK  38 active torsions:
REMARK  status: ('A' for Active; 'I' for Inactive)
REMARK    1  A    between atoms: N_1  and  CA_2 
REMARK    2  A    between atoms: CA_2  and  C_3 
REMARK       I    between atoms: C_3  and  N_5 
REMARK    3  A    between atoms: N_5  and  CA_6 
REMARK    4  A    between atoms: CA_6  and  C_7 
REMARK    5  A    between atoms: CA_6  and  CB_9 
REMARK       I    between atoms: C_7  and  N_11 
REMARK    6  A    between atoms: CB_9  and  OG_10 
REMARK    7  A    between atoms: N_11  and  CA_12 
REMARK    8  A    between atoms: CA_12  and  C_13 
REMARK    9  A    between atoms: CA_12  and  CB_15 
REMARK       I    between atoms: C_13  and  N_20 
REMARK   10  A    between atoms: CB_15  and  CG_16 
REMARK   11  A    between atoms: CG_16  and  CD_17 
REMARK   12  A    between atoms: CD_17  and  CE_18 
REMARK   13  A    between atoms: CE_18  and  NZ_19 
REMARK   14  A    between atoms: N_20  and  CA_21 
REMARK   15  A    between atoms: CA_21  and  C_22 
REMARK   16  A    between atoms: CA_21  and  CB_24 
REMARK       I    between atoms: C_22  and  N_28 
REMARK   17  A    between atoms: CB_24  and  CG_25 
REMARK   18  A    between atoms: CG_25  and  SD_26 
REMARK   19  A    between atoms: SD_26  and  CE_27 
REMARK   20  A    between atoms: N_28  and  CA_29 
REMARK   21  A    between atoms: CA_29  and  C_30 
REMARK   22  A    between atoms: CA_29  and  CB_32 
REMARK       I    between atoms: C_30  and  N_37 
REMARK   23  A    between atoms: CB_32  and  CG_33 
REMARK   24  A    between atoms: CG_33  and  CD_34 
REMARK   25  A    between atoms: N_37  and  CA_38 
REMARK   26  A    between atoms: CA_38  and  C_39 
REMARK   27  A    between atoms: CA_38  and  CB_41 
REMARK       I    between atoms: C_39  and  N_46 
REMARK   28  A    between atoms: CB_41  and  CG_42 
REMARK   29  A    between atoms: CG_42  and  CD_43 
REMARK   30  A    between atoms: N_46  and  CA_47 
REMARK   31  A    between atoms: CA_47  and  C_48 
REMARK   32  A    between atoms: CA_47  and  CB_50 
REMARK       I    between atoms: C_48  and  N_53 
REMARK   33  A    between atoms: CB_50  and  CG1_51 
REMARK   34  A    between atoms: CB_50  and  CG2_52 
REMARK   35  A    between atoms: N_53  and  CA_54 
REMARK   36  A    between atoms: CA_54  and  C_55 
REMARK   37  A    between atoms: CA_54  and  CB_57 
REMARK   38  A    between atoms: CB_57  and  CG_58 
ROOT
ATOM      1  C   MET d   1       7.614  11.149 -12.100  0.00  0.00     0.241 C 
ATOM      2  O   MET d   1       8.505  10.346 -11.849  0.00  0.00    -0.271 OA
ATOM      3  N   GLU d   1       6.375  10.789 -12.453  0.00  0.00    -0.346 N 
ATOM      4  H33 GLU d   1       5.687  11.496 -12.617  0.00  0.00     0.163 HD
ENDROOT
BRANCH   1   5
ATOM      5  CA  MET d   1       7.912  12.642 -12.031  0.00  0.00     0.090 C 
ATOM      6  H25 MET d   1       8.949  12.820 -12.353  0.00  0.00     0.087 H 
BRANCH   5   7
ATOM      7  N   MET d   1       7.018  13.368 -12.878  0.00  0.00    -0.346 N 
ATOM      8  C   LYS d   1       7.107  13.331 -14.193  0.00  0.00     0.241 C 
ATOM      9  O   LYS d   1       7.830  12.539 -14.810  0.00  0.00    -0.271 OA
ATOM     10  H24 MET d   1       6.300  13.923 -12.458  0.00  0.00     0.163 HD
BRANCH   8  11
ATOM     11  CA  LYS d   1       6.273  14.365 -14.902  0.00  0.00     0.089 C 
ATOM     12  H12 LYS d   1       5.705  14.953 -14.167  0.00  0.00     0.087 H 
BRANCH  11  13
ATOM     13  N   LYS d   1       7.219  15.200 -15.584  0.00  0.00    -0.346 N 
ATOM     14  C   SER d   1       7.628  16.364 -15.117  0.00  0.00     0.243 C 
ATOM     15  O   SER d   1       7.224  16.847 -14.077  0.00  0.00    -0.271 OA
ATOM     16  H11 LYS d   1       7.587  14.884 -16.458  0.00  0.00     0.163 HD
BRANCH  14  17
ATOM     17  CA  SER d   1       8.645  17.114 -15.953  0.00  0.00     0.109 C 
ATOM     18  H7  SER d   1       9.006  16.464 -16.764  0.00  0.00     0.090 H 
BRANCH  17  19
ATOM     19  N   SER d   1       8.055  18.326 -16.532  0.00  0.00    -0.344 N 
ATOM     20  C   GLY d   1       7.037  18.320 -17.382  0.00  0.00     0.243 C 
ATOM     21  O   GLY d   1       6.591  17.291 -17.870  0.00  0.00    -0.272 OA
ATOM     22  H6  SER d   1       8.444  19.209 -16.270  0.00  0.00     0.163 HD
BRANCH  20  23
ATOM     23  CA  GLY d   1       6.432  19.680 -17.720  0.00  0.00     0.152 C 
ATOM     24  H4  GLY d   1       5.404  19.701 -17.330  0.00  0.00     0.090 H 
ATOM     25  H5  GLY d   1       7.031  20.453 -17.216  0.00  0.00     0.090 H 
BRANCH  23  26
ATOM     26  N   GLY d   1       6.380  20.013 -19.177  0.00  0.00    -0.071 N 
ATOM     27  H1  GLY d   1       5.967  20.924 -19.299  0.00  0.00     0.274 HD
ATOM     28  H2  GLY d   1       5.823  19.325 -19.659  0.00  0.00     0.274 HD
ATOM     29  H3  GLY d   1       7.314  20.014 -19.555  0.00  0.00     0.274 HD
ENDBRANCH  23  26
ENDBRANCH  20  23
ENDBRANCH  17  19
BRANCH  17  30
ATOM     30  CB  SER d   1       9.794  17.494 -15.053  0.00  0.00     0.044 C 
ATOM     31  H8  SER d   1      10.225  16.584 -14.610  0.00  0.00     0.077 H 
ATOM     32  H9  SER d   1       9.426  18.153 -14.252  0.00  0.00     0.077 H 
BRANCH  30  33
ATOM     33  OG  SER d   1      10.783  18.165 -15.787  0.00  0.00    -0.398 OA
ATOM     34  H10 SER d   1      10.413  18.952 -16.169  0.00  0.00     0.209 HD
ENDBRANCH  30  33
ENDBRANCH  17  30
ENDBRANCH  14  17
ENDBRANCH  11  13
BRANCH  11  35
ATOM     35  CB  LYS d   1       5.296  13.751 -15.901  0.00  0.00    -0.038 C 
ATOM     36  H13 LYS d   1       4.641  13.053 -15.359  0.00  0.00     0.036 H 
ATOM     37  H14 LYS d   1       5.875  13.199 -16.656  0.00  0.00     0.036 H 
BRANCH  35  38
ATOM     38  CG  LYS d   1       4.414  14.774 -16.625  0.00  0.00    -0.061 C 
ATOM     39  H15 LYS d   1       3.817  14.247 -17.384  0.00  0.00     0.033 H 
ATOM     40  H16 LYS d   1       5.065  15.511 -17.118  0.00  0.00     0.033 H 
BRANCH  38  41
ATOM     41  CD  LYS d   1       3.450  15.526 -15.674  0.00  0.00    -0.043 C 
ATOM     42  H17 LYS d   1       4.029  15.886 -14.810  0.00  0.00     0.035 H 
ATOM     43  H18 LYS d   1       2.682  14.817 -15.331  0.00  0.00     0.035 H 
BRANCH  41  44
ATOM     44  CE  LYS d   1       2.742  16.730 -16.313  0.00  0.00     0.080 C 
ATOM     45  H19 LYS d   1       2.040  17.151 -15.578  0.00  0.00     0.075 H 
ATOM     46  H20 LYS d   1       2.184  16.378 -17.193  0.00  0.00     0.075 H 
BRANCH  44  47
ATOM     47  NZ  LYS d   1       3.678  17.813 -16.748  0.00  0.00    -0.079 N 
ATOM     48  H21 LYS d   1       3.151  18.569 -17.157  0.00  0.00     0.274 HD
ATOM     49  H22 LYS d   1       4.323  17.446 -17.430  0.00  0.00     0.274 HD
ATOM     50  H23 LYS d   1       4.191  18.154 -15.950  0.00  0.00     0.274 HD
ENDBRANCH  44  47
ENDBRANCH  41  44
ENDBRANCH  38  41
ENDBRANCH  35  38
ENDBRANCH  11  35
ENDBRANCH   8  11
ENDBRANCH   5   7
BRANCH   5  51
ATOM     51  CB  MET d   1       7.728  13.133 -10.608  0.00  0.00    -0.030 C 
ATOM     52  H26 MET d   1       6.744  12.796 -10.252  0.00  0.00     0.037 H 
ATOM     53  H27 MET d   1       7.758  14.233 -10.616  0.00  0.00     0.037 H 
BRANCH  51  54
ATOM     54  CG  MET d   1       8.778  12.638  -9.639  0.00  0.00    -0.021 C 
ATOM     55  H28 MET d   1       9.726  13.168  -9.812  0.00  0.00     0.049 H 
ATOM     56  H29 MET d   1       8.932  11.557  -9.774  0.00  0.00     0.049 H 
BRANCH  54  57
ATOM     57  SD  MET d   1       8.195  12.965  -7.986  0.00  0.00    -0.173 SA
BRANCH  57  58
ATOM     58  CE  MET d   1       6.842  11.808  -7.781  0.00  0.00    -0.035 C 
ATOM     59  H30 MET d   1       6.405  11.928  -6.779  0.00  0.00     0.041 H 
ATOM     60  H31 MET d   1       7.218  10.780  -7.896  0.00  0.00     0.041 H 
ATOM     61  H32 MET d   1       6.073  12.005  -8.542  0.00  0.00     0.041 H 
ENDBRANCH  57  58
ENDBRANCH  54  57
ENDBRANCH  51  54
ENDBRANCH   5  51
ENDBRANCH   1   5
BRANCH   3  62
ATOM     62  CA  GLU d   1       6.008   9.383 -12.604  0.00  0.00     0.090 C 
ATOM     63  H34 GLU d   1       6.483   8.843 -11.772  0.00  0.00     0.087 H 
BRANCH  62  64
ATOM     64  C   GLU d   1       6.523   8.725 -13.904  0.00  0.00     0.241 C 
ATOM     65  O   GLU d   1       6.488   7.517 -14.022  0.00  0.00    -0.271 OA
ATOM     66  N   GLU d   1       7.052   9.527 -14.836  0.00  0.00    -0.346 N 
ATOM     67  H39 GLU d   1       7.088  10.509 -14.649  0.00  0.00     0.163 HD
BRANCH  66  68
ATOM     68  CA  GLU d   1       7.577   9.050 -16.106  0.00  0.00     0.090 C 
ATOM     69  H40 GLU d   1       7.217   8.025 -16.277  0.00  0.00     0.087 H 
BRANCH  68  70
ATOM     70  C   GLU d   1       9.112   9.025 -16.082  0.00  0.00     0.241 C 
ATOM     71  O   GLU d   1       9.734  10.008 -15.656  0.00  0.00    -0.271 OA
ATOM     72  N   VAL d   1       9.698   7.901 -16.502  0.00  0.00    -0.346 N 
ATOM     73  H45 VAL d   1       9.127   7.096 -16.662  0.00  0.00     0.163 HD
BRANCH  72  74
ATOM     74  CA  VAL d   1      11.159   7.794 -16.742  0.00  0.00     0.092 C 
ATOM     75  H46 VAL d   1      11.671   8.425 -16.001  0.00  0.00     0.088 H 
BRANCH  74  76
ATOM     76  C   VAL d   1      11.497   8.337 -18.143  0.00  0.00     0.241 C 
ATOM     77  O   VAL d   1      10.625   8.472 -18.959  0.00  0.00    -0.271 OA
ATOM     78  N   ASP d   1      12.759   8.657 -18.407  0.00  0.00    -0.344 N 
ATOM     79  H54 ASP d   1      13.468   8.386 -17.756  0.00  0.00     0.163 HD
BRANCH  78  80
ATOM     80  CA  ASP d   1      13.154   9.385 -19.603  0.00  0.00     0.105 C 
ATOM     81  H55 ASP d   1      12.267   9.563 -20.229  0.00  0.00     0.090 H 
BRANCH  80  82
ATOM     82  C   ASP d   1      14.184   8.593 -20.392  0.00  0.00     0.197 C 
ATOM     83  O   ASP d   1      14.469   8.960 -21.546  0.00  0.00    -0.646 OA
ATOM     84  OXT ASP d   1      14.711   7.591 -19.906  0.00  0.00    -0.646 OA
ENDBRANCH  80  82
BRANCH  80  85
ATOM     85  CB  ASP d   1      13.782  10.717 -19.209  0.00  0.00     0.044 C 
ATOM     86  H56 ASP d   1      14.264  11.156 -20.095  0.00  0.00     0.053 H 
ATOM     87  H57 ASP d   1      14.539  10.535 -18.431  0.00  0.00     0.053 H 
BRANCH  85  88
ATOM     88  CG  ASP d   1      12.769  11.689 -18.679  0.00  0.00     0.175 C 
ATOM     89  OD1 ASP d   1      12.143  12.392 -19.494  0.00  0.00    -0.648 OA
ATOM     90  OD2 ASP d   1      12.603  11.733 -17.458  0.00  0.00    -0.648 OA
ENDBRANCH  85  88
ENDBRANCH  80  85
ENDBRANCH  78  80
ENDBRANCH  74  76
BRANCH  74  91
ATOM     91  CB  VAL d   1      11.665   6.358 -16.554  0.00  0.00    -0.033 C 
ATOM     92  H47 VAL d   1      12.711   6.312 -16.890  0.00  0.00     0.042 H 
BRANCH  91  93
ATOM     93  CG1 VAL d   1      11.602   5.980 -15.064  0.00  0.00    -0.071 C 
ATOM     94  H48 VAL d   1      11.965   4.950 -14.931  0.00  0.00     0.028 H 
ATOM     95  H49 VAL d   1      10.562   6.050 -14.711  0.00  0.00     0.028 H 
ATOM     96  H50 VAL d   1      12.233   6.669 -14.484  0.00  0.00     0.028 H 
ENDBRANCH  91  93
BRANCH  91  97
ATOM     97  CG2 VAL d   1      10.854   5.349 -17.362  0.00  0.00    -0.071 C 
ATOM     98  H51 VAL d   1      10.896   5.615 -18.428  0.00  0.00     0.028 H 
ATOM     99  H52 VAL d   1       9.808   5.362 -17.022  0.00  0.00     0.028 H 
ATOM    100  H53 VAL d   1      11.273   4.342 -17.218  0.00  0.00     0.028 H 
ENDBRANCH  91  97
ENDBRANCH  74  91
ENDBRANCH  72  74
ENDBRANCH  68  70
BRANCH  68 101
ATOM    101  CB  GLU d   1       7.048   9.947 -17.225  0.00  0.00    -0.029 C 
ATOM    102  H41 GLU d   1       7.509   9.641 -18.176  0.00  0.00     0.037 H 
ATOM    103  H42 GLU d   1       7.319  10.990 -17.005  0.00  0.00     0.037 H 
BRANCH 101 104
ATOM    104  CG  GLU d   1       5.527   9.846 -17.355  0.00  0.00     0.018 C 
ATOM    105  H43 GLU d   1       5.093   9.985 -16.354  0.00  0.00     0.049 H 
ATOM    106  H44 GLU d   1       5.286   8.838 -17.722  0.00  0.00     0.049 H 
BRANCH 104 107
ATOM    107  CD  GLU d   1       4.868  10.863 -18.301  0.00  0.00     0.172 C 
ATOM    108  OE1 GLU d   1       5.567  11.723 -18.885  0.00  0.00    -0.648 OA
ATOM    109  OE2 GLU d   1       3.616  10.805 -18.441  0.00  0.00    -0.648 OA
ENDBRANCH 104 107
ENDBRANCH 101 104
ENDBRANCH  68 101
ENDBRANCH  66  68
ENDBRANCH  62  64
BRANCH  62 110
ATOM    110  CB  GLU d   1       4.492   9.206 -12.454  0.00  0.00    -0.029 C 
ATOM    111  H35 GLU d   1       4.024   9.342 -13.440  0.00  0.00     0.037 H 
ATOM    112  H36 GLU d   1       4.117   9.973 -11.761  0.00  0.00     0.037 H 
BRANCH 110 113
ATOM    113  CG  GLU d   1       4.101   7.837 -11.918  0.00  0.00     0.018 C 
ATOM    114  H37 GLU d   1       5.013   7.309 -11.602  0.00  0.00     0.049 H 
ATOM    115  H38 GLU d   1       3.610   7.271 -12.723  0.00  0.00     0.049 H 
BRANCH 113 116
ATOM    116  CD  GLU d   1       3.157   7.920 -10.740  0.00  0.00     0.172 C 
ATOM    117  OE1 GLU d   1       1.964   8.221 -10.960  0.00  0.00    -0.648 OA
ATOM    118  OE2 GLU d   1       3.619   7.674  -9.600  0.00  0.00    -0.648 OA
ENDBRANCH 113 116
ENDBRANCH 110 113
ENDBRANCH  62 110
ENDBRANCH   3  62
TORSDOF 38
