REMARK  3 active torsions:
REMARK  status: ('A' for Active; 'I' for Inactive)
REMARK    1  A    between atoms: C2'_10  and  O2'_11 
REMARK    2  A    between atoms: C1'_12  and  N9_13 
REMARK    3  A    between atoms: C6_17  and  N6_18 
ROOT
ATOM      1  P   CMP d   1     -15.158 -29.702   8.763  0.00  0.00     0.408 P 
ATOM      2  O1P CMP d   1     -15.313 -30.267   7.404  0.00  0.00    -0.624 OA
ATOM      3  O2P CMP d   1     -14.667 -28.341   8.420  0.00  0.00    -0.624 OA
ATOM      4  O5' CMP d   1     -13.906 -30.424   9.687  0.00  0.00    -0.287 OA
ATOM      5  C5' CMP d   1     -14.047 -30.344  11.184  0.00  0.00     0.058 C 
ATOM      6  C4' CMP d   1     -15.421 -30.701  11.484  0.00  0.00     0.090 C 
ATOM      7  O4' CMP d   1     -15.622 -30.754  12.922  0.00  0.00    -0.353 OA
ATOM      8  C3' CMP d   1     -16.387 -29.666  10.958  0.00  0.00     0.106 C 
ATOM      9  O3' CMP d   1     -16.548 -29.753   9.569  0.00  0.00    -0.279 OA
ATOM     10  C2' CMP d   1     -17.589 -29.846  11.779  0.00  0.00     0.106 C 
ATOM     11  C1' CMP d   1     -17.110 -30.417  13.107  0.00  0.00     0.140 C 
ATOM     12  H1  CMP d   1     -13.834 -29.323  11.532  0.00  0.00     0.079 H 
ATOM     13  H2  CMP d   1     -13.356 -31.049  11.670  0.00  0.00     0.079 H 
ATOM     14  H3  CMP d   1     -15.644 -31.680  11.036  0.00  0.00     0.090 H 
ATOM     15  H4  CMP d   1     -15.983 -28.663  11.163  0.00  0.00     0.092 H 
ATOM     16  H5  CMP d   1     -18.083 -28.874  11.928  0.00  0.00     0.093 H 
ATOM     17  H7  CMP d   1     -17.678 -31.334  13.323  0.00  0.00     0.122 H 
ENDROOT
BRANCH  11  18
ATOM     18  N9  CMP d   1     -17.240 -29.578  14.165  0.00  0.00    -0.294 N 
ATOM     19  C8  CMP d   1     -18.091 -29.837  15.157  0.00  0.00     0.071 A 
ATOM     20  N7  CMP d   1     -17.968 -28.818  16.070  0.00  0.00    -0.236 NA
ATOM     21  H8  CMP d   1     -18.758 -30.695  15.230  0.00  0.00     0.144 H 
ATOM     22  C5  CMP d   1     -16.951 -27.907  15.549  0.00  0.00     0.149 A 
ATOM     23  C6  CMP d   1     -16.414 -26.742  16.012  0.00  0.00     0.155 A 
ATOM     24  C4  CMP d   1     -16.513 -28.441  14.340  0.00  0.00     0.167 A 
ATOM     25  N1  CMP d   1     -15.443 -26.080  15.300  0.00  0.00    -0.222 NA
ATOM     26  C2  CMP d   1     -14.984 -26.595  14.076  0.00  0.00     0.091 A 
ATOM     27  N3  CMP d   1     -15.556 -27.797  13.634  0.00  0.00    -0.222 NA
ATOM     28  H11 CMP d   1     -14.221 -26.086  13.498  0.00  0.00     0.146 H 
BRANCH  23  29
ATOM     29  N6  CMP d   1     -16.880 -26.219  17.256  0.00  0.00    -0.382 N 
ATOM     30  H9  CMP d   1     -16.488 -25.340  17.625  0.00  0.00     0.157 HD
ATOM     31  H10 CMP d   1     -17.608 -26.720  17.785  0.00  0.00     0.157 HD
ENDBRANCH  23  29
ENDBRANCH  11  18
BRANCH  10  32
ATOM     32  O2' CMP d   1     -18.520 -30.764  11.223  0.00  0.00    -0.388 OA
ATOM     33  H6  CMP d   1     -18.800 -30.452  10.371  0.00  0.00     0.210 HD
ENDBRANCH  10  32
TORSDOF 3
