REMARK  2 active torsions:
REMARK  status: ('A' for Active; 'I' for Inactive)
REMARK    1  A    between atoms: C2'_10  and  O2'_11 
REMARK    2  A    between atoms: C1'_12  and  N9_13 
ROOT
ATOM      1  P   CMP d   1     -83.536 -17.247  -6.483  0.00  0.00     0.408 P 
ATOM      2  O1P CMP d   1     -84.313 -18.106  -7.450  0.00  0.00    -0.624 OA
ATOM      3  O2P CMP d   1     -82.625 -16.192  -7.050  0.00  0.00    -0.624 OA
ATOM      4  O5' CMP d   1     -84.620 -16.567  -5.497  0.00  0.00    -0.287 OA
ATOM      5  C5' CMP d   1     -85.235 -17.280  -4.414  0.00  0.00     0.058 C 
ATOM      6  C4' CMP d   1     -84.164 -18.040  -3.653  0.00  0.00     0.090 C 
ATOM      7  O4' CMP d   1     -84.631 -18.908  -2.613  0.00  0.00    -0.353 OA
ATOM      8  C3' CMP d   1     -83.445 -18.955  -4.611  0.00  0.00     0.106 C 
ATOM      9  O3' CMP d   1     -82.664 -18.154  -5.475  0.00  0.00    -0.279 OA
ATOM     10  C2' CMP d   1     -82.761 -19.925  -3.675  0.00  0.00     0.106 C 
ATOM     11  C1' CMP d   1     -83.781 -20.067  -2.552  0.00  0.00     0.140 C 
ATOM     12  H1  CMP d   1     -85.977 -17.988  -4.812  0.00  0.00     0.079 H 
ATOM     13  H2  CMP d   1     -85.733 -16.568  -3.739  0.00  0.00     0.079 H 
ATOM     14  H3  CMP d   1     -83.465 -17.308  -3.222  0.00  0.00     0.090 H 
ATOM     15  H4  CMP d   1     -84.159 -19.514  -5.234  0.00  0.00     0.092 H 
ATOM     16  H5  CMP d   1     -82.570 -20.888  -4.170  0.00  0.00     0.093 H 
ATOM     17  H7  CMP d   1     -83.270 -20.120  -1.579  0.00  0.00     0.122 H 
ENDROOT
BRANCH  11  18
ATOM     18  N9  CMP d   1     -84.609 -21.285  -2.752  0.00  0.00    -0.294 N 
ATOM     19  C8  CMP d   1     -85.445 -21.501  -3.790  0.00  0.00     0.071 A 
ATOM     20  N7  CMP d   1     -86.059 -22.702  -3.678  0.00  0.00    -0.236 NA
ATOM     21  H8  CMP d   1     -85.604 -20.801  -4.609  0.00  0.00     0.144 H 
ATOM     22  C5  CMP d   1     -85.619 -23.271  -2.548  0.00  0.00     0.149 A 
ATOM     23  C6  CMP d   1     -85.868 -24.542  -1.840  0.00  0.00     0.155 A 
ATOM     24  C4  CMP d   1     -84.665 -22.339  -1.941  0.00  0.00     0.167 A 
ATOM     25  N6  CMP d   1     -86.739 -25.437  -2.352  0.00  0.00    -0.382 N 
ATOM     26  N1  CMP d   1     -85.211 -24.771  -0.682  0.00  0.00    -0.222 NA
ATOM     27  H9  CMP d   1     -86.914 -26.325  -1.860  0.00  0.00     0.157 HD
ATOM     28  H10 CMP d   1     -87.228 -25.232  -3.235  0.00  0.00     0.157 HD
ATOM     29  C2  CMP d   1     -84.346 -23.869  -0.175  0.00  0.00     0.091 A 
ATOM     30  N3  CMP d   1     -84.073 -22.692  -0.777  0.00  0.00    -0.222 NA
ATOM     31  H11 CMP d   1     -83.847 -24.100   0.759  0.00  0.00     0.146 H 
ENDBRANCH  11  18
BRANCH  10  32
ATOM     32  O2' CMP d   1     -81.541 -19.397  -3.170  0.00  0.00    -0.388 OA
ATOM     33  H6  CMP d   1     -80.953 -19.214  -3.893  0.00  0.00     0.210 HD
ENDBRANCH  10  32
TORSDOF 2
