REMARK  9 active torsions:
REMARK  status: ('A' for Active; 'I' for Inactive)
REMARK    1  A    between atoms: O14_30  and  C10_1 
REMARK    2  A    between atoms: C16_17  and  C15_2 
REMARK    3  A    between atoms: C15_2  and  O14_30 
REMARK    4  A    between atoms: C20_3  and  C23_20 
REMARK    5  A    between atoms: C03_10  and  C26_6 
REMARK    6  A    between atoms: C02_9  and  C01_8 
REMARK    7  A    between atoms: C07_12  and  C04_11 
REMARK    8  A    between atoms: C12_16  and  O13_29 
REMARK    9  A    between atoms: C16_17  and  N17_27 
REMARK       I    between atoms: C23_20  and  N25_28 
ROOT
ATOM      1  C10 GKZ d   1     -45.507  10.598   1.572  0.00  0.00     0.071 A 
ATOM      2  C07 GKZ d   1     -45.427  12.232  -0.702  0.00  0.00     0.026 A 
ATOM      3  C08 GKZ d   1     -45.525  10.843  -0.840  0.00  0.00    -0.065 A 
ATOM      4  C09 GKZ d   1     -45.566  10.025   0.297  0.00  0.00    -0.050 A 
ATOM      5  C11 GKZ d   1     -45.411  11.987   1.710  0.00  0.00    -0.018 A 
ATOM      6  C12 GKZ d   1     -45.372  12.803   0.579  0.00  0.00     0.081 A 
ATOM      7  H12 GKZ d   1     -45.569  10.399  -1.828  0.00  0.00     0.085 H 
ATOM      8  H13 GKZ d   1     -45.643   8.949   0.189  0.00  0.00     0.087 H 
ATOM      9  H14 GKZ d   1     -45.367  12.430   2.698  0.00  0.00     0.092 H 
ENDROOT
BRANCH   1  10
ATOM     10  O14 GKZ d   1     -45.547   9.782   2.724  0.00  0.00    -0.349 OA
BRANCH  10  11
ATOM     11  C15 GKZ d   1     -44.738  10.265   3.798  0.00  0.00     0.049 C 
ATOM     12  H1  GKZ d   1     -43.935   9.544   4.010  0.00  0.00     0.077 H 
ATOM     13  H2  GKZ d   1     -44.297  11.235   3.523  0.00  0.00     0.077 H 
BRANCH  11  14
ATOM     14  C16 GKZ d   1     -45.645  10.437   5.070  0.00  0.00     0.103 C 
ATOM     15  H15 GKZ d   1     -46.503   9.752   5.002  0.00  0.00     0.079 H 
ATOM     16  H16 GKZ d   1     -46.007  11.475   5.123  0.00  0.00     0.079 H 
BRANCH  14  17
ATOM     17  N17 GKZ d   1     -44.995  10.178   6.086  0.00  0.00    -0.069 N 
ATOM     18  C22 GKZ d   1     -44.732  11.369   6.842  0.00  0.00     0.084 C 
ATOM     19  C21 GKZ d   1     -43.937  11.076   8.129  0.00  0.00    -0.031 C 
ATOM     20  H6  GKZ d   1     -44.152  12.064   6.218  0.00  0.00     0.076 H 
ATOM     21  H7  GKZ d   1     -45.691  11.834   7.115  0.00  0.00     0.076 H 
ATOM     22  C20 GKZ d   1     -44.426   9.947   8.909  0.00  0.00     0.026 C 
ATOM     23  H4  GKZ d   1     -42.894  10.870   7.847  0.00  0.00     0.036 H 
ATOM     24  H5  GKZ d   1     -43.974  11.973   8.765  0.00  0.00     0.036 H 
ATOM     25  C19 GKZ d   1     -44.823   8.818   8.122  0.00  0.00    -0.031 C 
ATOM     26  H3  GKZ d   1     -43.600   9.620   9.557  0.00  0.00     0.054 H 
ATOM     27  C18 GKZ d   1     -45.668   9.201   6.878  0.00  0.00     0.084 C 
ATOM     28  H19 GKZ d   1     -45.419   8.144   8.755  0.00  0.00     0.036 H 
ATOM     29  H20 GKZ d   1     -43.917   8.295   7.781  0.00  0.00     0.036 H 
ATOM     30  H17 GKZ d   1     -46.633   9.610   7.211  0.00  0.00     0.076 H 
ATOM     31  H18 GKZ d   1     -45.841   8.301   6.269  0.00  0.00     0.076 H 
ATOM     32  H25 GKZ d   1     -44.110   9.790   5.800  0.00  0.00     0.280 HD
BRANCH  22  33
ATOM     33  C23 GKZ d   1     -45.626  10.390   9.833  0.00  0.00     0.219 C 
ATOM     34  N25 GKZ d   1     -45.944   9.600  11.051  0.00  0.00    -0.370 N 
ATOM     35  H26 GKZ d   1     -46.703   9.875  11.641  0.00  0.00     0.159 HD
ATOM     36  H27 GKZ d   1     -45.399   8.794  11.280  0.00  0.00     0.159 HD
ATOM     37  O24 GKZ d   1     -46.280  11.348   9.565  0.00  0.00    -0.273 OA
ENDBRANCH  22  33
ENDBRANCH  14  17
ENDBRANCH  11  14
ENDBRANCH  10  11
ENDBRANCH   1  10
BRANCH   6  38
ATOM     38  O13 GKZ d   1     -45.272  14.221   0.730  0.00  0.00    -0.360 OA
ATOM     39  H28 GKZ d   1     -44.472  14.433   1.197  0.00  0.00     0.217 HD
ENDBRANCH   6  38
BRANCH   2  40
ATOM     40  C04 GKZ d   1     -45.395  13.060  -1.811  0.00  0.00     0.076 A 
ATOM     41  C03 GKZ d   1     -46.287  13.026  -2.905  0.00  0.00     0.029 A 
ATOM     42  C02 GKZ d   1     -45.888  14.053  -3.791  0.00  0.00     0.064 A 
ATOM     43  N06 GKZ d   1     -44.813  14.673  -3.245  0.00  0.00    -0.178 NA
ATOM     44  N05 GKZ d   1     -44.511  14.072  -2.037  0.00  0.00    -0.276 N 
ATOM     45  H24 GKZ d   1     -43.742  14.345  -1.409  0.00  0.00     0.189 HD
BRANCH  41  46
ATOM     46  C26 GKZ d   1     -47.383  12.127  -3.107  0.00  0.00    -0.021 A 
ATOM     47  C27 GKZ d   1     -48.546  12.235  -2.335  0.00  0.00    -0.070 A 
ATOM     48  C28 GKZ d   1     -49.609  11.342  -2.547  0.00  0.00    -0.061 A 
ATOM     49  H21 GKZ d   1     -48.626  13.005  -1.576  0.00  0.00     0.084 H 
ATOM     50  C29 GKZ d   1     -49.505  10.352  -3.524  0.00  0.00     0.034 A 
ATOM     51  H8  GKZ d   1     -50.511  11.422  -1.951  0.00  0.00     0.086 H 
ATOM     52  C30 GKZ d   1     -48.343  10.246  -4.293  0.00  0.00    -0.061 A 
ATOM     53 CL   GKZ d   1     -50.845   9.228  -3.791  0.00  0.00    -0.084 Cl
ATOM     54  C31 GKZ d   1     -47.284  11.135  -4.081  0.00  0.00    -0.070 A 
ATOM     55  H22 GKZ d   1     -48.263   9.476  -5.052  0.00  0.00     0.086 H 
ATOM     56  H23 GKZ d   1     -46.382  11.052  -4.677  0.00  0.00     0.084 H 
ENDBRANCH  41  46
BRANCH  42  57
ATOM     57  C01 GKZ d   1     -46.577  14.397  -5.147  0.00  0.00    -0.033 C 
ATOM     58  H9  GKZ d   1     -46.053  15.240  -5.621  0.00  0.00     0.035 H 
ATOM     59  H10 GKZ d   1     -47.626  14.673  -4.966  0.00  0.00     0.035 H 
ATOM     60  H11 GKZ d   1     -46.538  13.521  -5.811  0.00  0.00     0.035 H 
ENDBRANCH  42  57
ENDBRANCH   2  40
TORSDOF 9
