REMARK  12 active torsions:
REMARK  status: ('A' for Active; 'I' for Inactive)
REMARK    1  A    between atoms: C2_2  and  N7_23 
REMARK    2  A    between atoms: C24_12  and  C4_4 
REMARK    3  A    between atoms: N7_23  and  C9_5 
REMARK    4  A    between atoms: C12_8  and  C15_10 
REMARK       I    between atoms: C15_10  and  N17_26 
REMARK    5  A    between atoms: C38_18  and  C44_20 
REMARK    6  A    between atoms: C44_20  and  C45_45 
REMARK    7  A    between atoms: C44_20  and  C46_46 
REMARK    8  A    between atoms: C44_20  and  C47_47 
REMARK    9  A    between atoms: N6_22  and  C23_32 
REMARK   10  A    between atoms: N30_38  and  C28_36 
REMARK   11  A    between atoms: C29_37  and  C40_41 
REMARK   12  A    between atoms: C40_41  and  O41_42 
ROOT
ATOM      1  C24 GMQ d   1      24.564   7.188   3.325  0.00  0.00     0.005 A 
ATOM      2  C25 GMQ d   1      25.839   6.707   3.072  0.00  0.00    -0.070 A 
ATOM      3  C26 GMQ d   1      26.941   7.151   3.765  0.00  0.00    -0.080 A 
ATOM      4  C27 GMQ d   1      26.692   8.078   4.792  0.00  0.00    -0.054 A 
ATOM      5  C28 GMQ d   1      25.453   8.510   5.045  0.00  0.00     0.071 A 
ATOM      6  C29 GMQ d   1      24.324   8.137   4.355  0.00  0.00     0.007 A 
ATOM      7  H20 GMQ d   1      25.972   5.956   2.302  0.00  0.00     0.084 H 
ATOM      8  H21 GMQ d   1      27.942   6.806   3.533  0.00  0.00     0.083 H 
ATOM      9  H22 GMQ d   1      27.518   8.448   5.388  0.00  0.00     0.087 H 
ENDROOT
BRANCH   1  10
ATOM     10  C4  GMQ d   1      23.469   6.690   2.531  0.00  0.00     0.090 A 
ATOM     11  C3  GMQ d   1      23.614   6.562   1.103  0.00  0.00    -0.021 A 
ATOM     12  C2  GMQ d   1      22.616   6.047   0.391  0.00  0.00     0.106 A 
ATOM     13  H1  GMQ d   1      24.531   6.884   0.612  0.00  0.00     0.091 H 
ATOM     14  C1  GMQ d   1      21.387   5.658   0.999  0.00  0.00     0.290 A 
ATOM     15  O8  GMQ d   1      20.436   5.205   0.395  0.00  0.00    -0.264 OA
ATOM     16  N6  GMQ d   1      21.328   5.823   2.383  0.00  0.00    -0.237 N 
ATOM     17  N5  GMQ d   1      22.363   6.296   3.127  0.00  0.00    -0.169 NA
BRANCH  12  18
ATOM     18  N7  GMQ d   1      22.586   5.845  -1.009  0.00  0.00    -0.336 N 
ATOM     19  H8  GMQ d   1      21.676   5.568  -1.404  0.00  0.00     0.168 HD
BRANCH  18  20
ATOM     20  C9  GMQ d   1      23.620   5.972  -1.911  0.00  0.00     0.127 A 
ATOM     21  C10 GMQ d   1      23.316   5.608  -3.269  0.00  0.00    -0.038 A 
ATOM     22  C11 GMQ d   1      24.341   5.773  -4.191  0.00  0.00    -0.063 A 
ATOM     23  H2  GMQ d   1      22.343   5.227  -3.556  0.00  0.00     0.089 H 
ATOM     24  C12 GMQ d   1      25.575   6.241  -3.793  0.00  0.00     0.049 A 
ATOM     25  H3  GMQ d   1      24.169   5.532  -5.234  0.00  0.00     0.085 H 
ATOM     26  C13 GMQ d   1      25.758   6.524  -2.427  0.00  0.00     0.020 A 
ATOM     27  N14 GMQ d   1      24.788   6.376  -1.551  0.00  0.00    -0.242 NA
ATOM     28  H4  GMQ d   1      26.726   6.874  -2.087  0.00  0.00     0.116 H 
BRANCH  24  29
ATOM     29  C15 GMQ d   1      26.654   6.360  -4.796  0.00  0.00     0.255 C 
ATOM     30  O16 GMQ d   1      27.691   5.790  -4.582  0.00  0.00    -0.267 OA
ATOM     31  N17 GMQ d   1      26.443   7.012  -5.939  0.00  0.00    -0.344 N 
ATOM     32  C18 GMQ d   1      27.557   7.048  -6.946  0.00  0.00     0.018 C 
ATOM     33  C22 GMQ d   1      25.171   7.722  -6.270  0.00  0.00     0.018 C 
ATOM     34  C19 GMQ d   1      27.526   8.415  -7.640  0.00  0.00     0.034 C 
ATOM     35  H9  GMQ d   1      27.415   6.249  -7.689  0.00  0.00     0.067 H 
ATOM     36  H10 GMQ d   1      28.523   6.909  -6.439  0.00  0.00     0.067 H 
ATOM     37  O20 GMQ d   1      26.207   8.647  -8.181  0.00  0.00    -0.388 OA
ATOM     38  H11 GMQ d   1      28.265   8.430  -8.455  0.00  0.00     0.076 H 
ATOM     39  H12 GMQ d   1      27.768   9.203  -6.911  0.00  0.00     0.076 H 
ATOM     40  C21 GMQ d   1      25.319   8.999  -7.104  0.00  0.00     0.034 C 
ATOM     41  H13 GMQ d   1      24.343   9.318  -7.498  0.00  0.00     0.076 H 
ATOM     42  H14 GMQ d   1      25.751   9.808  -6.497  0.00  0.00     0.076 H 
ATOM     43  H15 GMQ d   1      24.679   7.992  -5.324  0.00  0.00     0.067 H 
ATOM     44  H16 GMQ d   1      24.531   7.025  -6.831  0.00  0.00     0.067 H 
ENDBRANCH  24  29
ENDBRANCH  18  20
ENDBRANCH  12  18
BRANCH  16  45
ATOM     45  C23 GMQ d   1      20.058   5.559   3.091  0.00  0.00     0.006 C 
ATOM     46  H17 GMQ d   1      20.194   5.739   4.168  0.00  0.00     0.059 H 
ATOM     47  H18 GMQ d   1      19.758   4.513   2.929  0.00  0.00     0.059 H 
ATOM     48  H19 GMQ d   1      19.276   6.229   2.704  0.00  0.00     0.059 H 
ENDBRANCH  16  45
ENDBRANCH   1  10
BRANCH   6  49
ATOM     49  C40 GMQ d   1      23.069   8.819   4.641  0.00  0.00     0.043 C 
ATOM     50  H23 GMQ d   1      22.354   8.616   3.830  0.00  0.00     0.081 H 
ATOM     51  H24 GMQ d   1      23.252   9.902   4.705  0.00  0.00     0.081 H 
BRANCH  49  52
ATOM     52  O41 GMQ d   1      22.518   8.360   5.881  0.00  0.00    -0.396 OA
ATOM     53  H25 GMQ d   1      21.701   8.815   6.051  0.00  0.00     0.209 HD
ENDBRANCH  49  52
ENDBRANCH   6  49
BRANCH   5  54
ATOM     54  N30 GMQ d   1      25.335   9.460   6.134  0.00  0.00    -0.197 N 
ATOM     55  C31 GMQ d   1      25.256   8.987   7.423  0.00  0.00     0.282 A 
ATOM     56  C32 GMQ d   1      25.048  10.066   8.440  0.00  0.00     0.084 A 
ATOM     57  O42 GMQ d   1      25.395   7.790   7.691  0.00  0.00    -0.265 OA
ATOM     58  C33 GMQ d   1      24.914  11.403   8.020  0.00  0.00     0.002 A 
ATOM     59  C36 GMQ d   1      24.917   9.803   9.828  0.00  0.00     0.133 A 
ATOM     60  C34 GMQ d   1      24.949  11.734   6.615  0.00  0.00     0.033 A 
ATOM     61  C39 GMQ d   1      24.752  12.426   8.995  0.00  0.00    -0.064 A 
ATOM     62  N35 GMQ d   1      25.166  10.812   5.707  0.00  0.00    -0.176 NA
ATOM     63  H5  GMQ d   1      24.793  12.766   6.304  0.00  0.00     0.118 H 
ATOM     64  C38 GMQ d   1      24.713  12.099  10.349  0.00  0.00    -0.047 A 
ATOM     65  H7  GMQ d   1      24.659  13.460   8.685  0.00  0.00     0.085 H 
ATOM     66  C37 GMQ d   1      24.749  10.781  10.745  0.00  0.00    -0.038 A 
ATOM     67  H6  GMQ d   1      24.642  10.528  11.794  0.00  0.00     0.089 H 
ATOM     68  F43 GMQ d   1      24.911   8.487  10.249  0.00  0.00    -0.205 F 
BRANCH  64  69
ATOM     69  C44 GMQ d   1      24.618  13.234  11.368  0.00  0.00    -0.024 C 
BRANCH  69  70
ATOM     70  C45 GMQ d   1      24.596  12.680  12.792  0.00  0.00    -0.066 C 
ATOM     71  H26 GMQ d   1      24.527  13.512  13.508  0.00  0.00     0.028 H 
ATOM     72  H27 GMQ d   1      25.519  12.111  12.978  0.00  0.00     0.028 H 
ATOM     73  H28 GMQ d   1      23.726  12.018  12.915  0.00  0.00     0.028 H 
ENDBRANCH  69  70
BRANCH  69  74
ATOM     74  C46 GMQ d   1      25.916  14.089  11.234  0.00  0.00    -0.066 C 
ATOM     75  H29 GMQ d   1      25.974  14.510  10.220  0.00  0.00     0.028 H 
ATOM     76  H30 GMQ d   1      26.794  13.453  11.418  0.00  0.00     0.028 H 
ATOM     77  H31 GMQ d   1      25.894  14.906  11.970  0.00  0.00     0.028 H 
ENDBRANCH  69  74
BRANCH  69  78
ATOM     78  C47 GMQ d   1      23.433  14.127  11.071  0.00  0.00    -0.066 C 
ATOM     79  H32 GMQ d   1      22.504  13.545  11.159  0.00  0.00     0.028 H 
ATOM     80  H33 GMQ d   1      23.521  14.525  10.049  0.00  0.00     0.028 H 
ATOM     81  H34 GMQ d   1      23.413  14.960  11.789  0.00  0.00     0.028 H 
ENDBRANCH  69  78
ENDBRANCH  64  69
ENDBRANCH   5  54
TORSDOF 12
