REMARK  10 active torsions:
REMARK  status: ('A' for Active; 'I' for Inactive)
REMARK    1  A    between atoms: C8_18  and  C3_3 
REMARK    2  A    between atoms: C6_5  and  N7_17 
REMARK    3  A    between atoms: N7_17  and  C26_13 
REMARK       I    between atoms: N9_19  and  C8_18 
REMARK    4  A    between atoms: C20_25  and  N29_29 
REMARK    5  A    between atoms: N24_28  and  C49_49 
REMARK    6  A    between atoms: C38_38  and  C44_44 
REMARK    7  A    between atoms: C42_42  and  O48_48 
REMARK    8  A    between atoms: C44_44  and  C45_45 
REMARK    9  A    between atoms: C44_44  and  C46_46 
REMARK   10  A    between atoms: C44_44  and  C47_47 
ROOT
ATOM      1  C16 GMW d   1      24.875   7.139   3.396  0.00  0.00    -0.015 A 
ATOM      2  C17 GMW d   1      26.125   6.675   3.095  0.00  0.00    -0.071 A 
ATOM      3  C18 GMW d   1      27.230   7.143   3.735  0.00  0.00    -0.080 A 
ATOM      4  C23 GMW d   1      22.527   6.277   3.197  0.00  0.00     0.028 A 
ATOM      5  C25 GMW d   1      21.505   5.729   1.089  0.00  0.00     0.274 A 
ATOM      6  C26 GMW d   1      22.790   6.052   0.504  0.00  0.00     0.103 A 
ATOM      7  C27 GMW d   1      23.877   6.530   1.188  0.00  0.00    -0.039 A 
ATOM      8  O28 GMW d   1      20.498   5.335   0.489  0.00  0.00    -0.266 OA
ATOM      9  C19 GMW d   1      27.076   8.034   4.788  0.00  0.00    -0.054 A 
ATOM     10  C20 GMW d   1      25.825   8.505   5.070  0.00  0.00     0.069 A 
ATOM     11  C21 GMW d   1      24.652   8.088   4.427  0.00  0.00    -0.016 A 
ATOM     12  C22 GMW d   1      23.711   6.642   2.627  0.00  0.00    -0.000 A 
ATOM     13  N24 GMW d   1      21.432   5.897   2.488  0.00  0.00    -0.320 N 
ATOM     14  C40 GMW d   1      22.418   6.294   4.729  0.00  0.00    -0.002 C 
ATOM     15  C41 GMW d   1      23.269   8.667   4.682  0.00  0.00    -0.014 C 
ATOM     16  C42 GMW d   1      22.202   7.744   5.297  0.00  0.00     0.044 C 
ATOM     17  H8  GMW d   1      26.238   5.917   2.329  0.00  0.00     0.084 H 
ATOM     18  H9  GMW d   1      28.219   6.824   3.426  0.00  0.00     0.083 H 
ATOM     19  H10 GMW d   1      24.803   6.807   0.687  0.00  0.00     0.088 H 
ATOM     20  H16 GMW d   1      27.931   8.350   5.375  0.00  0.00     0.087 H 
ATOM     21  H20 GMW d   1      23.345   5.882   5.154  0.00  0.00     0.046 H 
ATOM     22  H21 GMW d   1      21.566   5.666   5.030  0.00  0.00     0.046 H 
ATOM     23  H22 GMW d   1      22.879   9.020   3.716  0.00  0.00     0.044 H 
ATOM     24  H23 GMW d   1      23.393   9.523   5.362  0.00  0.00     0.044 H 
ATOM     25  H24 GMW d   1      21.185   8.111   5.093  0.00  0.00     0.083 H 
ENDROOT
BRANCH  10  26
ATOM     26  N29 GMW d   1      25.679   9.441   6.161  0.00  0.00    -0.197 N 
ATOM     27  C30 GMW d   1      25.586   8.979   7.471  0.00  0.00     0.282 A 
ATOM     28  O33 GMW d   1      25.778   7.790   7.685  0.00  0.00    -0.265 OA
ATOM     29  C35 GMW d   1      25.325  10.016   8.469  0.00  0.00     0.084 A 
ATOM     30  C34 GMW d   1      25.109  11.355   8.087  0.00  0.00     0.002 A 
ATOM     31  C36 GMW d   1      25.265   9.806   9.850  0.00  0.00     0.133 A 
ATOM     32  C31 GMW d   1      25.093  11.709   6.679  0.00  0.00     0.033 A 
ATOM     33  C39 GMW d   1      24.851  12.396   9.019  0.00  0.00    -0.064 A 
ATOM     34  N32 GMW d   1      25.401  10.784   5.799  0.00  0.00    -0.176 NA
ATOM     35  H17 GMW d   1      24.832  12.717   6.360  0.00  0.00     0.118 H 
ATOM     36  C38 GMW d   1      24.810  12.039  10.374  0.00  0.00    -0.047 A 
ATOM     37  H19 GMW d   1      24.693  13.419   8.697  0.00  0.00     0.085 H 
ATOM     38  C37 GMW d   1      25.016  10.749  10.771  0.00  0.00    -0.038 A 
ATOM     39  H18 GMW d   1      24.979  10.489  11.823  0.00  0.00     0.089 H 
ATOM     40  F43 GMW d   1      25.457   8.529  10.276  0.00  0.00    -0.205 F 
BRANCH  36  41
ATOM     41  C44 GMW d   1      24.636  13.109  11.409  0.00  0.00    -0.024 C 
BRANCH  41  42
ATOM     42  C45 GMW d   1      23.922  12.572  12.665  0.00  0.00    -0.066 C 
ATOM     43  H25 GMW d   1      23.813  13.383  13.400  0.00  0.00     0.028 H 
ATOM     44  H26 GMW d   1      24.516  11.757  13.104  0.00  0.00     0.028 H 
ATOM     45  H27 GMW d   1      22.928  12.192  12.387  0.00  0.00     0.028 H 
ENDBRANCH  41  42
BRANCH  41  46
ATOM     46  C46 GMW d   1      26.014  13.714  11.690  0.00  0.00    -0.066 C 
ATOM     47  H28 GMW d   1      26.456  14.072  10.749  0.00  0.00     0.028 H 
ATOM     48  H29 GMW d   1      26.667  12.948  12.133  0.00  0.00     0.028 H 
ATOM     49  H30 GMW d   1      25.909  14.556  12.390  0.00  0.00     0.028 H 
ENDBRANCH  41  46
BRANCH  41  50
ATOM     50  C47 GMW d   1      23.679  14.208  11.010  0.00  0.00    -0.066 C 
ATOM     51  H31 GMW d   1      22.688  13.776  10.808  0.00  0.00     0.028 H 
ATOM     52  H32 GMW d   1      24.052  14.709  10.104  0.00  0.00     0.028 H 
ATOM     53  H33 GMW d   1      23.600  14.940  11.827  0.00  0.00     0.028 H 
ENDBRANCH  41  50
ENDBRANCH  36  41
ENDBRANCH  10  26
BRANCH  16  54
ATOM     54  O48 GMW d   1      22.465   7.678   6.663  0.00  0.00    -0.395 OA
ATOM     55  H34 GMW d   1      22.413   8.550   7.037  0.00  0.00     0.210 HD
ENDBRANCH  16  54
BRANCH  13  56
ATOM     56  C49 GMW d   1      20.114   5.665   3.117  0.00  0.00    -0.011 C 
ATOM     57  H35 GMW d   1      20.192   5.827   4.202  0.00  0.00     0.057 H 
ATOM     58  H36 GMW d   1      19.792   4.631   2.923  0.00  0.00     0.057 H 
ATOM     59  H37 GMW d   1      19.378   6.364   2.694  0.00  0.00     0.057 H 
ENDBRANCH  13  56
BRANCH   6  60
ATOM     60  N7  GMW d   1      22.702   5.870  -0.933  0.00  0.00    -0.337 N 
ATOM     61  H11 GMW d   1      21.775   5.631  -1.314  0.00  0.00     0.168 HD
BRANCH  60  62
ATOM     62  C6  GMW d   1      23.738   5.985  -1.843  0.00  0.00     0.127 A 
ATOM     63  C1  GMW d   1      23.313   5.638  -3.190  0.00  0.00    -0.038 A 
ATOM     64  C2  GMW d   1      24.298   5.717  -4.133  0.00  0.00    -0.063 A 
ATOM     65  H1  GMW d   1      22.298   5.341  -3.426  0.00  0.00     0.089 H 
ATOM     66  C3  GMW d   1      25.594   6.139  -3.834  0.00  0.00     0.049 A 
ATOM     67  H2  GMW d   1      24.064   5.441  -5.155  0.00  0.00     0.085 H 
ATOM     68  C4  GMW d   1      25.920   6.443  -2.494  0.00  0.00     0.020 A 
ATOM     69  N5  GMW d   1      24.958   6.348  -1.540  0.00  0.00    -0.242 NA
ATOM     70  H3  GMW d   1      26.926   6.748  -2.230  0.00  0.00     0.116 H 
BRANCH  66  71
ATOM     71  C8  GMW d   1      26.690   6.264  -4.868  0.00  0.00     0.255 C 
ATOM     72  N9  GMW d   1      26.483   6.950  -6.050  0.00  0.00    -0.344 N 
ATOM     73  C15 GMW d   1      25.155   7.588  -6.405  0.00  0.00     0.018 C 
ATOM     74  C11 GMW d   1      27.567   7.069  -7.086  0.00  0.00     0.018 C 
ATOM     75  C14 GMW d   1      25.272   8.908  -7.211  0.00  0.00     0.034 C 
ATOM     76  H6  GMW d   1      24.616   7.803  -5.471  0.00  0.00     0.067 H 
ATOM     77  H7  GMW d   1      24.578   6.869  -7.005  0.00  0.00     0.067 H 
ATOM     78  O13 GMW d   1      26.155   8.693  -8.318  0.00  0.00    -0.388 OA
ATOM     79  H14 GMW d   1      25.675   9.702  -6.565  0.00  0.00     0.076 H 
ATOM     80  H15 GMW d   1      24.280   9.205  -7.581  0.00  0.00     0.076 H 
ATOM     81  C12 GMW d   1      27.484   8.440  -7.802  0.00  0.00     0.034 C 
ATOM     82  H4  GMW d   1      28.199   8.450  -8.638  0.00  0.00     0.076 H 
ATOM     83  H5  GMW d   1      27.746   9.233  -7.086  0.00  0.00     0.076 H 
ATOM     84  H12 GMW d   1      28.548   6.975  -6.596  0.00  0.00     0.067 H 
ATOM     85  H13 GMW d   1      27.449   6.265  -7.828  0.00  0.00     0.067 H 
ATOM     86  O10 GMW d   1      27.763   5.781  -4.577  0.00  0.00    -0.267 OA
ENDBRANCH  66  71
ENDBRANCH  60  62
ENDBRANCH   6  60
TORSDOF 10
