REMARK  3 active torsions:
REMARK  status: ('A' for Active; 'I' for Inactive)
REMARK    1  A    between atoms: C8_3  and  C9_4 
REMARK    2  A    between atoms: N1_12  and  C8_3 
REMARK    3  A    between atoms: C9_4  and  C10_11 
ROOT
ATOM      1  O2  GNK d   1      19.294  18.545  14.498  0.00  0.00    -0.298 OA
ATOM      2  C7  GNK d   1      18.335  15.701  13.174  0.00  0.00    -0.036 C 
ATOM      3  N1  GNK d   1      20.557  15.003  12.862  0.00  0.00    -0.061 N 
ATOM      4  C5  GNK d   1      20.353  15.198  14.312  0.00  0.00     0.111 C 
ATOM      5  C4  GNK d   1      20.726  16.605  14.813  0.00  0.00     0.017 C 
ATOM      6  C3  GNK d   1      19.997  17.652  14.000  0.00  0.00     0.131 C 
ATOM      7  C2  GNK d   1      20.115  17.443  12.522  0.00  0.00     0.017 C 
ATOM      8  C6  GNK d   1      18.846  15.051  14.449  0.00  0.00    -0.036 C 
ATOM      9  C1  GNK d   1      19.610  16.005  12.336  0.00  0.00     0.111 C 
ATOM     10  H1  GNK d   1      17.794  16.630  13.404  0.00  0.00     0.036 H 
ATOM     11  H2  GNK d   1      17.670  15.014  12.630  0.00  0.00     0.036 H 
ATOM     12  H11 GNK d   1      20.253  14.075  12.612  0.00  0.00     0.280 HD
ATOM     13  H12 GNK d   1      20.900  14.438  14.890  0.00  0.00     0.085 H 
ATOM     14  H13 GNK d   1      21.811  16.753  14.709  0.00  0.00     0.047 H 
ATOM     15  H14 GNK d   1      20.442  16.702  15.871  0.00  0.00     0.047 H 
ATOM     16  H15 GNK d   1      21.159  17.541  12.191  0.00  0.00     0.047 H 
ATOM     17  H16 GNK d   1      19.486  18.157  11.970  0.00  0.00     0.047 H 
ATOM     18  H17 GNK d   1      18.553  13.992  14.500  0.00  0.00     0.036 H 
ATOM     19  H18 GNK d   1      18.475  15.578  15.340  0.00  0.00     0.036 H 
ATOM     20  H19 GNK d   1      19.420  15.837  11.266  0.00  0.00     0.085 H 
ENDROOT
BRANCH   3  21
ATOM     21  C8  GNK d   1      21.916  15.157  12.318  0.00  0.00     0.088 C 
ATOM     22  H3  GNK d   1      21.903  15.004  11.229  0.00  0.00     0.076 H 
ATOM     23  H4  GNK d   1      22.297  16.164  12.542  0.00  0.00     0.076 H 
BRANCH  21  24
ATOM     24  C9  GNK d   1      22.778  14.137  12.961  0.00  0.00    -0.018 C 
ATOM     25  H5  GNK d   1      22.399  13.131  12.729  0.00  0.00     0.042 H 
ATOM     26  H6  GNK d   1      22.780  14.286  14.051  0.00  0.00     0.042 H 
BRANCH  24  27
ATOM     27  C10 GNK d   1      24.154  14.288  12.432  0.00  0.00    -0.057 A 
ATOM     28  C12 GNK d   1      25.169  14.207  13.339  0.00  0.00    -0.075 A 
ATOM     29  C13 GNK d   1      26.479  14.290  12.927  0.00  0.00    -0.061 A 
ATOM     30  H8  GNK d   1      24.942  14.076  14.391  0.00  0.00     0.084 H 
ATOM     31  C14 GNK d   1      26.790  14.438  11.603  0.00  0.00     0.034 A 
ATOM     32  H7  GNK d   1      27.275  14.238  13.661  0.00  0.00     0.086 H 
ATOM     33 CL1  GNK d   1      28.526  14.495  11.175  0.00  0.00    -0.084 Cl
ATOM     34  C15 GNK d   1      25.783  14.515  10.669  0.00  0.00    -0.061 A 
ATOM     35  C16 GNK d   1      24.459  14.443  11.087  0.00  0.00    -0.075 A 
ATOM     36  H9  GNK d   1      26.020  14.631   9.617  0.00  0.00     0.086 H 
ATOM     37  H10 GNK d   1      23.660  14.508  10.358  0.00  0.00     0.084 H 
ENDBRANCH  24  27
ENDBRANCH  21  24
ENDBRANCH   3  21
TORSDOF 3
