REMARK  5 active torsions:
REMARK  status: ('A' for Active; 'I' for Inactive)
REMARK    1  A    between atoms: C5_2  and  C6_3 
REMARK       I    between atoms: N1_8  and  C7_4 
REMARK       I    between atoms: C7_4  and  N3_11 
REMARK    2  A    between atoms: C8_5  and  C9_6 
REMARK    3  A    between atoms: N3_11  and  C8_5 
REMARK    4  A    between atoms: C9_6  and  C10_7 
REMARK    5  A    between atoms: C1_12  and  N1_8 
ROOT
ATOM      1  C7  GOE d   1     -17.321  15.466 -13.444  0.00  0.00     0.321 C 
ATOM      2  N1  GOE d   1     -18.322  16.363 -13.306  0.00  0.00    -0.293 N 
ATOM      3  N3  GOE d   1     -17.483  14.117 -13.320  0.00  0.00    -0.343 N 
ATOM      4  O1  GOE d   1     -16.191  15.882 -13.701  0.00  0.00    -0.247 OA
ATOM      5  H12 GOE d   1     -18.066  17.327 -13.241  0.00  0.00     0.172 HD
ATOM      6  H14 GOE d   1     -18.392  13.756 -13.110  0.00  0.00     0.164 HD
ENDROOT
BRANCH   2   7
ATOM      7  C1  GOE d   1     -19.662  16.064 -13.247  0.00  0.00     0.131 A 
ATOM      8  N2  GOE d   1     -20.102  14.811 -12.975  0.00  0.00    -0.236 NA
ATOM      9  C5  GOE d   1     -21.424  14.476 -12.907  0.00  0.00     0.033 A 
ATOM     10  C4  GOE d   1     -22.407  15.434 -13.079  0.00  0.00    -0.059 A 
ATOM     11  C3  GOE d   1     -21.998  16.752 -13.335  0.00  0.00    -0.077 A 
ATOM     12  H1  GOE d   1     -23.458  15.175 -13.018  0.00  0.00     0.086 H 
ATOM     13  C2  GOE d   1     -20.622  17.052 -13.418  0.00  0.00    -0.038 A 
ATOM     14  H13 GOE d   1     -22.735  17.535 -13.468  0.00  0.00     0.083 H 
ATOM     15  H15 GOE d   1     -20.309  18.070 -13.618  0.00  0.00     0.089 H 
BRANCH   9  16
ATOM     16  C6  GOE d   1     -21.813  13.042 -12.619  0.00  0.00    -0.035 C 
ATOM     17  H2  GOE d   1     -20.905  12.430 -12.514  0.00  0.00     0.035 H 
ATOM     18  H3  GOE d   1     -22.423  12.654 -13.448  0.00  0.00     0.035 H 
ATOM     19  H4  GOE d   1     -22.394  13.000 -11.686  0.00  0.00     0.035 H 
ENDBRANCH   9  16
ENDBRANCH   2   7
BRANCH   3  20
ATOM     20  C8  GOE d   1     -16.379  13.190 -13.483  0.00  0.00    -0.004 C 
ATOM     21  H5  GOE d   1     -15.470  13.740 -13.768  0.00  0.00     0.064 H 
ATOM     22  H6  GOE d   1     -16.202  12.652 -12.540  0.00  0.00     0.064 H 
BRANCH  20  23
ATOM     23  C9  GOE d   1     -16.752  12.194 -14.588  0.00  0.00    -0.053 C 
ATOM     24  H7  GOE d   1     -16.776  12.718 -15.555  0.00  0.00     0.034 H 
ATOM     25  H8  GOE d   1     -17.745  11.772 -14.375  0.00  0.00     0.034 H 
BRANCH  23  26
ATOM     26  C10 GOE d   1     -15.736  11.068 -14.656  0.00  0.00    -0.075 C 
ATOM     27  H9  GOE d   1     -16.020  10.365 -15.453  0.00  0.00     0.027 H 
ATOM     28  H10 GOE d   1     -15.710  10.538 -13.692  0.00  0.00     0.027 H 
ATOM     29  H11 GOE d   1     -14.741  11.484 -14.872  0.00  0.00     0.027 H 
ENDBRANCH  23  26
ENDBRANCH  20  23
ENDBRANCH   3  20
TORSDOF 5
