REMARK  1 active torsions:
REMARK  status: ('A' for Active; 'I' for Inactive)
REMARK    1  A    between atoms: C1_10  and  N1_6 
REMARK       I    between atoms: N1_6  and  C2_11 
REMARK       I    between atoms: C2_11  and  N2_7 
ROOT
ATOM      1  C4  GO2 d   1      10.733 -22.694 -17.559  0.00  0.00     0.076 A 
ATOM      2  C5  GO2 d   1       8.718 -21.609 -18.275  0.00  0.00    -0.064 A 
ATOM      3  C6  GO2 d   1       7.922 -22.548 -17.699  0.00  0.00    -0.082 A 
ATOM      4  C7  GO2 d   1       8.526 -23.628 -17.053  0.00  0.00    -0.081 A 
ATOM      5  C8  GO2 d   1       9.926 -23.665 -17.008  0.00  0.00    -0.054 A 
ATOM      6  C3  GO2 d   1      10.073 -21.671 -18.278  0.00  0.00     0.037 A 
ATOM      7  C1  GO2 d   1      12.567 -21.636 -18.284  0.00  0.00     0.186 A 
ATOM      8  S1  GO2 d   1      11.262 -20.652 -18.851  0.00  0.00    -0.049 SA
ATOM      9  N4  GO2 d   1      12.066 -22.658 -17.572  0.00  0.00    -0.223 NA
ATOM     10  H1  GO2 d   1       8.243 -20.763 -18.759  0.00  0.00     0.085 H 
ATOM     11  H2  GO2 d   1       6.842 -22.460 -17.740  0.00  0.00     0.083 H 
ATOM     12  H3  GO2 d   1       7.931 -24.413 -16.601  0.00  0.00     0.083 H 
ATOM     13  H4  GO2 d   1      10.400 -24.504 -16.512  0.00  0.00     0.087 H 
ENDROOT
BRANCH   7  14
ATOM     14  N1  GO2 d   1      13.858 -21.315 -18.481  0.00  0.00    -0.169 N 
ATOM     15  C2  GO2 d   1      14.881 -22.011 -18.091  0.00  0.00     0.671 C 
ATOM     16  N2  GO2 d   1      16.084 -21.819 -18.602  0.00  0.00    -0.235 N 
ATOM     17  N3  GO2 d   1      14.683 -22.905 -17.120  0.00  0.00    -0.235 N 
ATOM     18  H6  GO2 d   1      16.879 -22.386 -18.274  0.00  0.00     0.174 HD
ATOM     19  H7  GO2 d   1      16.227 -21.103 -19.328  0.00  0.00     0.174 HD
ATOM     20  H8  GO2 d   1      13.739 -23.043 -16.732  0.00  0.00     0.174 HD
ATOM     21  H9  GO2 d   1      15.474 -23.457 -16.759  0.00  0.00     0.174 HD
ATOM     22  H5  GO2 d   1      14.052 -20.439 -18.986  0.00  0.00     0.186 HD
ENDBRANCH   7  14
TORSDOF 1
