REMARK  2 active torsions:
REMARK  status: ('A' for Active; 'I' for Inactive)
REMARK    1  A    between atoms: C5_2  and  C6_3 
REMARK    2  A    between atoms: N1_9  and  C5_2 
ROOT
ATOM      1  C4  GNW d   1      11.765 -20.644 -16.457  0.00  0.00     0.104 C 
ATOM      2  N1  GNW d   1      10.120 -22.460 -16.678  0.00  0.00    -0.064 N 
ATOM      3  N2  GNW d   1      12.333 -20.935 -17.770  0.00  0.00    -0.072 N 
ATOM      4  C3  GNW d   1      10.314 -21.058 -16.315  0.00  0.00     0.106 C 
ATOM      5  C1  GNW d   1      10.507 -22.710 -18.052  0.00  0.00     0.106 C 
ATOM      6  C2  GNW d   1      11.945 -22.255 -18.325  0.00  0.00     0.104 C 
ATOM      7  H1  GNW d   1      11.836 -19.561 -16.280  0.00  0.00     0.078 H 
ATOM      8  H2  GNW d   1      12.354 -21.178 -15.697  0.00  0.00     0.078 H 
ATOM      9  H9  GNW d   1      10.817 -22.957 -16.146  0.00  0.00     0.280 HD
ATOM     10  H10 GNW d   1      13.338 -20.908 -17.692  0.00  0.00     0.277 HD
ATOM     11  H11 GNW d   1      12.027 -20.221 -18.412  0.00  0.00     0.277 HD
ATOM     12  H12 GNW d   1       9.697 -20.429 -16.974  0.00  0.00     0.078 H 
ATOM     13  H13 GNW d   1      10.001 -20.913 -15.271  0.00  0.00     0.078 H 
ATOM     14  H14 GNW d   1       9.826 -22.162 -18.720  0.00  0.00     0.078 H 
ATOM     15  H15 GNW d   1      10.429 -23.788 -18.254  0.00  0.00     0.078 H 
ATOM     16  H16 GNW d   1      12.622 -23.010 -17.899  0.00  0.00     0.078 H 
ATOM     17  H17 GNW d   1      12.082 -22.213 -19.416  0.00  0.00     0.078 H 
ENDROOT
BRANCH   2  18
ATOM     18  C5  GNW d   1       8.857 -23.023 -16.174  0.00  0.00     0.107 C 
ATOM     19  H3  GNW d   1       9.123 -23.827 -15.473  0.00  0.00     0.083 H 
ATOM     20  H4  GNW d   1       8.343 -22.217 -15.630  0.00  0.00     0.083 H 
BRANCH  18  21
ATOM     21  C6  GNW d   1       7.858 -23.602 -17.146  0.00  0.00    -0.031 A 
ATOM     22  C11 GNW d   1       7.697 -24.966 -17.326  0.00  0.00    -0.054 A 
ATOM     23  C10 GNW d   1       6.712 -25.431 -18.174  0.00  0.00     0.034 A 
ATOM     24  H5  GNW d   1       8.341 -25.664 -16.804  0.00  0.00     0.086 H 
ATOM     25  C9  GNW d   1       5.873 -24.580 -18.840  0.00  0.00    -0.062 A 
ATOM     26 CL1  GNW d   1       6.512 -27.131 -18.476  0.00  0.00    -0.084 Cl
ATOM     27  C8  GNW d   1       6.025 -23.243 -18.658  0.00  0.00    -0.081 A 
ATOM     28  H8  GNW d   1       5.103 -24.965 -19.499  0.00  0.00     0.086 H 
ATOM     29  C7  GNW d   1       6.969 -22.760 -17.793  0.00  0.00    -0.075 A 
ATOM     30  H7  GNW d   1       5.393 -22.552 -19.203  0.00  0.00     0.083 H 
ATOM     31  H6  GNW d   1       7.022 -21.693 -17.610  0.00  0.00     0.084 H 
ENDBRANCH  18  21
ENDBRANCH   2  18
TORSDOF 2
