REMARK  8 active torsions:
REMARK  status: ('A' for Active; 'I' for Inactive)
REMARK    1  A    between atoms: C14_17  and  C15_2 
REMARK    2  A    between atoms: C19_19  and  C20_3 
REMARK    3  A    between atoms: C26_7  and  O27_30 
REMARK    4  A    between atoms: C04_10  and  C02_9 
REMARK       I    between atoms: C02_9  and  N01_24 
REMARK    5  A    between atoms: C09_14  and  C08_13 
REMARK    6  A    between atoms: C08_13  and  N07_25 
REMARK    7  A    between atoms: O10_29  and  C09_14 
REMARK    8  A    between atoms: C11_15  and  O10_29 
ROOT
ATOM      1  C13 GON d   1     -45.902  10.666  -1.278  0.00  0.00    -0.065 A 
ATOM      2  C26 GON d   1     -45.469  12.815  -0.310  0.00  0.00     0.081 A 
ATOM      3  C28 GON d   1     -45.355  12.228   0.946  0.00  0.00    -0.018 A 
ATOM      4  C11 GON d   1     -45.520  10.859   1.089  0.00  0.00     0.071 A 
ATOM      5  C12 GON d   1     -45.792  10.085  -0.028  0.00  0.00    -0.050 A 
ATOM      6  C14 GON d   1     -45.751  12.035  -1.431  0.00  0.00     0.029 A 
ATOM      7  H1  GON d   1     -46.108  10.047  -2.144  0.00  0.00     0.085 H 
ATOM      8  H5  GON d   1     -45.137  12.841   1.813  0.00  0.00     0.092 H 
ATOM      9  H15 GON d   1     -45.920   9.014   0.079  0.00  0.00     0.087 H 
ENDROOT
BRANCH   4  10
ATOM     10  O10 GON d   1     -45.405  10.227   2.337  0.00  0.00    -0.349 OA
BRANCH  10  11
ATOM     11  C09 GON d   1     -45.947  10.876   3.451  0.00  0.00     0.049 C 
ATOM     12  H13 GON d   1     -45.388  11.799   3.663  0.00  0.00     0.077 H 
ATOM     13  H14 GON d   1     -47.005  11.120   3.272  0.00  0.00     0.077 H 
BRANCH  11  14
ATOM     14  C08 GON d   1     -45.819   9.897   4.623  0.00  0.00     0.103 C 
ATOM     15  H11 GON d   1     -44.780   9.538   4.646  0.00  0.00     0.079 H 
ATOM     16  H12 GON d   1     -46.495   9.051   4.427  0.00  0.00     0.079 H 
BRANCH  14  17
ATOM     17  N07 GON d   1     -46.084  10.334   5.728  0.00  0.00    -0.069 N 
ATOM     18  C06 GON d   1     -44.930  10.622   6.524  0.00  0.00     0.084 C 
ATOM     19  C05 GON d   1     -45.326  10.765   7.994  0.00  0.00    -0.031 C 
ATOM     20  H9  GON d   1     -44.204   9.802   6.421  0.00  0.00     0.076 H 
ATOM     21  H10 GON d   1     -44.474  11.561   6.177  0.00  0.00     0.076 H 
ATOM     22  C04 GON d   1     -46.471  11.621   8.238  0.00  0.00     0.026 C 
ATOM     23  H7  GON d   1     -45.559   9.763   8.384  0.00  0.00     0.036 H 
ATOM     24  H8  GON d   1     -44.466  11.180   8.540  0.00  0.00     0.036 H 
ATOM     25  C30 GON d   1     -47.534  11.542   7.255  0.00  0.00    -0.031 C 
ATOM     26  H6  GON d   1     -46.904  11.306   9.199  0.00  0.00     0.054 H 
ATOM     27  C29 GON d   1     -47.067  11.374   5.807  0.00  0.00     0.084 C 
ATOM     28  H21 GON d   1     -48.125  12.467   7.317  0.00  0.00     0.036 H 
ATOM     29  H22 GON d   1     -48.171  10.682   7.510  0.00  0.00     0.036 H 
ATOM     30  H19 GON d   1     -46.628  12.319   5.454  0.00  0.00     0.076 H 
ATOM     31  H20 GON d   1     -47.928  11.111   5.175  0.00  0.00     0.076 H 
ATOM     32  H25 GON d   1     -46.522   9.553   6.191  0.00  0.00     0.280 HD
BRANCH  22  33
ATOM     33  C02 GON d   1     -46.009  13.076   8.383  0.00  0.00     0.219 C 
ATOM     34  N01 GON d   1     -44.689  13.361   8.919  0.00  0.00    -0.370 N 
ATOM     35  H23 GON d   1     -44.382  14.308   9.016  0.00  0.00     0.159 HD
ATOM     36  H24 GON d   1     -44.087  12.610   9.191  0.00  0.00     0.159 HD
ATOM     37  O03 GON d   1     -46.730  13.966   8.075  0.00  0.00    -0.273 OA
ENDBRANCH  22  33
ENDBRANCH  14  17
ENDBRANCH  11  14
ENDBRANCH  10  11
ENDBRANCH   4  10
BRANCH   2  38
ATOM     38  O27 GON d   1     -45.301  14.203  -0.429  0.00  0.00    -0.360 OA
ATOM     39  H27 GON d   1     -45.116  14.573   0.426  0.00  0.00     0.217 HD
ENDBRANCH   2  38
BRANCH   6  40
ATOM     40  C15 GON d   1     -45.857  12.611  -2.694  0.00  0.00     0.102 A 
ATOM     41  C19 GON d   1     -46.793  12.340  -3.697  0.00  0.00     0.022 A 
ATOM     42  C18 GON d   1     -46.474  13.168  -4.765  0.00  0.00     0.009 A 
ATOM     43  N17 GON d   1     -45.420  13.887  -4.429  0.00  0.00    -0.288 N 
ATOM     44  H16 GON d   1     -47.003  13.216  -5.716  0.00  0.00     0.115 H 
ATOM     45  N16 GON d   1     -45.041  13.543  -3.167  0.00  0.00    -0.174 NA
ATOM     46  H26 GON d   1     -44.960  14.592  -5.023  0.00  0.00     0.188 HD
BRANCH  41  47
ATOM     47  C20 GON d   1     -47.853  11.431  -3.690  0.00  0.00    -0.022 A 
ATOM     48  C21 GON d   1     -47.888  10.410  -4.630  0.00  0.00    -0.072 A 
ATOM     49  C22 GON d   1     -48.933   9.499  -4.643  0.00  0.00    -0.082 A 
ATOM     50  H2  GON d   1     -47.091  10.324  -5.360  0.00  0.00     0.084 H 
ATOM     51  C23 GON d   1     -49.954   9.605  -3.714  0.00  0.00    -0.083 A 
ATOM     52  H3  GON d   1     -48.951   8.704  -5.380  0.00  0.00     0.083 H 
ATOM     53  C24 GON d   1     -49.923  10.625  -2.774  0.00  0.00    -0.082 A 
ATOM     54  H17 GON d   1     -50.773   8.895  -3.721  0.00  0.00     0.083 H 
ATOM     55  C25 GON d   1     -48.875  11.537  -2.762  0.00  0.00    -0.072 A 
ATOM     56  H4  GON d   1     -50.721  10.711  -2.045  0.00  0.00     0.083 H 
ATOM     57  H18 GON d   1     -48.858  12.332  -2.026  0.00  0.00     0.084 H 
ENDBRANCH  41  47
ENDBRANCH   6  40
TORSDOF 8
