REMARK  7 active torsions:
REMARK  status: ('A' for Active; 'I' for Inactive)
REMARK       I    between atoms: C2_10  and  N1_1 
REMARK    1  A    between atoms: N1_1  and  O4_11 
REMARK    2  A    between atoms: C8_4  and  C2_10 
REMARK    3  A    between atoms: C27_18  and  C18_17 
REMARK    4  A    between atoms: N29_19  and  C27_18 
REMARK    5  A    between atoms: C30_20  and  N29_19 
REMARK    6  A    between atoms: C31_21  and  C30_20 
REMARK    7  A    between atoms: N32_22  and  C44_29 
ROOT
ATOM      1  C5  GOK d   1     -15.735   5.753 -14.160  0.00  0.00     0.724 A 
ATOM      2  C8  GOK d   1     -16.466   6.805 -11.791  0.00  0.00     0.070 A 
ATOM      3  C9  GOK d   1     -17.382   6.526 -12.798  0.00  0.00     0.038 A 
ATOM      4  C14 GOK d   1     -13.963   4.991 -15.711  0.00  0.00     0.012 C 
ATOM      5  N15 GOK d   1     -15.362   5.263 -15.372  0.00  0.00    -0.214 N 
ATOM      6  C16 GOK d   1     -16.296   4.601 -16.289  0.00  0.00     0.012 C 
ATOM      7  N6  GOK d   1     -14.754   5.993 -13.274  0.00  0.00    -0.074 NA
ATOM      8  C7  GOK d   1     -15.143   6.519 -12.105  0.00  0.00     0.038 A 
ATOM      9  N10 GOK d   1     -17.046   5.987 -13.977  0.00  0.00    -0.074 NA
ATOM     10  C13 GOK d   1     -13.679   3.496 -15.748  0.00  0.00    -0.045 C 
ATOM     11  C17 GOK d   1     -16.053   3.090 -16.354  0.00  0.00    -0.045 C 
ATOM     12  C18 GOK d   1     -14.605   2.751 -16.702  0.00  0.00    -0.028 C 
ATOM     13  H2  GOK d   1     -18.426   6.757 -12.619  0.00  0.00     0.117 H 
ATOM     14  H3  GOK d   1     -13.315   5.460 -14.956  0.00  0.00     0.065 H 
ATOM     15  H4  GOK d   1     -13.745   5.421 -16.700  0.00  0.00     0.065 H 
ATOM     16  H5  GOK d   1     -16.168   5.026 -17.296  0.00  0.00     0.065 H 
ATOM     17  H6  GOK d   1     -17.324   4.782 -15.942  0.00  0.00     0.065 H 
ATOM     18  H8  GOK d   1     -14.383   6.734 -11.362  0.00  0.00     0.117 H 
ATOM     19  H9  GOK d   1     -13.811   3.086 -14.736  0.00  0.00     0.036 H 
ATOM     20  H10 GOK d   1     -12.639   3.342 -16.073  0.00  0.00     0.036 H 
ATOM     21  H11 GOK d   1     -16.712   2.658 -17.122  0.00  0.00     0.036 H 
ATOM     22  H12 GOK d   1     -16.294   2.650 -15.375  0.00  0.00     0.036 H 
ATOM     23  H13 GOK d   1     -14.390   3.028 -17.745  0.00  0.00     0.042 H 
ENDROOT
BRANCH  12  24
ATOM     24  C27 GOK d   1     -14.372   1.266 -16.486  0.00  0.00     0.085 C 
ATOM     25  H14 GOK d   1     -15.258   0.867 -15.971  0.00  0.00     0.076 H 
ATOM     26  H15 GOK d   1     -13.492   1.164 -15.834  0.00  0.00     0.076 H 
BRANCH  24  27
ATOM     27  N29 GOK d   1     -14.139   0.429 -17.668  0.00  0.00    -0.071 N 
ATOM     28  H16 GOK d   1     -13.931   1.041 -18.442  0.00  0.00     0.277 HD
ATOM     29  H17 GOK d   1     -14.989  -0.077 -17.859  0.00  0.00     0.277 HD
BRANCH  27  30
ATOM     30  C30 GOK d   1     -13.053  -0.546 -17.565  0.00  0.00     0.107 C 
ATOM     31  H18 GOK d   1     -12.098  -0.001 -17.593  0.00  0.00     0.083 H 
ATOM     32  H19 GOK d   1     -13.115  -1.222 -18.431  0.00  0.00     0.083 H 
BRANCH  30  33
ATOM     33  C31 GOK d   1     -13.079  -1.383 -16.313  0.00  0.00    -0.005 A 
ATOM     34  C33 GOK d   1     -12.035  -1.666 -15.488  0.00  0.00    -0.012 A 
ATOM     35  N32 GOK d   1     -12.452  -2.453 -14.442  0.00  0.00    -0.360 N 
ATOM     36  H20 GOK d   1     -11.014  -1.318 -15.636  0.00  0.00     0.112 H 
ATOM     37  C34 GOK d   1     -13.798  -2.708 -14.600  0.00  0.00     0.044 A 
ATOM     38  C35 GOK d   1     -14.227  -2.048 -15.756  0.00  0.00    -0.000 A 
ATOM     39  C39 GOK d   1     -14.662  -3.466 -13.824  0.00  0.00    -0.056 A 
ATOM     40  C36 GOK d   1     -15.565  -2.154 -16.134  0.00  0.00    -0.070 A 
ATOM     41  C37 GOK d   1     -16.437  -2.908 -15.361  0.00  0.00    -0.082 A 
ATOM     42  H21 GOK d   1     -15.922  -1.651 -17.026  0.00  0.00     0.084 H 
ATOM     43  C38 GOK d   1     -15.986  -3.559 -14.217  0.00  0.00    -0.081 A 
ATOM     44  H22 GOK d   1     -17.478  -2.990 -15.651  0.00  0.00     0.083 H 
ATOM     45  H23 GOK d   1     -16.680  -4.146 -13.626  0.00  0.00     0.083 H 
ATOM     46  H24 GOK d   1     -14.310  -3.973 -12.933  0.00  0.00     0.087 H 
BRANCH  35  47
ATOM     47  C44 GOK d   1     -11.629  -2.884 -13.320  0.00  0.00    -0.014 C 
ATOM     48  H25 GOK d   1     -12.232  -3.504 -12.640  0.00  0.00     0.057 H 
ATOM     49  H26 GOK d   1     -11.256  -2.002 -12.779  0.00  0.00     0.057 H 
ATOM     50  H27 GOK d   1     -10.778  -3.472 -13.694  0.00  0.00     0.057 H 
ENDBRANCH  35  47
ENDBRANCH  30  33
ENDBRANCH  27  30
ENDBRANCH  24  27
ENDBRANCH  12  24
BRANCH   2  51
ATOM     51  C2  GOK d   1     -16.893   7.263 -10.433  0.00  0.00     0.277 C 
ATOM     52  N1  GOK d   1     -16.183   6.788  -9.417  0.00  0.00    -0.233 N 
ATOM     53  H1  GOK d   1     -15.369   6.234  -9.593  0.00  0.00     0.197 HD
ATOM     54  O3  GOK d   1     -17.879   7.976 -10.280  0.00  0.00    -0.265 OA
BRANCH  52  55
ATOM     55  O4  GOK d   1     -16.568   7.058  -8.108  0.00  0.00    -0.287 OA
ATOM     56  H7  GOK d   1     -15.957   6.647  -7.508  0.00  0.00     0.244 HD
ENDBRANCH  52  55
ENDBRANCH   2  51
TORSDOF 7
