REMARK  5 active torsions:
REMARK  status: ('A' for Active; 'I' for Inactive)
REMARK    1  A    between atoms: C13_2  and  C15_3 
REMARK       I    between atoms: C13_2  and  N12_9 
REMARK    2  A    between atoms: N12_9  and  C11_10 
REMARK    3  A    between atoms: C02_11  and  C01_12 
REMARK    4  A    between atoms: C05_14  and  C06_17 
REMARK       I    between atoms: C06_17  and  N08_19 
REMARK    5  A    between atoms: N08_19  and  O09_20 
ROOT
ATOM      1  C11 GOW d   1      44.327  34.985  86.230  0.00  0.00     0.042 A 
ATOM      2  C02 GOW d   1      43.784  35.204  84.965  0.00  0.00    -0.035 A 
ATOM      3  C10 GOW d   1      45.263  33.974  86.410  0.00  0.00    -0.041 A 
ATOM      4  C05 GOW d   1      45.685  33.156  85.369  0.00  0.00     0.036 A 
ATOM      5  C04 GOW d   1      45.131  33.366  84.095  0.00  0.00    -0.067 A 
ATOM      6  C03 GOW d   1      44.188  34.388  83.902  0.00  0.00    -0.074 A 
ATOM      7  H10 GOW d   1      45.679  33.818  87.399  0.00  0.00     0.088 H 
ATOM      8  H11 GOW d   1      45.431  32.740  83.263  0.00  0.00     0.085 H 
ATOM      9  H12 GOW d   1      43.767  34.547  82.916  0.00  0.00     0.084 H 
ENDROOT
BRANCH   1  10
ATOM     10  N12 GOW d   1      44.018  35.710  87.426  0.00  0.00    -0.322 N 
ATOM     11  C13 GOW d   1      44.379  37.069  87.678  0.00  0.00     0.256 C 
ATOM     12  O14 GOW d   1      44.951  37.701  86.823  0.00  0.00    -0.267 OA
ATOM     13  H6  GOW d   1      43.510  35.227  88.140  0.00  0.00     0.169 HD
BRANCH  11  14
ATOM     14  C15 GOW d   1      44.075  37.682  89.008  0.00  0.00     0.032 A 
ATOM     15  C20 GOW d   1      45.022  38.520  89.585  0.00  0.00    -0.068 A 
ATOM     16  C19 GOW d   1      44.777  39.076  90.825  0.00  0.00    -0.082 A 
ATOM     17  H1  GOW d   1      45.948  38.736  89.064  0.00  0.00     0.085 H 
ATOM     18  C18 GOW d   1      43.595  38.787  91.503  0.00  0.00    -0.083 A 
ATOM     19  H2  GOW d   1      45.508  39.740  91.273  0.00  0.00     0.083 H 
ATOM     20  C17 GOW d   1      42.656  37.934  90.940  0.00  0.00    -0.082 A 
ATOM     21  H3  GOW d   1      43.408  39.230  92.474  0.00  0.00     0.083 H 
ATOM     22  C16 GOW d   1      42.907  37.378  89.698  0.00  0.00    -0.068 A 
ATOM     23  H4  GOW d   1      41.737  37.706  91.467  0.00  0.00     0.083 H 
ATOM     24  H5  GOW d   1      42.186  36.699  89.259  0.00  0.00     0.085 H 
ENDBRANCH  11  14
ENDBRANCH   1  10
BRANCH   2  25
ATOM     25  C01 GOW d   1      42.788  36.289  84.762  0.00  0.00    -0.049 C 
ATOM     26  H7  GOW d   1      42.477  36.308  83.707  0.00  0.00     0.033 H 
ATOM     27  H8  GOW d   1      43.240  37.256  85.029  0.00  0.00     0.033 H 
ATOM     28  H9  GOW d   1      41.911  36.106  85.400  0.00  0.00     0.033 H 
ENDBRANCH   2  25
BRANCH   4  29
ATOM     29  C06 GOW d   1      46.698  32.085  85.722  0.00  0.00     0.275 C 
ATOM     30  O07 GOW d   1      47.403  32.216  86.724  0.00  0.00    -0.265 OA
ATOM     31  N08 GOW d   1      46.864  30.873  84.967  0.00  0.00    -0.233 N 
ATOM     32  H13 GOW d   1      46.304  30.728  84.151  0.00  0.00     0.197 HD
BRANCH  31  33
ATOM     33  O09 GOW d   1      47.735  29.945  85.320  0.00  0.00    -0.287 OA
ATOM     34  H14 GOW d   1      47.697  29.225  84.701  0.00  0.00     0.244 HD
ENDBRANCH  31  33
ENDBRANCH   4  29
TORSDOF 5
