REMARK  20 active torsions:
REMARK  status: ('A' for Active; 'I' for Inactive)
REMARK    1  A    between atoms: C7_4  and  C6_3 
REMARK    2  A    between atoms: C8_5  and  C7_4 
REMARK    3  A    between atoms: N22_34  and  C8_5 
REMARK    4  A    between atoms: C8_5  and  C9_38 
REMARK    5  A    between atoms: C9_38  and  C10_6 
REMARK    6  A    between atoms: C10_6  and  C11_40 
REMARK    7  A    between atoms: C10_6  and  C12_41 
REMARK    8  A    between atoms: C10_6  and  O13_42 
REMARK    9  A    between atoms: C24_7  and  N25_22 
REMARK   10  A    between atoms: C24_7  and  C40_23 
REMARK   11  A    between atoms: C23_32  and  C24_7 
REMARK   12  A    between atoms: C26_8  and  C27_19 
REMARK       I    between atoms: N25_22  and  C26_8 
REMARK   13  A    between atoms: C30_15  and  N31_14 
REMARK   14  A    between atoms: C29_16  and  C30_15 
REMARK       I    between atoms: N28_18  and  C29_16 
REMARK   15  A    between atoms: C27_19  and  N28_18 
REMARK   16  A    between atoms: C27_19  and  C38_20 
REMARK   17  A    between atoms: C40_23  and  C41_24 
REMARK   18  A    between atoms: C44_27  and  O45_28 
REMARK   19  A    between atoms: O45_28  and  C46_29 
REMARK       I    between atoms: C23_32  and  N22_34 
REMARK   20  A    between atoms: C9_38  and  O21_39 
ROOT
ATOM      1  C24 GQK d   1      61.793-135.954  39.268  0.00  0.00     0.093 C 
ATOM      2  H6  GQK d   1      61.122-135.165  39.638  0.00  0.00     0.088 H 
ENDROOT
BRANCH   1   3
ATOM      3  N25 GQK d   1      62.089-135.722  37.837  0.00  0.00    -0.346 N 
ATOM      4  C26 GQK d   1      61.516-134.740  37.104  0.00  0.00     0.240 C 
ATOM      5  O39 GQK d   1      60.678-133.944  37.533  0.00  0.00    -0.271 OA
ATOM      6  H23 GQK d   1      62.749-136.324  37.387  0.00  0.00     0.163 HD
BRANCH   4   7
ATOM      7  C27 GQK d   1      61.987-134.661  35.634  0.00  0.00     0.086 C 
ATOM      8  H19 GQK d   1      62.351-135.651  35.324  0.00  0.00     0.086 H 
BRANCH   7   9
ATOM      9  N28 GQK d   1      60.847-134.284  34.776  0.00  0.00    -0.347 N 
ATOM     10  C29 GQK d   1      59.948-135.206  34.381  0.00  0.00     0.244 C 
ATOM     11  O37 GQK d   1      60.002-136.396  34.692  0.00  0.00    -0.272 OA
ATOM     12  H18 GQK d   1      60.741-133.333  34.485  0.00  0.00     0.163 HD
BRANCH  10  13
ATOM     13  C30 GQK d   1      58.785-134.707  33.507  0.00  0.00     0.156 C 
ATOM     14  H16 GQK d   1      58.908-133.637  33.286  0.00  0.00     0.090 H 
ATOM     15  H17 GQK d   1      58.747-135.274  32.565  0.00  0.00     0.090 H 
BRANCH  13  16
ATOM     16  N31 GQK d   1      57.558-134.926  34.279  0.00  0.00    -0.059 N 
ATOM     17  C36 GQK d   1      56.441-134.874  33.310  0.00  0.00     0.103 C 
ATOM     18  C35 GQK d   1      55.122-135.157  33.943  0.00  0.00     0.042 C 
ATOM     19  H7  GQK d   1      56.409-133.870  32.862  0.00  0.00     0.079 H 
ATOM     20  H8  GQK d   1      56.622-135.621  32.523  0.00  0.00     0.079 H 
ATOM     21  O34 GQK d   1      54.971-134.252  35.089  0.00  0.00    -0.388 OA
ATOM     22  H9  GQK d   1      55.087-136.202  34.284  0.00  0.00     0.076 H 
ATOM     23  H10 GQK d   1      54.314-134.981  33.218  0.00  0.00     0.076 H 
ATOM     24  C33 GQK d   1      56.059-134.298  36.026  0.00  0.00     0.042 C 
ATOM     25  C32 GQK d   1      57.324-133.915  35.349  0.00  0.00     0.103 C 
ATOM     26  H11 GQK d   1      56.154-135.318  36.426  0.00  0.00     0.076 H 
ATOM     27  H12 GQK d   1      55.860-133.598  36.851  0.00  0.00     0.076 H 
ATOM     28  H13 GQK d   1      58.157-133.924  36.068  0.00  0.00     0.079 H 
ATOM     29  H14 GQK d   1      57.230-132.911  34.909  0.00  0.00     0.079 H 
ATOM     30  H15 GQK d   1      57.599-135.838  34.707  0.00  0.00     0.280 HD
ENDBRANCH  13  16
ENDBRANCH  10  13
ENDBRANCH   7   9
BRANCH   7  31
ATOM     31  C38 GQK d   1      63.135-133.653  35.493  0.00  0.00    -0.049 C 
ATOM     32  H20 GQK d   1      63.971-133.956  36.141  0.00  0.00     0.030 H 
ATOM     33  H21 GQK d   1      62.784-132.654  35.790  0.00  0.00     0.030 H 
ATOM     34  H22 GQK d   1      63.474-133.627  34.447  0.00  0.00     0.030 H 
ENDBRANCH   7  31
ENDBRANCH   4   7
ENDBRANCH   1   3
BRANCH   1  35
ATOM     35  C40 GQK d   1      61.128-137.326  39.443  0.00  0.00    -0.014 C 
ATOM     36  H24 GQK d   1      61.209-137.627  40.498  0.00  0.00     0.043 H 
ATOM     37  H25 GQK d   1      61.653-138.058  38.811  0.00  0.00     0.043 H 
BRANCH  35  38
ATOM     38  C41 GQK d   1      59.779-137.307  39.083  0.00  0.00    -0.056 A 
ATOM     39  C48 GQK d   1      59.400-137.636  37.785  0.00  0.00    -0.074 A 
ATOM     40  C47 GQK d   1      58.053-137.634  37.414  0.00  0.00    -0.050 A 
ATOM     41  H26 GQK d   1      60.157-137.896  37.054  0.00  0.00     0.084 H 
ATOM     42  C44 GQK d   1      57.052-137.309  38.348  0.00  0.00     0.068 A 
ATOM     43  H27 GQK d   1      57.776-137.885  36.397  0.00  0.00     0.087 H 
ATOM     44  C43 GQK d   1      57.446-136.980  39.650  0.00  0.00    -0.050 A 
ATOM     45  C42 GQK d   1      58.794-136.985  40.021  0.00  0.00    -0.074 A 
ATOM     46  H31 GQK d   1      56.693-136.717  40.384  0.00  0.00     0.087 H 
ATOM     47  H32 GQK d   1      59.076-136.739  41.038  0.00  0.00     0.084 H 
BRANCH  42  48
ATOM     48  O45 GQK d   1      55.701-137.270  38.089  0.00  0.00    -0.356 OA
BRANCH  48  49
ATOM     49  C46 GQK d   1      54.698-136.980  39.089  0.00  0.00     0.010 C 
ATOM     50  H28 GQK d   1      53.700-137.011  38.627  0.00  0.00     0.066 H 
ATOM     51  H29 GQK d   1      54.877-135.979  39.509  0.00  0.00     0.066 H 
ATOM     52  H30 GQK d   1      54.753-137.730  39.892  0.00  0.00     0.066 H 
ENDBRANCH  48  49
ENDBRANCH  42  48
ENDBRANCH  35  38
ENDBRANCH   1  35
BRANCH   1  53
ATOM     53  C23 GQK d   1      63.108-135.945  40.078  0.00  0.00     0.241 C 
ATOM     54  O49 GQK d   1      64.180-136.176  39.514  0.00  0.00    -0.271 OA
ATOM     55  N22 GQK d   1      62.967-135.705  41.406  0.00  0.00    -0.352 N 
ATOM     56  H33 GQK d   1      62.047-135.539  41.760  0.00  0.00     0.163 HD
BRANCH  55  57
ATOM     57  C8  GQK d   1      64.100-135.675  42.361  0.00  0.00     0.043 C 
ATOM     58  H5  GQK d   1      65.035-135.822  41.801  0.00  0.00     0.077 H 
BRANCH  57  59
ATOM     59  C7  GQK d   1      64.151-134.313  43.056  0.00  0.00    -0.020 C 
ATOM     60  H3  GQK d   1      63.122-134.019  43.309  0.00  0.00     0.043 H 
ATOM     61  H4  GQK d   1      64.738-134.422  43.980  0.00  0.00     0.043 H 
BRANCH  59  62
ATOM     62  C6  GQK d   1      64.740-133.257  42.271  0.00  0.00    -0.056 A 
ATOM     63  C5  GQK d   1      65.436-133.393  41.048  0.00  0.00    -0.077 A 
ATOM     64  C4  GQK d   1      65.963-132.273  40.387  0.00  0.00    -0.082 A 
ATOM     65  H2  GQK d   1      65.565-134.378  40.614  0.00  0.00     0.084 H 
ATOM     66  C3  GQK d   1      65.830-130.987  40.911  0.00  0.00    -0.083 A 
ATOM     67  H1  GQK d   1      66.486-132.410  39.447  0.00  0.00     0.083 H 
ATOM     68  C2  GQK d   1      65.144-130.835  42.114  0.00  0.00    -0.082 A 
ATOM     69  H34 GQK d   1      66.249-130.130  40.396  0.00  0.00     0.083 H 
ATOM     70  C1  GQK d   1      64.617-131.953  42.779  0.00  0.00    -0.077 A 
ATOM     71  H35 GQK d   1      65.016-129.846  42.539  0.00  0.00     0.083 H 
ATOM     72  H36 GQK d   1      64.096-131.805  43.718  0.00  0.00     0.084 H 
ENDBRANCH  59  62
ENDBRANCH  57  59
BRANCH  57  73
ATOM     73  C9  GQK d   1      63.969-136.826  43.429  0.00  0.00     0.084 C 
ATOM     74  H37 GQK d   1      64.782-136.737  44.165  0.00  0.00     0.090 H 
BRANCH  73  75
ATOM     75  C10 GQK d   1      64.004-138.284  42.793  0.00  0.00     0.078 C 
BRANCH  75  76
ATOM     76  C11 GQK d   1      64.320-139.560  43.751  0.00  0.00    -0.046 C 
ATOM     77  H39 GQK d   1      64.305-140.482  43.151  0.00  0.00     0.031 H 
ATOM     78  H40 GQK d   1      63.557-139.624  44.540  0.00  0.00     0.031 H 
ATOM     79  H41 GQK d   1      65.312-139.437  44.210  0.00  0.00     0.031 H 
ENDBRANCH  75  76
BRANCH  75  80
ATOM     80  C12 GQK d   1      64.999-138.397  41.590  0.00  0.00    -0.046 C 
ATOM     81  H42 GQK d   1      64.836-137.557  40.899  0.00  0.00     0.031 H 
ATOM     82  H43 GQK d   1      64.828-139.346  41.060  0.00  0.00     0.031 H 
ATOM     83  H44 GQK d   1      66.033-138.368  41.965  0.00  0.00     0.031 H 
ENDBRANCH  75  80
BRANCH  75  84
ATOM     84  O13 GQK d   1      62.656-138.506  42.264  0.00  0.00    -0.388 OA
ATOM     85  H45 GQK d   1      62.039-138.558  42.984  0.00  0.00     0.210 HD
ENDBRANCH  75  84
ENDBRANCH  73  75
BRANCH  73  86
ATOM     86  O21 GQK d   1      62.688-136.634  44.067  0.00  0.00    -0.390 OA
ATOM     87  H38 GQK d   1      61.997-136.723  43.421  0.00  0.00     0.210 HD
ENDBRANCH  73  86
ENDBRANCH  57  73
ENDBRANCH  55  57
ENDBRANCH   1  53
TORSDOF 20
