REMARK  21 active torsions:
REMARK  status: ('A' for Active; 'I' for Inactive)
REMARK    1  A    between atoms: C7_2  and  C6_1 
REMARK    2  A    between atoms: C6_1  and  N51_34 
REMARK    3  A    between atoms: C6_1  and  C54_37 
REMARK       I    between atoms: N8_32  and  C7_2 
REMARK       I    between atoms: C10_3  and  N11_25 
REMARK    4  A    between atoms: C9_27  and  C10_3 
REMARK       I    between atoms: C13_4  and  N14_21 
REMARK    5  A    between atoms: C12_23  and  C13_4 
REMARK    6  A    between atoms: C15_5  and  C16_16 
REMARK    7  A    between atoms: C15_5  and  C25_17 
REMARK    8  A    between atoms: N14_21  and  C15_5 
REMARK    9  A    between atoms: C16_16  and  C17_6 
REMARK   10  A    between atoms: C20_7  and  C21_8 
REMARK   11  A    between atoms: C25_17  and  C26_10 
REMARK   12  A    between atoms: C26_10  and  S27_18 
REMARK   13  A    between atoms: S27_18  and  C28_11 
REMARK   14  A    between atoms: C12_23  and  C32_24 
REMARK   15  A    between atoms: N11_25  and  C12_23 
REMARK   16  A    between atoms: C9_27  and  C40_28 
REMARK   17  A    between atoms: C9_27  and  N8_32 
REMARK   18  A    between atoms: C40_28  and  C41_29 
REMARK   19  A    between atoms: C41_29  and  C42_30 
REMARK   20  A    between atoms: C41_29  and  C43_31 
REMARK   21  A    between atoms: C54_37  and  C55_38 
ROOT
ATOM      1  N51 GQH d   1      58.980-135.281  32.914  0.00  0.00    -0.100 NA
ATOM      2  N52 GQH d   1      58.541-135.316  32.087  0.00  0.00    -0.167 NA
ATOM      3  N53 GQH d   1      58.033-135.373  31.123  0.00  0.00     0.068 N 
ENDROOT
BRANCH   1   4
ATOM      4  C6  GQH d   1      58.855-134.184  33.898  0.00  0.00     0.145 C 
ATOM      5  H1  GQH d   1      58.834-133.196  33.414  0.00  0.00     0.095 H 
BRANCH   4   6
ATOM      6  C7  GQH d   1      60.133-134.512  34.652  0.00  0.00     0.246 C 
ATOM      7  N8  GQH d   1      61.028-133.543  34.822  0.00  0.00    -0.346 N 
ATOM      8  H34 GQH d   1      60.902-132.634  34.425  0.00  0.00     0.163 HD
ATOM      9  O44 GQH d   1      60.323-135.667  35.051  0.00  0.00    -0.271 OA
BRANCH   7  10
ATOM     10  C9  GQH d   1      62.207-133.878  35.622  0.00  0.00     0.089 C 
ATOM     11  H24 GQH d   1      62.623-134.840  35.289  0.00  0.00     0.087 H 
BRANCH  10  12
ATOM     12  C10 GQH d   1      61.654-133.992  37.037  0.00  0.00     0.241 C 
ATOM     13  N11 GQH d   1      62.153-135.018  37.731  0.00  0.00    -0.346 N 
ATOM     14  H23 GQH d   1      62.835-135.616  37.309  0.00  0.00     0.163 HD
ATOM     15  O39 GQH d   1      60.731-133.257  37.419  0.00  0.00    -0.271 OA
BRANCH  13  16
ATOM     16  C12 GQH d   1      61.713-135.277  39.102  0.00  0.00     0.086 C 
ATOM     17  H19 GQH d   1      61.221-134.379  39.503  0.00  0.00     0.086 H 
BRANCH  16  18
ATOM     18  C13 GQH d   1      62.949-135.593  39.939  0.00  0.00     0.240 C 
ATOM     19  N14 GQH d   1      62.956-134.943  41.104  0.00  0.00    -0.354 N 
ATOM     20  H18 GQH d   1      62.215-134.302  41.304  0.00  0.00     0.162 HD
ATOM     21  O31 GQH d   1      63.837-136.350  39.530  0.00  0.00    -0.271 OA
BRANCH  19  22
ATOM     22  C15 GQH d   1      64.013-135.136  42.100  0.00  0.00     0.017 C 
ATOM     23  H2  GQH d   1      64.974-135.274  41.583  0.00  0.00     0.073 H 
BRANCH  22  24
ATOM     24  C16 GQH d   1      64.113-133.833  42.964  0.00  0.00    -0.022 C 
ATOM     25  H14 GQH d   1      64.788-134.020  43.812  0.00  0.00     0.043 H 
ATOM     26  H15 GQH d   1      63.112-133.579  43.342  0.00  0.00     0.043 H 
BRANCH  24  27
ATOM     27  C17 GQH d   1      64.604-132.753  42.225  0.00  0.00    -0.056 A 
ATOM     28  C24 GQH d   1      65.186-132.831  40.940  0.00  0.00    -0.076 A 
ATOM     29  C23 GQH d   1      65.643-131.690  40.289  0.00  0.00    -0.071 A 
ATOM     30  H4  GQH d   1      65.278-133.795  40.454  0.00  0.00     0.084 H 
ATOM     31  C20 GQH d   1      65.554-130.440  40.889  0.00  0.00    -0.019 A 
ATOM     32  H13 GQH d   1      66.075-131.777  39.299  0.00  0.00     0.084 H 
ATOM     33  C19 GQH d   1      64.985-130.339  42.168  0.00  0.00    -0.071 A 
ATOM     34  C18 GQH d   1      64.517-131.486  42.822  0.00  0.00    -0.076 A 
ATOM     35  H11 GQH d   1      64.907-129.371  42.651  0.00  0.00     0.084 H 
ATOM     36  H10 GQH d   1      64.079-131.393  43.809  0.00  0.00     0.084 H 
BRANCH  31  37
ATOM     37  C21 GQH d   1      66.046-129.350  40.174  0.00  0.00     0.004 C 
ATOM     38  N22 GQH d   1      66.172-128.151  40.752  0.00  0.00    -0.311 NA
ATOM     39  H12 GQH d   1      66.529-127.371  40.222  0.00  0.00     0.186 HD
ATOM     40  H3  GQH d   1      66.332-129.476  39.131  0.00  0.00     0.115 H 
ENDBRANCH  31  37
ENDBRANCH  24  27
ENDBRANCH  22  24
BRANCH  22  41
ATOM     41  C25 GQH d   1      63.717-136.428  42.899  0.00  0.00    -0.034 C 
ATOM     42  H16 GQH d   1      64.296-136.415  43.834  0.00  0.00     0.037 H 
ATOM     43  H17 GQH d   1      64.011-137.300  42.297  0.00  0.00     0.037 H 
BRANCH  41  44
ATOM     44  C26 GQH d   1      62.208-136.528  43.236  0.00  0.00     0.030 C 
ATOM     45  H5  GQH d   1      61.644-136.083  42.403  0.00  0.00     0.056 H 
ATOM     46  H6  GQH d   1      62.026-135.948  44.153  0.00  0.00     0.056 H 
BRANCH  44  47
ATOM     47  S27 GQH d   1      61.575-138.220  43.505  0.00  0.00     0.140 S 
ATOM     48  O29 GQH d   1      60.067-138.162  43.246  0.00  0.00    -0.228 OA
ATOM     49  O30 GQH d   1      61.849-138.604  44.962  0.00  0.00    -0.228 OA
BRANCH  47  50
ATOM     50  C28 GQH d   1      62.197-139.482  42.394  0.00  0.00     0.015 C 
ATOM     51  H7  GQH d   1      61.747-140.452  42.652  0.00  0.00     0.048 H 
ATOM     52  H8  GQH d   1      63.291-139.548  42.490  0.00  0.00     0.048 H 
ATOM     53  H9  GQH d   1      61.935-139.220  41.358  0.00  0.00     0.048 H 
ENDBRANCH  47  50
ENDBRANCH  44  47
ENDBRANCH  41  44
ENDBRANCH  22  41
ENDBRANCH  19  22
ENDBRANCH  16  18
BRANCH  16  54
ATOM     54  C32 GQH d   1      60.720-136.442  39.138  0.00  0.00    -0.049 C 
ATOM     55  H20 GQH d   1      59.839-136.192  38.529  0.00  0.00     0.030 H 
ATOM     56  H21 GQH d   1      60.407-136.625  40.177  0.00  0.00     0.030 H 
ATOM     57  H22 GQH d   1      61.200-137.346  38.734  0.00  0.00     0.030 H 
ENDBRANCH  16  54
ENDBRANCH  13  16
ENDBRANCH  10  12
BRANCH  10  58
ATOM     58  C40 GQH d   1      63.315-132.827  35.574  0.00  0.00    -0.035 C 
ATOM     59  H25 GQH d   1      64.096-133.084  36.304  0.00  0.00     0.037 H 
ATOM     60  H26 GQH d   1      62.895-131.840  35.817  0.00  0.00     0.037 H 
BRANCH  58  61
ATOM     61  C41 GQH d   1      63.926-132.792  34.157  0.00  0.00    -0.059 C 
ATOM     62  H27 GQH d   1      63.106-132.682  33.432  0.00  0.00     0.038 H 
BRANCH  61  63
ATOM     63  C42 GQH d   1      64.855-131.567  34.026  0.00  0.00    -0.073 C 
ATOM     64  H28 GQH d   1      65.290-131.543  33.016  0.00  0.00     0.028 H 
ATOM     65  H29 GQH d   1      65.662-131.637  34.771  0.00  0.00     0.028 H 
ATOM     66  H30 GQH d   1      64.276-130.648  34.198  0.00  0.00     0.028 H 
ENDBRANCH  61  63
BRANCH  61  67
ATOM     67  C43 GQH d   1      64.681-134.106  33.824  0.00  0.00    -0.073 C 
ATOM     68  H31 GQH d   1      63.994-134.959  33.926  0.00  0.00     0.028 H 
ATOM     69  H32 GQH d   1      65.525-134.230  34.518  0.00  0.00     0.028 H 
ATOM     70  H33 GQH d   1      65.058-134.060  32.792  0.00  0.00     0.028 H 
ENDBRANCH  61  67
ENDBRANCH  58  61
ENDBRANCH  10  58
ENDBRANCH   7  10
ENDBRANCH   4   6
BRANCH   4  71
ATOM     71  C54 GQH d   1      57.747-134.282  34.990  0.00  0.00    -0.009 C 
ATOM     72  H35 GQH d   1      58.065-133.643  35.827  0.00  0.00     0.044 H 
ATOM     73  H36 GQH d   1      57.715-135.331  35.321  0.00  0.00     0.044 H 
BRANCH  71  74
ATOM     74  C55 GQH d   1      56.416-133.910  34.669  0.00  0.00    -0.056 A 
ATOM     75  C60 GQH d   1      55.575-133.464  35.709  0.00  0.00    -0.077 A 
ATOM     76  C59 GQH d   1      54.236-133.103  35.479  0.00  0.00    -0.082 A 
ATOM     77  H37 GQH d   1      55.972-133.398  36.715  0.00  0.00     0.084 H 
ATOM     78  C58 GQH d   1      53.694-133.189  34.192  0.00  0.00    -0.083 A 
ATOM     79  H38 GQH d   1      53.621-132.757  36.302  0.00  0.00     0.083 H 
ATOM     80  C57 GQH d   1      54.508-133.643  33.151  0.00  0.00    -0.082 A 
ATOM     81  H39 GQH d   1      52.663-132.909  34.006  0.00  0.00     0.083 H 
ATOM     82  C56 GQH d   1      55.844-134.003  33.387  0.00  0.00    -0.077 A 
ATOM     83  H40 GQH d   1      54.103-133.718  32.148  0.00  0.00     0.083 H 
ATOM     84  H41 GQH d   1      56.449-134.361  32.562  0.00  0.00     0.084 H 
ENDBRANCH  71  74
ENDBRANCH   4  71
ENDBRANCH   1   4
TORSDOF 21
