REMARK  7 active torsions:
REMARK  status: ('A' for Active; 'I' for Inactive)
REMARK    1  A    between atoms: C14_3  and  C16_2 
REMARK       I    between atoms: N13_7  and  C14_3 
REMARK    2  A    between atoms: C12_4  and  N13_7 
REMARK    3  A    between atoms: C06_8  and  C07_9 
REMARK       I    between atoms: C07_9  and  N09_10 
REMARK    4  A    between atoms: N09_10  and  O10_11 
REMARK    5  A    between atoms: C03_15  and  O02_16 
REMARK    6  A    between atoms: O02_16  and  C01_17 
REMARK    7  A    between atoms: C19_20  and  C20_22 
ROOT
ATOM      1  C14 GQN d   1      43.949  36.715  87.004  0.00  0.00     0.256 C 
ATOM      2  O15 GQN d   1      44.572  37.273  86.115  0.00  0.00    -0.267 OA
ATOM      3  N13 GQN d   1      43.395  35.503  86.793  0.00  0.00    -0.320 N 
ATOM      4  H3  GQN d   1      42.658  35.165  87.379  0.00  0.00     0.169 HD
ENDROOT
BRANCH   1   5
ATOM      5  C16 GQN d   1      43.898  37.484  88.300  0.00  0.00     0.032 A 
ATOM      6  C17 GQN d   1      42.722  37.765  88.997  0.00  0.00    -0.067 A 
ATOM      7  C18 GQN d   1      42.774  38.505  90.188  0.00  0.00    -0.071 A 
ATOM      8  H1  GQN d   1      41.770  37.412  88.619  0.00  0.00     0.085 H 
ATOM      9  C19 GQN d   1      43.994  38.984  90.678  0.00  0.00    -0.026 A 
ATOM     10  H13 GQN d   1      41.860  38.708  90.734  0.00  0.00     0.084 H 
ATOM     11  C26 GQN d   1      45.156  38.705  89.966  0.00  0.00    -0.071 A 
ATOM     12  C27 GQN d   1      45.105  37.967  88.790  0.00  0.00    -0.067 A 
ATOM     13  H12 GQN d   1      46.110  39.067  90.332  0.00  0.00     0.084 H 
ATOM     14  H11 GQN d   1      46.021  37.765  88.246  0.00  0.00     0.085 H 
BRANCH   9  15
ATOM     15  C20 GQN d   1      44.106  39.785  91.946  0.00  0.00    -0.026 A 
ATOM     16  C25 GQN d   1      42.972  40.102  92.709  0.00  0.00    -0.072 A 
ATOM     17  C24 GQN d   1      43.116  40.846  93.879  0.00  0.00    -0.082 A 
ATOM     18  H14 GQN d   1      41.990  39.770  92.391  0.00  0.00     0.084 H 
ATOM     19  C23 GQN d   1      44.390  41.266  94.277  0.00  0.00    -0.083 A 
ATOM     20  H15 GQN d   1      42.247  41.097  94.476  0.00  0.00     0.083 H 
ATOM     21  C22 GQN d   1      45.531  40.959  93.529  0.00  0.00    -0.082 A 
ATOM     22  H16 GQN d   1      44.495  41.844  95.188  0.00  0.00     0.083 H 
ATOM     23  C21 GQN d   1      45.381  40.217  92.359  0.00  0.00    -0.072 A 
ATOM     24  H17 GQN d   1      46.511  41.291  93.852  0.00  0.00     0.083 H 
ATOM     25  H18 GQN d   1      46.252  39.971  91.763  0.00  0.00     0.084 H 
ENDBRANCH   9  15
ENDBRANCH   1   5
BRANCH   3  26
ATOM     26  C12 GQN d   1      43.870  34.748  85.753  0.00  0.00     0.069 A 
ATOM     27  C11 GQN d   1      44.833  33.776  86.034  0.00  0.00    -0.039 A 
ATOM     28  C06 GQN d   1      45.390  32.998  85.016  0.00  0.00     0.036 A 
ATOM     29  H2  GQN d   1      45.153  33.623  87.058  0.00  0.00     0.088 H 
ATOM     30  C05 GQN d   1      44.967  33.170  83.704  0.00  0.00    -0.065 A 
ATOM     31  C04 GQN d   1      44.014  34.136  83.410  0.00  0.00    -0.048 A 
ATOM     32  H6  GQN d   1      45.379  32.553  82.914  0.00  0.00     0.085 H 
ATOM     33  C03 GQN d   1      43.468  34.929  84.415  0.00  0.00     0.095 A 
ATOM     34  H7  GQN d   1      43.691  34.274  82.385  0.00  0.00     0.087 H 
BRANCH  28  35
ATOM     35  C07 GQN d   1      46.383  31.913  85.338  0.00  0.00     0.275 C 
ATOM     36  N09 GQN d   1      46.275  30.795  84.605  0.00  0.00    -0.233 N 
ATOM     37  H4  GQN d   1      45.539  30.763  83.929  0.00  0.00     0.197 HD
ATOM     38  O08 GQN d   1      47.194  32.037  86.250  0.00  0.00    -0.265 OA
BRANCH  36  39
ATOM     39  O10 GQN d   1      47.098  29.672  84.701  0.00  0.00    -0.287 OA
ATOM     40  H5  GQN d   1      46.813  29.018  84.074  0.00  0.00     0.244 HD
ENDBRANCH  36  39
ENDBRANCH  28  35
BRANCH  33  41
ATOM     41  O02 GQN d   1      42.527  35.861  84.034  0.00  0.00    -0.354 OA
BRANCH  41  42
ATOM     42  C01 GQN d   1      41.129  35.650  84.312  0.00  0.00     0.010 C 
ATOM     43  H8  GQN d   1      40.547  36.502  83.931  0.00  0.00     0.066 H 
ATOM     44  H9  GQN d   1      40.980  35.561  85.398  0.00  0.00     0.066 H 
ATOM     45  H10 GQN d   1      40.792  34.726  83.819  0.00  0.00     0.066 H 
ENDBRANCH  41  42
ENDBRANCH  33  41
ENDBRANCH   3  26
TORSDOF 7
