REMARK  4 active torsions:
REMARK  status: ('A' for Active; 'I' for Inactive)
REMARK    1  A    between atoms: C1_1  and  C_11 
REMARK    2  A    between atoms: N1_8  and  C5_5 
REMARK    3  A    between atoms: C7_7  and  C6_6 
REMARK       I    between atoms: C6_6  and  N1_8 
REMARK       I    between atoms: C_11  and  N_10 
REMARK    4  A    between atoms: N_10  and  O1_20 
ROOT
ATOM      1  C6  GQW d   1      43.964  37.664  87.646  0.00  0.00     0.257 C 
ATOM      2  N1  GQW d   1      44.166  36.344  87.452  0.00  0.00    -0.321 N 
ATOM      3  O2  GQW d   1      44.124  38.514  86.777  0.00  0.00    -0.267 OA
ATOM      4  H3  GQW d   1      44.217  35.857  88.324  0.00  0.00     0.169 HD
ENDROOT
BRANCH   2   5
ATOM      5  C5  GQW d   1      44.326  35.452  86.362  0.00  0.00     0.057 A 
ATOM      6  C4  GQW d   1      43.907  35.741  85.057  0.00  0.00     0.060 A 
ATOM      7  C3  GQW d   1      44.334  34.981  83.981  0.00  0.00    -0.059 A 
ATOM      8 CL   GQW d   1      42.747  37.000  84.776  0.00  0.00    -0.082 Cl
ATOM      9  C2  GQW d   1      45.188  33.912  84.191  0.00  0.00    -0.066 A 
ATOM     10  H2  GQW d   1      44.001  35.222  82.978  0.00  0.00     0.086 H 
ATOM     11  C1  GQW d   1      45.614  33.596  85.480  0.00  0.00     0.036 A 
ATOM     12  H1  GQW d   1      45.527  33.318  83.350  0.00  0.00     0.085 H 
ATOM     13  C15 GQW d   1      45.159  34.355  86.554  0.00  0.00    -0.040 A 
ATOM     14  H9  GQW d   1      45.460  34.086  87.560  0.00  0.00     0.088 H 
BRANCH  11  15
ATOM     15  C   GQW d   1      46.595  32.540  85.873  0.00  0.00     0.275 C 
ATOM     16  N   GQW d   1      46.679  31.462  85.105  0.00  0.00    -0.233 N 
ATOM     17  H5  GQW d   1      46.216  31.433  84.219  0.00  0.00     0.197 HD
ATOM     18  O   GQW d   1      47.261  32.663  86.899  0.00  0.00    -0.265 OA
BRANCH  16  19
ATOM     19  O1  GQW d   1      47.421  30.371  85.549  0.00  0.00    -0.287 OA
ATOM     20  H11 GQW d   1      47.389  29.681  84.897  0.00  0.00     0.244 HD
ENDBRANCH  16  19
ENDBRANCH  11  15
ENDBRANCH   2   5
BRANCH   1  21
ATOM     21  C7  GQW d   1      43.603  38.051  89.047  0.00  0.00     0.050 A 
ATOM     22  C8  GQW d   1      42.414  37.567  89.588  0.00  0.00    -0.066 A 
ATOM     23  C9  GQW d   1      42.026  37.941  90.862  0.00  0.00    -0.081 A 
ATOM     24  H4  GQW d   1      41.791  36.895  89.009  0.00  0.00     0.085 H 
ATOM     25  C10 GQW d   1      42.806  38.805  91.613  0.00  0.00    -0.072 A 
ATOM     26  H10 GQW d   1      41.102  37.554  91.277  0.00  0.00     0.083 H 
ATOM     27  C11 GQW d   1      44.016  39.309  91.119  0.00  0.00    -0.018 A 
ATOM     28  H6  GQW d   1      42.473  39.097  92.603  0.00  0.00     0.084 H 
ATOM     29  C12 GQW d   1      44.996  40.169  91.711  0.00  0.00    -0.065 A 
ATOM     30  C14 GQW d   1      44.398  38.902  89.830  0.00  0.00     0.030 A 
ATOM     31  C13 GQW d   1      46.057  40.376  90.905  0.00  0.00    -0.043 A 
ATOM     32  H7  GQW d   1      44.895  40.608  92.703  0.00  0.00     0.085 H 
ATOM     33  S   GQW d   1      45.942  39.562  89.393  0.00  0.00    -0.100 SA
ATOM     34  H8  GQW d   1      46.906  40.999  91.184  0.00  0.00     0.095 H 
ENDBRANCH   1  21
TORSDOF 4
