REMARK  22 active torsions:
REMARK  status: ('A' for Active; 'I' for Inactive)
REMARK    1  A    between atoms: C7_3  and  C6_2 
REMARK       I    between atoms: N8_36  and  C7_3 
REMARK       I    between atoms: C10_4  and  N11_29 
REMARK    2  A    between atoms: C9_31  and  C10_4 
REMARK       I    between atoms: C13_5  and  N14_22 
REMARK    3  A    between atoms: C12_24  and  C13_5 
REMARK    4  A    between atoms: C15_6  and  C16_17 
REMARK    5  A    between atoms: C15_6  and  C25_18 
REMARK    6  A    between atoms: N14_22  and  C15_6 
REMARK    7  A    between atoms: C16_17  and  C17_7 
REMARK    8  A    between atoms: C20_8  and  C21_9 
REMARK    9  A    between atoms: C21_9  and  N22_15 
REMARK   10  A    between atoms: C25_18  and  C26_11 
REMARK   11  A    between atoms: C26_11  and  S27_19 
REMARK   12  A    between atoms: S27_19  and  C28_12 
REMARK   13  A    between atoms: C12_24  and  C32_25 
REMARK   14  A    between atoms: N11_29  and  C12_24 
REMARK   15  A    between atoms: C32_25  and  C33_26 
REMARK   16  A    between atoms: C33_26  and  C38_27 
REMARK   17  A    between atoms: C33_26  and  C34_28 
REMARK   18  A    between atoms: C9_31  and  C40_32 
REMARK   19  A    between atoms: C9_31  and  N8_36 
REMARK   20  A    between atoms: C40_32  and  C41_33 
REMARK   21  A    between atoms: C41_33  and  C43_34 
REMARK   22  A    between atoms: C41_33  and  C42_35 
ROOT
ATOM      1  C12 GQQ d   1      61.584-135.487  38.907  0.00  0.00     0.089 C 
ATOM      2  H22 GQQ d   1      61.077-134.565  39.228  0.00  0.00     0.087 H 
ENDROOT
BRANCH   1   3
ATOM      3  C13 GQQ d   1      62.842-135.686  39.727  0.00  0.00     0.240 C 
ATOM      4  N14 GQQ d   1      62.675-135.234  40.973  0.00  0.00    -0.354 N 
ATOM      5  H21 GQQ d   1      61.815-134.775  41.195  0.00  0.00     0.162 HD
ATOM      6  O31 GQQ d   1      63.822-136.296  39.299  0.00  0.00    -0.271 OA
BRANCH   4   7
ATOM      7  C15 GQQ d   1      63.674-135.370  42.030  0.00  0.00     0.017 C 
ATOM      8  H2  GQQ d   1      64.666-135.500  41.574  0.00  0.00     0.073 H 
BRANCH   7   9
ATOM      9  C16 GQQ d   1      63.696-134.060  42.877  0.00  0.00    -0.022 C 
ATOM     10  H17 GQQ d   1      64.275-134.244  43.794  0.00  0.00     0.043 H 
ATOM     11  H18 GQQ d   1      62.662-133.796  43.143  0.00  0.00     0.043 H 
BRANCH   9  12
ATOM     12  C17 GQQ d   1      64.266-132.992  42.201  0.00  0.00    -0.056 A 
ATOM     13  C24 GQQ d   1      64.951-133.061  40.970  0.00  0.00    -0.076 A 
ATOM     14  C23 GQQ d   1      65.490-131.926  40.385  0.00  0.00    -0.075 A 
ATOM     15  H5  GQQ d   1      65.058-134.018  40.473  0.00  0.00     0.084 H 
ATOM     16  C20 GQQ d   1      65.370-130.689  41.006  0.00  0.00    -0.033 A 
ATOM     17  H16 GQQ d   1      66.009-132.004  39.436  0.00  0.00     0.084 H 
ATOM     18  C19 GQQ d   1      64.702-130.596  42.238  0.00  0.00    -0.075 A 
ATOM     19  C18 GQQ d   1      64.155-131.740  42.821  0.00  0.00    -0.076 A 
ATOM     20  H12 GQQ d   1      64.611-129.637  42.735  0.00  0.00     0.084 H 
ATOM     21  H11 GQQ d   1      63.636-131.659  43.769  0.00  0.00     0.084 H 
BRANCH  16  22
ATOM     22  C21 GQQ d   1      65.942-129.587  40.370  0.00  0.00     0.103 C 
ATOM     23  H3  GQQ d   1      66.157-129.857  39.325  0.00  0.00     0.082 H 
ATOM     24  H4  GQQ d   1      66.881-129.333  40.884  0.00  0.00     0.082 H 
BRANCH  22  25
ATOM     25  N22 GQQ d   1      65.076-128.415  40.379  0.00  0.00    -0.075 N 
ATOM     26  H13 GQQ d   1      65.538-127.653  39.908  0.00  0.00     0.274 HD
ATOM     27  H14 GQQ d   1      64.878-128.151  41.331  0.00  0.00     0.274 HD
ATOM     28  H15 GQQ d   1      64.214-128.631  39.904  0.00  0.00     0.274 HD
ENDBRANCH  22  25
ENDBRANCH  16  22
ENDBRANCH   9  12
ENDBRANCH   7   9
BRANCH   7  29
ATOM     29  C25 GQQ d   1      63.353-136.636  42.858  0.00  0.00    -0.034 C 
ATOM     30  H19 GQQ d   1      63.973-136.631  43.767  0.00  0.00     0.037 H 
ATOM     31  H20 GQQ d   1      63.593-137.524  42.255  0.00  0.00     0.037 H 
BRANCH  29  32
ATOM     32  C26 GQQ d   1      61.864-136.703  43.271  0.00  0.00     0.030 C 
ATOM     33  H6  GQQ d   1      61.266-136.219  42.485  0.00  0.00     0.056 H 
ATOM     34  H7  GQQ d   1      61.743-136.153  44.216  0.00  0.00     0.056 H 
BRANCH  32  35
ATOM     35  S27 GQQ d   1      61.229-138.405  43.511  0.00  0.00     0.140 S 
ATOM     36  O29 GQQ d   1      59.761-138.291  43.923  0.00  0.00    -0.228 OA
ATOM     37  O30 GQQ d   1      61.992-139.114  44.612  0.00  0.00    -0.228 OA
BRANCH  35  38
ATOM     38  C28 GQQ d   1      61.314-139.424  42.051  0.00  0.00     0.015 C 
ATOM     39  H8  GQQ d   1      60.916-140.424  42.278  0.00  0.00     0.048 H 
ATOM     40  H9  GQQ d   1      62.361-139.512  41.725  0.00  0.00     0.048 H 
ATOM     41  H10 GQQ d   1      60.718-138.965  41.249  0.00  0.00     0.048 H 
ENDBRANCH  35  38
ENDBRANCH  32  35
ENDBRANCH  29  32
ENDBRANCH   7  29
ENDBRANCH   4   7
ENDBRANCH   1   3
BRANCH   1  42
ATOM     42  C32 GQQ d   1      60.730-136.726  39.279  0.00  0.00    -0.035 C 
ATOM     43  H23 GQQ d   1      60.471-136.656  40.346  0.00  0.00     0.037 H 
ATOM     44  H24 GQQ d   1      61.339-137.626  39.108  0.00  0.00     0.037 H 
BRANCH  42  45
ATOM     45  C33 GQQ d   1      59.420-136.873  38.476  0.00  0.00    -0.059 C 
ATOM     46  H25 GQQ d   1      59.665-137.054  37.419  0.00  0.00     0.038 H 
BRANCH  45  47
ATOM     47  C38 GQQ d   1      58.653-138.090  39.031  0.00  0.00    -0.073 C 
ATOM     48  H26 GQQ d   1      57.713-138.216  38.474  0.00  0.00     0.028 H 
ATOM     49  H27 GQQ d   1      58.429-137.928  40.096  0.00  0.00     0.028 H 
ATOM     50  H28 GQQ d   1      59.270-138.994  38.919  0.00  0.00     0.028 H 
ENDBRANCH  45  47
BRANCH  45  51
ATOM     51  C34 GQQ d   1      58.566-135.588  38.567  0.00  0.00    -0.073 C 
ATOM     52  H29 GQQ d   1      59.138-134.739  38.165  0.00  0.00     0.028 H 
ATOM     53  H30 GQQ d   1      58.309-135.392  39.618  0.00  0.00     0.028 H 
ATOM     54  H31 GQQ d   1      57.643-135.719  37.982  0.00  0.00     0.028 H 
ENDBRANCH  45  51
ENDBRANCH  42  45
ENDBRANCH   1  42
BRANCH   1  55
ATOM     55  N11 GQQ d   1      61.806-135.398  37.453  0.00  0.00    -0.346 N 
ATOM     56  C10 GQQ d   1      61.302-134.378  36.732  0.00  0.00     0.241 C 
ATOM     57  O39 GQQ d   1      60.644-133.450  37.198  0.00  0.00    -0.271 OA
ATOM     58  H32 GQQ d   1      62.340-136.107  36.993  0.00  0.00     0.163 HD
BRANCH  56  59
ATOM     59  C9  GQQ d   1      61.548-134.456  35.233  0.00  0.00     0.090 C 
ATOM     60  H33 GQQ d   1      62.093-135.383  35.000  0.00  0.00     0.087 H 
BRANCH  59  61
ATOM     61  C40 GQQ d   1      62.312-133.255  34.680  0.00  0.00    -0.035 C 
ATOM     62  H34 GQQ d   1      61.812-132.338  35.025  0.00  0.00     0.037 H 
ATOM     63  H35 GQQ d   1      62.279-133.299  33.581  0.00  0.00     0.037 H 
BRANCH  61  64
ATOM     64  C41 GQQ d   1      63.784-133.198  35.118  0.00  0.00    -0.059 C 
ATOM     65  H36 GQQ d   1      63.833-133.133  36.215  0.00  0.00     0.038 H 
BRANCH  64  66
ATOM     66  C43 GQQ d   1      64.414-131.934  34.502  0.00  0.00    -0.073 C 
ATOM     67  H37 GQQ d   1      65.471-131.868  34.800  0.00  0.00     0.028 H 
ATOM     68  H38 GQQ d   1      63.876-131.044  34.860  0.00  0.00     0.028 H 
ATOM     69  H39 GQQ d   1      64.345-131.987  33.405  0.00  0.00     0.028 H 
ENDBRANCH  64  66
BRANCH  64  70
ATOM     70  C42 GQQ d   1      64.550-134.453  34.663  0.00  0.00    -0.073 C 
ATOM     71  H40 GQQ d   1      64.089-135.346  35.110  0.00  0.00     0.028 H 
ATOM     72  H41 GQQ d   1      65.599-134.380  34.987  0.00  0.00     0.028 H 
ATOM     73  H42 GQQ d   1      64.510-134.530  33.566  0.00  0.00     0.028 H 
ENDBRANCH  64  70
ENDBRANCH  61  64
ENDBRANCH  59  61
BRANCH  59  74
ATOM     74  N8  GQQ d   1      60.252-134.435  34.573  0.00  0.00    -0.342 N 
ATOM     75  C7  GQQ d   1      59.599-135.564  34.292  0.00  0.00     0.272 C 
ATOM     76  O44 GQQ d   1      60.013-136.695  34.563  0.00  0.00    -0.266 OA
ATOM     77  H43 GQQ d   1      59.842-133.557  34.325  0.00  0.00     0.163 HD
BRANCH  75  78
ATOM     78  C6  GQQ d   1      58.394-135.354  33.630  0.00  0.00     0.141 A 
ATOM     79  N6  GQQ d   1      57.849-134.119  33.703  0.00  0.00    -0.253 NA
ATOM     80  C4  GQQ d   1      56.642-133.821  33.060  0.00  0.00     0.020 A 
ATOM     81  C3  GQQ d   1      55.994-134.822  32.317  0.00  0.00     0.019 A 
ATOM     82  H1  GQQ d   1      56.212-132.829  33.135  0.00  0.00     0.117 H 
ATOM     83  N2  GQQ d   1      56.563-136.119  32.233  0.00  0.00    -0.269 NA
ATOM     84  H44 GQQ d   1      55.062-134.604  31.809  0.00  0.00     0.117 H 
ATOM     85  C1  GQQ d   1      57.779-136.381  32.894  0.00  0.00     0.035 A 
ATOM     86  H45 GQQ d   1      58.235-137.363  32.836  0.00  0.00     0.118 H 
ENDBRANCH  75  78
ENDBRANCH  59  74
ENDBRANCH  56  59
ENDBRANCH   1  55
TORSDOF 22
