REMARK  22 active torsions:
REMARK  status: ('A' for Active; 'I' for Inactive)
REMARK    1  A    between atoms: C7_2  and  C6_1 
REMARK    2  A    between atoms: C6_1  and  N51_35 
REMARK    3  A    between atoms: C6_1  and  C54_38 
REMARK       I    between atoms: N8_33  and  C7_2 
REMARK       I    between atoms: C10_3  and  N11_26 
REMARK    4  A    between atoms: C9_28  and  C10_3 
REMARK       I    between atoms: C13_4  and  N14_21 
REMARK    5  A    between atoms: C12_23  and  C13_4 
REMARK    6  A    between atoms: C15_5  and  C16_16 
REMARK    7  A    between atoms: C15_5  and  C25_17 
REMARK    8  A    between atoms: N14_21  and  C15_5 
REMARK    9  A    between atoms: C16_16  and  C17_6 
REMARK   10  A    between atoms: C20_7  and  C21_8 
REMARK   11  A    between atoms: C25_17  and  C26_10 
REMARK   12  A    between atoms: C26_10  and  S27_18 
REMARK   13  A    between atoms: S27_18  and  C28_11 
REMARK   14  A    between atoms: C12_23  and  C32_24 
REMARK   15  A    between atoms: N11_26  and  C12_23 
REMARK   16  A    between atoms: C32_24  and  O33_25 
REMARK   17  A    between atoms: C9_28  and  C40_29 
REMARK   18  A    between atoms: C9_28  and  N8_33 
REMARK   19  A    between atoms: C40_29  and  C41_30 
REMARK   20  A    between atoms: C41_30  and  C42_31 
REMARK   21  A    between atoms: C41_30  and  C43_32 
REMARK   22  A    between atoms: C54_38  and  C55_39 
ROOT
ATOM      1  N51 GQT d   1      58.778-135.613  32.788  0.00  0.00    -0.100 NA
ATOM      2  N52 GQT d   1      58.752-135.253  31.766  0.00  0.00    -0.167 NA
ATOM      3  N53 GQT d   1      58.728-134.899  30.708  0.00  0.00     0.068 N 
ENDROOT
BRANCH   1   4
ATOM      4  C6  GQT d   1      58.958-134.604  33.846  0.00  0.00     0.145 C 
ATOM      5  H1  GQT d   1      59.018-133.597  33.406  0.00  0.00     0.095 H 
BRANCH   4   6
ATOM      6  C7  GQT d   1      60.239-134.981  34.561  0.00  0.00     0.246 C 
ATOM      7  N8  GQT d   1      60.997-133.959  34.976  0.00  0.00    -0.346 N 
ATOM      8  H34 GQT d   1      60.742-133.017  34.759  0.00  0.00     0.163 HD
ATOM      9  O44 GQT d   1      60.506-136.171  34.756  0.00  0.00    -0.271 OA
BRANCH   7  10
ATOM     10  C9  GQT d   1      62.202-134.242  35.750  0.00  0.00     0.089 C 
ATOM     11  H24 GQT d   1      62.686-135.141  35.341  0.00  0.00     0.087 H 
BRANCH  10  12
ATOM     12  C10 GQT d   1      61.743-134.519  37.175  0.00  0.00     0.241 C 
ATOM     13  N11 GQT d   1      62.458-135.456  37.807  0.00  0.00    -0.344 N 
ATOM     14  H23 GQT d   1      63.239-135.875  37.344  0.00  0.00     0.163 HD
ATOM     15  O39 GQT d   1      60.752-133.950  37.640  0.00  0.00    -0.271 OA
BRANCH  13  16
ATOM     16  C12 GQT d   1      62.115-135.876  39.161  0.00  0.00     0.109 C 
ATOM     17  H19 GQT d   1      61.388-135.174  39.596  0.00  0.00     0.090 H 
BRANCH  16  18
ATOM     18  C13 GQT d   1      63.377-135.908  40.015  0.00  0.00     0.242 C 
ATOM     19  N14 GQT d   1      63.174-135.461  41.257  0.00  0.00    -0.354 N 
ATOM     20  H18 GQT d   1      62.271-135.100  41.490  0.00  0.00     0.162 HD
ATOM     21  O31 GQT d   1      64.444-136.336  39.569  0.00  0.00    -0.271 OA
BRANCH  19  22
ATOM     22  C15 GQT d   1      64.211-135.473  42.298  0.00  0.00     0.017 C 
ATOM     23  H2  GQT d   1      65.202-135.506  41.822  0.00  0.00     0.073 H 
BRANCH  22  24
ATOM     24  C16 GQT d   1      64.123-134.193  43.165  0.00  0.00    -0.022 C 
ATOM     25  H14 GQT d   1      64.656-134.372  44.111  0.00  0.00     0.043 H 
ATOM     26  H15 GQT d   1      63.064-133.983  43.375  0.00  0.00     0.043 H 
BRANCH  24  27
ATOM     27  C17 GQT d   1      64.680-133.086  42.546  0.00  0.00    -0.056 A 
ATOM     28  C24 GQT d   1      65.671-133.116  41.546  0.00  0.00    -0.076 A 
ATOM     29  C23 GQT d   1      66.158-131.929  41.011  0.00  0.00    -0.071 A 
ATOM     30  H4  GQT d   1      66.055-134.066  41.193  0.00  0.00     0.084 H 
ATOM     31  C20 GQT d   1      65.692-130.697  41.444  0.00  0.00    -0.019 A 
ATOM     32  H13 GQT d   1      66.918-131.967  40.239  0.00  0.00     0.084 H 
ATOM     33  C19 GQT d   1      64.713-130.649  42.439  0.00  0.00    -0.071 A 
ATOM     34  C18 GQT d   1      64.217-131.835  42.985  0.00  0.00    -0.076 A 
ATOM     35  H11 GQT d   1      64.339-129.693  42.787  0.00  0.00     0.084 H 
ATOM     36  H10 GQT d   1      63.462-131.789  43.761  0.00  0.00     0.084 H 
BRANCH  31  37
ATOM     37  C21 GQT d   1      66.218-129.544  40.880  0.00  0.00     0.004 C 
ATOM     38  N22 GQT d   1      66.329-128.430  41.622  0.00  0.00    -0.311 NA
ATOM     39  H12 GQT d   1      66.711-127.590  41.216  0.00  0.00     0.186 HD
ATOM     40  H3  GQT d   1      66.540-129.542  39.840  0.00  0.00     0.115 H 
ENDBRANCH  31  37
ENDBRANCH  24  27
ENDBRANCH  22  24
BRANCH  22  41
ATOM     41  C25 GQT d   1      64.018-136.748  43.149  0.00  0.00    -0.034 C 
ATOM     42  H16 GQT d   1      64.724-136.736  43.992  0.00  0.00     0.037 H 
ATOM     43  H17 GQT d   1      64.205-137.636  42.527  0.00  0.00     0.037 H 
BRANCH  41  44
ATOM     44  C26 GQT d   1      62.572-136.794  43.689  0.00  0.00     0.030 C 
ATOM     45  H5  GQT d   1      61.949-136.115  43.089  0.00  0.00     0.056 H 
ATOM     46  H6  GQT d   1      62.575-136.459  44.737  0.00  0.00     0.056 H 
BRANCH  44  47
ATOM     47  S27 GQT d   1      61.854-138.474  43.611  0.00  0.00     0.140 S 
ATOM     48  O29 GQT d   1      60.341-138.310  43.481  0.00  0.00    -0.228 OA
ATOM     49  O30 GQT d   1      62.166-139.208  44.909  0.00  0.00    -0.228 OA
BRANCH  47  50
ATOM     50  C28 GQT d   1      62.424-139.452  42.216  0.00  0.00     0.015 C 
ATOM     51  H7  GQT d   1      61.947-140.443  42.243  0.00  0.00     0.048 H 
ATOM     52  H8  GQT d   1      63.516-139.570  42.272  0.00  0.00     0.048 H 
ATOM     53  H9  GQT d   1      62.158-138.943  41.278  0.00  0.00     0.048 H 
ENDBRANCH  47  50
ENDBRANCH  44  47
ENDBRANCH  41  44
ENDBRANCH  22  41
ENDBRANCH  19  22
ENDBRANCH  16  18
BRANCH  16  54
ATOM     54  C32 GQT d   1      61.509-137.294  39.110  0.00  0.00     0.044 C 
ATOM     55  H20 GQT d   1      61.993-137.919  39.874  0.00  0.00     0.077 H 
ATOM     56  H21 GQT d   1      61.689-137.726  38.115  0.00  0.00     0.077 H 
BRANCH  54  57
ATOM     57  O33 GQT d   1      60.096-137.261  39.358  0.00  0.00    -0.398 OA
ATOM     58  H22 GQT d   1      59.748-138.144  39.321  0.00  0.00     0.209 HD
ENDBRANCH  54  57
ENDBRANCH  16  54
ENDBRANCH  13  16
ENDBRANCH  10  12
BRANCH  10  59
ATOM     59  C40 GQT d   1      63.218-133.100  35.716  0.00  0.00    -0.035 C 
ATOM     60  H25 GQT d   1      63.617-132.905  36.722  0.00  0.00     0.037 H 
ATOM     61  H26 GQT d   1      62.759-132.183  35.319  0.00  0.00     0.037 H 
BRANCH  59  62
ATOM     62  C41 GQT d   1      64.347-133.609  34.763  0.00  0.00    -0.059 C 
ATOM     63  H27 GQT d   1      64.230-134.699  34.678  0.00  0.00     0.038 H 
BRANCH  62  64
ATOM     64  C42 GQT d   1      64.441-132.984  33.423  0.00  0.00    -0.073 C 
ATOM     65  H28 GQT d   1      65.274-133.436  32.865  0.00  0.00     0.028 H 
ATOM     66  H29 GQT d   1      64.618-131.904  33.534  0.00  0.00     0.028 H 
ATOM     67  H30 GQT d   1      63.501-133.148  32.875  0.00  0.00     0.028 H 
ENDBRANCH  62  64
BRANCH  62  68
ATOM     68  C43 GQT d   1      65.716-133.247  35.174  0.00  0.00    -0.073 C 
ATOM     69  H31 GQT d   1      65.904-133.619  36.192  0.00  0.00     0.028 H 
ATOM     70  H32 GQT d   1      65.826-132.153  35.157  0.00  0.00     0.028 H 
ATOM     71  H33 GQT d   1      66.439-133.699  34.479  0.00  0.00     0.028 H 
ENDBRANCH  62  68
ENDBRANCH  59  62
ENDBRANCH  10  59
ENDBRANCH   7  10
ENDBRANCH   4   6
BRANCH   4  72
ATOM     72  C54 GQT d   1      57.850-134.654  34.920  0.00  0.00    -0.009 C 
ATOM     73  H35 GQT d   1      58.110-133.938  35.713  0.00  0.00     0.044 H 
ATOM     74  H36 GQT d   1      57.825-135.671  35.338  0.00  0.00     0.044 H 
BRANCH  72  75
ATOM     75  C55 GQT d   1      56.557-134.340  34.452  0.00  0.00    -0.056 A 
ATOM     76  C60 GQT d   1      55.865-133.233  34.972  0.00  0.00    -0.077 A 
ATOM     77  C59 GQT d   1      54.574-132.922  34.525  0.00  0.00    -0.082 A 
ATOM     78  H37 GQT d   1      56.335-132.613  35.727  0.00  0.00     0.084 H 
ATOM     79  C58 GQT d   1      53.951-133.717  33.559  0.00  0.00    -0.083 A 
ATOM     80  H38 GQT d   1      54.056-132.060  34.930  0.00  0.00     0.083 H 
ATOM     81  C57 GQT d   1      54.626-134.827  33.043  0.00  0.00    -0.082 A 
ATOM     82  H39 GQT d   1      52.953-133.475  33.213  0.00  0.00     0.083 H 
ATOM     83  C56 GQT d   1      55.913-135.140  33.491  0.00  0.00    -0.077 A 
ATOM     84  H40 GQT d   1      54.150-135.448  32.293  0.00  0.00     0.083 H 
ATOM     85  H41 GQT d   1      56.421-136.011  33.092  0.00  0.00     0.084 H 
ENDBRANCH  72  75
ENDBRANCH   4  72
ENDBRANCH   1   4
TORSDOF 22
