REMARK  4 active torsions:
REMARK  status: ('A' for Active; 'I' for Inactive)
REMARK    1  A    between atoms: C10_1  and  C15_6 
REMARK    2  A    between atoms: C8_15  and  C12_3 
REMARK       I    between atoms: C15_6  and  N16_17 
REMARK    3  A    between atoms: N16_17  and  O17_7 
REMARK    4  A    between atoms: N7_14  and  C2_9 
REMARK       I    between atoms: N7_14  and  C8_15 
ROOT
ATOM      1  C10 GQZ d   1      45.447  33.934  85.577  0.00  0.00     0.035 A 
ATOM      2  C11 GQZ d   1      45.238  34.991  86.461  0.00  0.00    -0.052 A 
ATOM      3  C12 GQZ d   1      44.441  36.071  86.096  0.00  0.00     0.033 A 
ATOM      4  C13 GQZ d   1      43.828  36.077  84.843  0.00  0.00    -0.068 A 
ATOM      5  C14 GQZ d   1      44.034  35.031  83.960  0.00  0.00    -0.081 A 
ATOM      6  C9  GQZ d   1      44.845  33.967  84.320  0.00  0.00    -0.068 A 
ATOM      7  H1  GQZ d   1      45.700  34.971  87.441  0.00  0.00     0.086 H 
ATOM      8  H2  GQZ d   1      43.188  36.904  84.559  0.00  0.00     0.085 H 
ATOM      9  H3  GQZ d   1      43.560  35.044  82.985  0.00  0.00     0.083 H 
ATOM     10  H11 GQZ d   1      45.012  33.156  83.621  0.00  0.00     0.085 H 
ENDROOT
BRANCH   3  11
ATOM     11  C8  GQZ d   1      44.311  37.244  87.015  0.00  0.00     0.256 C 
ATOM     12  N7  GQZ d   1      44.260  36.959  88.335  0.00  0.00    -0.323 N 
ATOM     13  H10 GQZ d   1      44.281  35.992  88.591  0.00  0.00     0.169 HD
ATOM     14  O18 GQZ d   1      44.281  38.391  86.579  0.00  0.00    -0.267 OA
BRANCH  12  15
ATOM     15  C2  GQZ d   1      44.180  37.900  89.390  0.00  0.00     0.035 A 
ATOM     16  C1  GQZ d   1      45.205  38.816  89.592  0.00  0.00    -0.057 A 
ATOM     17  C6  GQZ d   1      45.124  39.723  90.635  0.00  0.00    -0.081 A 
ATOM     18  H5  GQZ d   1      46.067  38.821  88.934  0.00  0.00     0.086 H 
ATOM     19  C5  GQZ d   1      44.034  39.722  91.476  0.00  0.00    -0.083 A 
ATOM     20  H9  GQZ d   1      45.924  40.438  90.790  0.00  0.00     0.083 H 
ATOM     21  C4  GQZ d   1      43.014  38.817  91.276  0.00  0.00    -0.081 A 
ATOM     22  H8  GQZ d   1      43.978  40.431  92.294  0.00  0.00     0.083 H 
ATOM     23  C3  GQZ d   1      43.079  37.906  90.235  0.00  0.00    -0.057 A 
ATOM     24  H7  GQZ d   1      42.155  38.818  91.938  0.00  0.00     0.083 H 
ATOM     25  H6  GQZ d   1      42.272  37.199  90.081  0.00  0.00     0.086 H 
ENDBRANCH  12  15
ENDBRANCH   3  11
BRANCH   1  26
ATOM     26  C15 GQZ d   1      46.309  32.780  85.991  0.00  0.00     0.275 C 
ATOM     27  N16 GQZ d   1      46.398  31.759  85.150  0.00  0.00    -0.233 N 
ATOM     28  H12 GQZ d   1      45.898  31.767  84.284  0.00  0.00     0.197 HD
ATOM     29  O19 GQZ d   1      46.901  32.782  87.070  0.00  0.00    -0.265 OA
BRANCH  27  30
ATOM     30  O17 GQZ d   1      47.202  30.673  85.495  0.00  0.00    -0.287 OA
ATOM     31  H4  GQZ d   1      47.169  30.023  84.803  0.00  0.00     0.244 HD
ENDBRANCH  27  30
ENDBRANCH   1  26
TORSDOF 4
