REMARK  7 active torsions:
REMARK  status: ('A' for Active; 'I' for Inactive)
REMARK    1  A    between atoms: C8_1  and  O11_20 
REMARK    2  A    between atoms: C5_2  and  C3_14 
REMARK    3  A    between atoms: O11_20  and  C12_5 
REMARK    4  A    between atoms: C14_6  and  C16_7 
REMARK       I    between atoms: N13_17  and  C14_6 
REMARK    5  A    between atoms: C16_7  and  C17_8 
REMARK       I    between atoms: C3_14  and  N2_18 
REMARK    6  A    between atoms: C9_16  and  N13_17 
REMARK    7  A    between atoms: N2_18  and  O1_19 
ROOT
ATOM      1  C8  GRK d   1      43.303  35.825  84.748  0.00  0.00     0.095 A 
ATOM      2  C5  GRK d   1      45.251  34.045  85.624  0.00  0.00     0.036 A 
ATOM      3  C6  GRK d   1      44.838  34.050  84.292  0.00  0.00    -0.065 A 
ATOM      4  C10 GRK d   1      44.703  34.963  86.517  0.00  0.00    -0.039 A 
ATOM      5  C7  GRK d   1      43.865  34.930  83.853  0.00  0.00    -0.048 A 
ATOM      6  C9  GRK d   1      43.725  35.856  86.086  0.00  0.00     0.069 A 
ATOM      7  H1  GRK d   1      45.285  33.355  83.591  0.00  0.00     0.085 H 
ATOM      8  H2  GRK d   1      45.038  34.982  87.548  0.00  0.00     0.088 H 
ATOM      9  H13 GRK d   1      43.545  34.919  82.817  0.00  0.00     0.087 H 
ENDROOT
BRANCH   6  10
ATOM     10  N13 GRK d   1      43.093  36.785  86.944  0.00  0.00    -0.325 N 
ATOM     11  C14 GRK d   1      43.657  37.779  87.662  0.00  0.00     0.226 C 
ATOM     12  O15 GRK d   1      44.842  38.088  87.583  0.00  0.00    -0.273 OA
ATOM     13  H14 GRK d   1      42.101  36.694  87.030  0.00  0.00     0.169 HD
BRANCH  11  14
ATOM     14  C16 GRK d   1      42.707  38.487  88.608  0.00  0.00     0.033 C 
ATOM     15  H6  GRK d   1      42.204  37.731  89.229  0.00  0.00     0.054 H 
ATOM     16  H7  GRK d   1      41.958  39.029  88.011  0.00  0.00     0.054 H 
BRANCH  14  17
ATOM     17  C17 GRK d   1      43.402  39.474  89.519  0.00  0.00    -0.050 A 
ATOM     18  C18 GRK d   1      43.244  40.841  89.335  0.00  0.00    -0.076 A 
ATOM     19  C19 GRK d   1      43.910  41.747  90.144  0.00  0.00    -0.082 A 
ATOM     20  H8  GRK d   1      42.592  41.204  88.549  0.00  0.00     0.084 H 
ATOM     21  C20 GRK d   1      44.741  41.299  91.149  0.00  0.00    -0.083 A 
ATOM     22  H9  GRK d   1      43.778  42.811  89.987  0.00  0.00     0.083 H 
ATOM     23  C21 GRK d   1      44.900  39.944  91.347  0.00  0.00    -0.082 A 
ATOM     24  H10 GRK d   1      45.266  42.008  91.779  0.00  0.00     0.083 H 
ATOM     25  C22 GRK d   1      44.234  39.037  90.540  0.00  0.00    -0.076 A 
ATOM     26  H11 GRK d   1      45.549  39.587  92.138  0.00  0.00     0.083 H 
ATOM     27  H12 GRK d   1      44.364  37.974  90.708  0.00  0.00     0.084 H 
ENDBRANCH  14  17
ENDBRANCH  11  14
ENDBRANCH   6  10
BRANCH   1  28
ATOM     28  O11 GRK d   1      42.303  36.702  84.439  0.00  0.00    -0.354 OA
BRANCH  28  29
ATOM     29  C12 GRK d   1      41.809  36.692  83.099  0.00  0.00     0.010 C 
ATOM     30  H3  GRK d   1      41.013  37.444  82.996  0.00  0.00     0.066 H 
ATOM     31  H4  GRK d   1      41.405  35.696  82.864  0.00  0.00     0.066 H 
ATOM     32  H5  GRK d   1      42.628  36.928  82.404  0.00  0.00     0.066 H 
ENDBRANCH  28  29
ENDBRANCH   1  28
BRANCH   2  33
ATOM     33  C3  GRK d   1      46.194  32.983  86.094  0.00  0.00     0.275 C 
ATOM     34  N2  GRK d   1      46.321  31.961  85.250  0.00  0.00    -0.233 N 
ATOM     35  H15 GRK d   1      45.927  32.035  84.334  0.00  0.00     0.197 HD
ATOM     36  O4  GRK d   1      46.753  33.051  87.191  0.00  0.00    -0.265 OA
BRANCH  34  37
ATOM     37  O1  GRK d   1      46.988  30.790  85.607  0.00  0.00    -0.287 OA
ATOM     38  H16 GRK d   1      46.973  30.183  84.876  0.00  0.00     0.244 HD
ENDBRANCH  34  37
ENDBRANCH   2  33
TORSDOF 7
