REMARK  5 active torsions:
REMARK  status: ('A' for Active; 'I' for Inactive)
REMARK    1  A    between atoms: C12_9  and  C1_3 
REMARK    2  A    between atoms: C17_14  and  N13_10 
REMARK    3  A    between atoms: C15_12  and  C26_20 
REMARK    4  A    between atoms: C18_15  and  O24_18 
REMARK    5  A    between atoms: O24_18  and  C25_19 
REMARK       I    between atoms: C26_20  and  N27_21 
ROOT
ATOM      1  C14 T86 d   1      45.151  33.851  84.031  0.00  0.00    -0.065 A 
ATOM      2  C15 T86 d   1      45.618  33.722  85.354  0.00  0.00     0.038 A 
ATOM      3  C16 T86 d   1      45.145  34.578  86.349  0.00  0.00    -0.039 A 
ATOM      4  C17 T86 d   1      44.187  35.553  85.996  0.00  0.00     0.068 A 
ATOM      5  C18 T86 d   1      43.763  35.676  84.667  0.00  0.00     0.095 A 
ATOM      6  C19 T86 d   1      44.236  34.823  83.686  0.00  0.00    -0.048 A 
ATOM      7  H5  T86 d   1      45.518  33.173  83.269  0.00  0.00     0.085 H 
ATOM      8  H6  T86 d   1      45.504  34.496  87.368  0.00  0.00     0.088 H 
ATOM      9  H7  T86 d   1      43.893  34.917  82.662  0.00  0.00     0.087 H 
ENDROOT
BRANCH   4  10
ATOM     10  N13 T86 d   1      43.569  36.342  87.021  0.00  0.00    -0.332 N 
ATOM     11  C12 T86 d   1      44.168  37.460  87.421  0.00  0.00     0.191 C 
ATOM     12  O23 T86 d   1      44.818  38.280  86.629  0.00  0.00    -0.171 OA
ATOM     13  H4  T86 d   1      42.702  36.056  87.429  0.00  0.00     0.168 HD
BRANCH  11  14
ATOM     14  C1  T86 d   1      43.716  38.133  88.720  0.00  0.00     0.040 A 
ATOM     15  C2  T86 d   1      44.481  38.944  89.561  0.00  0.00     0.050 A 
ATOM     16 CL2  T86 d   1      46.134  39.274  89.178  0.00  0.00    -0.083 Cl
ATOM     17  C3  T86 d   1      43.960  39.499  90.713  0.00  0.00    -0.040 A 
ATOM     18  C4  T86 d   1      42.650  39.232  91.042  0.00  0.00     0.035 A 
ATOM     19  H1  T86 d   1      44.571  40.133  91.346  0.00  0.00     0.088 H 
ATOM     20 CL1  T86 d   1      41.989  39.929  92.498  0.00  0.00    -0.084 Cl
ATOM     21  C5  T86 d   1      41.852  38.434  90.251  0.00  0.00    -0.061 A 
ATOM     22  C6  T86 d   1      42.377  37.886  89.093  0.00  0.00    -0.066 A 
ATOM     23  H2  T86 d   1      40.824  38.237  90.533  0.00  0.00     0.086 H 
ATOM     24  H3  T86 d   1      41.753  37.260  88.466  0.00  0.00     0.085 H 
ENDBRANCH  11  14
ENDBRANCH   4  10
BRANCH   5  25
ATOM     25  O24 T86 d   1      42.865  36.706  84.403  0.00  0.00    -0.354 OA
BRANCH  25  26
ATOM     26  C25 T86 d   1      42.299  37.088  83.300  0.00  0.00     0.010 C 
ATOM     27  H8  T86 d   1      41.646  37.950  83.502  0.00  0.00     0.066 H 
ATOM     28  H9  T86 d   1      41.700  36.262  82.890  0.00  0.00     0.066 H 
ATOM     29  H10 T86 d   1      43.072  37.377  82.572  0.00  0.00     0.066 H 
ENDBRANCH  25  26
ENDBRANCH   5  25
BRANCH   2  30
ATOM     30  C26 T86 d   1      46.555  32.676  85.844  0.00  0.00     0.302 C 
ATOM     31  N27 T86 d   1      47.027  31.556  84.891  0.00  0.00    -0.054 NA
ATOM     32  O28 T86 d   1      47.182  30.421  85.310  0.00  0.00    -0.058 OA
ATOM     33  O29 T86 d   1      47.017  32.653  86.965  0.00  0.00    -0.263 OA
ENDBRANCH   2  30
TORSDOF 5
