REMARK  6 active torsions:
REMARK  status: ('A' for Active; 'I' for Inactive)
REMARK    1  A    between atoms: O1_1  and  N2_2 
REMARK       I    between atoms: N2_2  and  C3_3 
REMARK    2  A    between atoms: C3_3  and  C5_5 
REMARK    3  A    between atoms: C8_8  and  C11_11 
REMARK    4  A    between atoms: C9_9  and  N12_12 
REMARK    5  A    between atoms: N12_12  and  C13_13 
REMARK    6  A    between atoms: C13_13  and  C14_14 
ROOT
ATOM      1  C5  T34 d   1      45.259  33.961  85.611  0.00  0.00     0.036 A 
ATOM      2  C6  T34 d   1      44.696  33.854  84.345  0.00  0.00    -0.067 A 
ATOM      3  C7  T34 d   1      43.745  34.762  83.920  0.00  0.00    -0.074 A 
ATOM      4  C8  T34 d   1      43.316  35.810  84.732  0.00  0.00    -0.036 A 
ATOM      5  C9  T34 d   1      43.905  35.936  86.002  0.00  0.00     0.035 A 
ATOM      6  C10 T34 d   1      44.867  35.015  86.433  0.00  0.00    -0.042 A 
ATOM      7  H3  T34 d   1      45.005  33.051  83.685  0.00  0.00     0.085 H 
ATOM      8  H4  T34 d   1      43.321  34.656  82.928  0.00  0.00     0.084 H 
ATOM      9  H5  T34 d   1      45.311  35.123  87.416  0.00  0.00     0.088 H 
ENDROOT
BRANCH   5  10
ATOM     10  N12 T34 d   1      43.520  36.980  86.816  0.00  0.00    -0.385 N 
ATOM     11  H9  T34 d   1      42.816  37.655  86.486  0.00  0.00     0.160 HD
BRANCH  10  12
ATOM     12  C13 T34 d   1      44.104  37.132  88.138  0.00  0.00     0.016 C 
ATOM     13  H10 T34 d   1      45.164  36.844  88.087  0.00  0.00     0.071 H 
ATOM     14  H11 T34 d   1      43.575  36.463  88.833  0.00  0.00     0.071 H 
BRANCH  12  15
ATOM     15  C14 T34 d   1      44.014  38.540  88.666  0.00  0.00    -0.041 A 
ATOM     16  C15 T34 d   1      45.122  39.159  89.229  0.00  0.00    -0.075 A 
ATOM     17  C16 T34 d   1      45.041  40.455  89.710  0.00  0.00    -0.082 A 
ATOM     18  H12 T34 d   1      46.061  38.622  89.293  0.00  0.00     0.084 H 
ATOM     19  C17 T34 d   1      43.849  41.147  89.639  0.00  0.00    -0.083 A 
ATOM     20  H13 T34 d   1      45.916  40.927  90.143  0.00  0.00     0.083 H 
ATOM     21  C18 T34 d   1      42.738  40.540  89.088  0.00  0.00    -0.082 A 
ATOM     22  H14 T34 d   1      43.785  42.162  90.014  0.00  0.00     0.083 H 
ATOM     23  C19 T34 d   1      42.821  39.247  88.601  0.00  0.00    -0.075 A 
ATOM     24  H15 T34 d   1      41.798  41.078  89.037  0.00  0.00     0.083 H 
ATOM     25  H16 T34 d   1      41.945  38.781  88.164  0.00  0.00     0.084 H 
ENDBRANCH  12  15
ENDBRANCH  10  12
ENDBRANCH   5  10
BRANCH   4  26
ATOM     26  C11 T34 d   1      42.223  36.741  84.271  0.00  0.00    -0.049 C 
ATOM     27  H6  T34 d   1      41.910  36.464  83.254  0.00  0.00     0.033 H 
ATOM     28  H7  T34 d   1      42.598  37.775  84.270  0.00  0.00     0.033 H 
ATOM     29  H8  T34 d   1      41.363  36.663  84.953  0.00  0.00     0.033 H 
ENDBRANCH   4  26
BRANCH   1  30
ATOM     30  C3  T34 d   1      46.217  32.910  86.088  0.00  0.00     0.275 C 
ATOM     31  N2  T34 d   1      46.400  31.879  85.269  0.00  0.00    -0.233 N 
ATOM     32  H2  T34 d   1      45.977  31.882  84.363  0.00  0.00     0.197 HD
ATOM     33  O4  T34 d   1      46.774  32.995  87.182  0.00  0.00    -0.265 OA
BRANCH  31  34
ATOM     34  O1  T34 d   1      47.179  30.794  85.668  0.00  0.00    -0.287 OA
ATOM     35  H1  T34 d   1      47.206  30.151  84.969  0.00  0.00     0.244 HD
ENDBRANCH  31  34
ENDBRANCH   1  30
TORSDOF 6
