REMARK  5 active torsions:
REMARK  status: ('A' for Active; 'I' for Inactive)
REMARK    1  A    between atoms: O12_17  and  C4_4 
REMARK    2  A    between atoms: C13_7  and  O12_17 
REMARK    3  A    between atoms: N23_18  and  C14_8 
REMARK    4  A    between atoms: C26_13  and  C28_15 
REMARK       I    between atoms: C28_15  and  N29_21 
REMARK    5  A    between atoms: N29_21  and  O30_22 
ROOT
ATOM      1  C13 GRZ d   1      43.209  37.025  86.200  0.00  0.00     0.104 A 
ATOM      2  C14 GRZ d   1      43.074  36.016  85.237  0.00  0.00     0.095 A 
ATOM      3  C15 GRZ d   1      41.900  35.928  84.499  0.00  0.00    -0.031 A 
ATOM      4  C16 GRZ d   1      40.899  36.850  84.722  0.00  0.00     0.036 A 
ATOM      5  C17 GRZ d   1      41.027  37.854  85.658  0.00  0.00    -0.059 A 
ATOM      6  C18 GRZ d   1      42.188  37.941  86.403  0.00  0.00    -0.046 A 
ATOM      7 CL1  GRZ d   1      39.437  36.745  83.788  0.00  0.00    -0.084 Cl
ATOM      8  H5  GRZ d   1      41.773  35.146  83.759  0.00  0.00     0.089 H 
ATOM      9  H6  GRZ d   1      40.225  38.568  85.808  0.00  0.00     0.086 H 
ATOM     10  H7  GRZ d   1      42.300  38.724  87.144  0.00  0.00     0.087 H 
ENDROOT
BRANCH   1  11
ATOM     11  O12 GRZ d   1      44.399  37.064  86.927  0.00  0.00    -0.308 OA
BRANCH  11  12
ATOM     12  C4  GRZ d   1      44.487  37.775  88.130  0.00  0.00     0.076 A 
ATOM     13  C3  GRZ d   1      45.505  38.708  88.245  0.00  0.00    -0.047 A 
ATOM     14  C2  GRZ d   1      45.645  39.438  89.412  0.00  0.00    -0.043 A 
ATOM     15  H2  GRZ d   1      46.191  38.866  87.421  0.00  0.00     0.087 H 
ATOM     16  C1  GRZ d   1      44.759  39.212  90.432  0.00  0.00     0.116 A 
ATOM     17  H1  GRZ d   1      46.437  40.171  89.517  0.00  0.00     0.088 H 
ATOM     18  C6  GRZ d   1      43.746  38.293  90.354  0.00  0.00    -0.043 A 
ATOM     19  F1  GRZ d   1      44.887  39.942  91.573  0.00  0.00    -0.206 F 
ATOM     20  C5  GRZ d   1      43.609  37.563  89.187  0.00  0.00    -0.047 A 
ATOM     21  H4  GRZ d   1      43.068  38.142  91.186  0.00  0.00     0.088 H 
ATOM     22  H3  GRZ d   1      42.818  36.827  89.097  0.00  0.00     0.087 H 
ENDBRANCH  11  12
ENDBRANCH   1  11
BRANCH   2  23
ATOM     23  N23 GRZ d   1      44.132  35.101  84.952  0.00  0.00    -0.222 N 
ATOM     24  C27 GRZ d   1      44.919  34.394  85.794  0.00  0.00     0.041 A 
ATOM     25  C26 GRZ d   1      45.751  33.674  84.981  0.00  0.00     0.167 A 
ATOM     26  H8  GRZ d   1      44.896  34.397  86.883  0.00  0.00     0.118 H 
ATOM     27  N25 GRZ d   1      45.447  33.969  83.681  0.00  0.00    -0.125 NA
ATOM     28  N24 GRZ d   1      44.458  34.835  83.662  0.00  0.00    -0.060 NA
BRANCH  25  29
ATOM     29  C28 GRZ d   1      46.801  32.695  85.363  0.00  0.00     0.296 C 
ATOM     30  N29 GRZ d   1      46.750  31.526  84.723  0.00  0.00    -0.232 N 
ATOM     31  H9  GRZ d   1      45.985  31.324  84.112  0.00  0.00     0.197 HD
ATOM     32  O31 GRZ d   1      47.632  32.952  86.233  0.00  0.00    -0.264 OA
BRANCH  30  33
ATOM     33  O30 GRZ d   1      47.762  30.587  84.906  0.00  0.00    -0.287 OA
ATOM     34  H10 GRZ d   1      47.576  29.816  84.383  0.00  0.00     0.244 HD
ENDBRANCH  30  33
ENDBRANCH  25  29
ENDBRANCH   2  23
TORSDOF 5
