REMARK  24 active torsions:
REMARK  status: ('A' for Active; 'I' for Inactive)
REMARK    1  A    between atoms: C7_2  and  C6_1 
REMARK    2  A    between atoms: C6_1  and  N51_36 
REMARK    3  A    between atoms: C6_1  and  C54_39 
REMARK       I    between atoms: N8_34  and  C7_2 
REMARK       I    between atoms: C10_3  and  N11_27 
REMARK    4  A    between atoms: C9_29  and  C10_3 
REMARK       I    between atoms: C13_4  and  N14_21 
REMARK    5  A    between atoms: C12_23  and  C13_4 
REMARK    6  A    between atoms: C15_5  and  C16_16 
REMARK    7  A    between atoms: C15_5  and  C25_17 
REMARK    8  A    between atoms: N14_21  and  C15_5 
REMARK    9  A    between atoms: C16_16  and  C17_6 
REMARK   10  A    between atoms: C20_7  and  C21_8 
REMARK   11  A    between atoms: C21_8  and  N22_13 
REMARK   12  A    between atoms: C25_17  and  C26_10 
REMARK   13  A    between atoms: C26_10  and  S27_18 
REMARK   14  A    between atoms: S27_18  and  C28_11 
REMARK   15  A    between atoms: C12_23  and  C32_24 
REMARK   16  A    between atoms: N11_27  and  C12_23 
REMARK   17  A    between atoms: C32_24  and  C14_25 
REMARK   18  A    between atoms: C32_24  and  O33_26 
REMARK   19  A    between atoms: C9_29  and  C40_30 
REMARK   20  A    between atoms: C9_29  and  N8_34 
REMARK   21  A    between atoms: C40_30  and  C41_31 
REMARK   22  A    between atoms: C41_31  and  C43_32 
REMARK   23  A    between atoms: C41_31  and  C42_33 
REMARK   24  A    between atoms: C54_39  and  C55_40 
ROOT
ATOM      1  N51 GRW d   1      59.230-134.274  32.400  0.00  0.00    -0.256 NA
ATOM      2  N52 GRW d   1      59.542-133.997  31.412  0.00  0.00    -0.111 NA
ATOM      3  N53 GRW d   1      59.845-133.705  30.445  0.00  0.00     0.080 N 
ENDROOT
BRANCH   1   4
ATOM      4  C6  GRW d   1      58.783-134.581  33.748  0.00  0.00     0.185 C 
ATOM      5  H1  GRW d   1      58.091-135.435  33.767  0.00  0.00     0.116 H 
BRANCH   4   6
ATOM      6  C7  GRW d   1      59.977-134.814  34.617  0.00  0.00     0.258 C 
ATOM      7  N8  GRW d   1      60.717-133.771  34.938  0.00  0.00    -0.345 N 
ATOM      8  H39 GRW d   1      60.486-132.862  34.591  0.00  0.00     0.163 HD
ATOM      9  O44 GRW d   1      60.215-135.931  35.017  0.00  0.00    -0.270 OA
BRANCH   7  10
ATOM     10  C9  GRW d   1      61.874-133.956  35.803  0.00  0.00     0.089 C 
ATOM     11  H29 GRW d   1      62.408-134.874  35.514  0.00  0.00     0.087 H 
BRANCH  10  12
ATOM     12  C10 GRW d   1      61.390-134.049  37.219  0.00  0.00     0.241 C 
ATOM     13  N11 GRW d   1      61.904-134.999  37.960  0.00  0.00    -0.344 N 
ATOM     14  H28 GRW d   1      62.572-135.638  37.578  0.00  0.00     0.163 HD
ATOM     15  O39 GRW d   1      60.556-133.281  37.647  0.00  0.00    -0.271 OA
BRANCH  13  16
ATOM     16  C12 GRW d   1      61.487-135.106  39.339  0.00  0.00     0.113 C 
ATOM     17  H22 GRW d   1      60.913-134.214  39.630  0.00  0.00     0.091 H 
BRANCH  16  18
ATOM     18  C13 GRW d   1      62.715-135.235  40.168  0.00  0.00     0.243 C 
ATOM     19  N14 GRW d   1      62.600-134.846  41.401  0.00  0.00    -0.354 N 
ATOM     20  H21 GRW d   1      61.734-134.466  41.725  0.00  0.00     0.162 HD
ATOM     21  O31 GRW d   1      63.744-135.675  39.719  0.00  0.00    -0.271 OA
BRANCH  19  22
ATOM     22  C15 GRW d   1      63.723-134.961  42.309  0.00  0.00     0.017 C 
ATOM     23  H2  GRW d   1      64.666-135.008  41.744  0.00  0.00     0.073 H 
BRANCH  22  24
ATOM     24  C16 GRW d   1      63.718-133.742  43.211  0.00  0.00    -0.022 C 
ATOM     25  H17 GRW d   1      64.319-133.954  44.108  0.00  0.00     0.043 H 
ATOM     26  H18 GRW d   1      62.683-133.516  43.508  0.00  0.00     0.043 H 
BRANCH  24  27
ATOM     27  C17 GRW d   1      64.251-132.648  42.556  0.00  0.00    -0.056 A 
ATOM     28  C24 GRW d   1      64.981-132.824  41.410  0.00  0.00    -0.076 A 
ATOM     29  C23 GRW d   1      65.509-131.732  40.764  0.00  0.00    -0.075 A 
ATOM     30  H5  GRW d   1      65.141-133.821  41.014  0.00  0.00     0.084 H 
ATOM     31  C20 GRW d   1      65.317-130.464  41.242  0.00  0.00    -0.033 A 
ATOM     32  H11 GRW d   1      66.088-131.878  39.859  0.00  0.00     0.084 H 
ATOM     33  C19 GRW d   1      64.598-130.273  42.390  0.00  0.00    -0.075 A 
ATOM     34  C18 GRW d   1      64.063-131.371  43.042  0.00  0.00    -0.076 A 
ATOM     35  H15 GRW d   1      64.449-129.274  42.784  0.00  0.00     0.084 H 
ATOM     36  H16 GRW d   1      63.487-131.225  43.949  0.00  0.00     0.084 H 
BRANCH  31  37
ATOM     37  C21 GRW d   1      65.867-129.407  40.565  0.00  0.00     0.103 C 
ATOM     38  H3  GRW d   1      65.713-129.573  39.489  0.00  0.00     0.082 H 
ATOM     39  H4  GRW d   1      66.945-129.386  40.782  0.00  0.00     0.082 H 
BRANCH  37  40
ATOM     40  N22 GRW d   1      65.362-128.223  40.874  0.00  0.00    -0.075 N 
ATOM     41  H12 GRW d   1      65.823-127.509  40.332  0.00  0.00     0.274 HD
ATOM     42  H13 GRW d   1      65.504-128.043  41.856  0.00  0.00     0.274 HD
ATOM     43  H14 GRW d   1      64.375-128.215  40.670  0.00  0.00     0.274 HD
ENDBRANCH  37  40
ENDBRANCH  31  37
ENDBRANCH  24  27
ENDBRANCH  22  24
BRANCH  22  44
ATOM     44  C25 GRW d   1      63.555-136.232  43.146  0.00  0.00    -0.034 C 
ATOM     45  H19 GRW d   1      64.173-136.174  44.054  0.00  0.00     0.037 H 
ATOM     46  H20 GRW d   1      63.847-137.115  42.559  0.00  0.00     0.037 H 
BRANCH  44  47
ATOM     47  C26 GRW d   1      62.065-136.310  43.520  0.00  0.00     0.030 C 
ATOM     48  H6  GRW d   1      61.498-135.856  42.694  0.00  0.00     0.056 H 
ATOM     49  H7  GRW d   1      61.927-135.711  44.432  0.00  0.00     0.056 H 
BRANCH  47  50
ATOM     50  S27 GRW d   1      61.342-137.930  43.833  0.00  0.00     0.140 S 
ATOM     51  O30 GRW d   1      62.459-138.803  44.333  0.00  0.00    -0.228 OA
ATOM     52  O29 GRW d   1      60.320-137.698  44.914  0.00  0.00    -0.228 OA
BRANCH  50  53
ATOM     53  C28 GRW d   1      60.588-138.809  42.487  0.00  0.00     0.015 C 
ATOM     54  H8  GRW d   1      60.200-139.772  42.850  0.00  0.00     0.048 H 
ATOM     55  H9  GRW d   1      61.336-138.988  41.701  0.00  0.00     0.048 H 
ATOM     56  H10 GRW d   1      59.760-138.212  42.077  0.00  0.00     0.048 H 
ENDBRANCH  50  53
ENDBRANCH  47  50
ENDBRANCH  44  47
ENDBRANCH  22  44
ENDBRANCH  19  22
ENDBRANCH  16  18
BRANCH  16  57
ATOM     57  C32 GRW d   1      60.658-136.344  39.553  0.00  0.00     0.060 C 
ATOM     58  H23 GRW d   1      60.601-136.582  40.626  0.00  0.00     0.086 H 
BRANCH  57  59
ATOM     59  C14 GRW d   1      59.273-136.116  38.998  0.00  0.00    -0.050 C 
ATOM     60  H24 GRW d   1      58.663-137.018  39.152  0.00  0.00     0.031 H 
ATOM     61  H25 GRW d   1      59.340-135.898  37.922  0.00  0.00     0.031 H 
ATOM     62  H26 GRW d   1      58.806-135.265  39.516  0.00  0.00     0.031 H 
ENDBRANCH  57  59
BRANCH  57  63
ATOM     63  O33 GRW d   1      61.253-137.398  38.855  0.00  0.00    -0.393 OA
ATOM     64  H27 GRW d   1      62.126-137.550  39.197  0.00  0.00     0.210 HD
ENDBRANCH  57  63
ENDBRANCH  16  57
ENDBRANCH  13  16
ENDBRANCH  10  12
BRANCH  10  65
ATOM     65  C40 GRW d   1      62.811-132.776  35.743  0.00  0.00    -0.035 C 
ATOM     66  H30 GRW d   1      63.500-132.815  36.600  0.00  0.00     0.037 H 
ATOM     67  H31 GRW d   1      62.227-131.845  35.784  0.00  0.00     0.037 H 
BRANCH  65  68
ATOM     68  C41 GRW d   1      63.606-132.809  34.462  0.00  0.00    -0.059 C 
ATOM     69  H32 GRW d   1      62.931-132.966  33.608  0.00  0.00     0.038 H 
BRANCH  68  70
ATOM     70  C43 GRW d   1      64.628-133.907  34.524  0.00  0.00    -0.073 C 
ATOM     71  H33 GRW d   1      65.204-133.925  33.587  0.00  0.00     0.028 H 
ATOM     72  H34 GRW d   1      64.120-134.873  34.661  0.00  0.00     0.028 H 
ATOM     73  H35 GRW d   1      65.309-133.727  35.369  0.00  0.00     0.028 H 
ENDBRANCH  68  70
BRANCH  68  74
ATOM     74  C42 GRW d   1      64.351-131.509  34.307  0.00  0.00    -0.073 C 
ATOM     75  H36 GRW d   1      63.632-130.678  34.258  0.00  0.00     0.028 H 
ATOM     76  H37 GRW d   1      64.945-131.535  33.382  0.00  0.00     0.028 H 
ATOM     77  H38 GRW d   1      65.020-131.365  35.168  0.00  0.00     0.028 H 
ENDBRANCH  68  74
ENDBRANCH  65  68
ENDBRANCH  10  65
ENDBRANCH   7  10
ENDBRANCH   4   6
BRANCH   4  78
ATOM     78  C54 GRW d   1      58.159-133.330  34.244  0.00  0.00     0.000 C 
ATOM     79  H40 GRW d   1      58.212-132.578  33.443  0.00  0.00     0.045 H 
ATOM     80  H41 GRW d   1      58.735-132.980  35.114  0.00  0.00     0.045 H 
BRANCH  78  81
ATOM     81  C55 GRW d   1      56.857-133.460  34.620  0.00  0.00    -0.055 A 
ATOM     82  C56 GRW d   1      55.804-133.511  33.710  0.00  0.00    -0.077 A 
ATOM     83  C57 GRW d   1      54.510-133.592  34.200  0.00  0.00    -0.082 A 
ATOM     84  H42 GRW d   1      55.992-133.488  32.643  0.00  0.00     0.084 H 
ATOM     85  C58 GRW d   1      54.281-133.638  35.567  0.00  0.00    -0.083 A 
ATOM     86  H43 GRW d   1      53.673-133.619  33.511  0.00  0.00     0.083 H 
ATOM     87  C59 GRW d   1      55.349-133.596  36.437  0.00  0.00    -0.082 A 
ATOM     88  H44 GRW d   1      53.269-133.707  35.949  0.00  0.00     0.083 H 
ATOM     89  C60 GRW d   1      56.630-133.498  35.965  0.00  0.00    -0.077 A 
ATOM     90  H45 GRW d   1      55.173-133.641  37.506  0.00  0.00     0.083 H 
ATOM     91  H46 GRW d   1      57.462-133.451  36.658  0.00  0.00     0.084 H 
ENDBRANCH  78  81
ENDBRANCH   4  78
ENDBRANCH   1   4
TORSDOF 24
