REMARK  21 active torsions:
REMARK  status: ('A' for Active; 'I' for Inactive)
REMARK    1  A    between atoms: C8_5  and  C7_4 
REMARK    2  A    between atoms: C7_4  and  C3_40 
REMARK    3  A    between atoms: C12_35  and  C8_5 
REMARK    4  A    between atoms: C8_5  and  N9_37 
REMARK    5  A    between atoms: C15_6  and  C25_29 
REMARK    6  A    between atoms: C15_6  and  C16_31 
REMARK    7  A    between atoms: N14_34  and  C15_6 
REMARK    8  A    between atoms: C16_31  and  C17_7 
REMARK    9  A    between atoms: C17_7  and  C19_32 
REMARK   10  A    between atoms: C17_7  and  C18_33 
REMARK   11  A    between atoms: C28_8  and  C33_26 
REMARK   12  A    between atoms: N27_28  and  C28_8 
REMARK   13  A    between atoms: C41_11  and  C44_12 
REMARK   14  A    between atoms: C44_12  and  N45_13 
REMARK   15  A    between atoms: C37_17  and  C38_16 
REMARK   16  A    between atoms: C36_18  and  C37_17 
REMARK   17  A    between atoms: C36_18  and  C46_19 
REMARK   18  A    between atoms: N35_25  and  C36_18 
REMARK   19  A    between atoms: C46_19  and  C47_20 
REMARK   20  A    between atoms: C47_20  and  S48_21 
REMARK   21  A    between atoms: S48_21  and  C51_24 
REMARK       I    between atoms: C33_26  and  N35_25 
REMARK       I    between atoms: C25_29  and  N27_28 
REMARK       I    between atoms: N14_34  and  C12_35 
ROOT
ATOM      1  N9  GRT d   1      58.408-135.189  32.593  0.00  0.00    -0.100 NA
ATOM      2  N10 GRT d   1      58.618-134.721  31.349  0.00  0.00    -0.167 NA
ATOM      3  N11 GRT d   1      58.834-134.226  30.115  0.00  0.00     0.068 N 
ENDROOT
BRANCH   1   4
ATOM      4  C8  GRT d   1      58.641-134.244  33.689  0.00  0.00     0.145 C 
ATOM      5  H6  GRT d   1      58.678-133.215  33.303  0.00  0.00     0.095 H 
BRANCH   4   6
ATOM      6  C7  GRT d   1      57.589-134.376  34.803  0.00  0.00    -0.009 C 
ATOM      7  H4  GRT d   1      57.917-133.774  35.663  0.00  0.00     0.044 H 
ATOM      8  H5  GRT d   1      57.526-135.434  35.098  0.00  0.00     0.044 H 
BRANCH   6   9
ATOM      9  C3  GRT d   1      56.314-133.947  34.424  0.00  0.00    -0.056 A 
ATOM     10  C4  GRT d   1      55.678-132.927  35.137  0.00  0.00    -0.077 A 
ATOM     11  C5  GRT d   1      54.400-132.509  34.768  0.00  0.00    -0.082 A 
ATOM     12  H1  GRT d   1      56.179-132.460  35.978  0.00  0.00     0.084 H 
ATOM     13  C6  GRT d   1      53.741-133.105  33.692  0.00  0.00    -0.083 A 
ATOM     14  H2  GRT d   1      53.914-131.714  35.322  0.00  0.00     0.083 H 
ATOM     15  C1  GRT d   1      54.363-134.130  32.979  0.00  0.00    -0.082 A 
ATOM     16  H3  GRT d   1      52.748-132.772  33.411  0.00  0.00     0.083 H 
ATOM     17  C2  GRT d   1      55.640-134.551  33.355  0.00  0.00    -0.077 A 
ATOM     18  H41 GRT d   1      53.859-134.596  32.140  0.00  0.00     0.083 H 
ATOM     19  H42 GRT d   1      56.117-135.358  32.811  0.00  0.00     0.084 H 
ENDBRANCH   6   9
ENDBRANCH   4   6
BRANCH   4  20
ATOM     20  C12 GRT d   1      59.927-134.639  34.360  0.00  0.00     0.246 C 
ATOM     21  N14 GRT d   1      60.740-133.635  34.695  0.00  0.00    -0.346 N 
ATOM     22  H40 GRT d   1      60.530-132.699  34.411  0.00  0.00     0.163 HD
ATOM     23  O13 GRT d   1      60.139-135.822  34.623  0.00  0.00    -0.271 OA
BRANCH  21  24
ATOM     24  C15 GRT d   1      61.936-133.916  35.478  0.00  0.00     0.089 C 
ATOM     25  H7  GRT d   1      62.382-134.874  35.173  0.00  0.00     0.087 H 
BRANCH  24  26
ATOM     26  C25 GRT d   1      61.396-133.987  36.894  0.00  0.00     0.240 C 
ATOM     27  N27 GRT d   1      61.908-134.967  37.630  0.00  0.00    -0.351 N 
ATOM     28  H31 GRT d   1      62.615-135.555  37.237  0.00  0.00     0.163 HD
ATOM     29  O26 GRT d   1      60.493-133.230  37.264  0.00  0.00    -0.271 OA
BRANCH  27  30
ATOM     30  C28 GRT d   1      61.462-135.204  38.997  0.00  0.00     0.069 C 
ATOM     31  H9  GRT d   1      60.915-134.330  39.380  0.00  0.00     0.078 H 
ATOM     32  H10 GRT d   1      60.813-136.091  39.041  0.00  0.00     0.078 H 
BRANCH  30  33
ATOM     33  C33 GRT d   1      62.706-135.428  39.790  0.00  0.00     0.235 C 
ATOM     34  N35 GRT d   1      62.667-134.795  40.954  0.00  0.00    -0.355 N 
ATOM     35  H30 GRT d   1      61.879-134.213  41.154  0.00  0.00     0.162 HD
ATOM     36  O34 GRT d   1      63.640-136.120  39.381  0.00  0.00    -0.272 OA
BRANCH  34  37
ATOM     37  C36 GRT d   1      63.720-134.908  41.957  0.00  0.00     0.017 C 
ATOM     38  H22 GRT d   1      64.701-134.972  41.463  0.00  0.00     0.073 H 
BRANCH  37  39
ATOM     39  C37 GRT d   1      63.691-133.595  42.812  0.00  0.00    -0.022 C 
ATOM     40  H20 GRT d   1      62.645-133.347  43.047  0.00  0.00     0.043 H 
ATOM     41  H21 GRT d   1      64.246-133.767  43.746  0.00  0.00     0.043 H 
BRANCH  39  42
ATOM     42  C38 GRT d   1      64.269-132.517  42.135  0.00  0.00    -0.056 A 
ATOM     43  C39 GRT d   1      64.809-132.556  40.832  0.00  0.00    -0.076 A 
ATOM     44  C40 GRT d   1      65.360-131.430  40.246  0.00  0.00    -0.075 A 
ATOM     45  H11 GRT d   1      64.792-133.488  40.278  0.00  0.00     0.084 H 
ATOM     46  C41 GRT d   1      65.401-130.225  40.929  0.00  0.00    -0.033 A 
ATOM     47  H12 GRT d   1      65.764-131.491  39.242  0.00  0.00     0.084 H 
ATOM     48  C42 GRT d   1      64.882-130.156  42.227  0.00  0.00    -0.075 A 
ATOM     49  C43 GRT d   1      64.316-131.290  42.814  0.00  0.00    -0.076 A 
ATOM     50  H18 GRT d   1      64.919-129.222  42.777  0.00  0.00     0.084 H 
ATOM     51  H19 GRT d   1      63.905-131.221  43.815  0.00  0.00     0.084 H 
BRANCH  46  52
ATOM     52  C44 GRT d   1      65.991-129.132  40.299  0.00  0.00     0.103 C 
ATOM     53  H13 GRT d   1      66.166-129.390  39.244  0.00  0.00     0.082 H 
ATOM     54  H14 GRT d   1      66.953-128.924  40.790  0.00  0.00     0.082 H 
BRANCH  52  55
ATOM     55  N45 GRT d   1      65.180-127.931  40.349  0.00  0.00    -0.075 N 
ATOM     56  H15 GRT d   1      65.661-127.181  39.878  0.00  0.00     0.274 HD
ATOM     57  H16 GRT d   1      65.018-127.675  41.310  0.00  0.00     0.274 HD
ATOM     58  H17 GRT d   1      64.297-128.102  39.894  0.00  0.00     0.274 HD
ENDBRANCH  52  55
ENDBRANCH  46  52
ENDBRANCH  39  42
ENDBRANCH  37  39
BRANCH  37  59
ATOM     59  C46 GRT d   1      63.486-136.229  42.731  0.00  0.00    -0.034 C 
ATOM     60  H23 GRT d   1      64.098-136.223  43.645  0.00  0.00     0.037 H 
ATOM     61  H24 GRT d   1      63.784-137.076  42.095  0.00  0.00     0.037 H 
BRANCH  59  62
ATOM     62  C47 GRT d   1      61.990-136.389  43.122  0.00  0.00     0.030 C 
ATOM     63  H25 GRT d   1      61.379-135.934  42.328  0.00  0.00     0.056 H 
ATOM     64  H26 GRT d   1      61.825-135.850  44.066  0.00  0.00     0.056 H 
BRANCH  62  65
ATOM     65  S48 GRT d   1      61.432-138.112  43.349  0.00  0.00     0.140 S 
ATOM     66  O49 GRT d   1      59.948-138.103  43.690  0.00  0.00    -0.228 OA
ATOM     67  O50 GRT d   1      62.140-138.711  44.538  0.00  0.00    -0.228 OA
BRANCH  65  68
ATOM     68  C51 GRT d   1      61.688-139.137  41.912  0.00  0.00     0.015 C 
ATOM     69  H27 GRT d   1      61.330-140.156  42.120  0.00  0.00     0.048 H 
ATOM     70  H28 GRT d   1      62.761-139.167  41.669  0.00  0.00     0.048 H 
ATOM     71  H29 GRT d   1      61.131-138.720  41.060  0.00  0.00     0.048 H 
ENDBRANCH  65  68
ENDBRANCH  62  65
ENDBRANCH  59  62
ENDBRANCH  37  59
ENDBRANCH  34  37
ENDBRANCH  30  33
ENDBRANCH  27  30
ENDBRANCH  24  26
BRANCH  24  72
ATOM     72  C16 GRT d   1      62.990-132.817  35.373  0.00  0.00    -0.035 C 
ATOM     73  H32 GRT d   1      63.746-132.963  36.158  0.00  0.00     0.037 H 
ATOM     74  H33 GRT d   1      62.508-131.837  35.505  0.00  0.00     0.037 H 
BRANCH  72  75
ATOM     75  C17 GRT d   1      63.670-132.866  33.999  0.00  0.00    -0.059 C 
ATOM     76  H8  GRT d   1      62.893-132.854  33.220  0.00  0.00     0.038 H 
BRANCH  75  77
ATOM     77  C19 GRT d   1      64.500-134.152  33.845  0.00  0.00    -0.073 C 
ATOM     78  H34 GRT d   1      64.977-134.164  32.854  0.00  0.00     0.028 H 
ATOM     79  H35 GRT d   1      63.842-135.028  33.946  0.00  0.00     0.028 H 
ATOM     80  H36 GRT d   1      65.275-134.184  34.625  0.00  0.00     0.028 H 
ENDBRANCH  75  77
BRANCH  75  81
ATOM     81  C18 GRT d   1      64.564-131.638  33.823  0.00  0.00    -0.073 C 
ATOM     82  H37 GRT d   1      63.960-130.726  33.935  0.00  0.00     0.028 H 
ATOM     83  H38 GRT d   1      65.019-131.656  32.822  0.00  0.00     0.028 H 
ATOM     84  H39 GRT d   1      65.356-131.649  34.586  0.00  0.00     0.028 H 
ENDBRANCH  75  81
ENDBRANCH  72  75
ENDBRANCH  24  72
ENDBRANCH  21  24
ENDBRANCH   4  20
ENDBRANCH   1   4
TORSDOF 21
