REMARK  22 active torsions:
REMARK  status: ('A' for Active; 'I' for Inactive)
REMARK    1  A    between atoms: C3_13  and  C4_1 
REMARK    2  A    between atoms: C7_3  and  C6_2 
REMARK       I    between atoms: N8_18  and  C7_3 
REMARK    3  A    between atoms: C10_4  and  C9_19 
REMARK       I    between atoms: N11_25  and  C10_4 
REMARK    4  A    between atoms: C12_26  and  C13_5 
REMARK       I    between atoms: C13_5  and  N14_31 
REMARK    5  A    between atoms: N14_31  and  C15_6 
REMARK    6  A    between atoms: C15_6  and  C25_32 
REMARK    7  A    between atoms: C15_6  and  C16_36 
REMARK    8  A    between atoms: C16_36  and  C17_7 
REMARK    9  A    between atoms: C20_8  and  C21_9 
REMARK   10  A    between atoms: C21_9  and  N22_39 
REMARK   11  A    between atoms: C25_32  and  C26_11 
REMARK   12  A    between atoms: C26_11  and  S27_33 
REMARK   13  A    between atoms: S27_33  and  C28_12 
REMARK   14  A    between atoms: C9_19  and  N8_18 
REMARK   15  A    between atoms: C9_19  and  C40_20 
REMARK   16  A    between atoms: C40_20  and  C41_21 
REMARK   17  A    between atoms: C41_21  and  C43_22 
REMARK   18  A    between atoms: C41_21  and  C42_23 
REMARK   19  A    between atoms: N11_25  and  C12_26 
REMARK   20  A    between atoms: C12_26  and  C32_27 
REMARK   21  A    between atoms: C32_27  and  O36_28 
REMARK   22  A    between atoms: O36_28  and  C34_29 
ROOT
ATOM      1  C12 GT5 d   1      61.970-134.865  38.726  0.00  0.00     0.109 C 
ATOM      2  H26 GT5 d   1      61.432-134.002  39.144  0.00  0.00     0.090 H 
ENDROOT
BRANCH   1   3
ATOM      3  C13 GT5 d   1      63.233-135.107  39.550  0.00  0.00     0.242 C 
ATOM      4  O31 GT5 d   1      64.185-135.750  39.110  0.00  0.00    -0.271 OA
ATOM      5  N14 GT5 d   1      63.141-134.598  40.780  0.00  0.00    -0.354 N 
ATOM      6  H32 GT5 d   1      62.313-134.093  41.021  0.00  0.00     0.162 HD
BRANCH   5   7
ATOM      7  C15 GT5 d   1      64.189-134.739  41.799  0.00  0.00     0.017 C 
ATOM      8  H4  GT5 d   1      65.165-134.846  41.302  0.00  0.00     0.073 H 
BRANCH   7   9
ATOM      9  C25 GT5 d   1      63.948-136.011  42.653  0.00  0.00    -0.034 C 
ATOM     10  H33 GT5 d   1      64.560-135.958  43.565  0.00  0.00     0.037 H 
ATOM     11  H34 GT5 d   1      64.233-136.899  42.071  0.00  0.00     0.037 H 
BRANCH   9  12
ATOM     12  C26 GT5 d   1      62.453-136.114  43.045  0.00  0.00     0.030 C 
ATOM     13  H8  GT5 d   1      61.861-135.695  42.218  0.00  0.00     0.056 H 
ATOM     14  H9  GT5 d   1      62.302-135.506  43.949  0.00  0.00     0.056 H 
BRANCH  12  15
ATOM     15  S27 GT5 d   1      61.816-137.787  43.390  0.00  0.00     0.140 S 
ATOM     16  O29 GT5 d   1      60.317-137.647  43.627  0.00  0.00    -0.228 OA
ATOM     17  O30 GT5 d   1      62.441-138.313  44.663  0.00  0.00    -0.228 OA
BRANCH  15  18
ATOM     18  C28 GT5 d   1      62.030-138.961  42.068  0.00  0.00     0.015 C 
ATOM     19  H10 GT5 d   1      61.616-139.934  42.371  0.00  0.00     0.048 H 
ATOM     20  H11 GT5 d   1      63.102-139.072  41.846  0.00  0.00     0.048 H 
ATOM     21  H12 GT5 d   1      61.504-138.603  41.171  0.00  0.00     0.048 H 
ENDBRANCH  15  18
ENDBRANCH  12  15
ENDBRANCH   9  12
ENDBRANCH   7   9
BRANCH   7  22
ATOM     22  C16 GT5 d   1      64.197-133.418  42.628  0.00  0.00    -0.022 C 
ATOM     23  H35 GT5 d   1      64.778-133.592  43.546  0.00  0.00     0.043 H 
ATOM     24  H36 GT5 d   1      63.158-133.172  42.892  0.00  0.00     0.043 H 
BRANCH  22  25
ATOM     25  C17 GT5 d   1      64.756-132.308  41.956  0.00  0.00    -0.056 A 
ATOM     26  C24 GT5 d   1      65.387-132.370  40.698  0.00  0.00    -0.076 A 
ATOM     27  C23 GT5 d   1      65.924-131.237  40.106  0.00  0.00    -0.075 A 
ATOM     28  H7  GT5 d   1      65.454-133.321  40.183  0.00  0.00     0.084 H 
ATOM     29  C20 GT5 d   1      65.856-130.007  40.751  0.00  0.00    -0.033 A 
ATOM     30  H42 GT5 d   1      66.400-131.310  39.135  0.00  0.00     0.084 H 
ATOM     31  C19 GT5 d   1      65.241-129.924  42.010  0.00  0.00    -0.075 A 
ATOM     32  C18 GT5 d   1      64.696-131.067  42.601  0.00  0.00    -0.076 A 
ATOM     33  H38 GT5 d   1      65.189-128.971  42.525  0.00  0.00     0.084 H 
ATOM     34  H37 GT5 d   1      64.220-130.992  43.572  0.00  0.00     0.084 H 
BRANCH  29  35
ATOM     35  C21 GT5 d   1      66.423-128.895  40.122  0.00  0.00     0.103 C 
ATOM     36  H5  GT5 d   1      66.660-129.163  39.082  0.00  0.00     0.082 H 
ATOM     37  H6  GT5 d   1      67.349-128.626  40.652  0.00  0.00     0.082 H 
BRANCH  35  38
ATOM     38  N22 GT5 d   1      65.538-127.735  40.113  0.00  0.00    -0.075 N 
ATOM     39  H39 GT5 d   1      65.996-126.966  39.649  0.00  0.00     0.274 HD
ATOM     40  H40 GT5 d   1      65.319-127.472  41.061  0.00  0.00     0.274 HD
ATOM     41  H41 GT5 d   1      64.688-127.965  39.623  0.00  0.00     0.274 HD
ENDBRANCH  35  38
ENDBRANCH  29  35
ENDBRANCH  22  25
ENDBRANCH   7  22
ENDBRANCH   5   7
ENDBRANCH   1   3
BRANCH   1  42
ATOM     42  N11 GT5 d   1      62.211-134.666  37.303  0.00  0.00    -0.344 N 
ATOM     43  C10 GT5 d   1      61.569-133.718  36.599  0.00  0.00     0.241 C 
ATOM     44  O39 GT5 d   1      60.783-132.887  37.062  0.00  0.00    -0.271 OA
ATOM     45  H25 GT5 d   1      62.873-135.252  36.836  0.00  0.00     0.163 HD
BRANCH  43  46
ATOM     46  C9  GT5 d   1      61.831-133.784  35.108  0.00  0.00     0.090 C 
ATOM     47  H15 GT5 d   1      62.396-134.698  34.872  0.00  0.00     0.087 H 
BRANCH  46  48
ATOM     48  N8  GT5 d   1      60.523-133.798  34.476  0.00  0.00    -0.343 N 
ATOM     49  C7  GT5 d   1      60.090-134.846  33.754  0.00  0.00     0.260 C 
ATOM     50  O44 GT5 d   1      60.701-135.907  33.612  0.00  0.00    -0.267 OA
ATOM     51  H14 GT5 d   1      59.926-133.003  34.581  0.00  0.00     0.163 HD
BRANCH  49  52
ATOM     52  C6  GT5 d   1      58.859-134.694  33.283  0.00  0.00     0.091 A 
ATOM     53  S5  GT5 d   1      57.902-133.518  33.867  0.00  0.00    -0.068 SA
ATOM     54  C3  GT5 d   1      56.653-133.951  32.899  0.00  0.00     0.071 A 
ATOM     55  N2  GT5 d   1      56.972-135.005  32.122  0.00  0.00    -0.257 NA
ATOM     56  C1  GT5 d   1      58.232-135.431  32.343  0.00  0.00     0.025 A 
ATOM     57  H13 GT5 d   1      58.690-136.272  31.824  0.00  0.00     0.117 H 
BRANCH  54  58
ATOM     58  C4  GT5 d   1      55.319-133.207  32.948  0.00  0.00    -0.029 C 
ATOM     59  H1  GT5 d   1      54.623-133.655  32.223  0.00  0.00     0.036 H 
ATOM     60  H2  GT5 d   1      55.480-132.148  32.696  0.00  0.00     0.036 H 
ATOM     61  H3  GT5 d   1      54.894-133.283  33.960  0.00  0.00     0.036 H 
ENDBRANCH  54  58
ENDBRANCH  49  52
ENDBRANCH  46  48
BRANCH  46  62
ATOM     62  C40 GT5 d   1      62.569-132.574  34.554  0.00  0.00    -0.035 C 
ATOM     63  H16 GT5 d   1      62.114-131.666  34.978  0.00  0.00     0.037 H 
ATOM     64  H17 GT5 d   1      62.452-132.567  33.460  0.00  0.00     0.037 H 
BRANCH  62  65
ATOM     65  C41 GT5 d   1      64.075-132.561  34.881  0.00  0.00    -0.059 C 
ATOM     66  H18 GT5 d   1      64.208-132.536  35.973  0.00  0.00     0.038 H 
BRANCH  65  67
ATOM     67  C43 GT5 d   1      64.678-131.287  34.261  0.00  0.00    -0.073 C 
ATOM     68  H19 GT5 d   1      65.756-131.249  34.478  0.00  0.00     0.028 H 
ATOM     69  H20 GT5 d   1      64.186-130.402  34.690  0.00  0.00     0.028 H 
ATOM     70  H21 GT5 d   1      64.523-131.300  33.172  0.00  0.00     0.028 H 
ENDBRANCH  65  67
BRANCH  65  71
ATOM     71  C42 GT5 d   1      64.784-133.808  34.325  0.00  0.00    -0.073 C 
ATOM     72  H22 GT5 d   1      64.345-134.711  34.775  0.00  0.00     0.028 H 
ATOM     73  H23 GT5 d   1      65.855-133.760  34.570  0.00  0.00     0.028 H 
ATOM     74  H24 GT5 d   1      64.659-133.845  33.233  0.00  0.00     0.028 H 
ENDBRANCH  65  71
ENDBRANCH  62  65
ENDBRANCH  46  62
ENDBRANCH  43  46
ENDBRANCH   1  42
BRANCH   1  75
ATOM     75  C32 GT5 d   1      61.099-136.126  38.749  0.00  0.00     0.046 C 
ATOM     76  H27 GT5 d   1      61.653-136.949  38.273  0.00  0.00     0.078 H 
ATOM     77  H28 GT5 d   1      60.176-135.930  38.184  0.00  0.00     0.078 H 
BRANCH  75  78
ATOM     78  O36 GT5 d   1      60.750-136.515  40.088  0.00  0.00    -0.393 OA
BRANCH  78  79
ATOM     79  C34 GT5 d   1      59.550-137.316  40.129  0.00  0.00     0.004 C 
ATOM     80  H29 GT5 d   1      59.326-137.587  41.171  0.00  0.00     0.066 H 
ATOM     81  H30 GT5 d   1      59.699-138.230  39.536  0.00  0.00     0.066 H 
ATOM     82  H31 GT5 d   1      58.711-136.741  39.711  0.00  0.00     0.066 H 
ENDBRANCH  78  79
ENDBRANCH  75  78
ENDBRANCH   1  75
TORSDOF 22
