REMARK  21 active torsions:
REMARK  status: ('A' for Active; 'I' for Inactive)
REMARK    1  A    between atoms: C3_13  and  C4_1 
REMARK    2  A    between atoms: C7_3  and  C6_2 
REMARK       I    between atoms: N8_18  and  C7_3 
REMARK    3  A    between atoms: C10_4  and  C9_19 
REMARK       I    between atoms: N11_25  and  C10_4 
REMARK    4  A    between atoms: C12_26  and  C13_5 
REMARK       I    between atoms: C13_5  and  N14_35 
REMARK    5  A    between atoms: N14_35  and  C15_6 
REMARK    6  A    between atoms: C15_6  and  C25_36 
REMARK    7  A    between atoms: C15_6  and  C16_40 
REMARK    8  A    between atoms: C16_40  and  C17_7 
REMARK    9  A    between atoms: C20_8  and  C21_9 
REMARK   10  A    between atoms: C21_9  and  N22_42 
REMARK   11  A    between atoms: C25_36  and  C26_11 
REMARK   12  A    between atoms: C26_11  and  S27_37 
REMARK   13  A    between atoms: S27_37  and  C28_12 
REMARK   14  A    between atoms: C9_19  and  N8_18 
REMARK   15  A    between atoms: C9_19  and  C40_20 
REMARK   16  A    between atoms: C40_20  and  C41_21 
REMARK   17  A    between atoms: C41_21  and  C42_22 
REMARK   18  A    between atoms: C41_21  and  C43_23 
REMARK   19  A    between atoms: N11_25  and  C12_26 
REMARK   20  A    between atoms: C12_26  and  C32_27 
REMARK   21  A    between atoms: C32_27  and  C33_28 
ROOT
ATOM      1  C12 GTW d   1      61.531-135.254  39.159  0.00  0.00     0.089 C 
ATOM      2  H26 GTW d   1      60.900-134.432  39.528  0.00  0.00     0.087 H 
ENDROOT
BRANCH   1   3
ATOM      3  C13 GTW d   1      62.840-135.302  39.913  0.00  0.00     0.240 C 
ATOM      4  O31 GTW d   1      63.870-135.712  39.381  0.00  0.00    -0.271 OA
ATOM      5  N14 GTW d   1      62.710-134.948  41.190  0.00  0.00    -0.354 N 
ATOM      6  H40 GTW d   1      61.810-134.652  41.509  0.00  0.00     0.162 HD
BRANCH   5   7
ATOM      7  C15 GTW d   1      63.822-134.968  42.160  0.00  0.00     0.017 C 
ATOM      8  H4  GTW d   1      64.770-135.064  41.610  0.00  0.00     0.073 H 
BRANCH   7   9
ATOM      9  C25 GTW d   1      63.701-136.191  43.104  0.00  0.00    -0.034 C 
ATOM     10  H41 GTW d   1      64.397-136.066  43.947  0.00  0.00     0.037 H 
ATOM     11  H42 GTW d   1      63.960-137.103  42.547  0.00  0.00     0.037 H 
BRANCH   9  12
ATOM     12  C26 GTW d   1      62.260-136.324  43.652  0.00  0.00     0.030 C 
ATOM     13  H8  GTW d   1      61.621-135.621  43.099  0.00  0.00     0.056 H 
ATOM     14  H9  GTW d   1      62.275-136.046  44.716  0.00  0.00     0.056 H 
BRANCH  12  15
ATOM     15  S27 GTW d   1      61.517-137.987  43.515  0.00  0.00     0.140 S 
ATOM     16  O30 GTW d   1      61.325-138.453  44.948  0.00  0.00    -0.228 OA
ATOM     17  O29 GTW d   1      60.167-137.815  42.819  0.00  0.00    -0.228 OA
BRANCH  15  18
ATOM     18  C28 GTW d   1      62.384-139.261  42.592  0.00  0.00     0.015 C 
ATOM     19  H10 GTW d   1      61.798-140.192  42.612  0.00  0.00     0.048 H 
ATOM     20  H11 GTW d   1      63.369-139.438  43.048  0.00  0.00     0.048 H 
ATOM     21  H12 GTW d   1      62.516-138.934  41.550  0.00  0.00     0.048 H 
ENDBRANCH  15  18
ENDBRANCH  12  15
ENDBRANCH   9  12
ENDBRANCH   7   9
BRANCH   7  22
ATOM     22  C16 GTW d   1      63.829-133.609  42.899  0.00  0.00    -0.022 C 
ATOM     23  H43 GTW d   1      64.332-133.745  43.867  0.00  0.00     0.043 H 
ATOM     24  H44 GTW d   1      62.786-133.303  43.068  0.00  0.00     0.043 H 
BRANCH  22  25
ATOM     25  C17 GTW d   1      64.487-132.574  42.200  0.00  0.00    -0.056 A 
ATOM     26  C24 GTW d   1      65.250-132.746  41.031  0.00  0.00    -0.076 A 
ATOM     27  C23 GTW d   1      65.871-131.670  40.415  0.00  0.00    -0.075 A 
ATOM     28  H7  GTW d   1      65.354-133.737  40.604  0.00  0.00     0.084 H 
ATOM     29  C20 GTW d   1      65.760-130.390  40.945  0.00  0.00    -0.033 A 
ATOM     30  H45 GTW d   1      66.448-131.829  39.511  0.00  0.00     0.084 H 
ATOM     31  C19 GTW d   1      65.013-130.204  42.118  0.00  0.00    -0.075 A 
ATOM     32  C18 GTW d   1      64.381-131.287  42.733  0.00  0.00    -0.076 A 
ATOM     33  H49 GTW d   1      64.926-129.214  42.550  0.00  0.00     0.084 H 
ATOM     34  H50 GTW d   1      63.801-131.127  43.635  0.00  0.00     0.084 H 
BRANCH  29  35
ATOM     35  C21 GTW d   1      66.414-129.337  40.297  0.00  0.00     0.103 C 
ATOM     36  H5  GTW d   1      66.720-129.677  39.297  0.00  0.00     0.082 H 
ATOM     37  H6  GTW d   1      67.306-129.066  40.881  0.00  0.00     0.082 H 
BRANCH  35  38
ATOM     38  N22 GTW d   1      65.573-128.146  40.148  0.00  0.00    -0.075 N 
ATOM     39  H46 GTW d   1      66.094-127.424  39.677  0.00  0.00     0.274 HD
ATOM     40  H47 GTW d   1      65.291-127.817  41.058  0.00  0.00     0.274 HD
ATOM     41  H48 GTW d   1      64.755-128.378  39.606  0.00  0.00     0.274 HD
ENDBRANCH  35  38
ENDBRANCH  29  35
ENDBRANCH  22  25
ENDBRANCH   7  22
ENDBRANCH   5   7
ENDBRANCH   1   3
BRANCH   1  42
ATOM     42  N11 GTW d   1      61.788-135.058  37.724  0.00  0.00    -0.346 N 
ATOM     43  C10 GTW d   1      61.345-133.972  37.074  0.00  0.00     0.241 C 
ATOM     44  O39 GTW d   1      60.665-133.081  37.590  0.00  0.00    -0.271 OA
ATOM     45  H25 GTW d   1      62.305-135.751  37.221  0.00  0.00     0.163 HD
BRANCH  43  46
ATOM     46  C9  GTW d   1      61.687-133.906  35.586  0.00  0.00     0.090 C 
ATOM     47  H15 GTW d   1      62.244-134.803  35.279  0.00  0.00     0.087 H 
BRANCH  46  48
ATOM     48  N8  GTW d   1      60.407-133.843  34.892  0.00  0.00    -0.343 N 
ATOM     49  C7  GTW d   1      59.816-134.969  34.454  0.00  0.00     0.260 C 
ATOM     50  O44 GTW d   1      60.297-136.094  34.603  0.00  0.00    -0.267 OA
ATOM     51  H14 GTW d   1      59.966-132.958  34.741  0.00  0.00     0.163 HD
BRANCH  49  52
ATOM     52  C6  GTW d   1      58.597-134.806  33.927  0.00  0.00     0.091 A 
ATOM     53  S5  GTW d   1      57.612-133.507  34.344  0.00  0.00    -0.068 SA
ATOM     54  C3  GTW d   1      56.415-133.999  33.410  0.00  0.00     0.071 A 
ATOM     55  N2  GTW d   1      56.721-135.149  32.763  0.00  0.00    -0.257 NA
ATOM     56  C1  GTW d   1      57.954-135.612  33.061  0.00  0.00     0.025 A 
ATOM     57  H13 GTW d   1      58.377-136.527  32.650  0.00  0.00     0.117 H 
BRANCH  54  58
ATOM     58  C4  GTW d   1      55.123-133.187  33.331  0.00  0.00    -0.029 C 
ATOM     59  H1  GTW d   1      54.422-133.680  32.642  0.00  0.00     0.036 H 
ATOM     60  H2  GTW d   1      55.348-132.175  32.963  0.00  0.00     0.036 H 
ATOM     61  H3  GTW d   1      54.669-133.121  34.331  0.00  0.00     0.036 H 
ENDBRANCH  54  58
ENDBRANCH  49  52
ENDBRANCH  46  48
BRANCH  46  62
ATOM     62  C40 GTW d   1      62.529-132.659  35.295  0.00  0.00    -0.035 C 
ATOM     63  H16 GTW d   1      62.541-132.006  36.181  0.00  0.00     0.037 H 
ATOM     64  H17 GTW d   1      62.098-132.113  34.443  0.00  0.00     0.037 H 
BRANCH  62  65
ATOM     65  C41 GTW d   1      63.977-133.099  34.953  0.00  0.00    -0.059 C 
ATOM     66  H18 GTW d   1      64.202-134.023  35.505  0.00  0.00     0.038 H 
BRANCH  65  67
ATOM     67  C42 GTW d   1      64.107-133.376  33.440  0.00  0.00    -0.073 C 
ATOM     68  H19 GTW d   1      65.137-133.687  33.211  0.00  0.00     0.028 H 
ATOM     69  H20 GTW d   1      63.867-132.462  32.878  0.00  0.00     0.028 H 
ATOM     70  H21 GTW d   1      63.410-134.177  33.153  0.00  0.00     0.028 H 
ENDBRANCH  65  67
BRANCH  65  71
ATOM     71  C43 GTW d   1      64.991-132.019  35.362  0.00  0.00    -0.073 C 
ATOM     72  H22 GTW d   1      64.900-131.820  36.440  0.00  0.00     0.028 H 
ATOM     73  H23 GTW d   1      64.789-131.095  34.800  0.00  0.00     0.028 H 
ATOM     74  H24 GTW d   1      66.010-132.369  35.139  0.00  0.00     0.028 H 
ENDBRANCH  65  71
ENDBRANCH  62  65
ENDBRANCH  46  62
ENDBRANCH  43  46
ENDBRANCH   1  42
BRANCH   1  75
ATOM     75  C32 GTW d   1      60.871-136.599  39.455  0.00  0.00    -0.035 C 
ATOM     76  H27 GTW d   1      60.639-136.643  40.529  0.00  0.00     0.037 H 
ATOM     77  H28 GTW d   1      61.583-137.398  39.200  0.00  0.00     0.037 H 
BRANCH  75  78
ATOM     78  C33 GTW d   1      59.583-136.837  38.676  0.00  0.00    -0.052 C 
ATOM     79  C38 GTW d   1      59.056-138.169  39.161  0.00  0.00    -0.062 C 
ATOM     80  C37 GTW d   1      57.824-138.550  38.294  0.00  0.00    -0.065 C 
ATOM     81  H30 GTW d   1      58.758-138.089  40.217  0.00  0.00     0.033 H 
ATOM     82  H31 GTW d   1      59.836-138.938  39.057  0.00  0.00     0.033 H 
ATOM     83  C36 GTW d   1      56.736-137.506  38.503  0.00  0.00    -0.065 C 
ATOM     84  H32 GTW d   1      57.450-139.539  38.597  0.00  0.00     0.033 H 
ATOM     85  H33 GTW d   1      58.112-138.576  37.233  0.00  0.00     0.033 H 
ATOM     86  C35 GTW d   1      57.311-136.177  38.097  0.00  0.00    -0.065 C 
ATOM     87  H34 GTW d   1      56.437-137.480  39.561  0.00  0.00     0.033 H 
ATOM     88  H35 GTW d   1      55.861-137.744  37.881  0.00  0.00     0.033 H 
ATOM     89  C34 GTW d   1      58.517-135.789  38.917  0.00  0.00    -0.062 C 
ATOM     90  H36 GTW d   1      56.537-135.405  38.223  0.00  0.00     0.033 H 
ATOM     91  H37 GTW d   1      57.607-136.230  37.039  0.00  0.00     0.033 H 
ATOM     92  H38 GTW d   1      58.883-134.800  38.603  0.00  0.00     0.033 H 
ATOM     93  H39 GTW d   1      58.253-135.760  39.984  0.00  0.00     0.033 H 
ATOM     94  H29 GTW d   1      59.807-136.877  37.600  0.00  0.00     0.040 H 
ENDBRANCH  75  78
ENDBRANCH   1  75
TORSDOF 21
