REMARK  5 active torsions:
REMARK  status: ('A' for Active; 'I' for Inactive)
REMARK    1  A    between atoms: CAM_1  and  CAL_2 
REMARK    2  A    between atoms: CAL_2  and  CAN_3 
REMARK    3  A    between atoms: CAL_2  and  NAK_4 
REMARK    4  A    between atoms: NAK_4  and  CAD_5 
REMARK    5  A    between atoms: CAI_14  and  CAO_15 
ROOT
ATOM      1  CAD GUK d   1      -4.424  33.992  26.381  0.00  0.00     0.080 A 
ATOM      2  CAC GUK d   1      -5.068  34.987  27.116  0.00  0.00    -0.013 A 
ATOM      3  CAB GUK d   1      -5.937  34.632  28.187  0.00  0.00     0.149 A 
ATOM      4 CL   GUK d   1      -6.806  35.886  29.178  0.00  0.00    -0.060 Cl
ATOM      5  NAA GUK d   1      -6.206  33.366  28.581  0.00  0.00    -0.153 NA
ATOM      6  NAF GUK d   1      -5.583  32.369  27.872  0.00  0.00    -0.210 N 
ATOM      7  CAE GUK d   1      -4.683  32.603  26.768  0.00  0.00     0.177 A 
ATOM      8  NAG GUK d   1      -4.293  31.336  26.360  0.00  0.00    -0.237 NA
ATOM      9  CAH GUK d   1      -4.930  30.343  27.182  0.00  0.00     0.033 A 
ATOM     10  CAI GUK d   1      -5.777  30.999  28.169  0.00  0.00     0.088 A 
ATOM     11  H9  GUK d   1      -4.906  36.036  26.871  0.00  0.00     0.092 H 
ATOM     12  H10 GUK d   1      -4.799  29.267  27.082  0.00  0.00     0.118 H 
ENDROOT
BRANCH  10  13
ATOM     13  CAO GUK d   1      -6.607  30.360  29.217  0.00  0.00    -0.005 A 
ATOM     14  CAT GUK d   1      -6.919  30.954  30.419  0.00  0.00    -0.057 A 
ATOM     15  CAS GUK d   1      -7.716  30.314  31.418  0.00  0.00     0.012 A 
ATOM     16  H11 GUK d   1      -6.543  31.951  30.617  0.00  0.00     0.086 H 
ATOM     17  CAW GUK d   1      -8.194  30.668  32.728  0.00  0.00     0.034 A 
ATOM     18  CAR GUK d   1      -8.231  29.012  31.211  0.00  0.00     0.061 A 
ATOM     19  NAV GUK d   1      -8.918  29.702  33.256  0.00  0.00    -0.186 NA
ATOM     20  H12 GUK d   1      -7.984  31.616  33.221  0.00  0.00     0.118 H 
ATOM     21  NAU GUK d   1      -8.972  28.650  32.367  0.00  0.00    -0.278 N 
ATOM     22  H13 GUK d   1      -9.464  27.757  32.515  0.00  0.00     0.189 HD
ATOM     23  CAQ GUK d   1      -7.931  28.371  29.982  0.00  0.00    -0.054 A 
ATOM     24  CAP GUK d   1      -7.145  29.012  29.009  0.00  0.00    -0.069 A 
ATOM     25  H14 GUK d   1      -8.312  27.375  29.791  0.00  0.00     0.087 H 
ATOM     26  H15 GUK d   1      -6.931  28.496  28.080  0.00  0.00     0.085 H 
ENDBRANCH  10  13
BRANCH   1  27
ATOM     27  NAK GUK d   1      -3.552  34.368  25.308  0.00  0.00    -0.383 N 
ATOM     28  H8  GUK d   1      -2.938  33.653  24.893  0.00  0.00     0.160 HD
BRANCH  27  29
ATOM     29  CAL GUK d   1      -3.503  35.758  24.771  0.00  0.00     0.003 C 
ATOM     30  H4  GUK d   1      -3.981  36.453  25.477  0.00  0.00     0.071 H 
BRANCH  29  31
ATOM     31  CAM GUK d   1      -4.175  35.844  23.386  0.00  0.00    -0.058 C 
ATOM     32  H1  GUK d   1      -4.123  36.879  23.017  0.00  0.00     0.030 H 
ATOM     33  H2  GUK d   1      -5.228  35.537  23.470  0.00  0.00     0.030 H 
ATOM     34  H3  GUK d   1      -3.653  35.178  22.683  0.00  0.00     0.030 H 
ENDBRANCH  29  31
BRANCH  29  35
ATOM     35  CAN GUK d   1      -2.021  36.127  24.538  0.00  0.00    -0.058 C 
ATOM     36  H5  GUK d   1      -1.478  36.085  25.494  0.00  0.00     0.030 H 
ATOM     37  H6  GUK d   1      -1.957  37.144  24.124  0.00  0.00     0.030 H 
ATOM     38  H7  GUK d   1      -1.573  35.414  23.830  0.00  0.00     0.030 H 
ENDBRANCH  29  35
ENDBRANCH  27  29
ENDBRANCH   1  27
TORSDOF 5
