REMARK  20 active torsions:
REMARK  status: ('A' for Active; 'I' for Inactive)
REMARK    1  A    between atoms: C7_4  and  C6_3 
REMARK    2  A    between atoms: C8_5  and  C7_4 
REMARK    3  A    between atoms: N22_34  and  C8_5 
REMARK    4  A    between atoms: C8_5  and  C9_38 
REMARK    5  A    between atoms: C9_38  and  C10_6 
REMARK    6  A    between atoms: C10_6  and  C11_40 
REMARK    7  A    between atoms: C10_6  and  C12_41 
REMARK    8  A    between atoms: C10_6  and  O13_42 
REMARK    9  A    between atoms: C24_7  and  N25_22 
REMARK   10  A    between atoms: C24_7  and  C40_23 
REMARK   11  A    between atoms: C23_32  and  C24_7 
REMARK   12  A    between atoms: C26_8  and  C27_19 
REMARK       I    between atoms: N25_22  and  C26_8 
REMARK   13  A    between atoms: C30_15  and  N31_14 
REMARK   14  A    between atoms: C29_16  and  C30_15 
REMARK       I    between atoms: N28_18  and  C29_16 
REMARK   15  A    between atoms: C27_19  and  N28_18 
REMARK   16  A    between atoms: C27_19  and  C38_20 
REMARK   17  A    between atoms: C40_23  and  C41_24 
REMARK   18  A    between atoms: C44_27  and  O45_28 
REMARK   19  A    between atoms: O45_28  and  C46_29 
REMARK       I    between atoms: C23_32  and  N22_34 
REMARK   20  A    between atoms: C9_38  and  O21_39 
ROOT
ATOM      1  C24 GQK d   1      61.419-135.164  39.262  0.00  0.00     0.093 C 
ATOM      2  H6  GQK d   1      60.882-134.254  39.567  0.00  0.00     0.088 H 
ENDROOT
BRANCH   1   3
ATOM      3  N25 GQK d   1      61.657-135.088  37.828  0.00  0.00    -0.346 N 
ATOM      4  C26 GQK d   1      61.149-134.147  37.053  0.00  0.00     0.240 C 
ATOM      5  O39 GQK d   1      60.444-133.243  37.445  0.00  0.00    -0.271 OA
ATOM      6  H23 GQK d   1      62.236-135.786  37.407  0.00  0.00     0.163 HD
BRANCH   4   7
ATOM      7  C27 GQK d   1      61.511-134.247  35.616  0.00  0.00     0.086 C 
ATOM      8  H19 GQK d   1      61.744-135.286  35.340  0.00  0.00     0.086 H 
BRANCH   7   9
ATOM      9  N28 GQK d   1      60.453-133.720  34.788  0.00  0.00    -0.347 N 
ATOM     10  C29 GQK d   1      59.399-134.437  34.498  0.00  0.00     0.244 C 
ATOM     11  O37 GQK d   1      59.243-135.574  34.882  0.00  0.00    -0.272 OA
ATOM     12  H18 GQK d   1      60.528-132.789  34.429  0.00  0.00     0.163 HD
BRANCH  10  13
ATOM     13  C30 GQK d   1      58.371-133.783  33.631  0.00  0.00     0.156 C 
ATOM     14  H16 GQK d   1      58.615-132.717  33.512  0.00  0.00     0.090 H 
ATOM     15  H17 GQK d   1      58.359-134.269  32.644  0.00  0.00     0.090 H 
BRANCH  13  16
ATOM     16  N31 GQK d   1      57.065-133.915  34.253  0.00  0.00    -0.059 N 
ATOM     17  C36 GQK d   1      56.101-134.278  33.214  0.00  0.00     0.103 C 
ATOM     18  C35 GQK d   1      54.738-134.415  33.848  0.00  0.00     0.042 C 
ATOM     19  H7  GQK d   1      56.074-133.494  32.443  0.00  0.00     0.079 H 
ATOM     20  H8  GQK d   1      56.394-135.234  32.755  0.00  0.00     0.079 H 
ATOM     21  O34 GQK d   1      54.411-133.136  34.438  0.00  0.00    -0.388 OA
ATOM     22  H9  GQK d   1      54.760-135.194  34.625  0.00  0.00     0.076 H 
ATOM     23  H10 GQK d   1      53.992-134.680  33.084  0.00  0.00     0.076 H 
ATOM     24  C33 GQK d   1      55.329-132.716  35.438  0.00  0.00     0.042 C 
ATOM     25  C32 GQK d   1      56.697-132.606  34.783  0.00  0.00     0.103 C 
ATOM     26  H11 GQK d   1      55.361-133.454  36.253  0.00  0.00     0.076 H 
ATOM     27  H12 GQK d   1      55.025-131.738  35.840  0.00  0.00     0.076 H 
ATOM     28  H13 GQK d   1      57.440-132.285  35.528  0.00  0.00     0.079 H 
ATOM     29  H14 GQK d   1      56.658-131.872  33.965  0.00  0.00     0.079 H 
ATOM     30  H15 GQK d   1      57.082-134.608  34.984  0.00  0.00     0.280 HD
ENDBRANCH  13  16
ENDBRANCH  10  13
ENDBRANCH   7   9
BRANCH   7  31
ATOM     31  C38 GQK d   1      62.690-133.343  35.425  0.00  0.00    -0.049 C 
ATOM     32  H20 GQK d   1      63.530-133.702  36.038  0.00  0.00     0.030 H 
ATOM     33  H21 GQK d   1      62.422-132.321  35.732  0.00  0.00     0.030 H 
ATOM     34  H22 GQK d   1      62.984-133.342  34.365  0.00  0.00     0.030 H 
ENDBRANCH   7  31
ENDBRANCH   4   7
ENDBRANCH   1   3
BRANCH   1  35
ATOM     35  C40 GQK d   1      60.605-136.369  39.659  0.00  0.00    -0.014 C 
ATOM     36  H24 GQK d   1      60.618-136.425  40.758  0.00  0.00     0.043 H 
ATOM     37  H25 GQK d   1      61.105-137.255  39.240  0.00  0.00     0.043 H 
BRANCH  35  38
ATOM     38  C41 GQK d   1      59.288-136.417  39.262  0.00  0.00    -0.056 A 
ATOM     39  C48 GQK d   1      58.813-136.600  37.997  0.00  0.00    -0.074 A 
ATOM     40  C47 GQK d   1      57.450-136.654  37.776  0.00  0.00    -0.050 A 
ATOM     41  H26 GQK d   1      59.503-136.703  37.167  0.00  0.00     0.084 H 
ATOM     42  C44 GQK d   1      56.554-136.528  38.811  0.00  0.00     0.068 A 
ATOM     43  H27 GQK d   1      57.080-136.798  36.767  0.00  0.00     0.087 H 
ATOM     44  C43 GQK d   1      57.048-136.369  40.058  0.00  0.00    -0.050 A 
ATOM     45  C42 GQK d   1      58.391-136.318  40.275  0.00  0.00    -0.074 A 
ATOM     46  H31 GQK d   1      56.367-136.281  40.897  0.00  0.00     0.087 H 
ATOM     47  H32 GQK d   1      58.755-136.195  41.289  0.00  0.00     0.084 H 
BRANCH  42  48
ATOM     48  O45 GQK d   1      55.205-136.574  38.734  0.00  0.00    -0.356 OA
BRANCH  48  49
ATOM     49  C46 GQK d   1      54.519-135.362  38.505  0.00  0.00     0.010 C 
ATOM     50  H28 GQK d   1      53.437-135.555  38.467  0.00  0.00     0.066 H 
ATOM     51  H29 GQK d   1      54.848-134.929  37.549  0.00  0.00     0.066 H 
ATOM     52  H30 GQK d   1      54.738-134.657  39.321  0.00  0.00     0.066 H 
ENDBRANCH  48  49
ENDBRANCH  42  48
ENDBRANCH  35  38
ENDBRANCH   1  35
BRANCH   1  53
ATOM     53  C23 GQK d   1      62.710-135.255  40.017  0.00  0.00     0.241 C 
ATOM     54  O49 GQK d   1      63.742-135.520  39.459  0.00  0.00    -0.271 OA
ATOM     55  N22 GQK d   1      62.566-135.030  41.304  0.00  0.00    -0.352 N 
ATOM     56  H33 GQK d   1      61.627-134.834  41.587  0.00  0.00     0.163 HD
BRANCH  55  57
ATOM     57  C8  GQK d   1      63.547-135.017  42.401  0.00  0.00     0.043 C 
ATOM     58  H5  GQK d   1      64.539-135.201  41.962  0.00  0.00     0.077 H 
BRANCH  57  59
ATOM     59  C7  GQK d   1      63.588-133.629  43.060  0.00  0.00    -0.020 C 
ATOM     60  H3  GQK d   1      62.556-133.362  43.333  0.00  0.00     0.043 H 
ATOM     61  H4  GQK d   1      64.198-133.714  43.972  0.00  0.00     0.043 H 
BRANCH  59  62
ATOM     62  C6  GQK d   1      64.101-132.591  42.314  0.00  0.00    -0.056 A 
ATOM     63  C5  GQK d   1      64.746-132.771  41.120  0.00  0.00    -0.077 A 
ATOM     64  C4  GQK d   1      65.269-131.686  40.446  0.00  0.00    -0.082 A 
ATOM     65  H2  GQK d   1      64.846-133.767  40.703  0.00  0.00     0.084 H 
ATOM     66  C3  GQK d   1      65.179-130.416  40.956  0.00  0.00    -0.083 A 
ATOM     67  H1  GQK d   1      65.762-131.841  39.493  0.00  0.00     0.083 H 
ATOM     68  C2  GQK d   1      64.549-130.234  42.160  0.00  0.00    -0.082 A 
ATOM     69  H34 GQK d   1      65.597-129.573  40.418  0.00  0.00     0.083 H 
ATOM     70  C1  GQK d   1      64.026-131.321  42.829  0.00  0.00    -0.077 A 
ATOM     71  H35 GQK d   1      64.462-129.240  42.584  0.00  0.00     0.083 H 
ATOM     72  H36 GQK d   1      63.543-131.168  43.787  0.00  0.00     0.084 H 
ENDBRANCH  59  62
ENDBRANCH  57  59
BRANCH  57  73
ATOM     73  C9  GQK d   1      63.280-136.156  43.418  0.00  0.00     0.084 C 
ATOM     74  H37 GQK d   1      64.005-136.003  44.230  0.00  0.00     0.090 H 
BRANCH  73  75
ATOM     75  C10 GQK d   1      63.570-137.495  42.873  0.00  0.00     0.078 C 
BRANCH  75  76
ATOM     76  C11 GQK d   1      63.735-138.580  43.854  0.00  0.00    -0.046 C 
ATOM     77  H39 GQK d   1      63.946-139.522  43.327  0.00  0.00     0.031 H 
ATOM     78  H40 GQK d   1      62.811-138.688  44.441  0.00  0.00     0.031 H 
ATOM     79  H41 GQK d   1      64.571-138.341  44.527  0.00  0.00     0.031 H 
ENDBRANCH  75  76
BRANCH  75  80
ATOM     80  C12 GQK d   1      64.957-137.504  42.230  0.00  0.00    -0.046 C 
ATOM     81  H42 GQK d   1      65.005-136.729  41.451  0.00  0.00     0.031 H 
ATOM     82  H43 GQK d   1      65.146-138.489  41.779  0.00  0.00     0.031 H 
ATOM     83  H44 GQK d   1      65.718-137.300  42.997  0.00  0.00     0.031 H 
ENDBRANCH  75  80
BRANCH  75  84
ATOM     84  O13 GQK d   1      63.066-138.174  41.770  0.00  0.00    -0.388 OA
ATOM     85  H45 GQK d   1      62.919-137.559  41.061  0.00  0.00     0.210 HD
ENDBRANCH  75  84
ENDBRANCH  73  75
BRANCH  73  86
ATOM     86  O21 GQK d   1      62.064-136.079  43.998  0.00  0.00    -0.390 OA
ATOM     87  H38 GQK d   1      61.928-135.200  44.331  0.00  0.00     0.210 HD
ENDBRANCH  73  86
ENDBRANCH  57  73
ENDBRANCH  55  57
ENDBRANCH   1  53
TORSDOF 20
