REMARK  21 active torsions:
REMARK  status: ('A' for Active; 'I' for Inactive)
REMARK    1  A    between atoms: C7_2  and  C6_1 
REMARK    2  A    between atoms: C6_1  and  N51_34 
REMARK    3  A    between atoms: C6_1  and  C54_37 
REMARK       I    between atoms: N8_32  and  C7_2 
REMARK       I    between atoms: C10_3  and  N11_25 
REMARK    4  A    between atoms: C9_27  and  C10_3 
REMARK       I    between atoms: C13_4  and  N14_21 
REMARK    5  A    between atoms: C12_23  and  C13_4 
REMARK    6  A    between atoms: C15_5  and  C16_16 
REMARK    7  A    between atoms: C15_5  and  C25_17 
REMARK    8  A    between atoms: N14_21  and  C15_5 
REMARK    9  A    between atoms: C16_16  and  C17_6 
REMARK   10  A    between atoms: C20_7  and  C21_8 
REMARK   11  A    between atoms: C25_17  and  C26_10 
REMARK   12  A    between atoms: C26_10  and  S27_18 
REMARK   13  A    between atoms: S27_18  and  C28_11 
REMARK   14  A    between atoms: C12_23  and  C32_24 
REMARK   15  A    between atoms: N11_25  and  C12_23 
REMARK   16  A    between atoms: C9_27  and  C40_28 
REMARK   17  A    between atoms: C9_27  and  N8_32 
REMARK   18  A    between atoms: C40_28  and  C41_29 
REMARK   19  A    between atoms: C41_29  and  C42_30 
REMARK   20  A    between atoms: C41_29  and  C43_31 
REMARK   21  A    between atoms: C54_37  and  C55_38 
ROOT
ATOM      1  N51 GQH d   1      57.893-134.908  32.758  0.00  0.00    -0.100 NA
ATOM      2  N52 GQH d   1      58.574-134.633  31.806  0.00  0.00    -0.167 NA
ATOM      3  N53 GQH d   1      59.218-134.378  30.886  0.00  0.00     0.068 N 
ENDROOT
BRANCH   1   4
ATOM      4  C6  GQH d   1      58.261-134.240  34.012  0.00  0.00     0.145 C 
ATOM      5  H1  GQH d   1      58.361-133.160  33.828  0.00  0.00     0.095 H 
BRANCH   4   6
ATOM      6  C7  GQH d   1      59.569-134.812  34.547  0.00  0.00     0.246 C 
ATOM      7  N8  GQH d   1      60.498-133.903  34.871  0.00  0.00    -0.346 N 
ATOM      8  H34 GQH d   1      60.372-132.940  34.633  0.00  0.00     0.163 HD
ATOM      9  O44 GQH d   1      59.709-136.027  34.715  0.00  0.00    -0.271 OA
BRANCH   7  10
ATOM     10  C9  GQH d   1      61.694-134.342  35.576  0.00  0.00     0.089 C 
ATOM     11  H24 GQH d   1      62.047-135.304  35.176  0.00  0.00     0.087 H 
BRANCH  10  12
ATOM     12  C10 GQH d   1      61.211-134.455  37.004  0.00  0.00     0.241 C 
ATOM     13  N11 GQH d   1      61.914-135.302  37.743  0.00  0.00    -0.346 N 
ATOM     14  H23 GQH d   1      62.690-135.797  37.351  0.00  0.00     0.163 HD
ATOM     15  O39 GQH d   1      60.239-133.800  37.407  0.00  0.00    -0.271 OA
BRANCH  13  16
ATOM     16  C12 GQH d   1      61.537-135.499  39.133  0.00  0.00     0.086 C 
ATOM     17  H19 GQH d   1      61.038-134.592  39.506  0.00  0.00     0.086 H 
BRANCH  16  18
ATOM     18  C13 GQH d   1      62.772-135.762  39.966  0.00  0.00     0.240 C 
ATOM     19  N14 GQH d   1      62.715-135.155  41.143  0.00  0.00    -0.354 N 
ATOM     20  H18 GQH d   1      61.938-134.558  41.340  0.00  0.00     0.162 HD
ATOM     21  O31 GQH d   1      63.702-136.461  39.559  0.00  0.00    -0.271 OA
BRANCH  19  22
ATOM     22  C15 GQH d   1      63.745-135.327  42.160  0.00  0.00     0.017 C 
ATOM     23  H2  GQH d   1      64.729-135.418  41.676  0.00  0.00     0.073 H 
BRANCH  22  24
ATOM     24  C16 GQH d   1      63.750-134.034  43.041  0.00  0.00    -0.022 C 
ATOM     25  H14 GQH d   1      64.361-134.219  43.937  0.00  0.00     0.043 H 
ATOM     26  H15 GQH d   1      62.717-133.807  43.342  0.00  0.00     0.043 H 
BRANCH  24  27
ATOM     27  C17 GQH d   1      64.271-132.932  42.362  0.00  0.00    -0.056 A 
ATOM     28  C24 GQH d   1      65.051-132.999  41.190  0.00  0.00    -0.076 A 
ATOM     29  C23 GQH d   1      65.546-131.855  40.580  0.00  0.00    -0.071 A 
ATOM     30  H4  GQH d   1      65.269-133.967  40.755  0.00  0.00     0.084 H 
ATOM     31  C20 GQH d   1      65.293-130.602  41.113  0.00  0.00    -0.019 A 
ATOM     32  H13 GQH d   1      66.138-131.943  39.676  0.00  0.00     0.084 H 
ATOM     33  C19 GQH d   1      64.523-130.506  42.284  0.00  0.00    -0.071 A 
ATOM     34  C18 GQH d   1      64.021-131.662  42.899  0.00  0.00    -0.076 A 
ATOM     35  H11 GQH d   1      64.316-129.533  42.715  0.00  0.00     0.084 H 
ATOM     36  H10 GQH d   1      63.431-131.572  43.804  0.00  0.00     0.084 H 
BRANCH  31  37
ATOM     37  C21 GQH d   1      65.829-129.506  40.438  0.00  0.00     0.004 C 
ATOM     38  N22 GQH d   1      65.726-128.273  40.939  0.00  0.00    -0.311 NA
ATOM     39  H12 GQH d   1      66.119-127.491  40.439  0.00  0.00     0.186 HD
ATOM     40  H3  GQH d   1      66.339-129.658  39.488  0.00  0.00     0.115 H 
ENDBRANCH  31  37
ENDBRANCH  24  27
ENDBRANCH  22  24
BRANCH  22  41
ATOM     41  C25 GQH d   1      63.465-136.641  42.927  0.00  0.00    -0.034 C 
ATOM     42  H16 GQH d   1      64.116-136.694  43.812  0.00  0.00     0.037 H 
ATOM     43  H17 GQH d   1      63.670-137.499  42.270  0.00  0.00     0.037 H 
BRANCH  41  44
ATOM     44  C26 GQH d   1      61.993-136.678  43.372  0.00  0.00     0.030 C 
ATOM     45  H5  GQH d   1      61.391-136.196  42.588  0.00  0.00     0.056 H 
ATOM     46  H6  GQH d   1      61.907-136.103  44.306  0.00  0.00     0.056 H 
BRANCH  44  47
ATOM     47  S27 GQH d   1      61.302-138.333  43.670  0.00  0.00     0.140 S 
ATOM     48  O29 GQH d   1      59.809-138.157  43.913  0.00  0.00    -0.228 OA
ATOM     49  O30 GQH d   1      61.917-138.930  44.926  0.00  0.00    -0.228 OA
BRANCH  47  50
ATOM     50  C28 GQH d   1      61.559-139.490  42.336  0.00  0.00     0.015 C 
ATOM     51  H7  GQH d   1      61.111-140.459  42.600  0.00  0.00     0.048 H 
ATOM     52  H8  GQH d   1      62.638-139.619  42.165  0.00  0.00     0.048 H 
ATOM     53  H9  GQH d   1      61.086-139.105  41.420  0.00  0.00     0.048 H 
ENDBRANCH  47  50
ENDBRANCH  44  47
ENDBRANCH  41  44
ENDBRANCH  22  41
ENDBRANCH  19  22
ENDBRANCH  16  18
BRANCH  16  54
ATOM     54  C32 GQH d   1      60.569-136.682  39.233  0.00  0.00    -0.049 C 
ATOM     55  H20 GQH d   1      59.676-136.478  38.623  0.00  0.00     0.030 H 
ATOM     56  H21 GQH d   1      60.272-136.825  40.282  0.00  0.00     0.030 H 
ATOM     57  H22 GQH d   1      61.064-137.593  38.865  0.00  0.00     0.030 H 
ENDBRANCH  16  54
ENDBRANCH  13  16
ENDBRANCH  10  12
BRANCH  10  58
ATOM     58  C40 GQH d   1      62.839-133.337  35.591  0.00  0.00    -0.035 C 
ATOM     59  H25 GQH d   1      63.646-133.720  36.233  0.00  0.00     0.037 H 
ATOM     60  H26 GQH d   1      62.474-132.380  35.992  0.00  0.00     0.037 H 
BRANCH  58  61
ATOM     61  C41 GQH d   1      63.384-133.113  34.184  0.00  0.00    -0.059 C 
ATOM     62  H27 GQH d   1      62.578-132.695  33.563  0.00  0.00     0.038 H 
BRANCH  61  63
ATOM     63  C42 GQH d   1      64.529-132.083  34.262  0.00  0.00    -0.073 C 
ATOM     64  H28 GQH d   1      64.935-131.909  33.255  0.00  0.00     0.028 H 
ATOM     65  H29 GQH d   1      65.325-132.468  34.916  0.00  0.00     0.028 H 
ATOM     66  H30 GQH d   1      64.144-131.137  34.671  0.00  0.00     0.028 H 
ENDBRANCH  61  63
BRANCH  61  67
ATOM     67  C43 GQH d   1      63.859-134.428  33.522  0.00  0.00    -0.073 C 
ATOM     68  H31 GQH d   1      63.022-135.141  33.481  0.00  0.00     0.028 H 
ATOM     69  H32 GQH d   1      64.680-134.860  34.113  0.00  0.00     0.028 H 
ATOM     70  H33 GQH d   1      64.212-134.218  32.502  0.00  0.00     0.028 H 
ENDBRANCH  61  67
ENDBRANCH  58  61
ENDBRANCH  10  58
ENDBRANCH   7  10
ENDBRANCH   4   6
BRANCH   4  71
ATOM     71  C54 GQH d   1      57.219-134.494  35.131  0.00  0.00    -0.009 C 
ATOM     72  H35 GQH d   1      57.588-134.013  36.049  0.00  0.00     0.044 H 
ATOM     73  H36 GQH d   1      57.152-135.581  35.287  0.00  0.00     0.044 H 
BRANCH  71  74
ATOM     74  C55 GQH d   1      55.914-134.012  34.886  0.00  0.00    -0.056 A 
ATOM     75  C60 GQH d   1      54.834-134.660  35.518  0.00  0.00    -0.077 A 
ATOM     76  C59 GQH d   1      53.506-134.229  35.323  0.00  0.00    -0.082 A 
ATOM     77  H37 GQH d   1      55.028-135.506  36.167  0.00  0.00     0.084 H 
ATOM     78  C58 GQH d   1      53.234-133.133  34.492  0.00  0.00    -0.083 A 
ATOM     79  H38 GQH d   1      52.692-134.747  35.817  0.00  0.00     0.083 H 
ATOM     80  C57 GQH d   1      54.298-132.477  33.862  0.00  0.00    -0.082 A 
ATOM     81  H39 GQH d   1      52.214-132.798  34.340  0.00  0.00     0.083 H 
ATOM     82  C56 GQH d   1      55.623-132.905  34.060  0.00  0.00    -0.077 A 
ATOM     83  H40 GQH d   1      54.099-131.631  33.215  0.00  0.00     0.083 H 
ATOM     84  H41 GQH d   1      56.433-132.377  33.571  0.00  0.00     0.084 H 
ENDBRANCH  71  74
ENDBRANCH   4  71
ENDBRANCH   1   4
TORSDOF 21
