REMARK  22 active torsions:
REMARK  status: ('A' for Active; 'I' for Inactive)
REMARK    1  A    between atoms: C7_3  and  C6_2 
REMARK       I    between atoms: N8_36  and  C7_3 
REMARK       I    between atoms: C10_4  and  N11_29 
REMARK    2  A    between atoms: C9_31  and  C10_4 
REMARK       I    between atoms: C13_5  and  N14_22 
REMARK    3  A    between atoms: C12_24  and  C13_5 
REMARK    4  A    between atoms: C15_6  and  C16_17 
REMARK    5  A    between atoms: C15_6  and  C25_18 
REMARK    6  A    between atoms: N14_22  and  C15_6 
REMARK    7  A    between atoms: C16_17  and  C17_7 
REMARK    8  A    between atoms: C20_8  and  C21_9 
REMARK    9  A    between atoms: C21_9  and  N22_15 
REMARK   10  A    between atoms: C25_18  and  C26_11 
REMARK   11  A    between atoms: C26_11  and  S27_19 
REMARK   12  A    between atoms: S27_19  and  C28_12 
REMARK   13  A    between atoms: C12_24  and  C32_25 
REMARK   14  A    between atoms: N11_29  and  C12_24 
REMARK   15  A    between atoms: C32_25  and  C33_26 
REMARK   16  A    between atoms: C33_26  and  C38_27 
REMARK   17  A    between atoms: C33_26  and  C34_28 
REMARK   18  A    between atoms: C9_31  and  C40_32 
REMARK   19  A    between atoms: C9_31  and  N8_36 
REMARK   20  A    between atoms: C40_32  and  C41_33 
REMARK   21  A    between atoms: C41_33  and  C43_34 
REMARK   22  A    between atoms: C41_33  and  C42_35 
ROOT
ATOM      1  C12 GQQ d   1      61.187-136.200  38.611  0.00  0.00     0.089 C 
ATOM      2  H22 GQQ d   1      60.558-135.378  38.984  0.00  0.00     0.087 H 
ENDROOT
BRANCH   1   3
ATOM      3  C13 GQQ d   1      62.430-136.340  39.449  0.00  0.00     0.240 C 
ATOM      4  N14 GQQ d   1      62.285-135.805  40.657  0.00  0.00    -0.354 N 
ATOM      5  H21 GQQ d   1      61.433-135.326  40.866  0.00  0.00     0.162 HD
ATOM      6  O31 GQQ d   1      63.393-137.001  39.068  0.00  0.00    -0.271 OA
BRANCH   4   7
ATOM      7  C15 GQQ d   1      63.315-135.884  41.698  0.00  0.00     0.017 C 
ATOM      8  H2  GQQ d   1      64.305-135.925  41.221  0.00  0.00     0.073 H 
BRANCH   7   9
ATOM      9  C16 GQQ d   1      63.245-134.575  42.560  0.00  0.00    -0.022 C 
ATOM     10  H17 GQQ d   1      63.752-134.758  43.519  0.00  0.00     0.043 H 
ATOM     11  H18 GQQ d   1      62.188-134.332  42.744  0.00  0.00     0.043 H 
BRANCH   9  12
ATOM     12  C17 GQQ d   1      63.850-133.486  41.938  0.00  0.00    -0.056 A 
ATOM     13  C24 GQQ d   1      64.636-133.528  40.771  0.00  0.00    -0.076 A 
ATOM     14  C23 GQQ d   1      65.199-132.379  40.224  0.00  0.00    -0.075 A 
ATOM     15  H5  GQQ d   1      64.807-134.482  40.285  0.00  0.00     0.084 H 
ATOM     16  C20 GQQ d   1      65.001-131.140  40.813  0.00  0.00    -0.033 A 
ATOM     17  H16 GQQ d   1      65.800-132.454  39.325  0.00  0.00     0.084 H 
ATOM     18  C19 GQQ d   1      64.227-131.080  41.983  0.00  0.00    -0.075 A 
ATOM     19  C18 GQQ d   1      63.660-132.234  42.528  0.00  0.00    -0.076 A 
ATOM     20  H12 GQQ d   1      64.067-130.125  42.470  0.00  0.00     0.084 H 
ATOM     21  H11 GQQ d   1      63.060-132.157  43.428  0.00  0.00     0.084 H 
BRANCH  16  22
ATOM     22  C21 GQQ d   1      65.612-130.033  40.203  0.00  0.00     0.103 C 
ATOM     23  H3  GQQ d   1      65.751-130.265  39.137  0.00  0.00     0.082 H 
ATOM     24  H4  GQQ d   1      66.593-129.881  40.676  0.00  0.00     0.082 H 
BRANCH  22  25
ATOM     25  N22 GQQ d   1      64.856-128.771  40.302  0.00  0.00    -0.075 N 
ATOM     26  H13 GQQ d   1      65.367-128.036  39.839  0.00  0.00     0.274 HD
ATOM     27  H14 GQQ d   1      64.728-128.531  41.273  0.00  0.00     0.274 HD
ATOM     28  H15 GQQ d   1      63.956-128.883  39.862  0.00  0.00     0.274 HD
ENDBRANCH  22  25
ENDBRANCH  16  22
ENDBRANCH   9  12
ENDBRANCH   7   9
BRANCH   7  29
ATOM     29  C25 GQQ d   1      63.122-137.190  42.502  0.00  0.00    -0.034 C 
ATOM     30  H19 GQQ d   1      63.759-137.161  43.398  0.00  0.00     0.037 H 
ATOM     31  H20 GQQ d   1      63.410-138.047  41.875  0.00  0.00     0.037 H 
BRANCH  29  32
ATOM     32  C26 GQQ d   1      61.642-137.347  42.933  0.00  0.00     0.030 C 
ATOM     33  H6  GQQ d   1      61.019-136.962  42.112  0.00  0.00     0.056 H 
ATOM     34  H7  GQQ d   1      61.494-136.725  43.828  0.00  0.00     0.056 H 
BRANCH  32  35
ATOM     35  S27 GQQ d   1      61.040-139.029  43.332  0.00  0.00     0.140 S 
ATOM     36  O29 GQQ d   1      59.584-138.972  43.749  0.00  0.00    -0.228 OA
ATOM     37  O30 GQQ d   1      61.768-139.554  44.550  0.00  0.00    -0.228 OA
BRANCH  35  38
ATOM     38  C28 GQQ d   1      61.239-140.154  41.959  0.00  0.00     0.015 C 
ATOM     39  H8  GQQ d   1      60.865-141.149  42.243  0.00  0.00     0.048 H 
ATOM     40  H9  GQQ d   1      62.304-140.224  41.694  0.00  0.00     0.048 H 
ATOM     41  H10 GQQ d   1      60.670-139.782  41.094  0.00  0.00     0.048 H 
ENDBRANCH  35  38
ENDBRANCH  32  35
ENDBRANCH  29  32
ENDBRANCH   7  29
ENDBRANCH   4   7
ENDBRANCH   1   3
BRANCH   1  42
ATOM     42  C32 GQQ d   1      60.499-137.557  38.827  0.00  0.00    -0.035 C 
ATOM     43  H23 GQQ d   1      60.304-137.685  39.902  0.00  0.00     0.037 H 
ATOM     44  H24 GQQ d   1      61.174-138.353  38.479  0.00  0.00     0.037 H 
BRANCH  42  45
ATOM     45  C33 GQQ d   1      59.172-137.676  38.071  0.00  0.00    -0.059 C 
ATOM     46  H25 GQQ d   1      59.352-137.506  36.999  0.00  0.00     0.038 H 
BRANCH  45  47
ATOM     47  C38 GQQ d   1      58.601-139.091  38.256  0.00  0.00    -0.073 C 
ATOM     48  H26 GQQ d   1      57.648-139.176  37.713  0.00  0.00     0.028 H 
ATOM     49  H27 GQQ d   1      58.431-139.281  39.326  0.00  0.00     0.028 H 
ATOM     50  H28 GQQ d   1      59.315-139.829  37.861  0.00  0.00     0.028 H 
ENDBRANCH  45  47
BRANCH  45  51
ATOM     51  C34 GQQ d   1      58.200-136.606  38.582  0.00  0.00    -0.073 C 
ATOM     52  H29 GQQ d   1      58.641-135.609  38.434  0.00  0.00     0.028 H 
ATOM     53  H30 GQQ d   1      58.008-136.766  39.653  0.00  0.00     0.028 H 
ATOM     54  H31 GQQ d   1      57.254-136.675  38.026  0.00  0.00     0.028 H 
ENDBRANCH  45  51
ENDBRANCH  42  45
ENDBRANCH   1  42
BRANCH   1  55
ATOM     55  N11 GQQ d   1      61.484-135.962  37.191  0.00  0.00    -0.346 N 
ATOM     56  C10 GQQ d   1      60.923-134.955  36.495  0.00  0.00     0.241 C 
ATOM     57  O39 GQQ d   1      60.142-134.120  36.947  0.00  0.00    -0.271 OA
ATOM     58  H32 GQQ d   1      62.126-136.570  36.725  0.00  0.00     0.163 HD
BRANCH  56  59
ATOM     59  C9  GQQ d   1      61.306-134.902  35.027  0.00  0.00     0.090 C 
ATOM     60  H33 GQQ d   1      61.953-135.756  34.775  0.00  0.00     0.087 H 
BRANCH  59  61
ATOM     61  C40 GQQ d   1      62.041-133.604  34.730  0.00  0.00    -0.035 C 
ATOM     62  H34 GQQ d   1      61.484-132.760  35.163  0.00  0.00     0.037 H 
ATOM     63  H35 GQQ d   1      62.122-133.470  33.641  0.00  0.00     0.037 H 
BRANCH  61  64
ATOM     64  C41 GQQ d   1      63.450-133.658  35.346  0.00  0.00    -0.059 C 
ATOM     65  H36 GQQ d   1      63.365-133.982  36.394  0.00  0.00     0.038 H 
BRANCH  64  66
ATOM     66  C43 GQQ d   1      64.075-132.270  35.306  0.00  0.00    -0.073 C 
ATOM     67  H37 GQQ d   1      65.082-132.309  35.746  0.00  0.00     0.028 H 
ATOM     68  H38 GQQ d   1      63.450-131.570  35.880  0.00  0.00     0.028 H 
ATOM     69  H39 GQQ d   1      64.144-131.929  34.263  0.00  0.00     0.028 H 
ENDBRANCH  64  66
BRANCH  64  70
ATOM     70  C42 GQQ d   1      64.343-134.650  34.597  0.00  0.00    -0.073 C 
ATOM     71  H40 GQQ d   1      63.887-135.650  34.629  0.00  0.00     0.028 H 
ATOM     72  H41 GQQ d   1      65.334-134.683  35.073  0.00  0.00     0.028 H 
ATOM     73  H42 GQQ d   1      64.450-134.329  33.550  0.00  0.00     0.028 H 
ENDBRANCH  64  70
ENDBRANCH  61  64
ENDBRANCH  59  61
BRANCH  59  74
ATOM     74  N8  GQQ d   1      60.072-134.966  34.253  0.00  0.00    -0.342 N 
ATOM     75  C7  GQQ d   1      59.372-136.121  34.155  0.00  0.00     0.272 C 
ATOM     76  O44 GQQ d   1      59.709-137.191  34.668  0.00  0.00    -0.266 OA
ATOM     77  H43 GQQ d   1      59.738-134.146  33.788  0.00  0.00     0.163 HD
BRANCH  75  78
ATOM     78  C6  GQQ d   1      58.232-136.035  33.361  0.00  0.00     0.141 A 
ATOM     79  N6  GQQ d   1      57.859-134.810  32.962  0.00  0.00    -0.253 NA
ATOM     80  C4  GQQ d   1      56.752-134.637  32.162  0.00  0.00     0.020 A 
ATOM     81  C3  GQQ d   1      55.984-135.718  31.732  0.00  0.00     0.019 A 
ATOM     82  H1  GQQ d   1      56.471-133.635  31.859  0.00  0.00     0.117 H 
ATOM     83  N2  GQQ d   1      56.368-137.013  32.136  0.00  0.00    -0.269 NA
ATOM     84  H44 GQQ d   1      55.114-135.567  31.103  0.00  0.00     0.117 H 
ATOM     85  C1  GQQ d   1      57.502-137.169  32.957  0.00  0.00     0.035 A 
ATOM     86  H45 GQQ d   1      57.811-138.158  33.276  0.00  0.00     0.118 H 
ENDBRANCH  75  78
ENDBRANCH  59  74
ENDBRANCH  56  59
ENDBRANCH   1  55
TORSDOF 22
