REMARK  22 active torsions:
REMARK  status: ('A' for Active; 'I' for Inactive)
REMARK    1  A    between atoms: C7_2  and  C6_1 
REMARK    2  A    between atoms: C6_1  and  N51_35 
REMARK    3  A    between atoms: C6_1  and  C54_38 
REMARK       I    between atoms: N8_33  and  C7_2 
REMARK       I    between atoms: C10_3  and  N11_26 
REMARK    4  A    between atoms: C9_28  and  C10_3 
REMARK       I    between atoms: C13_4  and  N14_21 
REMARK    5  A    between atoms: C12_23  and  C13_4 
REMARK    6  A    between atoms: C15_5  and  C16_16 
REMARK    7  A    between atoms: C15_5  and  C25_17 
REMARK    8  A    between atoms: N14_21  and  C15_5 
REMARK    9  A    between atoms: C16_16  and  C17_6 
REMARK   10  A    between atoms: C20_7  and  C21_8 
REMARK   11  A    between atoms: C25_17  and  C26_10 
REMARK   12  A    between atoms: C26_10  and  S27_18 
REMARK   13  A    between atoms: S27_18  and  C28_11 
REMARK   14  A    between atoms: C12_23  and  C32_24 
REMARK   15  A    between atoms: N11_26  and  C12_23 
REMARK   16  A    between atoms: C32_24  and  O33_25 
REMARK   17  A    between atoms: C9_28  and  C40_29 
REMARK   18  A    between atoms: C9_28  and  N8_33 
REMARK   19  A    between atoms: C40_29  and  C41_30 
REMARK   20  A    between atoms: C41_30  and  C42_31 
REMARK   21  A    between atoms: C41_30  and  C43_32 
REMARK   22  A    between atoms: C54_38  and  C55_39 
ROOT
ATOM      1  N51 GQT d   1      58.095-135.738  32.925  0.00  0.00    -0.100 NA
ATOM      2  N52 GQT d   1      58.177-135.627  31.884  0.00  0.00    -0.167 NA
ATOM      3  N53 GQT d   1      58.282-135.488  30.805  0.00  0.00     0.068 N 
ENDROOT
BRANCH   1   4
ATOM      4  C6  GQT d   1      58.741-134.697  33.730  0.00  0.00     0.145 C 
ATOM      5  H1  GQT d   1      59.016-133.869  33.060  0.00  0.00     0.095 H 
BRANCH   4   6
ATOM      6  C7  GQT d   1      59.957-135.198  34.494  0.00  0.00     0.246 C 
ATOM      7  N8  GQT d   1      60.660-134.226  35.118  0.00  0.00    -0.346 N 
ATOM      8  H34 GQT d   1      60.409-133.268  34.980  0.00  0.00     0.163 HD
ATOM      9  O44 GQT d   1      60.150-136.405  34.632  0.00  0.00    -0.271 OA
BRANCH   7  10
ATOM     10  C9  GQT d   1      61.782-134.559  35.992  0.00  0.00     0.089 C 
ATOM     11  H24 GQT d   1      62.204-135.530  35.692  0.00  0.00     0.087 H 
BRANCH  10  12
ATOM     12  C10 GQT d   1      61.199-134.625  37.384  0.00  0.00     0.241 C 
ATOM     13  N11 GQT d   1      61.841-135.487  38.168  0.00  0.00    -0.344 N 
ATOM     14  H23 GQT d   1      62.606-136.014  37.798  0.00  0.00     0.163 HD
ATOM     15  O39 GQT d   1      60.247-133.912  37.721  0.00  0.00    -0.271 OA
BRANCH  13  16
ATOM     16  C12 GQT d   1      61.449-135.673  39.549  0.00  0.00     0.109 C 
ATOM     17  H19 GQT d   1      60.874-134.803  39.898  0.00  0.00     0.090 H 
BRANCH  16  18
ATOM     18  C13 GQT d   1      62.689-135.856  40.372  0.00  0.00     0.242 C 
ATOM     19  N14 GQT d   1      62.569-135.336  41.578  0.00  0.00    -0.354 N 
ATOM     20  H18 GQT d   1      61.734-134.836  41.808  0.00  0.00     0.162 HD
ATOM     21  O31 GQT d   1      63.670-136.460  39.937  0.00  0.00    -0.271 OA
BRANCH  19  22
ATOM     22  C15 GQT d   1      63.611-135.465  42.586  0.00  0.00     0.017 C 
ATOM     23  H2  GQT d   1      64.591-135.539  42.093  0.00  0.00     0.073 H 
BRANCH  22  24
ATOM     24  C16 GQT d   1      63.599-134.154  43.434  0.00  0.00    -0.022 C 
ATOM     25  H14 GQT d   1      64.219-134.306  44.330  0.00  0.00     0.043 H 
ATOM     26  H15 GQT d   1      62.564-133.937  43.736  0.00  0.00     0.043 H 
BRANCH  24  27
ATOM     27  C17 GQT d   1      64.097-133.065  42.723  0.00  0.00    -0.056 A 
ATOM     28  C24 GQT d   1      64.782-133.131  41.496  0.00  0.00    -0.076 A 
ATOM     29  C23 GQT d   1      65.240-131.986  40.862  0.00  0.00    -0.071 A 
ATOM     30  H4  GQT d   1      64.955-134.097  41.036  0.00  0.00     0.084 H 
ATOM     31  C20 GQT d   1      65.037-130.736  41.425  0.00  0.00    -0.019 A 
ATOM     32  H13 GQT d   1      65.762-132.070  39.916  0.00  0.00     0.084 H 
ATOM     33  C19 GQT d   1      64.358-130.643  42.644  0.00  0.00    -0.071 A 
ATOM     34  C18 GQT d   1      63.898-131.798  43.280  0.00  0.00    -0.076 A 
ATOM     35  H11 GQT d   1      64.188-129.673  43.096  0.00  0.00     0.084 H 
ATOM     36  H10 GQT d   1      63.376-131.710  44.226  0.00  0.00     0.084 H 
BRANCH  31  37
ATOM     37  C21 GQT d   1      65.523-129.633  40.730  0.00  0.00     0.004 C 
ATOM     38  N22 GQT d   1      65.337-128.393  41.191  0.00  0.00    -0.311 NA
ATOM     39  H12 GQT d   1      65.695-127.605  40.675  0.00  0.00     0.186 HD
ATOM     40  H3  GQT d   1      66.063-129.783  39.796  0.00  0.00     0.115 H 
ENDBRANCH  31  37
ENDBRANCH  24  27
ENDBRANCH  22  24
BRANCH  22  41
ATOM     41  C25 GQT d   1      63.374-136.781  43.361  0.00  0.00    -0.034 C 
ATOM     42  H16 GQT d   1      63.995-136.786  44.269  0.00  0.00     0.037 H 
ATOM     43  H17 GQT d   1      63.649-137.634  42.724  0.00  0.00     0.037 H 
BRANCH  41  44
ATOM     44  C26 GQT d   1      61.892-136.897  43.756  0.00  0.00     0.030 C 
ATOM     45  H5  GQT d   1      61.306-136.388  42.976  0.00  0.00     0.056 H 
ATOM     46  H6  GQT d   1      61.768-136.368  44.712  0.00  0.00     0.056 H 
BRANCH  44  47
ATOM     47  S27 GQT d   1      61.183-138.555  43.964  0.00  0.00     0.140 S 
ATOM     48  O29 GQT d   1      59.695-138.410  43.735  0.00  0.00    -0.228 OA
ATOM     49  O30 GQT d   1      61.402-139.008  45.397  0.00  0.00    -0.228 OA
BRANCH  47  50
ATOM     50  C28 GQT d   1      61.754-139.801  42.824  0.00  0.00     0.015 C 
ATOM     51  H7  GQT d   1      61.258-140.757  43.047  0.00  0.00     0.048 H 
ATOM     52  H8  GQT d   1      62.843-139.921  42.926  0.00  0.00     0.048 H 
ATOM     53  H9  GQT d   1      61.514-139.494  41.795  0.00  0.00     0.048 H 
ENDBRANCH  47  50
ENDBRANCH  44  47
ENDBRANCH  41  44
ENDBRANCH  22  41
ENDBRANCH  19  22
ENDBRANCH  16  18
BRANCH  16  54
ATOM     54  C32 GQT d   1      60.629-136.943  39.699  0.00  0.00     0.044 C 
ATOM     55  H20 GQT d   1      60.470-137.158  40.766  0.00  0.00     0.077 H 
ATOM     56  H21 GQT d   1      61.160-137.785  39.231  0.00  0.00     0.077 H 
BRANCH  54  57
ATOM     57  O33 GQT d   1      59.378-136.751  39.058  0.00  0.00    -0.398 OA
ATOM     58  H22 GQT d   1      58.855-137.539  39.145  0.00  0.00     0.209 HD
ENDBRANCH  54  57
ENDBRANCH  16  54
ENDBRANCH  13  16
ENDBRANCH  10  12
BRANCH  10  59
ATOM     59  C40 GQT d   1      62.900-133.515  36.032  0.00  0.00    -0.035 C 
ATOM     60  H25 GQT d   1      63.513-133.681  36.930  0.00  0.00     0.037 H 
ATOM     61  H26 GQT d   1      62.452-132.511  36.075  0.00  0.00     0.037 H 
BRANCH  59  62
ATOM     62  C41 GQT d   1      63.797-133.610  34.789  0.00  0.00    -0.059 C 
ATOM     63  H27 GQT d   1      64.197-134.631  34.706  0.00  0.00     0.038 H 
BRANCH  62  64
ATOM     64  C42 GQT d   1      62.992-133.286  33.532  0.00  0.00    -0.073 C 
ATOM     65  H28 GQT d   1      63.645-133.357  32.650  0.00  0.00     0.028 H 
ATOM     66  H29 GQT d   1      62.589-132.266  33.608  0.00  0.00     0.028 H 
ATOM     67  H30 GQT d   1      62.163-134.002  33.433  0.00  0.00     0.028 H 
ENDBRANCH  62  64
BRANCH  62  68
ATOM     68  C43 GQT d   1      64.964-132.618  34.945  0.00  0.00    -0.073 C 
ATOM     69  H31 GQT d   1      65.534-132.863  35.853  0.00  0.00     0.028 H 
ATOM     70  H32 GQT d   1      64.567-131.595  35.026  0.00  0.00     0.028 H 
ATOM     71  H33 GQT d   1      65.624-132.687  34.068  0.00  0.00     0.028 H 
ENDBRANCH  62  68
ENDBRANCH  59  62
ENDBRANCH  10  59
ENDBRANCH   7  10
ENDBRANCH   4   6
BRANCH   4  72
ATOM     72  C54 GQT d   1      57.894-134.195  34.876  0.00  0.00    -0.009 C 
ATOM     73  H35 GQT d   1      57.653-133.152  34.622  0.00  0.00     0.044 H 
ATOM     74  H36 GQT d   1      58.556-134.214  35.754  0.00  0.00     0.044 H 
BRANCH  72  75
ATOM     75  C55 GQT d   1      56.708-134.746  35.305  0.00  0.00    -0.056 A 
ATOM     76  C60 GQT d   1      56.265-133.897  36.292  0.00  0.00    -0.077 A 
ATOM     77  C59 GQT d   1      55.100-134.155  36.955  0.00  0.00    -0.082 A 
ATOM     78  H37 GQT d   1      56.845-133.017  36.545  0.00  0.00     0.084 H 
ATOM     79  C58 GQT d   1      54.356-135.303  36.691  0.00  0.00    -0.083 A 
ATOM     80  H38 GQT d   1      54.747-133.453  37.702  0.00  0.00     0.083 H 
ATOM     81  C57 GQT d   1      54.802-136.192  35.715  0.00  0.00    -0.082 A 
ATOM     82  H39 GQT d   1      53.442-135.502  37.238  0.00  0.00     0.083 H 
ATOM     83  C56 GQT d   1      55.993-135.928  35.019  0.00  0.00    -0.077 A 
ATOM     84  H40 GQT d   1      54.230-137.086  35.493  0.00  0.00     0.083 H 
ATOM     85  H41 GQT d   1      56.358-136.623  34.272  0.00  0.00     0.084 H 
ENDBRANCH  72  75
ENDBRANCH   4  72
ENDBRANCH   1   4
TORSDOF 22
