REMARK  6 active torsions:
REMARK  status: ('A' for Active; 'I' for Inactive)
REMARK    1  A    between atoms: CBE_6  and  NBD_7 
REMARK       I    between atoms: NBD_7  and  CBB_8 
REMARK    2  A    between atoms: CBB_8  and  CAW_10 
REMARK    3  A    between atoms: CAV_15  and  NAQ_16 
REMARK    4  A    between atoms: NAQ_16  and  CAA_17 
REMARK    5  A    between atoms: CAC_26  and  CAG_27 
REMARK    6  A    between atoms: NAT_30  and  CAU_31 
ROOT
ATOM      1  CAA GV2 d   1      91.669  48.176 266.832  0.00  0.00     0.035 A 
ATOM      2  CAB GV2 d   1      91.980  49.405 267.418  0.00  0.00    -0.044 A 
ATOM      3  CAF GV2 d   1      92.678  47.234 266.654  0.00  0.00    -0.027 A 
ATOM      4  CAE GV2 d   1      93.967  47.529 267.041  0.00  0.00     0.088 A 
ATOM      5  NAM GV2 d   1      94.923  46.611 266.843  0.00  0.00    -0.257 NA
ATOM      6  CAN GV2 d   1      96.242  46.877 267.223  0.00  0.00     0.020 A 
ATOM      7  CAO GV2 d   1      96.560  48.096 267.804  0.00  0.00     0.020 A 
ATOM      8  NAP GV2 d   1      95.553  49.030 267.992  0.00  0.00    -0.256 NA
ATOM      9  CAD GV2 d   1      94.282  48.762 267.620  0.00  0.00     0.096 A 
ATOM     10  CAC GV2 d   1      93.278  49.715 267.809  0.00  0.00     0.007 A 
ATOM     11  H15 GV2 d   1      91.192  50.133 267.572  0.00  0.00     0.088 H 
ATOM     12  H16 GV2 d   1      92.450  46.271 266.212  0.00  0.00     0.090 H 
ATOM     13  H17 GV2 d   1      97.014  46.133 267.064  0.00  0.00     0.117 H 
ATOM     14  H18 GV2 d   1      97.578  48.314 268.106  0.00  0.00     0.117 H 
ENDROOT
BRANCH   1  15
ATOM     15  NAQ GV2 d   1      90.381  47.951 266.508  0.00  0.00    -0.354 N 
ATOM     16  H14 GV2 d   1      89.647  48.324 267.127  0.00  0.00     0.166 HD
BRANCH  15  17
ATOM     17  CAV GV2 d   1      90.007  47.263 265.416  0.00  0.00     0.066 A 
ATOM     18  CAW GV2 d   1      88.716  46.709 265.433  0.00  0.00     0.061 A 
ATOM     19  CAX GV2 d   1      88.306  46.039 264.299  0.00  0.00    -0.049 A 
ATOM     20  CAY GV2 d   1      89.114  45.897 263.185  0.00  0.00     0.003 A 
ATOM     21  H11 GV2 d   1      87.312  45.607 264.280  0.00  0.00     0.087 H 
ATOM     22  NAZ GV2 d   1      90.372  46.449 263.160  0.00  0.00    -0.271 NA
ATOM     23  H12 GV2 d   1      88.752  45.346 262.325  0.00  0.00     0.114 H 
ATOM     24  CBA GV2 d   1      90.817  47.133 264.287  0.00  0.00     0.028 A 
ATOM     25  H13 GV2 d   1      91.808  47.572 264.288  0.00  0.00     0.118 H 
BRANCH  18  26
ATOM     26  CBB GV2 d   1      87.847  46.799 266.544  0.00  0.00     0.254 C 
ATOM     27  NBD GV2 d   1      87.045  45.767 266.802  0.00  0.00    -0.352 N 
ATOM     28  H10 GV2 d   1      87.061  44.959 266.214  0.00  0.00     0.163 HD
ATOM     29  OBC GV2 d   1      87.858  47.766 267.289  0.00  0.00    -0.268 OA
BRANCH  27  30
ATOM     30  CBE GV2 d   1      86.131  45.824 267.964  0.00  0.00     0.016 C 
ATOM     31  CBF GV2 d   1      84.827  46.563 267.578  0.00  0.00    -0.026 C 
ATOM     32  CBG GV2 d   1      83.869  46.579 268.792  0.00  0.00     0.021 C 
ATOM     33  H1  GV2 d   1      85.064  47.596 267.283  0.00  0.00     0.039 H 
ATOM     34  H2  GV2 d   1      84.345  46.043 266.737  0.00  0.00     0.039 H 
ATOM     35  OBH GV2 d   1      83.591  45.225 269.275  0.00  0.00    -0.391 OA
ATOM     36  H3  GV2 d   1      82.922  47.053 268.494  0.00  0.00     0.074 H 
ATOM     37  H4  GV2 d   1      84.331  47.160 269.604  0.00  0.00     0.074 H 
ATOM     38  CBI GV2 d   1      84.781  44.431 269.619  0.00  0.00     0.021 C 
ATOM     39  CBJ GV2 d   1      85.824  44.392 268.479  0.00  0.00    -0.026 C 
ATOM     40  H5  GV2 d   1      84.465  43.401 269.841  0.00  0.00     0.074 H 
ATOM     41  H6  GV2 d   1      85.251  44.871 270.511  0.00  0.00     0.074 H 
ATOM     42  H7  GV2 d   1      85.429  43.787 267.649  0.00  0.00     0.039 H 
ATOM     43  H8  GV2 d   1      86.752  43.937 268.855  0.00  0.00     0.039 H 
ATOM     44  H9  GV2 d   1      86.624  46.386 268.771  0.00  0.00     0.072 H 
ENDBRANCH  27  30
ENDBRANCH  18  26
ENDBRANCH  15  17
ENDBRANCH   1  15
BRANCH  10  45
ATOM     45  CAG GV2 d   1      93.540  50.968 268.391  0.00  0.00    -0.021 A 
ATOM     46  CAH GV2 d   1      92.822  51.402 269.504  0.00  0.00    -0.045 A 
ATOM     47  CAI GV2 d   1      93.067  52.599 270.056  0.00  0.00     0.045 A 
ATOM     48  H19 GV2 d   1      92.056  50.764 269.929  0.00  0.00     0.088 H 
ATOM     49  NAT GV2 d   1      92.520  53.228 271.100  0.00  0.00    -0.360 N 
ATOM     50  CAJ GV2 d   1      94.016  53.400 269.568  0.00  0.00    -0.008 A 
ATOM     51  CAS GV2 d   1      93.110  54.415 271.263  0.00  0.00    -0.020 A 
ATOM     52  CAR GV2 d   1      94.039  54.527 270.309  0.00  0.00    -0.056 A 
ATOM     53  H23 GV2 d   1      92.878  55.153 272.029  0.00  0.00     0.111 H 
ATOM     54  H24 GV2 d   1      94.699  55.379 270.156  0.00  0.00     0.086 H 
ATOM     55  CAK GV2 d   1      94.734  53.025 268.500  0.00  0.00    -0.070 A 
ATOM     56  CAL GV2 d   1      94.524  51.810 267.884  0.00  0.00    -0.071 A 
ATOM     57  H25 GV2 d   1      95.496  53.691 268.113  0.00  0.00     0.084 H 
ATOM     58  H26 GV2 d   1      95.113  51.517 267.023  0.00  0.00     0.084 H 
BRANCH  49  59
ATOM     59  CAU GV2 d   1      91.435  52.699 271.946  0.00  0.00    -0.014 C 
ATOM     60  H20 GV2 d   1      91.188  53.433 272.727  0.00  0.00     0.057 H 
ATOM     61  H21 GV2 d   1      91.761  51.759 272.416  0.00  0.00     0.057 H 
ATOM     62  H22 GV2 d   1      90.546  52.510 271.327  0.00  0.00     0.057 H 
ENDBRANCH  49  59
ENDBRANCH  10  45
TORSDOF 6
