REMARK  7 active torsions:
REMARK  status: ('A' for Active; 'I' for Inactive)
REMARK    1  A    between atoms: C10_1  and  N4_26 
REMARK    2  A    between atoms: C15_6  and  S_12 
REMARK    3  A    between atoms: S_12  and  C19_11 
REMARK    4  A    between atoms: N4_26  and  C20_14 
REMARK    5  A    between atoms: C_19  and  N_18 
REMARK    6  A    between atoms: C2_24  and  C6_25 
REMARK    7  A    between atoms: N4_26  and  C21_27 
ROOT
ATOM      1  C12 GV5 d   1      95.937  46.761 267.249  0.00  0.00     0.020 A 
ATOM      2  C13 GV5 d   1      96.319  47.947 267.838  0.00  0.00     0.020 A 
ATOM      3  N1  GV5 d   1      94.683  46.558 266.817  0.00  0.00    -0.257 NA
ATOM      4  C1  GV5 d   1      91.920  49.673 267.281  0.00  0.00    -0.044 A 
ATOM      5  C   GV5 d   1      91.547  48.446 266.713  0.00  0.00     0.035 A 
ATOM      6  C5  GV5 d   1      92.472  47.394 266.564  0.00  0.00    -0.027 A 
ATOM      7  C4  GV5 d   1      93.763  47.532 266.973  0.00  0.00     0.088 A 
ATOM      8  N2  GV5 d   1      95.461  48.950 267.996  0.00  0.00    -0.256 NA
ATOM      9  C3  GV5 d   1      94.205  48.811 267.523  0.00  0.00     0.096 A 
ATOM     10  C2  GV5 d   1      93.212  49.874 267.699  0.00  0.00     0.007 A 
ATOM     11  H2  GV5 d   1      96.670  45.971 267.132  0.00  0.00     0.117 H 
ATOM     12  H3  GV5 d   1      97.341  48.065 268.180  0.00  0.00     0.117 H 
ATOM     13  H13 GV5 d   1      91.187  50.464 267.390  0.00  0.00     0.088 H 
ATOM     14  H15 GV5 d   1      92.151  46.460 266.117  0.00  0.00     0.090 H 
ENDROOT
BRANCH  10  15
ATOM     15  C6  GV5 d   1      93.603  51.164 268.307  0.00  0.00    -0.021 A 
ATOM     16  C11 GV5 d   1      92.927  51.555 269.429  0.00  0.00    -0.047 A 
ATOM     17  C10 GV5 d   1      93.244  52.785 269.996  0.00  0.00     0.030 A 
ATOM     18  H1  GV5 d   1      92.163  50.922 269.866  0.00  0.00     0.088 H 
ATOM     19  C9  GV5 d   1      94.241  53.569 269.460  0.00  0.00    -0.057 A 
ATOM     20  C8  GV5 d   1      94.908  53.177 268.315  0.00  0.00    -0.080 A 
ATOM     21  H19 GV5 d   1      94.505  54.504 269.941  0.00  0.00     0.086 H 
ATOM     22  C7  GV5 d   1      94.636  51.940 267.766  0.00  0.00    -0.072 A 
ATOM     23  H20 GV5 d   1      95.637  53.834 267.853  0.00  0.00     0.083 H 
ATOM     24  H21 GV5 d   1      95.215  51.574 266.926  0.00  0.00     0.084 H 
BRANCH  17  25
ATOM     25  N4  GV5 d   1      92.569  53.182 271.131  0.00  0.00    -0.390 N 
BRANCH  25  26
ATOM     26  C20 GV5 d   1      91.524  52.327 271.699  0.00  0.00    -0.019 C 
ATOM     27  H10 GV5 d   1      91.104  52.808 272.595  0.00  0.00     0.056 H 
ATOM     28  H11 GV5 d   1      91.956  51.353 271.974  0.00  0.00     0.056 H 
ATOM     29  H12 GV5 d   1      90.728  52.178 270.955  0.00  0.00     0.056 H 
ENDBRANCH  25  26
BRANCH  25  30
ATOM     30  C21 GV5 d   1      92.876  54.471 271.769  0.00  0.00    -0.019 C 
ATOM     31  H16 GV5 d   1      93.680  54.974 271.212  0.00  0.00     0.056 H 
ATOM     32  H17 GV5 d   1      93.201  54.299 272.806  0.00  0.00     0.056 H 
ATOM     33  H18 GV5 d   1      91.977  55.105 271.767  0.00  0.00     0.056 H 
ENDBRANCH  25  30
ENDBRANCH  17  25
ENDBRANCH  10  15
BRANCH   5  34
ATOM     34  N   GV5 d   1      90.272  48.372 266.276  0.00  0.00    -0.354 N 
ATOM     35  C14 GV5 d   1      89.808  47.581 265.264  0.00  0.00     0.072 A 
ATOM     36  C15 GV5 d   1      88.559  46.822 265.455  0.00  0.00     0.088 A 
ATOM     37  C18 GV5 d   1      90.570  47.316 264.115  0.00  0.00     0.029 A 
ATOM     38  C16 GV5 d   1      88.231  45.915 264.459  0.00  0.00    -0.043 A 
ATOM     39  C17 GV5 d   1      89.021  45.769 263.298  0.00  0.00     0.003 A 
ATOM     40  H4  GV5 d   1      87.345  45.302 264.575  0.00  0.00     0.088 H 
ATOM     41  N3  GV5 d   1      90.139  46.466 263.132  0.00  0.00    -0.271 NA
ATOM     42  H5  GV5 d   1      88.709  45.074 262.527  0.00  0.00     0.114 H 
ATOM     43  H6  GV5 d   1      91.533  47.801 264.002  0.00  0.00     0.118 H 
ATOM     44  H14 GV5 d   1      89.582  48.970 266.752  0.00  0.00     0.166 HD
BRANCH  36  45
ATOM     45  S   GV5 d   1      87.662  46.988 266.834  0.00  0.00     0.174 S 
ATOM     46  O1  GV5 d   1      86.347  46.263 266.737  0.00  0.00    -0.223 OA
ATOM     47  O   GV5 d   1      87.314  48.380 266.790  0.00  0.00    -0.223 OA
BRANCH  45  48
ATOM     48  C19 GV5 d   1      88.502  46.472 268.120  0.00  0.00     0.020 C 
ATOM     49  H7  GV5 d   1      87.892  46.589 269.028  0.00  0.00     0.049 H 
ATOM     50  H8  GV5 d   1      89.423  47.065 268.218  0.00  0.00     0.049 H 
ATOM     51  H9  GV5 d   1      88.761  45.411 267.987  0.00  0.00     0.049 H 
ENDBRANCH  45  48
ENDBRANCH  36  45
ENDBRANCH   5  34
TORSDOF 7
