REMARK  6 active torsions:
REMARK  status: ('A' for Active; 'I' for Inactive)
REMARK    1  A    between atoms: CBE_1  and  SBB_2 
REMARK    2  A    between atoms: SBB_2  and  CBA_5 
REMARK    3  A    between atoms: CAM_10  and  NAL_11 
REMARK    4  A    between atoms: NAL_11  and  CAI_12 
REMARK    5  A    between atoms: CAG_21  and  CAK_22 
REMARK    6  A    between atoms: CAU_25  and  CAV_26 
ROOT
ATOM      1  CAI GV8 d   1      40.050 -41.218  11.677  0.00  0.00     0.035 A 
ATOM      2  CAH GV8 d   1      40.342 -39.983  12.241  0.00  0.00    -0.044 A 
ATOM      3  CAJ GV8 d   1      41.078 -42.173  11.522  0.00  0.00    -0.027 A 
ATOM      4  CAE GV8 d   1      42.361 -41.852  11.971  0.00  0.00     0.088 A 
ATOM      5  NAF GV8 d   1      43.355 -42.736  11.843  0.00  0.00    -0.257 NA
ATOM      6  CAA GV8 d   1      44.656 -42.454  12.258  0.00  0.00     0.020 A 
ATOM      7  CAB GV8 d   1      44.936 -41.226  12.837  0.00  0.00     0.020 A 
ATOM      8  NAC GV8 d   1      43.896 -40.314  12.968  0.00  0.00    -0.256 NA
ATOM      9  CAD GV8 d   1      42.639 -40.621  12.538  0.00  0.00     0.096 A 
ATOM     10  CAG GV8 d   1      41.617 -39.674  12.665  0.00  0.00     0.007 A 
ATOM     11  H8  GV8 d   1      39.553 -39.248  12.350  0.00  0.00     0.088 H 
ATOM     12  H9  GV8 d   1      40.876 -43.135  11.064  0.00  0.00     0.090 H 
ATOM     13  H10 GV8 d   1      45.442 -43.189  12.129  0.00  0.00     0.117 H 
ATOM     14  H11 GV8 d   1      45.936 -40.984  13.177  0.00  0.00     0.117 H 
ENDROOT
BRANCH   1  15
ATOM     15  NAL GV8 d   1      38.778 -41.428  11.287  0.00  0.00    -0.354 N 
ATOM     16  H7  GV8 d   1      37.989 -40.961  11.757  0.00  0.00     0.166 HD
BRANCH  15  17
ATOM     17  CAM GV8 d   1      38.583 -42.256  10.280  0.00  0.00     0.072 A 
ATOM     18  CBA GV8 d   1      37.431 -43.020  10.297  0.00  0.00     0.088 A 
ATOM     19  CAZ GV8 d   1      37.213 -43.925   9.261  0.00  0.00    -0.043 A 
ATOM     20  CAY GV8 d   1      38.101 -44.037   8.207  0.00  0.00     0.003 A 
ATOM     21  H4  GV8 d   1      36.330 -44.554   9.281  0.00  0.00     0.088 H 
ATOM     22  NAX GV8 d   1      39.253 -43.266   8.181  0.00  0.00    -0.271 NA
ATOM     23  H5  GV8 d   1      37.896 -44.730   7.399  0.00  0.00     0.114 H 
ATOM     24  CAW GV8 d   1      39.487 -42.373   9.232  0.00  0.00     0.029 A 
ATOM     25  H6  GV8 d   1      40.385 -41.765   9.229  0.00  0.00     0.118 H 
BRANCH  18  26
ATOM     26  SBB GV8 d   1      36.277 -42.948  11.630  0.00  0.00     0.174 S 
ATOM     27  OBC GV8 d   1      35.167 -43.950  11.387  0.00  0.00    -0.223 OA
ATOM     28  OBD GV8 d   1      35.595 -41.594  11.811  0.00  0.00    -0.223 OA
BRANCH  26  29
ATOM     29  CBE GV8 d   1      37.174 -43.529  13.046  0.00  0.00     0.020 C 
ATOM     30  H1  GV8 d   1      37.626 -44.505  12.818  0.00  0.00     0.049 H 
ATOM     31  H2  GV8 d   1      36.486 -43.633  13.898  0.00  0.00     0.049 H 
ATOM     32  H3  GV8 d   1      37.965 -42.809  13.300  0.00  0.00     0.049 H 
ENDBRANCH  26  29
ENDBRANCH  18  26
ENDBRANCH  15  17
ENDBRANCH   1  15
BRANCH  10  33
ATOM     33  CAK GV8 d   1      41.882 -38.431  13.286  0.00  0.00    -0.022 A 
ATOM     34  CAR GV8 d   1      41.157 -38.015  14.418  0.00  0.00    -0.059 A 
ATOM     35  CAQ GV8 d   1      41.439 -36.840  14.993  0.00  0.00     0.006 A 
ATOM     36  H12 GV8 d   1      40.373 -38.644  14.823  0.00  0.00     0.086 H 
ATOM     37  CAU GV8 d   1      40.936 -36.181  16.050  0.00  0.00    -0.027 A 
ATOM     38  CAP GV8 d   1      42.417 -36.056  14.514  0.00  0.00     0.085 A 
ATOM     39  CAT GV8 d   1      41.544 -35.016  16.264  0.00  0.00     0.026 A 
ATOM     40  OAS GV8 d   1      42.489 -34.874  15.346  0.00  0.00    -0.321 OA
ATOM     41  H16 GV8 d   1      41.307 -34.305  17.054  0.00  0.00     0.124 H 
ATOM     42  CAO GV8 d   1      43.141 -36.411  13.464  0.00  0.00    -0.049 A 
ATOM     43  CAN GV8 d   1      42.906 -37.618  12.832  0.00  0.00    -0.070 A 
ATOM     44  H17 GV8 d   1      43.921 -35.753  13.098  0.00  0.00     0.087 H 
ATOM     45  H18 GV8 d   1      43.517 -37.924  11.990  0.00  0.00     0.085 H 
BRANCH  37  46
ATOM     46  CAV GV8 d   1      39.785 -36.655  16.939  0.00  0.00    -0.049 C 
ATOM     47  H13 GV8 d   1      39.595 -35.907  17.723  0.00  0.00     0.033 H 
ATOM     48  H14 GV8 d   1      40.053 -37.615  17.405  0.00  0.00     0.033 H 
ATOM     49  H15 GV8 d   1      38.879 -36.784  16.328  0.00  0.00     0.033 H 
ENDBRANCH  37  46
ENDBRANCH  10  33
TORSDOF 6
