REMARK  24 active torsions:
REMARK  status: ('A' for Active; 'I' for Inactive)
REMARK    1  A    between atoms: C7_2  and  C6_1 
REMARK    2  A    between atoms: C6_1  and  N51_36 
REMARK    3  A    between atoms: C6_1  and  C54_39 
REMARK       I    between atoms: N8_34  and  C7_2 
REMARK       I    between atoms: C10_3  and  N11_27 
REMARK    4  A    between atoms: C9_29  and  C10_3 
REMARK       I    between atoms: C13_4  and  N14_21 
REMARK    5  A    between atoms: C12_23  and  C13_4 
REMARK    6  A    between atoms: C15_5  and  C16_16 
REMARK    7  A    between atoms: C15_5  and  C25_17 
REMARK    8  A    between atoms: N14_21  and  C15_5 
REMARK    9  A    between atoms: C16_16  and  C17_6 
REMARK   10  A    between atoms: C20_7  and  C21_8 
REMARK   11  A    between atoms: C21_8  and  N22_13 
REMARK   12  A    between atoms: C25_17  and  C26_10 
REMARK   13  A    between atoms: C26_10  and  S27_18 
REMARK   14  A    between atoms: S27_18  and  C28_11 
REMARK   15  A    between atoms: C12_23  and  C32_24 
REMARK   16  A    between atoms: N11_27  and  C12_23 
REMARK   17  A    between atoms: C32_24  and  C14_25 
REMARK   18  A    between atoms: C32_24  and  O33_26 
REMARK   19  A    between atoms: C9_29  and  C40_30 
REMARK   20  A    between atoms: C9_29  and  N8_34 
REMARK   21  A    between atoms: C40_30  and  C41_31 
REMARK   22  A    between atoms: C41_31  and  C43_32 
REMARK   23  A    between atoms: C41_31  and  C42_33 
REMARK   24  A    between atoms: C54_39  and  C55_40 
ROOT
ATOM      1  N51 GRW d   1      58.293-134.493  32.701  0.00  0.00    -0.256 NA
ATOM      2  N52 GRW d   1      58.458-134.317  31.627  0.00  0.00    -0.111 NA
ATOM      3  N53 GRW d   1      58.619-134.135  30.618  0.00  0.00     0.080 N 
ENDROOT
BRANCH   1   4
ATOM      4  C6  GRW d   1      58.089-134.764  34.123  0.00  0.00     0.185 C 
ATOM      5  H1  GRW d   1      57.444-135.650  34.216  0.00  0.00     0.116 H 
BRANCH   4   6
ATOM      6  C7  GRW d   1      59.377-134.953  34.831  0.00  0.00     0.258 C 
ATOM      7  N8  GRW d   1      60.158-133.920  35.055  0.00  0.00    -0.345 N 
ATOM      8  H39 GRW d   1      59.909-132.998  34.758  0.00  0.00     0.163 HD
ATOM      9  O44 GRW d   1      59.669-136.082  35.151  0.00  0.00    -0.270 OA
BRANCH   7  10
ATOM     10  C9  GRW d   1      61.403-134.187  35.756  0.00  0.00     0.089 C 
ATOM     11  H29 GRW d   1      61.862-135.119  35.394  0.00  0.00     0.087 H 
BRANCH  10  12
ATOM     12  C10 GRW d   1      61.005-134.236  37.206  0.00  0.00     0.241 C 
ATOM     13  N11 GRW d   1      61.737-134.997  37.960  0.00  0.00    -0.344 N 
ATOM     14  H28 GRW d   1      62.508-135.506  37.576  0.00  0.00     0.163 HD
ATOM     15  O39 GRW d   1      60.078-133.602  37.659  0.00  0.00    -0.271 OA
BRANCH  13  16
ATOM     16  C12 GRW d   1      61.417-135.095  39.364  0.00  0.00     0.113 C 
ATOM     17  H22 GRW d   1      61.005-134.133  39.704  0.00  0.00     0.091 H 
BRANCH  16  18
ATOM     18  C13 GRW d   1      62.622-135.431  40.167  0.00  0.00     0.243 C 
ATOM     19  N14 GRW d   1      62.547-134.989  41.369  0.00  0.00    -0.354 N 
ATOM     20  H21 GRW d   1      61.715-134.489  41.608  0.00  0.00     0.162 HD
ATOM     21  O31 GRW d   1      63.626-135.868  39.668  0.00  0.00    -0.271 OA
BRANCH  19  22
ATOM     22  C15 GRW d   1      63.545-135.136  42.428  0.00  0.00     0.017 C 
ATOM     23  H2  GRW d   1      64.566-135.161  42.019  0.00  0.00     0.073 H 
BRANCH  22  24
ATOM     24  C16 GRW d   1      63.365-133.926  43.309  0.00  0.00    -0.022 C 
ATOM     25  H17 GRW d   1      63.907-134.084  44.253  0.00  0.00     0.043 H 
ATOM     26  H18 GRW d   1      62.294-133.790  43.519  0.00  0.00     0.043 H 
BRANCH  24  27
ATOM     27  C17 GRW d   1      63.850-132.797  42.696  0.00  0.00    -0.056 A 
ATOM     28  C24 GRW d   1      64.786-132.928  41.712  0.00  0.00    -0.076 A 
ATOM     29  C23 GRW d   1      65.328-131.835  41.101  0.00  0.00    -0.075 A 
ATOM     30  H5  GRW d   1      65.105-133.919  41.410  0.00  0.00     0.084 H 
ATOM     31  C20 GRW d   1      64.960-130.588  41.501  0.00  0.00    -0.033 A 
ATOM     32  H11 GRW d   1      66.048-131.960  40.301  0.00  0.00     0.084 H 
ATOM     33  C19 GRW d   1      64.045-130.437  42.513  0.00  0.00    -0.075 A 
ATOM     34  C18 GRW d   1      63.492-131.545  43.115  0.00  0.00    -0.076 A 
ATOM     35  H15 GRW d   1      63.757-129.444  42.839  0.00  0.00     0.084 H 
ATOM     36  H16 GRW d   1      62.775-131.425  43.919  0.00  0.00     0.084 H 
BRANCH  31  37
ATOM     37  C21 GRW d   1      65.525-129.509  40.878  0.00  0.00     0.103 C 
ATOM     38  H3  GRW d   1      65.289-129.569  39.805  0.00  0.00     0.082 H 
ATOM     39  H4  GRW d   1      66.615-129.564  41.017  0.00  0.00     0.082 H 
BRANCH  37  40
ATOM     40  N22 GRW d   1      65.111-128.340  41.326  0.00  0.00    -0.075 N 
ATOM     41  H12 GRW d   1      65.573-127.603  40.817  0.00  0.00     0.274 HD
ATOM     42  H13 GRW d   1      65.329-128.260  42.307  0.00  0.00     0.274 HD
ATOM     43  H14 GRW d   1      64.114-128.264  41.196  0.00  0.00     0.274 HD
ENDBRANCH  37  40
ENDBRANCH  31  37
ENDBRANCH  24  27
ENDBRANCH  22  24
BRANCH  22  44
ATOM     44  C25 GRW d   1      63.240-136.449  43.147  0.00  0.00    -0.034 C 
ATOM     45  H19 GRW d   1      63.748-136.475  44.123  0.00  0.00     0.037 H 
ATOM     46  H20 GRW d   1      63.573-137.302  42.538  0.00  0.00     0.037 H 
BRANCH  44  47
ATOM     47  C26 GRW d   1      61.752-136.497  43.336  0.00  0.00     0.030 C 
ATOM     48  H6  GRW d   1      61.268-136.177  42.401  0.00  0.00     0.056 H 
ATOM     49  H7  GRW d   1      61.478-135.806  44.147  0.00  0.00     0.056 H 
BRANCH  47  50
ATOM     50  S27 GRW d   1      61.171-138.103  43.747  0.00  0.00     0.140 S 
ATOM     51  O30 GRW d   1      61.499-138.414  45.132  0.00  0.00    -0.228 OA
ATOM     52  O29 GRW d   1      59.715-138.031  43.636  0.00  0.00    -0.228 OA
BRANCH  50  53
ATOM     53  C28 GRW d   1      61.784-139.265  42.613  0.00  0.00     0.015 C 
ATOM     54  H8  GRW d   1      61.415-140.267  42.879  0.00  0.00     0.048 H 
ATOM     55  H9  GRW d   1      62.884-139.260  42.641  0.00  0.00     0.048 H 
ATOM     56  H10 GRW d   1      61.442-139.005  41.600  0.00  0.00     0.048 H 
ENDBRANCH  50  53
ENDBRANCH  47  50
ENDBRANCH  44  47
ENDBRANCH  22  44
ENDBRANCH  19  22
ENDBRANCH  16  18
BRANCH  16  57
ATOM     57  C32 GRW d   1      60.407-136.192  39.597  0.00  0.00     0.060 C 
ATOM     58  H23 GRW d   1      60.118-136.228  40.658  0.00  0.00     0.086 H 
BRANCH  57  59
ATOM     59  C14 GRW d   1      59.204-135.987  38.727  0.00  0.00    -0.050 C 
ATOM     60  H24 GRW d   1      58.478-136.794  38.908  0.00  0.00     0.031 H 
ATOM     61  H25 GRW d   1      59.509-135.999  37.670  0.00  0.00     0.031 H 
ATOM     62  H26 GRW d   1      58.741-135.018  38.964  0.00  0.00     0.031 H 
ENDBRANCH  57  59
BRANCH  57  63
ATOM     63  O33 GRW d   1      60.975-137.380  39.194  0.00  0.00    -0.393 OA
ATOM     64  H27 GRW d   1      61.747-137.555  39.720  0.00  0.00     0.210 HD
ENDBRANCH  57  63
ENDBRANCH  16  57
ENDBRANCH  13  16
ENDBRANCH  10  12
BRANCH  10  65
ATOM     65  C40 GRW d   1      62.382-133.069  35.756  0.00  0.00    -0.035 C 
ATOM     66  H30 GRW d   1      63.187-133.286  36.473  0.00  0.00     0.037 H 
ATOM     67  H31 GRW d   1      61.875-132.137  36.045  0.00  0.00     0.037 H 
BRANCH  65  68
ATOM     68  C41 GRW d   1      62.957-132.919  34.395  0.00  0.00    -0.059 C 
ATOM     69  H32 GRW d   1      62.174-132.714  33.651  0.00  0.00     0.038 H 
BRANCH  68  70
ATOM     70  C43 GRW d   1      63.700-134.186  34.067  0.00  0.00    -0.073 C 
ATOM     71  H33 GRW d   1      64.138-134.104  33.061  0.00  0.00     0.028 H 
ATOM     72  H34 GRW d   1      63.004-135.037  34.095  0.00  0.00     0.028 H 
ATOM     73  H35 GRW d   1      64.501-134.343  34.804  0.00  0.00     0.028 H 
ENDBRANCH  68  70
BRANCH  68  74
ATOM     74  C42 GRW d   1      63.962-131.796  34.457  0.00  0.00    -0.073 C 
ATOM     75  H36 GRW d   1      63.446-130.855  34.696  0.00  0.00     0.028 H 
ATOM     76  H37 GRW d   1      64.466-131.701  33.484  0.00  0.00     0.028 H 
ATOM     77  H38 GRW d   1      64.707-132.013  35.236  0.00  0.00     0.028 H 
ENDBRANCH  68  74
ENDBRANCH  65  68
ENDBRANCH  10  65
ENDBRANCH   7  10
ENDBRANCH   4   6
BRANCH   4  78
ATOM     78  C54 GRW d   1      57.540-133.623  34.926  0.00  0.00     0.000 C 
ATOM     79  H40 GRW d   1      58.148-132.730  34.718  0.00  0.00     0.045 H 
ATOM     80  H41 GRW d   1      57.621-133.881  35.992  0.00  0.00     0.045 H 
BRANCH  78  81
ATOM     81  C55 GRW d   1      56.250-133.328  34.659  0.00  0.00    -0.055 A 
ATOM     82  C56 GRW d   1      55.833-132.778  33.478  0.00  0.00    -0.077 A 
ATOM     83  C57 GRW d   1      54.486-132.500  33.293  0.00  0.00    -0.082 A 
ATOM     84  H42 GRW d   1      56.549-132.561  32.693  0.00  0.00     0.084 H 
ATOM     85  C58 GRW d   1      53.573-132.765  34.287  0.00  0.00    -0.083 A 
ATOM     86  H43 GRW d   1      54.150-132.070  32.356  0.00  0.00     0.083 H 
ATOM     87  C59 GRW d   1      54.008-133.311  35.474  0.00  0.00    -0.082 A 
ATOM     88  H44 GRW d   1      52.522-132.546  34.138  0.00  0.00     0.083 H 
ATOM     89  C60 GRW d   1      55.343-133.592  35.652  0.00  0.00    -0.077 A 
ATOM     90  H45 GRW d   1      53.299-133.519  36.267  0.00  0.00     0.083 H 
ATOM     91  H46 GRW d   1      55.681-134.026  36.586  0.00  0.00     0.084 H 
ENDBRANCH  78  81
ENDBRANCH   4  78
ENDBRANCH   1   4
TORSDOF 24
