REMARK  21 active torsions:
REMARK  status: ('A' for Active; 'I' for Inactive)
REMARK    1  A    between atoms: C8_5  and  C7_4 
REMARK    2  A    between atoms: C7_4  and  C3_40 
REMARK    3  A    between atoms: C12_35  and  C8_5 
REMARK    4  A    between atoms: C8_5  and  N9_37 
REMARK    5  A    between atoms: C15_6  and  C25_29 
REMARK    6  A    between atoms: C15_6  and  C16_31 
REMARK    7  A    between atoms: N14_34  and  C15_6 
REMARK    8  A    between atoms: C16_31  and  C17_7 
REMARK    9  A    between atoms: C17_7  and  C19_32 
REMARK   10  A    between atoms: C17_7  and  C18_33 
REMARK   11  A    between atoms: C28_8  and  C33_26 
REMARK   12  A    between atoms: N27_28  and  C28_8 
REMARK   13  A    between atoms: C41_11  and  C44_12 
REMARK   14  A    between atoms: C44_12  and  N45_13 
REMARK   15  A    between atoms: C37_17  and  C38_16 
REMARK   16  A    between atoms: C36_18  and  C37_17 
REMARK   17  A    between atoms: C36_18  and  C46_19 
REMARK   18  A    between atoms: N35_25  and  C36_18 
REMARK   19  A    between atoms: C46_19  and  C47_20 
REMARK   20  A    between atoms: C47_20  and  S48_21 
REMARK   21  A    between atoms: S48_21  and  C51_24 
REMARK       I    between atoms: C33_26  and  N35_25 
REMARK       I    between atoms: C25_29  and  N27_28 
REMARK       I    between atoms: N14_34  and  C12_35 
ROOT
ATOM      1  N9  GRT d   1      57.334-134.383  32.479  0.00  0.00    -0.100 NA
ATOM      2  N10 GRT d   1      57.654-135.564  31.895  0.00  0.00    -0.167 NA
ATOM      3  N11 GRT d   1      57.953-136.739  31.275  0.00  0.00     0.068 N 
ENDROOT
BRANCH   1   4
ATOM      4  C8  GRT d   1      57.682-134.037  33.880  0.00  0.00     0.145 C 
ATOM      5  H6  GRT d   1      57.844-132.949  33.910  0.00  0.00     0.095 H 
BRANCH   4   6
ATOM      6  C7  GRT d   1      56.548-134.383  34.896  0.00  0.00    -0.009 C 
ATOM      7  H4  GRT d   1      56.816-133.933  35.863  0.00  0.00     0.044 H 
ATOM      8  H5  GRT d   1      56.513-135.478  34.999  0.00  0.00     0.044 H 
BRANCH   6   9
ATOM      9  C3  GRT d   1      55.236-133.936  34.557  0.00  0.00    -0.056 A 
ATOM     10  C4  GRT d   1      54.263-133.819  35.563  0.00  0.00    -0.077 A 
ATOM     11  C5  GRT d   1      52.958-133.393  35.256  0.00  0.00    -0.082 A 
ATOM     12  H1  GRT d   1      54.521-134.060  36.588  0.00  0.00     0.084 H 
ATOM     13  C6  GRT d   1      52.595-133.081  33.939  0.00  0.00    -0.083 A 
ATOM     14  H2  GRT d   1      52.224-133.305  36.048  0.00  0.00     0.083 H 
ATOM     15  C1  GRT d   1      53.544-133.196  32.929  0.00  0.00    -0.082 A 
ATOM     16  H3  GRT d   1      51.587-132.754  33.710  0.00  0.00     0.083 H 
ATOM     17  C2  GRT d   1      54.837-133.623  33.250  0.00  0.00    -0.077 A 
ATOM     18  H41 GRT d   1      53.285-132.957  31.904  0.00  0.00     0.083 H 
ATOM     19  H42 GRT d   1      55.564-133.716  32.451  0.00  0.00     0.084 H 
ENDBRANCH   6   9
ENDBRANCH   4   6
BRANCH   4  20
ATOM     20  C12 GRT d   1      58.973-134.723  34.370  0.00  0.00     0.246 C 
ATOM     21  N14 GRT d   1      59.905-133.897  34.874  0.00  0.00    -0.346 N 
ATOM     22  H40 GRT d   1      59.773-132.908  34.804  0.00  0.00     0.163 HD
ATOM     23  O13 GRT d   1      59.101-135.943  34.323  0.00  0.00    -0.271 OA
BRANCH  21  24
ATOM     24  C15 GRT d   1      61.108-134.415  35.523  0.00  0.00     0.089 C 
ATOM     25  H7  GRT d   1      61.423-135.367  35.072  0.00  0.00     0.087 H 
BRANCH  24  26
ATOM     26  C25 GRT d   1      60.665-134.555  36.950  0.00  0.00     0.240 C 
ATOM     27  N27 GRT d   1      61.435-135.326  37.713  0.00  0.00    -0.351 N 
ATOM     28  H31 GRT d   1      62.252-135.760  37.333  0.00  0.00     0.163 HD
ATOM     29  O26 GRT d   1      59.685-133.926  37.358  0.00  0.00    -0.271 OA
BRANCH  27  30
ATOM     30  C28 GRT d   1      61.074-135.531  39.111  0.00  0.00     0.069 C 
ATOM     31  H9  GRT d   1      60.592-134.624  39.504  0.00  0.00     0.078 H 
ATOM     32  H10 GRT d   1      60.379-136.380  39.191  0.00  0.00     0.078 H 
BRANCH  30  33
ATOM     33  C33 GRT d   1      62.307-135.820  39.895  0.00  0.00     0.235 C 
ATOM     34  N35 GRT d   1      62.307-135.160  41.047  0.00  0.00    -0.355 N 
ATOM     35  H30 GRT d   1      61.557-134.523  41.224  0.00  0.00     0.162 HD
ATOM     36  O34 GRT d   1      63.174-136.602  39.511  0.00  0.00    -0.272 OA
BRANCH  34  37
ATOM     37  C36 GRT d   1      63.332-135.308  42.065  0.00  0.00     0.017 C 
ATOM     38  H22 GRT d   1      64.322-135.371  41.590  0.00  0.00     0.073 H 
BRANCH  37  39
ATOM     39  C37 GRT d   1      63.281-134.023  42.949  0.00  0.00    -0.022 C 
ATOM     40  H20 GRT d   1      62.231-133.803  43.193  0.00  0.00     0.043 H 
ATOM     41  H21 GRT d   1      63.842-134.210  43.877  0.00  0.00     0.043 H 
BRANCH  39  42
ATOM     42  C38 GRT d   1      63.831-132.919  42.309  0.00  0.00    -0.056 A 
ATOM     43  C39 GRT d   1      64.701-132.958  41.204  0.00  0.00    -0.076 A 
ATOM     44  C40 GRT d   1      65.215-131.801  40.639  0.00  0.00    -0.075 A 
ATOM     45  H11 GRT d   1      64.977-133.918  40.783  0.00  0.00     0.084 H 
ATOM     46  C41 GRT d   1      64.884-130.553  41.145  0.00  0.00    -0.033 A 
ATOM     47  H12 GRT d   1      65.885-131.873  39.790  0.00  0.00     0.084 H 
ATOM     48  C42 GRT d   1      64.029-130.494  42.255  0.00  0.00    -0.075 A 
ATOM     49  C43 GRT d   1      63.509-131.661  42.823  0.00  0.00    -0.076 A 
ATOM     50  H18 GRT d   1      63.768-129.531  42.678  0.00  0.00     0.084 H 
ATOM     51  H19 GRT d   1      62.845-131.588  43.677  0.00  0.00     0.084 H 
BRANCH  46  52
ATOM     52  C44 GRT d   1      65.450-129.429  40.527  0.00  0.00     0.103 C 
ATOM     53  H13 GRT d   1      65.709-129.703  39.494  0.00  0.00     0.082 H 
ATOM     54  H14 GRT d   1      66.365-129.164  41.076  0.00  0.00     0.082 H 
BRANCH  52  55
ATOM     55  N45 GRT d   1      64.586-128.236  40.479  0.00  0.00    -0.075 N 
ATOM     56  H15 GRT d   1      65.076-127.484  40.020  0.00  0.00     0.274 HD
ATOM     57  H16 GRT d   1      64.347-127.957  41.417  0.00  0.00     0.274 HD
ATOM     58  H17 GRT d   1      63.745-128.451  39.967  0.00  0.00     0.274 HD
ENDBRANCH  52  55
ENDBRANCH  46  52
ENDBRANCH  39  42
ENDBRANCH  37  39
BRANCH  37  59
ATOM     59  C46 GRT d   1      63.083-136.614  42.839  0.00  0.00    -0.034 C 
ATOM     60  H23 GRT d   1      63.744-136.646  43.718  0.00  0.00     0.037 H 
ATOM     61  H24 GRT d   1      63.301-137.471  42.184  0.00  0.00     0.037 H 
BRANCH  59  62
ATOM     62  C47 GRT d   1      61.622-136.691  43.302  0.00  0.00     0.030 C 
ATOM     63  H25 GRT d   1      61.000-136.150  42.573  0.00  0.00     0.056 H 
ATOM     64  H26 GRT d   1      61.545-136.202  44.284  0.00  0.00     0.056 H 
BRANCH  62  65
ATOM     65  S48 GRT d   1      60.974-138.390  43.457  0.00  0.00     0.140 S 
ATOM     66  O49 GRT d   1      59.690-138.316  44.270  0.00  0.00    -0.228 OA
ATOM     67  O50 GRT d   1      61.946-139.263  44.208  0.00  0.00    -0.228 OA
BRANCH  65  68
ATOM     68  C51 GRT d   1      60.645-139.181  41.902  0.00  0.00     0.015 C 
ATOM     69  H27 GRT d   1      60.260-140.196  42.081  0.00  0.00     0.048 H 
ATOM     70  H28 GRT d   1      61.575-139.240  41.317  0.00  0.00     0.048 H 
ATOM     71  H29 GRT d   1      59.897-138.598  41.345  0.00  0.00     0.048 H 
ENDBRANCH  65  68
ENDBRANCH  62  65
ENDBRANCH  59  62
ENDBRANCH  37  59
ENDBRANCH  34  37
ENDBRANCH  30  33
ENDBRANCH  27  30
ENDBRANCH  24  26
BRANCH  24  72
ATOM     72  C16 GRT d   1      62.270-133.434  35.572  0.00  0.00    -0.035 C 
ATOM     73  H32 GRT d   1      63.033-133.823  36.263  0.00  0.00     0.037 H 
ATOM     74  H33 GRT d   1      61.901-132.466  35.941  0.00  0.00     0.037 H 
BRANCH  72  75
ATOM     75  C17 GRT d   1      62.904-133.228  34.211  0.00  0.00    -0.059 C 
ATOM     76  H8  GRT d   1      62.138-132.869  33.508  0.00  0.00     0.038 H 
BRANCH  75  77
ATOM     77  C19 GRT d   1      63.486-134.535  33.667  0.00  0.00    -0.073 C 
ATOM     78  H34 GRT d   1      63.938-134.353  32.681  0.00  0.00     0.028 H 
ATOM     79  H35 GRT d   1      62.684-135.281  33.571  0.00  0.00     0.028 H 
ATOM     80  H36 GRT d   1      64.255-134.910  34.359  0.00  0.00     0.028 H 
ENDBRANCH  75  77
BRANCH  75  81
ATOM     81  C18 GRT d   1      63.997-132.155  34.355  0.00  0.00    -0.073 C 
ATOM     82  H37 GRT d   1      63.552-131.228  34.747  0.00  0.00     0.028 H 
ATOM     83  H38 GRT d   1      64.449-131.957  33.372  0.00  0.00     0.028 H 
ATOM     84  H39 GRT d   1      64.772-132.512  35.049  0.00  0.00     0.028 H 
ENDBRANCH  75  81
ENDBRANCH  72  75
ENDBRANCH  24  72
ENDBRANCH  21  24
ENDBRANCH   4  20
ENDBRANCH   1   4
TORSDOF 21
