REMARK  22 active torsions:
REMARK  status: ('A' for Active; 'I' for Inactive)
REMARK    1  A    between atoms: C3_13  and  C4_1 
REMARK    2  A    between atoms: C7_3  and  C6_2 
REMARK       I    between atoms: N8_18  and  C7_3 
REMARK    3  A    between atoms: C10_4  and  C9_19 
REMARK       I    between atoms: N11_25  and  C10_4 
REMARK    4  A    between atoms: C12_26  and  C13_5 
REMARK       I    between atoms: C13_5  and  N14_31 
REMARK    5  A    between atoms: N14_31  and  C15_6 
REMARK    6  A    between atoms: C15_6  and  C25_32 
REMARK    7  A    between atoms: C15_6  and  C16_36 
REMARK    8  A    between atoms: C16_36  and  C17_7 
REMARK    9  A    between atoms: C20_8  and  C21_9 
REMARK   10  A    between atoms: C21_9  and  N22_39 
REMARK   11  A    between atoms: C25_32  and  C26_11 
REMARK   12  A    between atoms: C26_11  and  S27_33 
REMARK   13  A    between atoms: S27_33  and  C28_12 
REMARK   14  A    between atoms: C9_19  and  N8_18 
REMARK   15  A    between atoms: C9_19  and  C40_20 
REMARK   16  A    between atoms: C40_20  and  C41_21 
REMARK   17  A    between atoms: C41_21  and  C43_22 
REMARK   18  A    between atoms: C41_21  and  C42_23 
REMARK   19  A    between atoms: N11_25  and  C12_26 
REMARK   20  A    between atoms: C12_26  and  C32_27 
REMARK   21  A    between atoms: C32_27  and  O36_28 
REMARK   22  A    between atoms: O36_28  and  C34_29 
ROOT
ATOM      1  C12 GT5 d   1      61.620-135.441  39.144  0.00  0.00     0.109 C 
ATOM      2  H26 GT5 d   1      61.020-134.627  39.577  0.00  0.00     0.090 H 
ENDROOT
BRANCH   1   3
ATOM      3  C13 GT5 d   1      62.795-135.729  40.079  0.00  0.00     0.242 C 
ATOM      4  O31 GT5 d   1      63.714-136.471  39.747  0.00  0.00    -0.271 OA
ATOM      5  N14 GT5 d   1      62.665-135.154  41.276  0.00  0.00    -0.354 N 
ATOM      6  H32 GT5 d   1      61.858-134.587  41.442  0.00  0.00     0.162 HD
BRANCH   5   7
ATOM      7  C15 GT5 d   1      63.642-135.307  42.364  0.00  0.00     0.017 C 
ATOM      8  H4  GT5 d   1      64.647-135.391  41.925  0.00  0.00     0.073 H 
BRANCH   7   9
ATOM      9  C25 GT5 d   1      63.398-136.582  43.197  0.00  0.00    -0.034 C 
ATOM     10  H33 GT5 d   1      63.960-136.518  44.141  0.00  0.00     0.037 H 
ATOM     11  H34 GT5 d   1      63.735-137.462  42.629  0.00  0.00     0.037 H 
BRANCH   9  12
ATOM     12  C26 GT5 d   1      61.898-136.711  43.501  0.00  0.00     0.030 C 
ATOM     13  H8  GT5 d   1      61.350-136.334  42.625  0.00  0.00     0.056 H 
ATOM     14  H9  GT5 d   1      61.682-136.073  44.371  0.00  0.00     0.056 H 
BRANCH  12  15
ATOM     15  S27 GT5 d   1      61.256-138.376  43.872  0.00  0.00     0.140 S 
ATOM     16  O29 GT5 d   1      59.753-138.318  43.662  0.00  0.00    -0.228 OA
ATOM     17  O30 GT5 d   1      61.503-138.728  45.320  0.00  0.00    -0.228 OA
BRANCH  15  18
ATOM     18  C28 GT5 d   1      61.881-139.651  42.796  0.00  0.00     0.015 C 
ATOM     19  H10 GT5 d   1      61.447-140.620  43.085  0.00  0.00     0.048 H 
ATOM     20  H11 GT5 d   1      62.977-139.699  42.882  0.00  0.00     0.048 H 
ATOM     21  H12 GT5 d   1      61.605-139.421  41.756  0.00  0.00     0.048 H 
ENDBRANCH  15  18
ENDBRANCH  12  15
ENDBRANCH   9  12
ENDBRANCH   7   9
BRANCH   7  22
ATOM     22  C16 GT5 d   1      63.579-133.995  43.204  0.00  0.00    -0.022 C 
ATOM     23  H35 GT5 d   1      64.130-134.156  44.142  0.00  0.00     0.043 H 
ATOM     24  H36 GT5 d   1      62.525-133.777  43.430  0.00  0.00     0.043 H 
BRANCH  22  25
ATOM     25  C17 GT5 d   1      64.132-132.883  42.550  0.00  0.00    -0.056 A 
ATOM     26  C24 GT5 d   1      64.962-132.966  41.421  0.00  0.00    -0.076 A 
ATOM     27  C23 GT5 d   1      65.481-131.831  40.831  0.00  0.00    -0.075 A 
ATOM     28  H7  GT5 d   1      65.200-133.939  41.005  0.00  0.00     0.084 H 
ATOM     29  C20 GT5 d   1      65.204-130.572  41.343  0.00  0.00    -0.033 A 
ATOM     30  H42 GT5 d   1      66.114-131.925  39.956  0.00  0.00     0.084 H 
ATOM     31  C19 GT5 d   1      64.373-130.475  42.474  0.00  0.00    -0.075 A 
ATOM     32  C18 GT5 d   1      63.851-131.622  43.070  0.00  0.00    -0.076 A 
ATOM     33  H38 GT5 d   1      64.137-129.500  42.885  0.00  0.00     0.084 H 
ATOM     34  H37 GT5 d   1      63.220-131.531  43.947  0.00  0.00     0.084 H 
BRANCH  29  35
ATOM     35  C21 GT5 d   1      65.798-129.515  40.641  0.00  0.00     0.103 C 
ATOM     36  H5  GT5 d   1      65.306-129.452  39.659  0.00  0.00     0.082 H 
ATOM     37  H6  GT5 d   1      66.860-129.765  40.504  0.00  0.00     0.082 H 
BRANCH  35  38
ATOM     38  N22 GT5 d   1      65.733-128.180  41.255  0.00  0.00    -0.075 N 
ATOM     39  H39 GT5 d   1      66.193-127.512  40.656  0.00  0.00     0.274 HD
ATOM     40  H40 GT5 d   1      66.193-128.200  42.152  0.00  0.00     0.274 HD
ATOM     41  H41 GT5 d   1      64.769-127.913  41.378  0.00  0.00     0.274 HD
ENDBRANCH  35  38
ENDBRANCH  29  35
ENDBRANCH  22  25
ENDBRANCH   7  22
ENDBRANCH   5   7
ENDBRANCH   1   3
BRANCH   1  42
ATOM     42  N11 GT5 d   1      62.013-135.085  37.775  0.00  0.00    -0.344 N 
ATOM     43  C10 GT5 d   1      61.215-134.291  37.051  0.00  0.00     0.241 C 
ATOM     44  O39 GT5 d   1      60.160-133.823  37.478  0.00  0.00    -0.271 OA
ATOM     45  H25 GT5 d   1      62.867-135.432  37.388  0.00  0.00     0.163 HD
BRANCH  43  46
ATOM     46  C9  GT5 d   1      61.607-134.090  35.597  0.00  0.00     0.090 C 
ATOM     47  H15 GT5 d   1      62.144-134.976  35.227  0.00  0.00     0.087 H 
BRANCH  46  48
ATOM     48  N8  GT5 d   1      60.356-133.881  34.894  0.00  0.00    -0.343 N 
ATOM     49  C7  GT5 d   1      59.623-134.914  34.487  0.00  0.00     0.260 C 
ATOM     50  O44 GT5 d   1      59.953-136.092  34.644  0.00  0.00    -0.267 OA
ATOM     51  H14 GT5 d   1      60.041-132.950  34.713  0.00  0.00     0.163 HD
BRANCH  49  52
ATOM     52  C6  GT5 d   1      58.460-134.607  33.928  0.00  0.00     0.091 A 
ATOM     53  S5  GT5 d   1      57.728-135.576  32.793  0.00  0.00    -0.068 SA
ATOM     54  C3  GT5 d   1      56.447-134.596  32.657  0.00  0.00     0.071 A 
ATOM     55  N2  GT5 d   1      56.560-133.527  33.479  0.00  0.00    -0.257 NA
ATOM     56  C1  GT5 d   1      57.694-133.535  34.203  0.00  0.00     0.025 A 
ATOM     57  H13 GT5 d   1      57.961-132.765  34.926  0.00  0.00     0.117 H 
BRANCH  54  58
ATOM     58  C4  GT5 d   1      55.292-134.915  31.708  0.00  0.00    -0.029 C 
ATOM     59  H1  GT5 d   1      54.533-134.121  31.774  0.00  0.00     0.036 H 
ATOM     60  H2  GT5 d   1      54.841-135.878  31.990  0.00  0.00     0.036 H 
ATOM     61  H3  GT5 d   1      55.671-134.976  30.677  0.00  0.00     0.036 H 
ENDBRANCH  54  58
ENDBRANCH  49  52
ENDBRANCH  46  48
BRANCH  46  62
ATOM     62  C40 GT5 d   1      62.423-132.838  35.326  0.00  0.00    -0.035 C 
ATOM     63  H16 GT5 d   1      62.074-132.037  35.994  0.00  0.00     0.037 H 
ATOM     64  H17 GT5 d   1      62.269-132.536  34.279  0.00  0.00     0.037 H 
BRANCH  62  65
ATOM     65  C41 GT5 d   1      63.906-133.053  35.558  0.00  0.00    -0.059 C 
ATOM     66  H18 GT5 d   1      64.081-133.306  36.614  0.00  0.00     0.038 H 
BRANCH  65  67
ATOM     67  C43 GT5 d   1      64.673-131.764  35.202  0.00  0.00    -0.073 C 
ATOM     68  H19 GT5 d   1      65.749-131.919  35.370  0.00  0.00     0.028 H 
ATOM     69  H20 GT5 d   1      64.318-130.939  35.837  0.00  0.00     0.028 H 
ATOM     70  H21 GT5 d   1      64.499-131.514  34.145  0.00  0.00     0.028 H 
ENDBRANCH  65  67
BRANCH  65  71
ATOM     71  C42 GT5 d   1      64.393-134.194  34.671  0.00  0.00    -0.073 C 
ATOM     72  H22 GT5 d   1      63.846-135.114  34.924  0.00  0.00     0.028 H 
ATOM     73  H23 GT5 d   1      65.470-134.351  34.833  0.00  0.00     0.028 H 
ATOM     74  H24 GT5 d   1      64.214-133.940  33.616  0.00  0.00     0.028 H 
ENDBRANCH  65  71
ENDBRANCH  62  65
ENDBRANCH  46  62
ENDBRANCH  43  46
ENDBRANCH   1  42
BRANCH   1  75
ATOM     75  C32 GT5 d   1      60.773-136.701  38.987  0.00  0.00     0.046 C 
ATOM     76  H27 GT5 d   1      61.401-137.508  38.582  0.00  0.00     0.078 H 
ATOM     77  H28 GT5 d   1      59.947-136.495  38.291  0.00  0.00     0.078 H 
BRANCH  75  78
ATOM     78  O36 GT5 d   1      60.233-137.115  40.244  0.00  0.00    -0.393 OA
BRANCH  78  79
ATOM     79  C34 GT5 d   1      58.965-137.784  40.118  0.00  0.00     0.004 C 
ATOM     80  H29 GT5 d   1      58.604-138.076  41.115  0.00  0.00     0.066 H 
ATOM     81  H30 GT5 d   1      59.084-138.682  39.494  0.00  0.00     0.066 H 
ATOM     82  H31 GT5 d   1      58.237-137.105  39.649  0.00  0.00     0.066 H 
ENDBRANCH  78  79
ENDBRANCH  75  78
ENDBRANCH   1  75
TORSDOF 22
