REMARK  21 active torsions:
REMARK  status: ('A' for Active; 'I' for Inactive)
REMARK    1  A    between atoms: C3_13  and  C4_1 
REMARK    2  A    between atoms: C7_3  and  C6_2 
REMARK       I    between atoms: N8_18  and  C7_3 
REMARK    3  A    between atoms: C10_4  and  C9_19 
REMARK       I    between atoms: N11_25  and  C10_4 
REMARK    4  A    between atoms: C12_26  and  C13_5 
REMARK       I    between atoms: C13_5  and  N14_35 
REMARK    5  A    between atoms: N14_35  and  C15_6 
REMARK    6  A    between atoms: C15_6  and  C25_36 
REMARK    7  A    between atoms: C15_6  and  C16_40 
REMARK    8  A    between atoms: C16_40  and  C17_7 
REMARK    9  A    between atoms: C20_8  and  C21_9 
REMARK   10  A    between atoms: C21_9  and  N22_42 
REMARK   11  A    between atoms: C25_36  and  C26_11 
REMARK   12  A    between atoms: C26_11  and  S27_37 
REMARK   13  A    between atoms: S27_37  and  C28_12 
REMARK   14  A    between atoms: C9_19  and  N8_18 
REMARK   15  A    between atoms: C9_19  and  C40_20 
REMARK   16  A    between atoms: C40_20  and  C41_21 
REMARK   17  A    between atoms: C41_21  and  C42_22 
REMARK   18  A    between atoms: C41_21  and  C43_23 
REMARK   19  A    between atoms: N11_25  and  C12_26 
REMARK   20  A    between atoms: C12_26  and  C32_27 
REMARK   21  A    between atoms: C32_27  and  C33_28 
ROOT
ATOM      1  C12 GTW d   1      61.178-135.222  39.387  0.00  0.00     0.089 C 
ATOM      2  H26 GTW d   1      60.581-134.346  39.679  0.00  0.00     0.087 H 
ENDROOT
BRANCH   1   3
ATOM      3  C13 GTW d   1      62.431-135.295  40.161  0.00  0.00     0.240 C 
ATOM      4  O31 GTW d   1      63.479-135.667  39.701  0.00  0.00    -0.271 OA
ATOM      5  N14 GTW d   1      62.211-134.962  41.385  0.00  0.00    -0.354 N 
ATOM      6  H40 GTW d   1      61.262-134.721  41.589  0.00  0.00     0.162 HD
BRANCH   5   7
ATOM      7  C15 GTW d   1      63.125-134.879  42.528  0.00  0.00     0.017 C 
ATOM      8  H4  GTW d   1      64.148-134.874  42.123  0.00  0.00     0.073 H 
BRANCH   7   9
ATOM      9  C25 GTW d   1      62.958-136.188  43.316  0.00  0.00    -0.034 C 
ATOM     10  H41 GTW d   1      63.483-136.136  44.281  0.00  0.00     0.037 H 
ATOM     11  H42 GTW d   1      63.336-137.045  42.739  0.00  0.00     0.037 H 
BRANCH   9  12
ATOM     12  C26 GTW d   1      61.477-136.290  43.518  0.00  0.00     0.030 C 
ATOM     13  H8  GTW d   1      60.978-135.981  42.588  0.00  0.00     0.056 H 
ATOM     14  H9  GTW d   1      61.191-135.608  44.332  0.00  0.00     0.056 H 
BRANCH  12  15
ATOM     15  S27 GTW d   1      60.920-137.919  43.934  0.00  0.00     0.140 S 
ATOM     16  O30 GTW d   1      61.286-138.399  45.299  0.00  0.00    -0.228 OA
ATOM     17  O29 GTW d   1      59.455-137.827  43.777  0.00  0.00    -0.228 OA
BRANCH  15  18
ATOM     18  C28 GTW d   1      61.520-139.035  42.745  0.00  0.00     0.015 C 
ATOM     19  H10 GTW d   1      61.181-140.052  42.992  0.00  0.00     0.048 H 
ATOM     20  H11 GTW d   1      62.620-139.007  42.738  0.00  0.00     0.048 H 
ATOM     21  H12 GTW d   1      61.140-138.753  41.752  0.00  0.00     0.048 H 
ENDBRANCH  15  18
ENDBRANCH  12  15
ENDBRANCH   9  12
ENDBRANCH   7   9
BRANCH   7  22
ATOM     22  C16 GTW d   1      63.013-133.602  43.362  0.00  0.00    -0.022 C 
ATOM     23  H43 GTW d   1      63.540-133.767  44.313  0.00  0.00     0.043 H 
ATOM     24  H44 GTW d   1      61.947-133.415  43.561  0.00  0.00     0.043 H 
BRANCH  22  25
ATOM     25  C17 GTW d   1      63.549-132.461  42.761  0.00  0.00    -0.056 A 
ATOM     26  C24 GTW d   1      64.547-132.619  41.841  0.00  0.00    -0.076 A 
ATOM     27  C23 GTW d   1      65.156-131.531  41.267  0.00  0.00    -0.075 A 
ATOM     28  H7  GTW d   1      64.862-133.618  41.561  0.00  0.00     0.084 H 
ATOM     29  C20 GTW d   1      64.793-130.264  41.622  0.00  0.00    -0.033 A 
ATOM     30  H45 GTW d   1      65.932-131.679  40.525  0.00  0.00     0.084 H 
ATOM     31  C19 GTW d   1      63.814-130.081  42.567  0.00  0.00    -0.075 A 
ATOM     32  C18 GTW d   1      63.203-131.179  43.144  0.00  0.00    -0.076 A 
ATOM     33  H49 GTW d   1      63.521-129.079  42.860  0.00  0.00     0.084 H 
ATOM     34  H50 GTW d   1      62.445-131.033  43.905  0.00  0.00     0.084 H 
BRANCH  29  35
ATOM     35  C21 GTW d   1      65.429-129.219  41.010  0.00  0.00     0.103 C 
ATOM     36  H5  GTW d   1      65.197-129.239  39.935  0.00  0.00     0.082 H 
ATOM     37  H6  GTW d   1      66.514-129.327  41.153  0.00  0.00     0.082 H 
BRANCH  35  38
ATOM     38  N22 GTW d   1      65.005-127.951  41.560  0.00  0.00    -0.075 N 
ATOM     39  H46 GTW d   1      65.490-127.202  41.090  0.00  0.00     0.274 HD
ATOM     40  H47 GTW d   1      65.218-127.924  42.545  0.00  0.00     0.274 HD
ATOM     41  H48 GTW d   1      64.011-127.843  41.428  0.00  0.00     0.274 HD
ENDBRANCH  35  38
ENDBRANCH  29  35
ENDBRANCH  22  25
ENDBRANCH   7  22
ENDBRANCH   5   7
ENDBRANCH   1   3
BRANCH   1  42
ATOM     42  N11 GTW d   1      61.349-135.230  37.942  0.00  0.00    -0.346 N 
ATOM     43  C10 GTW d   1      60.734-134.290  37.255  0.00  0.00     0.241 C 
ATOM     44  O39 GTW d   1      60.065-133.438  37.809  0.00  0.00    -0.271 OA
ATOM     45  H25 GTW d   1      61.911-135.922  37.489  0.00  0.00     0.163 HD
BRANCH  43  46
ATOM     46  C9  GTW d   1      60.897-134.281  35.766  0.00  0.00     0.090 C 
ATOM     47  H15 GTW d   1      61.331-135.217  35.384  0.00  0.00     0.087 H 
BRANCH  46  48
ATOM     48  N8  GTW d   1      59.558-134.007  35.309  0.00  0.00    -0.343 N 
ATOM     49  C7  GTW d   1      58.864-134.853  34.625  0.00  0.00     0.260 C 
ATOM     50  O44 GTW d   1      59.220-135.996  34.429  0.00  0.00    -0.267 OA
ATOM     51  H14 GTW d   1      59.149-133.122  35.532  0.00  0.00     0.163 HD
BRANCH  49  52
ATOM     52  C6  GTW d   1      57.667-134.441  34.292  0.00  0.00     0.091 A 
ATOM     53  S5  GTW d   1      57.037-133.140  34.705  0.00  0.00    -0.068 SA
ATOM     54  C3  GTW d   1      55.767-133.269  34.014  0.00  0.00     0.071 A 
ATOM     55  N2  GTW d   1      55.735-134.402  33.329  0.00  0.00    -0.257 NA
ATOM     56  C1  GTW d   1      56.859-135.096  33.480  0.00  0.00     0.025 A 
ATOM     57  H13 GTW d   1      57.078-136.053  33.008  0.00  0.00     0.117 H 
BRANCH  54  58
ATOM     58  C4  GTW d   1      54.642-132.260  34.052  0.00  0.00    -0.029 C 
ATOM     59  H1  GTW d   1      53.805-132.621  33.437  0.00  0.00     0.036 H 
ATOM     60  H2  GTW d   1      54.999-131.298  33.657  0.00  0.00     0.036 H 
ATOM     61  H3  GTW d   1      54.303-132.127  35.090  0.00  0.00     0.036 H 
ENDBRANCH  54  58
ENDBRANCH  49  52
ENDBRANCH  46  48
BRANCH  46  62
ATOM     62  C40 GTW d   1      61.631-133.067  35.287  0.00  0.00    -0.035 C 
ATOM     63  H16 GTW d   1      61.242-132.189  35.823  0.00  0.00     0.037 H 
ATOM     64  H17 GTW d   1      61.447-132.950  34.209  0.00  0.00     0.037 H 
BRANCH  62  65
ATOM     65  C41 GTW d   1      63.098-133.143  35.509  0.00  0.00    -0.059 C 
ATOM     66  H18 GTW d   1      63.347-133.333  36.563  0.00  0.00     0.038 H 
BRANCH  65  67
ATOM     67  C42 GTW d   1      63.637-134.204  34.591  0.00  0.00    -0.073 C 
ATOM     68  H19 GTW d   1      64.725-134.289  34.728  0.00  0.00     0.028 H 
ATOM     69  H20 GTW d   1      63.419-133.932  33.548  0.00  0.00     0.028 H 
ATOM     70  H21 GTW d   1      63.161-135.168  34.825  0.00  0.00     0.028 H 
ENDBRANCH  65  67
BRANCH  65  71
ATOM     71  C43 GTW d   1      63.684-131.854  35.001  0.00  0.00    -0.073 C 
ATOM     72  H22 GTW d   1      63.334-131.020  35.627  0.00  0.00     0.028 H 
ATOM     73  H23 GTW d   1      63.365-131.691  33.961  0.00  0.00     0.028 H 
ATOM     74  H24 GTW d   1      64.782-131.908  35.044  0.00  0.00     0.028 H 
ENDBRANCH  65  71
ENDBRANCH  62  65
ENDBRANCH  46  62
ENDBRANCH  43  46
ENDBRANCH   1  42
BRANCH   1  75
ATOM     75  C32 GTW d   1      60.546-136.515  39.816  0.00  0.00    -0.035 C 
ATOM     76  H27 GTW d   1      60.394-136.472  40.904  0.00  0.00     0.037 H 
ATOM     77  H28 GTW d   1      61.245-137.329  39.575  0.00  0.00     0.037 H 
BRANCH  75  78
ATOM     78  C33 GTW d   1      59.221-136.837  39.175  0.00  0.00    -0.052 C 
ATOM     79  C38 GTW d   1      58.722-138.095  39.751  0.00  0.00    -0.062 C 
ATOM     80  C37 GTW d   1      57.422-138.438  39.136  0.00  0.00    -0.065 C 
ATOM     81  H30 GTW d   1      58.593-137.975  40.837  0.00  0.00     0.033 H 
ATOM     82  H31 GTW d   1      59.445-138.900  39.554  0.00  0.00     0.033 H 
ATOM     83  C36 GTW d   1      56.472-137.369  39.403  0.00  0.00    -0.065 C 
ATOM     84  H32 GTW d   1      57.048-139.379  39.566  0.00  0.00     0.033 H 
ATOM     85  H33 GTW d   1      57.548-138.556  38.050  0.00  0.00     0.033 H 
ATOM     86  C35 GTW d   1      56.966-136.093  38.833  0.00  0.00    -0.065 C 
ATOM     87  H34 GTW d   1      56.346-137.257  40.490  0.00  0.00     0.033 H 
ATOM     88  H35 GTW d   1      55.504-137.621  38.946  0.00  0.00     0.033 H 
ATOM     89  C34 GTW d   1      58.270-135.769  39.460  0.00  0.00    -0.062 C 
ATOM     90  H36 GTW d   1      56.244-135.290  39.042  0.00  0.00     0.033 H 
ATOM     91  H37 GTW d   1      57.093-136.197  37.745  0.00  0.00     0.033 H 
ATOM     92  H38 GTW d   1      58.649-134.821  39.051  0.00  0.00     0.033 H 
ATOM     93  H39 GTW d   1      58.141-135.673  40.548  0.00  0.00     0.033 H 
ATOM     94  H29 GTW d   1      59.346-136.944  38.087  0.00  0.00     0.040 H 
ENDBRANCH  75  78
ENDBRANCH   1  75
TORSDOF 21
