REMARK  21 active torsions:
REMARK  status: ('A' for Active; 'I' for Inactive)
REMARK    1  A    between atoms: C8_5  and  C7_4 
REMARK    2  A    between atoms: C7_4  and  C50_12 
REMARK    3  A    between atoms: C8_5  and  C9_13 
REMARK    4  A    between atoms: N22_18  and  C8_5 
REMARK    5  A    between atoms: C12_16  and  C10_6 
REMARK    6  A    between atoms: C23_19  and  C24_7 
REMARK    7  A    between atoms: C24_7  and  C40_21 
REMARK    8  A    between atoms: C24_7  and  N25_30 
REMARK       I    between atoms: N25_30  and  C26_8 
REMARK    9  A    between atoms: C26_8  and  C27_32 
REMARK   10  A    between atoms: C50_12  and  C3_11 
REMARK   11  A    between atoms: C9_13  and  O21_14 
REMARK   12  A    between atoms: C9_13  and  C12_16 
REMARK   13  A    between atoms: C12_16  and  C11_15 
REMARK   14  A    between atoms: C12_16  and  O13_17 
REMARK       I    between atoms: N22_18  and  C23_19 
REMARK   15  A    between atoms: C40_21  and  C41_22 
REMARK   16  A    between atoms: C44_25  and  O45_26 
REMARK   17  A    between atoms: O45_26  and  C46_27 
REMARK   18  A    between atoms: C27_32  and  C38_33 
REMARK   19  A    between atoms: C27_32  and  N28_34 
REMARK       I    between atoms: N28_34  and  C29_35 
REMARK   20  A    between atoms: C29_35  and  C30_37 
REMARK   21  A    between atoms: C30_37  and  N31_38 
ROOT
ATOM      1  C24 GT8 d   1      61.149-135.359  39.281  0.00  0.00     0.093 C 
ATOM      2  H13 GT8 d   1      60.511-134.527  39.615  0.00  0.00     0.088 H 
ENDROOT
BRANCH   1   3
ATOM      3  C23 GT8 d   1      62.506-135.316  39.973  0.00  0.00     0.241 C 
ATOM      4  N22 GT8 d   1      62.435-135.087  41.294  0.00  0.00    -0.352 N 
ATOM      5  H27 GT8 d   1      61.532-134.931  41.694  0.00  0.00     0.163 HD
ATOM      6  O49 GT8 d   1      63.540-135.537  39.338  0.00  0.00    -0.271 OA
BRANCH   4   7
ATOM      7  C8  GT8 d   1      63.598-135.051  42.190  0.00  0.00     0.040 C 
ATOM      8  H9  GT8 d   1      64.523-135.233  41.623  0.00  0.00     0.076 H 
BRANCH   7   9
ATOM      9  C7  GT8 d   1      63.647-133.665  42.823  0.00  0.00    -0.043 C 
ATOM     10  H7  GT8 d   1      64.287-133.698  43.717  0.00  0.00     0.036 H 
ATOM     11  H8  GT8 d   1      62.629-133.362  43.111  0.00  0.00     0.036 H 
BRANCH   9  12
ATOM     12  C50 GT8 d   1      64.217-132.641  41.832  0.00  0.00    -0.060 C 
ATOM     13  H19 GT8 d   1      63.765-132.817  40.844  0.00  0.00     0.033 H 
ATOM     14  H20 GT8 d   1      65.306-132.781  41.767  0.00  0.00     0.033 H 
BRANCH  12  15
ATOM     15  C3  GT8 d   1      63.930-131.184  42.255  0.00  0.00    -0.054 C 
ATOM     16  C4  GT8 d   1      64.174-130.921  43.756  0.00  0.00    -0.062 C 
ATOM     17  C5  GT8 d   1      63.958-129.442  44.051  0.00  0.00    -0.065 C 
ATOM     18  H1  GT8 d   1      63.471-131.521  44.353  0.00  0.00     0.033 H 
ATOM     19  H2  GT8 d   1      65.206-131.200  44.015  0.00  0.00     0.033 H 
ATOM     20  C6  GT8 d   1      64.916-128.634  43.184  0.00  0.00    -0.065 C 
ATOM     21  H3  GT8 d   1      64.160-129.242  45.114  0.00  0.00     0.033 H 
ATOM     22  H4  GT8 d   1      62.920-129.164  43.816  0.00  0.00     0.033 H 
ATOM     23  C1  GT8 d   1      64.539-128.837  41.765  0.00  0.00    -0.065 C 
ATOM     24  H5  GT8 d   1      65.948-128.978  43.348  0.00  0.00     0.033 H 
ATOM     25  H6  GT8 d   1      64.841-127.567  43.440  0.00  0.00     0.033 H 
ATOM     26  C2  GT8 d   1      64.831-130.261  41.438  0.00  0.00    -0.062 C 
ATOM     27  H16 GT8 d   1      65.130-128.172  41.118  0.00  0.00     0.033 H 
ATOM     28  H17 GT8 d   1      63.468-128.629  41.625  0.00  0.00     0.033 H 
ATOM     29  H14 GT8 d   1      65.883-130.479  41.672  0.00  0.00     0.033 H 
ATOM     30  H15 GT8 d   1      64.651-130.432  40.367  0.00  0.00     0.033 H 
ATOM     31  H18 GT8 d   1      62.877-130.958  42.031  0.00  0.00     0.040 H 
ENDBRANCH  12  15
ENDBRANCH   9  12
ENDBRANCH   7   9
BRANCH   7  32
ATOM     32  C9  GT8 d   1      63.420-136.160  43.265  0.00  0.00     0.084 C 
ATOM     33  H21 GT8 d   1      64.207-136.047  44.026  0.00  0.00     0.090 H 
BRANCH  32  34
ATOM     34  O21 GT8 d   1      62.137-135.931  43.846  0.00  0.00    -0.390 OA
ATOM     35  H22 GT8 d   1      61.973-136.584  44.516  0.00  0.00     0.210 HD
ENDBRANCH  32  34
BRANCH  32  36
ATOM     36  C12 GT8 d   1      63.472-137.669  42.705  0.00  0.00     0.078 C 
BRANCH  36  37
ATOM     37  C10 GT8 d   1      63.972-137.825  41.242  0.00  0.00    -0.046 C 
ATOM     38  H10 GT8 d   1      63.967-138.889  40.965  0.00  0.00     0.031 H 
ATOM     39  H11 GT8 d   1      64.995-137.429  41.160  0.00  0.00     0.031 H 
ATOM     40  H12 GT8 d   1      63.308-137.267  40.566  0.00  0.00     0.031 H 
ENDBRANCH  36  37
BRANCH  36  41
ATOM     41  C11 GT8 d   1      64.431-138.672  43.465  0.00  0.00    -0.046 C 
ATOM     42  H23 GT8 d   1      64.377-139.662  42.989  0.00  0.00     0.031 H 
ATOM     43  H24 GT8 d   1      64.118-138.753  44.517  0.00  0.00     0.031 H 
ATOM     44  H25 GT8 d   1      65.465-138.298  43.417  0.00  0.00     0.031 H 
ENDBRANCH  36  41
BRANCH  36  45
ATOM     45  O13 GT8 d   1      62.113-138.152  42.696  0.00  0.00    -0.388 OA
ATOM     46  H26 GT8 d   1      61.764-138.130  43.579  0.00  0.00     0.210 HD
ENDBRANCH  36  45
ENDBRANCH  32  36
ENDBRANCH   7  32
ENDBRANCH   4   7
ENDBRANCH   1   3
BRANCH   1  47
ATOM     47  C40 GT8 d   1      60.499-136.690  39.639  0.00  0.00    -0.014 C 
ATOM     48  H28 GT8 d   1      60.637-136.879  40.714  0.00  0.00     0.043 H 
ATOM     49  H29 GT8 d   1      60.981-137.492  39.061  0.00  0.00     0.043 H 
BRANCH  47  50
ATOM     50  C41 GT8 d   1      59.148-136.677  39.353  0.00  0.00    -0.056 A 
ATOM     51  C48 GT8 d   1      58.708-136.897  38.057  0.00  0.00    -0.074 A 
ATOM     52  C47 GT8 d   1      57.344-136.896  37.776  0.00  0.00    -0.050 A 
ATOM     53  H30 GT8 d   1      59.425-137.070  37.263  0.00  0.00     0.084 H 
ATOM     54  C44 GT8 d   1      56.397-136.679  38.780  0.00  0.00     0.068 A 
ATOM     55  H31 GT8 d   1      57.011-137.067  36.759  0.00  0.00     0.087 H 
ATOM     56  C43 GT8 d   1      56.856-136.457  40.087  0.00  0.00    -0.050 A 
ATOM     57  C42 GT8 d   1      58.218-136.458  40.364  0.00  0.00    -0.074 A 
ATOM     58  H35 GT8 d   1      56.144-136.284  40.886  0.00  0.00     0.087 H 
ATOM     59  H36 GT8 d   1      58.559-136.286  41.379  0.00  0.00     0.084 H 
BRANCH  54  60
ATOM     60  O45 GT8 d   1      55.074-136.693  38.401  0.00  0.00    -0.356 OA
BRANCH  60  61
ATOM     61  C46 GT8 d   1      53.974-136.607  39.334  0.00  0.00     0.010 C 
ATOM     62  H32 GT8 d   1      53.023-136.639  38.783  0.00  0.00     0.066 H 
ATOM     63  H33 GT8 d   1      54.042-135.663  39.895  0.00  0.00     0.066 H 
ATOM     64  H34 GT8 d   1      54.020-137.454  40.035  0.00  0.00     0.066 H 
ENDBRANCH  60  61
ENDBRANCH  54  60
ENDBRANCH  47  50
ENDBRANCH   1  47
BRANCH   1  65
ATOM     65  N25 GT8 d   1      61.402-135.252  37.844  0.00  0.00    -0.346 N 
ATOM     66  C26 GT8 d   1      60.837-134.308  37.078  0.00  0.00     0.240 C 
ATOM     67  O39 GT8 d   1      60.022-133.471  37.466  0.00  0.00    -0.271 OA
ATOM     68  H37 GT8 d   1      62.022-135.910  37.416  0.00  0.00     0.163 HD
BRANCH  66  69
ATOM     69  C27 GT8 d   1      61.293-134.337  35.618  0.00  0.00     0.086 C 
ATOM     70  H38 GT8 d   1      61.616-135.357  35.364  0.00  0.00     0.086 H 
BRANCH  69  71
ATOM     71  C38 GT8 d   1      62.494-133.392  35.460  0.00  0.00    -0.049 C 
ATOM     72  H39 GT8 d   1      62.834-133.402  34.414  0.00  0.00     0.030 H 
ATOM     73  H40 GT8 d   1      63.312-133.727  36.114  0.00  0.00     0.030 H 
ATOM     74  H41 GT8 d   1      62.196-132.370  35.739  0.00  0.00     0.030 H 
ENDBRANCH  69  71
BRANCH  69  75
ATOM     75  N28 GT8 d   1      60.166-133.975  34.733  0.00  0.00    -0.347 N 
ATOM     76  C29 GT8 d   1      59.203-134.873  34.463  0.00  0.00     0.244 C 
ATOM     77  O37 GT8 d   1      59.191-136.021  34.898  0.00  0.00    -0.272 OA
ATOM     78  H42 GT8 d   1      60.120-133.059  34.334  0.00  0.00     0.163 HD
BRANCH  76  79
ATOM     79  C30 GT8 d   1      58.076-134.423  33.533  0.00  0.00     0.156 C 
ATOM     80  H43 GT8 d   1      57.685-135.305  33.005  0.00  0.00     0.090 H 
ATOM     81  H44 GT8 d   1      58.489-133.712  32.803  0.00  0.00     0.090 H 
BRANCH  79  82
ATOM     82  N31 GT8 d   1      56.955-133.767  34.247  0.00  0.00    -0.059 N 
ATOM     83  C36 GT8 d   1      56.593-134.367  35.538  0.00  0.00     0.103 C 
ATOM     84  C35 GT8 d   1      55.365-133.587  36.079  0.00  0.00     0.042 C 
ATOM     85  H46 GT8 d   1      57.434-134.281  36.242  0.00  0.00     0.079 H 
ATOM     86  H47 GT8 d   1      56.335-135.428  35.401  0.00  0.00     0.079 H 
ATOM     87  O34 GT8 d   1      54.271-133.552  35.128  0.00  0.00    -0.388 OA
ATOM     88  H48 GT8 d   1      55.672-132.555  36.302  0.00  0.00     0.076 H 
ATOM     89  H49 GT8 d   1      55.016-134.073  37.002  0.00  0.00     0.076 H 
ATOM     90  C33 GT8 d   1      54.666-132.882  33.909  0.00  0.00     0.042 C 
ATOM     91  C32 GT8 d   1      55.822-133.670  33.329  0.00  0.00     0.103 C 
ATOM     92  H50 GT8 d   1      54.983-131.852  34.129  0.00  0.00     0.076 H 
ATOM     93  H51 GT8 d   1      53.827-132.863  33.198  0.00  0.00     0.076 H 
ATOM     94  H52 GT8 d   1      55.472-134.686  33.093  0.00  0.00     0.079 H 
ATOM     95  H53 GT8 d   1      56.158-133.174  32.406  0.00  0.00     0.079 H 
ATOM     96  H45 GT8 d   1      57.253-132.827  34.454  0.00  0.00     0.280 HD
ENDBRANCH  79  82
ENDBRANCH  76  79
ENDBRANCH  69  75
ENDBRANCH  66  69
ENDBRANCH   1  65
TORSDOF 21
