REMARK  20 active torsions:
REMARK  status: ('A' for Active; 'I' for Inactive)
REMARK    1  A    between atoms: C7_4  and  C6_3 
REMARK    2  A    between atoms: C8_5  and  C7_4 
REMARK    3  A    between atoms: C8_5  and  C9_16 
REMARK    4  A    between atoms: N22_21  and  C8_5 
REMARK    5  A    between atoms: C9_16  and  C10_6 
REMARK    6  A    between atoms: C10_6  and  C11_18 
REMARK    7  A    between atoms: C10_6  and  C12_19 
REMARK    8  A    between atoms: C10_6  and  O13_20 
REMARK    9  A    between atoms: C23_22  and  C24_7 
REMARK   10  A    between atoms: C24_7  and  C40_24 
REMARK   11  A    between atoms: C24_7  and  N25_33 
REMARK       I    between atoms: N25_33  and  C26_8 
REMARK   12  A    between atoms: C26_8  and  C27_35 
REMARK   13  A    between atoms: C9_16  and  O21_17 
REMARK       I    between atoms: N22_21  and  C23_22 
REMARK   14  A    between atoms: C40_24  and  C41_25 
REMARK   15  A    between atoms: C44_28  and  O45_29 
REMARK   16  A    between atoms: O45_29  and  C46_30 
REMARK   17  A    between atoms: C27_35  and  C38_36 
REMARK   18  A    between atoms: C27_35  and  N28_37 
REMARK       I    between atoms: N28_37  and  C29_38 
REMARK   19  A    between atoms: C29_38  and  C30_40 
REMARK   20  A    between atoms: C30_40  and  N31_41 
ROOT
ATOM      1  C24 GVW d   1      60.846-135.538  38.868  0.00  0.00     0.093 C 
ATOM      2  H8  GVW d   1      60.160-134.736  39.178  0.00  0.00     0.088 H 
ENDROOT
BRANCH   1   3
ATOM      3  C23 GVW d   1      62.159-135.423  39.633  0.00  0.00     0.241 C 
ATOM      4  N22 GVW d   1      62.036-135.320  40.957  0.00  0.00    -0.352 N 
ATOM      5  H31 GVW d   1      61.123-135.329  41.364  0.00  0.00     0.163 HD
ATOM      6  O49 GVW d   1      63.235-135.428  39.045  0.00  0.00    -0.271 OA
BRANCH   4   7
ATOM      7  C8  GVW d   1      63.206-135.194  41.828  0.00  0.00     0.040 C 
ATOM      8  H7  GVW d   1      64.120-135.130  41.219  0.00  0.00     0.076 H 
BRANCH   7   9
ATOM      9  C7  GVW d   1      63.053-133.951  42.710  0.00  0.00    -0.040 C 
ATOM     10  H5  GVW d   1      62.030-133.940  43.114  0.00  0.00     0.036 H 
ATOM     11  H6  GVW d   1      63.773-134.026  43.538  0.00  0.00     0.036 H 
BRANCH   9  12
ATOM     12  C6  GVW d   1      63.295-132.628  41.986  0.00  0.00    -0.052 C 
ATOM     13  C5  GVW d   1      64.683-132.569  41.392  0.00  0.00    -0.058 C 
ATOM     14  C4  GVW d   1      64.860-131.216  40.714  0.00  0.00    -0.050 C 
ATOM     15  H2  GVW d   1      65.433-132.686  42.188  0.00  0.00     0.034 H 
ATOM     16  H3  GVW d   1      64.805-133.374  40.652  0.00  0.00     0.034 H 
ATOM     17  C53 GVW d   1      66.225-131.133  40.070  0.00  0.00    -0.061 C 
ATOM     18  C3  GVW d   1      64.730-130.105  41.739  0.00  0.00    -0.051 C 
ATOM     19  H1  GVW d   1      64.085-131.094  39.943  0.00  0.00     0.040 H 
ATOM     20  C52 GVW d   1      66.348-129.801  39.360  0.00  0.00    -0.065 C 
ATOM     21  H9  GVW d   1      66.342-131.951  39.344  0.00  0.00     0.033 H 
ATOM     22  H10 GVW d   1      67.004-131.214  40.842  0.00  0.00     0.033 H 
ATOM     23  C51 GVW d   1      66.230-128.684  40.373  0.00  0.00    -0.065 C 
ATOM     24  H11 GVW d   1      65.546-129.707  38.613  0.00  0.00     0.033 H 
ATOM     25  H12 GVW d   1      67.325-129.741  38.858  0.00  0.00     0.033 H 
ATOM     26  C50 GVW d   1      64.887-128.762  41.060  0.00  0.00    -0.061 C 
ATOM     27  H13 GVW d   1      66.324-127.715  39.861  0.00  0.00     0.033 H 
ATOM     28  H14 GVW d   1      67.030-128.783  41.121  0.00  0.00     0.033 H 
ATOM     29  H15 GVW d   1      64.088-128.635  40.314  0.00  0.00     0.033 H 
ATOM     30  H16 GVW d   1      64.816-127.963  41.813  0.00  0.00     0.033 H 
ATOM     31  C2  GVW d   1      63.359-130.172  42.363  0.00  0.00    -0.061 C 
ATOM     32  H17 GVW d   1      65.501-130.223  42.514  0.00  0.00     0.040 H 
ATOM     33  C1  GVW d   1      63.167-131.523  43.016  0.00  0.00    -0.061 C 
ATOM     34  H18 GVW d   1      62.595-130.029  41.585  0.00  0.00     0.033 H 
ATOM     35  H19 GVW d   1      63.262-129.381  43.121  0.00  0.00     0.033 H 
ATOM     36  H20 GVW d   1      63.932-131.662  43.794  0.00  0.00     0.033 H 
ATOM     37  H21 GVW d   1      62.167-131.566  43.473  0.00  0.00     0.033 H 
ATOM     38  H4  GVW d   1      62.548-132.498  41.189  0.00  0.00     0.040 H 
ENDBRANCH   9  12
ENDBRANCH   7   9
BRANCH   7  39
ATOM     39  C9  GVW d   1      63.284-136.380  42.788  0.00  0.00     0.084 C 
ATOM     40  H22 GVW d   1      64.053-136.174  43.547  0.00  0.00     0.090 H 
BRANCH  39  41
ATOM     41  C10 GVW d   1      63.663-137.698  42.057  0.00  0.00     0.078 C 
BRANCH  41  42
ATOM     42  C11 GVW d   1      64.739-138.495  42.817  0.00  0.00    -0.046 C 
ATOM     43  H24 GVW d   1      64.973-139.416  42.263  0.00  0.00     0.031 H 
ATOM     44  H25 GVW d   1      64.364-138.755  43.818  0.00  0.00     0.031 H 
ATOM     45  H26 GVW d   1      65.648-137.884  42.913  0.00  0.00     0.031 H 
ENDBRANCH  41  42
BRANCH  41  46
ATOM     46  C12 GVW d   1      64.214-137.346  40.680  0.00  0.00    -0.046 C 
ATOM     47  H27 GVW d   1      63.460-136.775  40.118  0.00  0.00     0.031 H 
ATOM     48  H28 GVW d   1      64.455-138.270  40.134  0.00  0.00     0.031 H 
ATOM     49  H29 GVW d   1      65.124-136.739  40.794  0.00  0.00     0.031 H 
ENDBRANCH  41  46
BRANCH  41  50
ATOM     50  O13 GVW d   1      62.520-138.552  41.873  0.00  0.00    -0.388 OA
ATOM     51  H30 GVW d   1      62.189-138.823  42.721  0.00  0.00     0.210 HD
ENDBRANCH  41  50
ENDBRANCH  39  41
BRANCH  39  52
ATOM     52  O21 GVW d   1      61.999-136.502  43.437  0.00  0.00    -0.390 OA
ATOM     53  H23 GVW d   1      61.334-136.693  42.786  0.00  0.00     0.210 HD
ENDBRANCH  39  52
ENDBRANCH   7  39
ENDBRANCH   4   7
ENDBRANCH   1   3
BRANCH   1  54
ATOM     54  C40 GVW d   1      60.216-136.895  39.168  0.00  0.00    -0.014 C 
ATOM     55  H32 GVW d   1      60.362-137.136  40.231  0.00  0.00     0.043 H 
ATOM     56  H33 GVW d   1      60.699-137.665  38.548  0.00  0.00     0.043 H 
BRANCH  54  57
ATOM     57  C41 GVW d   1      58.858-136.866  38.887  0.00  0.00    -0.056 A 
ATOM     58  C42 GVW d   1      57.937-136.762  39.917  0.00  0.00    -0.074 A 
ATOM     59  C43 GVW d   1      56.579-136.736  39.632  0.00  0.00    -0.050 A 
ATOM     60  H34 GVW d   1      58.277-136.701  40.944  0.00  0.00     0.084 H 
ATOM     61  C44 GVW d   1      56.139-136.817  38.318  0.00  0.00     0.068 A 
ATOM     62  H35 GVW d   1      55.859-136.652  40.438  0.00  0.00     0.087 H 
ATOM     63  C47 GVW d   1      57.064-136.923  37.290  0.00  0.00    -0.050 A 
ATOM     64  C48 GVW d   1      58.421-136.949  37.574  0.00  0.00    -0.074 A 
ATOM     65  H39 GVW d   1      56.725-136.986  36.262  0.00  0.00     0.087 H 
ATOM     66  H40 GVW d   1      59.141-137.034  36.768  0.00  0.00     0.084 H 
BRANCH  61  67
ATOM     67  O45 GVW d   1      54.812-136.792  38.020  0.00  0.00    -0.356 OA
BRANCH  67  68
ATOM     68  C46 GVW d   1      54.013-137.116  39.158  0.00  0.00     0.010 C 
ATOM     69  H36 GVW d   1      52.949-137.086  38.880  0.00  0.00     0.066 H 
ATOM     70  H37 GVW d   1      54.203-136.387  39.959  0.00  0.00     0.066 H 
ATOM     71  H38 GVW d   1      54.271-138.125  39.512  0.00  0.00     0.066 H 
ENDBRANCH  67  68
ENDBRANCH  61  67
ENDBRANCH  54  57
ENDBRANCH   1  54
BRANCH   1  72
ATOM     72  N25 GVW d   1      61.129-135.420  37.434  0.00  0.00    -0.346 N 
ATOM     73  C26 GVW d   1      60.888-134.293  36.758  0.00  0.00     0.240 C 
ATOM     74  O39 GVW d   1      60.414-133.281  37.263  0.00  0.00    -0.271 OA
ATOM     75  H41 GVW d   1      61.513-136.205  36.948  0.00  0.00     0.163 HD
BRANCH  73  76
ATOM     76  C27 GVW d   1      61.248-134.333  35.277  0.00  0.00     0.086 C 
ATOM     77  H42 GVW d   1      61.516-135.361  34.991  0.00  0.00     0.086 H 
BRANCH  76  78
ATOM     78  C38 GVW d   1      62.432-133.405  35.024  0.00  0.00    -0.049 C 
ATOM     79  H43 GVW d   1      62.696-133.430  33.956  0.00  0.00     0.030 H 
ATOM     80  H44 GVW d   1      63.293-133.738  35.623  0.00  0.00     0.030 H 
ATOM     81  H45 GVW d   1      62.161-132.378  35.311  0.00  0.00     0.030 H 
ENDBRANCH  76  78
BRANCH  76  82
ATOM     82  N28 GVW d   1      60.102-133.884  34.478  0.00  0.00    -0.347 N 
ATOM     83  C29 GVW d   1      59.173-134.737  34.039  0.00  0.00     0.244 C 
ATOM     84  O37 GVW d   1      59.196-135.943  34.260  0.00  0.00    -0.272 OA
ATOM     85  H46 GVW d   1      60.014-132.913  34.256  0.00  0.00     0.163 HD
BRANCH  83  86
ATOM     86  C30 GVW d   1      58.049-134.115  33.216  0.00  0.00     0.156 C 
ATOM     87  H47 GVW d   1      57.663-134.859  32.503  0.00  0.00     0.090 H 
ATOM     88  H48 GVW d   1      58.437-133.246  32.665  0.00  0.00     0.090 H 
BRANCH  86  89
ATOM     89  N31 GVW d   1      56.966-133.684  34.105  0.00  0.00    -0.059 N 
ATOM     90  C32 GVW d   1      55.760-133.422  33.315  0.00  0.00     0.103 C 
ATOM     91  C33 GVW d   1      54.612-133.034  34.219  0.00  0.00     0.042 C 
ATOM     92  H50 GVW d   1      55.489-134.329  32.755  0.00  0.00     0.079 H 
ATOM     93  H51 GVW d   1      55.960-132.601  32.610  0.00  0.00     0.079 H 
ATOM     94  O34 GVW d   1      54.337-134.105  35.117  0.00  0.00    -0.388 OA
ATOM     95  H52 GVW d   1      53.719-132.826  33.611  0.00  0.00     0.076 H 
ATOM     96  H53 GVW d   1      54.883-132.135  34.792  0.00  0.00     0.076 H 
ATOM     97  C35 GVW d   1      55.483-134.346  35.937  0.00  0.00     0.042 C 
ATOM     98  C36 GVW d   1      56.664-134.739  35.072  0.00  0.00     0.103 C 
ATOM     99  H54 GVW d   1      55.261-135.160  36.643  0.00  0.00     0.076 H 
ATOM    100  H55 GVW d   1      55.730-133.432  36.497  0.00  0.00     0.076 H 
ATOM    101  H56 GVW d   1      57.542-134.905  35.713  0.00  0.00     0.079 H 
ATOM    102  H57 GVW d   1      56.424-135.667  34.532  0.00  0.00     0.079 H 
ATOM    103  H49 GVW d   1      57.244-132.846  34.592  0.00  0.00     0.280 HD
ENDBRANCH  86  89
ENDBRANCH  83  86
ENDBRANCH  76  82
ENDBRANCH  73  76
ENDBRANCH   1  72
TORSDOF 20
