REMARK  12 active torsions:
REMARK  status: ('A' for Active; 'I' for Inactive)
REMARK    1  A    between atoms: C10_1  and  C09_14 
REMARK    2  A    between atoms: C11_15  and  C10_1 
REMARK    3  A    between atoms: C15_2  and  N14_33 
REMARK    4  A    between atoms: C22_5  and  C34_25 
REMARK    5  A    between atoms: N26_36  and  C24_6 
REMARK    6  A    between atoms: N27_37  and  C28_7 
REMARK    7  A    between atoms: O02_38  and  C01_8 
REMARK    8  A    between atoms: C03_9  and  O02_38 
REMARK    9  A    between atoms: C06_12  and  O07_39 
REMARK   10  A    between atoms: O07_39  and  C08_13 
REMARK   11  A    between atoms: C12_16  and  C11_15 
REMARK       I    between atoms: N14_33  and  C12_16 
REMARK   12  A    between atoms: N26_36  and  N27_37 
ROOT
ATOM      1  C15 GE5 d   1      -4.342   1.163 -23.713  0.00  0.00     0.130 A 
ATOM      2  C17 GE5 d   1      -4.400  -0.504 -21.928  0.00  0.00    -0.012 A 
ATOM      3  C21 GE5 d   1      -4.407  -1.793 -21.541  0.00  0.00     0.048 A 
ATOM      4  C22 GE5 d   1      -4.757  -2.384 -20.367  0.00  0.00     0.088 A 
ATOM      5  C24 GE5 d   1      -4.041  -4.182 -21.504  0.00  0.00     0.186 A 
ATOM      6  C16 GE5 d   1      -4.386  -0.173 -23.286  0.00  0.00    -0.027 A 
ATOM      7  C18 GE5 d   1      -4.304   0.533 -21.010  0.00  0.00    -0.055 A 
ATOM      8  C19 GE5 d   1      -4.260   1.847 -21.436  0.00  0.00     0.005 A 
ATOM      9  N20 GE5 d   1      -4.272   2.138 -22.796  0.00  0.00    -0.243 NA
ATOM     10  N23 GE5 d   1      -4.555  -3.722 -20.355  0.00  0.00    -0.221 NA
ATOM     11  S25 GE5 d   1      -3.829  -2.960 -22.522  0.00  0.00    -0.048 SA
ATOM     12  H13 GE5 d   1      -4.410  -0.966 -24.025  0.00  0.00     0.090 H 
ATOM     13  H14 GE5 d   1      -4.263   0.310 -19.950  0.00  0.00     0.087 H 
ATOM     14  H15 GE5 d   1      -4.216   2.651 -20.710  0.00  0.00     0.114 H 
ENDROOT
BRANCH   4  15
ATOM     15  C34 GE5 d   1      -5.272  -1.791 -19.281  0.00  0.00    -0.006 A 
ATOM     16  C35 GE5 d   1      -4.606  -1.890 -18.064  0.00  0.00    -0.068 A 
ATOM     17  C36 GE5 d   1      -5.105  -1.286 -16.915  0.00  0.00    -0.045 A 
ATOM     18  H21 GE5 d   1      -3.679  -2.449 -18.010  0.00  0.00     0.085 H 
ATOM     19  C37 GE5 d   1      -6.295  -0.575 -16.976  0.00  0.00     0.116 A 
ATOM     20  H22 GE5 d   1      -4.567  -1.370 -15.977  0.00  0.00     0.088 H 
ATOM     21  C39 GE5 d   1      -6.974  -0.474 -18.187  0.00  0.00    -0.045 A 
ATOM     22  F38 GE5 d   1      -6.814   0.037 -15.812  0.00  0.00    -0.206 F 
ATOM     23  C40 GE5 d   1      -6.472  -1.083 -19.334  0.00  0.00    -0.068 A 
ATOM     24  H23 GE5 d   1      -7.902   0.084 -18.238  0.00  0.00     0.088 H 
ATOM     25  H24 GE5 d   1      -7.015  -1.007 -20.269  0.00  0.00     0.085 H 
ENDBRANCH   4  15
BRANCH   1  26
ATOM     26  N14 GE5 d   1      -4.320   1.583 -24.991  0.00  0.00    -0.312 N 
ATOM     27  C12 GE5 d   1      -4.266   0.777 -26.074  0.00  0.00     0.223 C 
ATOM     28  O13 GE5 d   1      -4.263  -0.452 -26.085  0.00  0.00    -0.273 OA
ATOM     29  H26 GE5 d   1      -4.346   2.570 -25.152  0.00  0.00     0.170 HD
BRANCH  27  30
ATOM     30  C11 GE5 d   1      -4.156   1.551 -27.389  0.00  0.00     0.013 C 
ATOM     31  H11 GE5 d   1      -3.728   2.541 -27.175  0.00  0.00     0.047 H 
ATOM     32  H12 GE5 d   1      -3.484   0.999 -28.062  0.00  0.00     0.047 H 
BRANCH  30  33
ATOM     33  C10 GE5 d   1      -5.500   1.748 -28.101  0.00  0.00    -0.030 C 
ATOM     34  H1  GE5 d   1      -6.019   0.783 -28.201  0.00  0.00     0.041 H 
ATOM     35  H2  GE5 d   1      -6.130   2.446 -27.530  0.00  0.00     0.041 H 
BRANCH  33  36
ATOM     36  C09 GE5 d   1      -5.224   2.276 -29.364  0.00  0.00    -0.022 A 
ATOM     37  C06 GE5 d   1      -6.054   3.216 -29.970  0.00  0.00     0.074 A 
ATOM     38  C05 GE5 d   1      -5.743   3.725 -31.227  0.00  0.00    -0.048 A 
ATOM     39  C04 GE5 d   1      -4.593   3.292 -31.883  0.00  0.00    -0.048 A 
ATOM     40  H7  GE5 d   1      -6.393   4.456 -31.694  0.00  0.00     0.087 H 
ATOM     41  C03 GE5 d   1      -3.755   2.354 -31.286  0.00  0.00     0.068 A 
ATOM     42  H6  GE5 d   1      -4.349   3.687 -32.863  0.00  0.00     0.087 H 
ATOM     43  C41 GE5 d   1      -4.078   1.853 -30.031  0.00  0.00    -0.042 A 
ATOM     44  H25 GE5 d   1      -3.428   1.122 -29.564  0.00  0.00     0.088 H 
BRANCH  37  45
ATOM     45  O07 GE5 d   1      -7.167   3.601 -29.280  0.00  0.00    -0.355 OA
BRANCH  45  46
ATOM     46  C08 GE5 d   1      -8.294   3.755 -30.155  0.00  0.00     0.010 C 
ATOM     47  H8  GE5 d   1      -9.173   4.065 -29.570  0.00  0.00     0.066 H 
ATOM     48  H9  GE5 d   1      -8.505   2.797 -30.654  0.00  0.00     0.066 H 
ATOM     49  H10 GE5 d   1      -8.069   4.521 -30.912  0.00  0.00     0.066 H 
ENDBRANCH  45  46
ENDBRANCH  37  45
BRANCH  41  50
ATOM     50  O02 GE5 d   1      -2.620   1.912 -31.906  0.00  0.00    -0.356 OA
BRANCH  50  51
ATOM     51  C01 GE5 d   1      -2.268   2.702 -33.046  0.00  0.00     0.010 C 
ATOM     52  H3  GE5 d   1      -1.351   2.300 -33.501  0.00  0.00     0.066 H 
ATOM     53  H4  GE5 d   1      -2.096   3.742 -32.732  0.00  0.00     0.066 H 
ATOM     54  H5  GE5 d   1      -3.086   2.671 -33.781  0.00  0.00     0.066 H 
ENDBRANCH  50  51
ENDBRANCH  41  50
ENDBRANCH  33  36
ENDBRANCH  30  33
ENDBRANCH  27  30
ENDBRANCH   1  26
BRANCH   5  55
ATOM     55  N26 GE5 d   1      -3.718  -5.448 -21.797  0.00  0.00    -0.278 N 
ATOM     56  H27 GE5 d   1      -3.846  -6.217 -21.124  0.00  0.00     0.189 HD
BRANCH  55  57
ATOM     57  N27 GE5 d   1      -3.248  -5.635 -22.949  0.00  0.00    -0.299 N 
ATOM     58  H28 GE5 d   1      -3.475  -4.976 -23.707  0.00  0.00     0.187 HD
BRANCH  57  59
ATOM     59  C28 GE5 d   1      -2.459  -6.679 -23.196  0.00  0.00     0.048 A 
ATOM     60  C29 GE5 d   1      -2.710  -7.489 -24.296  0.00  0.00    -0.056 A 
ATOM     61  C30 GE5 d   1      -1.893  -8.585 -24.573  0.00  0.00    -0.081 A 
ATOM     62  H16 GE5 d   1      -3.549  -7.267 -24.946  0.00  0.00     0.087 H 
ATOM     63  C31 GE5 d   1      -0.794  -8.866 -23.756  0.00  0.00    -0.083 A 
ATOM     64  H17 GE5 d   1      -2.111  -9.220 -25.424  0.00  0.00     0.083 H 
ATOM     65  C32 GE5 d   1      -0.530  -8.042 -22.664  0.00  0.00    -0.081 A 
ATOM     66  H18 GE5 d   1      -0.155  -9.715 -23.970  0.00  0.00     0.083 H 
ATOM     67  C33 GE5 d   1      -1.360  -6.955 -22.396  0.00  0.00    -0.056 A 
ATOM     68  H19 GE5 d   1       0.320  -8.246 -22.023  0.00  0.00     0.083 H 
ATOM     69  H20 GE5 d   1      -1.143  -6.315 -21.549  0.00  0.00     0.087 H 
ENDBRANCH  57  59
ENDBRANCH  55  57
ENDBRANCH   5  55
TORSDOF 12
