REMARK  13 active torsions:
REMARK  status: ('A' for Active; 'I' for Inactive)
REMARK    1  A    between atoms: C10_1  and  C09_14 
REMARK    2  A    between atoms: C11_15  and  C10_1 
REMARK    3  A    between atoms: C15_2  and  N14_35 
REMARK    4  A    between atoms: C22_5  and  C36_26 
REMARK    5  A    between atoms: N25_38  and  C24_6 
REMARK    6  A    between atoms: O02_41  and  C01_8 
REMARK    7  A    between atoms: C03_9  and  O02_41 
REMARK    8  A    between atoms: C06_12  and  O07_42 
REMARK    9  A    between atoms: O07_42  and  C08_13 
REMARK   10  A    between atoms: C12_16  and  C11_15 
REMARK       I    between atoms: N14_35  and  C12_16 
REMARK   11  A    between atoms: N26_39  and  C27_20 
REMARK   12  A    between atoms: N34_40  and  C35_25 
REMARK   13  A    between atoms: N25_38  and  N26_39 
ROOT
ATOM      1  C15 GEW d   1     -22.619   2.665  23.660  0.00  0.00     0.130 A 
ATOM      2  C17 GEW d   1     -22.717   1.064  21.762  0.00  0.00    -0.001 A 
ATOM      3  C21 GEW d   1     -22.772   0.762  20.423  0.00  0.00     0.092 A 
ATOM      4  C22 GEW d   1     -23.211  -0.370  19.795  0.00  0.00     0.114 A 
ATOM      5  C24 GEW d   1     -22.491   0.946  18.278  0.00  0.00     0.748 A 
ATOM      6  C16 GEW d   1     -22.719   2.372  22.289  0.00  0.00    -0.026 A 
ATOM      7  C18 GEW d   1     -22.565   0.046  22.707  0.00  0.00    -0.054 A 
ATOM      8  C19 GEW d   1     -22.472   0.323  24.068  0.00  0.00     0.005 A 
ATOM      9  N20 GEW d   1     -22.494   1.649  24.527  0.00  0.00    -0.243 NA
ATOM     10  N23 GEW d   1     -23.023  -0.252  18.475  0.00  0.00    -0.058 NA
ATOM     11  N34 GEW d   1     -22.292   1.558  19.441  0.00  0.00    -0.179 N 
ATOM     12  H14 GEW d   1     -22.803   3.201  21.595  0.00  0.00     0.090 H 
ATOM     13  H15 GEW d   1     -22.518  -0.984  22.372  0.00  0.00     0.087 H 
ATOM     14  H16 GEW d   1     -22.382  -0.491  24.778  0.00  0.00     0.114 H 
ENDROOT
BRANCH   4  15
ATOM     15  C36 GEW d   1     -23.772  -1.504  20.259  0.00  0.00    -0.004 A 
ATOM     16  C37 GEW d   1     -24.909  -1.513  21.060  0.00  0.00    -0.068 A 
ATOM     17  C38 GEW d   1     -25.464  -2.710  21.499  0.00  0.00    -0.045 A 
ATOM     18  H23 GEW d   1     -25.369  -0.574  21.346  0.00  0.00     0.085 H 
ATOM     19  C39 GEW d   1     -24.895  -3.920  21.130  0.00  0.00     0.116 A 
ATOM     20  H24 GEW d   1     -26.344  -2.697  22.132  0.00  0.00     0.088 H 
ATOM     21  C41 GEW d   1     -23.761  -3.928  20.324  0.00  0.00    -0.045 A 
ATOM     22  F40 GEW d   1     -25.458  -5.096  21.583  0.00  0.00    -0.206 F 
ATOM     23  C42 GEW d   1     -23.211  -2.723  19.880  0.00  0.00    -0.068 A 
ATOM     24  H25 GEW d   1     -23.304  -4.869  20.041  0.00  0.00     0.088 H 
ATOM     25  H26 GEW d   1     -22.340  -2.736  19.235  0.00  0.00     0.085 H 
ENDBRANCH   4  15
BRANCH  11  26
ATOM     26  C35 GEW d   1     -21.656   2.910  19.368  0.00  0.00     0.003 C 
ATOM     27  H20 GEW d   1     -21.542   3.317  20.384  0.00  0.00     0.058 H 
ATOM     28  H21 GEW d   1     -22.291   3.583  18.773  0.00  0.00     0.058 H 
ATOM     29  H22 GEW d   1     -20.667   2.825  18.894  0.00  0.00     0.058 H 
ENDBRANCH  11  26
BRANCH   1  30
ATOM     30  N14 GEW d   1     -22.614   3.906  24.217  0.00  0.00    -0.312 N 
ATOM     31  C12 GEW d   1     -22.621   5.075  23.525  0.00  0.00     0.223 C 
ATOM     32  O13 GEW d   1     -22.696   5.199  22.304  0.00  0.00    -0.273 OA
ATOM     33  H28 GEW d   1     -22.604   3.962  25.215  0.00  0.00     0.170 HD
BRANCH  31  34
ATOM     34  C11 GEW d   1     -22.566   6.328  24.422  0.00  0.00     0.013 C 
ATOM     35  H12 GEW d   1     -23.572   6.535  24.816  0.00  0.00     0.047 H 
ATOM     36  H13 GEW d   1     -21.875   6.144  25.258  0.00  0.00     0.047 H 
BRANCH  34  37
ATOM     37  C10 GEW d   1     -22.077   7.544  23.621  0.00  0.00    -0.030 C 
ATOM     38  H1  GEW d   1     -21.437   7.193  22.798  0.00  0.00     0.041 H 
ATOM     39  H2  GEW d   1     -22.949   8.072  23.208  0.00  0.00     0.041 H 
BRANCH  37  40
ATOM     40  C09 GEW d   1     -21.343   8.436  24.418  0.00  0.00    -0.022 A 
ATOM     41  C06 GEW d   1     -21.965   9.421  25.186  0.00  0.00     0.074 A 
ATOM     42  C05 GEW d   1     -21.218  10.297  25.968  0.00  0.00    -0.048 A 
ATOM     43  C04 GEW d   1     -19.831  10.198  25.977  0.00  0.00    -0.048 A 
ATOM     44  H8  GEW d   1     -21.715  11.052  26.567  0.00  0.00     0.087 H 
ATOM     45  C03 GEW d   1     -19.196   9.228  25.208  0.00  0.00     0.068 A 
ATOM     46  H7  GEW d   1     -19.244  10.877  26.584  0.00  0.00     0.087 H 
ATOM     47  C43 GEW d   1     -19.952   8.352  24.431  0.00  0.00    -0.042 A 
ATOM     48  H27 GEW d   1     -19.454   7.599  23.832  0.00  0.00     0.088 H 
BRANCH  41  49
ATOM     49  O07 GEW d   1     -23.329   9.475  25.147  0.00  0.00    -0.355 OA
BRANCH  49  50
ATOM     50  C08 GEW d   1     -23.804  10.476  24.233  0.00  0.00     0.010 C 
ATOM     51  H9  GEW d   1     -24.904  10.482  24.236  0.00  0.00     0.066 H 
ATOM     52  H10 GEW d   1     -23.441  10.249  23.220  0.00  0.00     0.066 H 
ATOM     53  H11 GEW d   1     -23.431  11.463  24.544  0.00  0.00     0.066 H 
ENDBRANCH  49  50
ENDBRANCH  41  49
BRANCH  45  54
ATOM     54  O02 GEW d   1     -17.833   9.144  25.227  0.00  0.00    -0.356 OA
BRANCH  54  55
ATOM     55  C01 GEW d   1     -17.296   8.952  23.913  0.00  0.00     0.010 C 
ATOM     56  H4  GEW d   1     -16.199   8.889  23.971  0.00  0.00     0.066 H 
ATOM     57  H5  GEW d   1     -17.582   9.800  23.273  0.00  0.00     0.066 H 
ATOM     58  H6  GEW d   1     -17.694   8.020  23.487  0.00  0.00     0.066 H 
ENDBRANCH  54  55
ENDBRANCH  45  54
ENDBRANCH  37  40
ENDBRANCH  34  37
ENDBRANCH  31  34
ENDBRANCH   1  30
BRANCH   5  59
ATOM     59  N25 GEW d   1     -22.086   1.443  17.105  0.00  0.00     0.044 NA
BRANCH  59  60
ATOM     60  N26 GEW d   1     -21.995   0.629  16.155  0.00  0.00    -0.134 NA
BRANCH  60  61
ATOM     61  C27 GEW d   1     -21.385   1.004  15.032  0.00  0.00     0.080 A 
ATOM     62  C28 GEW d   1     -21.482   0.225  13.883  0.00  0.00    -0.051 A 
ATOM     63  C29 GEW d   1     -20.795   0.596  12.729  0.00  0.00    -0.043 A 
ATOM     64  H3  GEW d   1     -22.092  -0.671  13.886  0.00  0.00     0.087 H 
ATOM     65  C30 GEW d   1     -19.988   1.729  12.731  0.00  0.00     0.116 A 
ATOM     66  H17 GEW d   1     -20.890   0.001  11.828  0.00  0.00     0.088 H 
ATOM     67  C32 GEW d   1     -19.870   2.492  13.887  0.00  0.00    -0.043 A 
ATOM     68  F31 GEW d   1     -19.307   2.100  11.596  0.00  0.00    -0.206 F 
ATOM     69  C33 GEW d   1     -20.557   2.122  15.037  0.00  0.00    -0.051 A 
ATOM     70  H18 GEW d   1     -19.242   3.376  13.891  0.00  0.00     0.088 H 
ATOM     71  H19 GEW d   1     -20.447   2.708  15.943  0.00  0.00     0.087 H 
ENDBRANCH  60  61
ENDBRANCH  59  60
ENDBRANCH   5  59
TORSDOF 13
