REMARK  1 active torsions:
REMARK  status: ('A' for Active; 'I' for Inactive)
REMARK    1  A    between atoms: SE_1  and  C_2 
ROOT
ATOM      1  C   GXE d   1     -16.994  35.188  40.661  0.00  0.00    -0.026 A 
ATOM      2  C1  GXE d   1     -17.563  36.089  39.749  0.00  0.00    -0.072 A 
ATOM      3  C2  GXE d   1     -18.351  37.188  40.190  0.00  0.00    -0.082 A 
ATOM      4  C3  GXE d   1     -18.567  37.451  41.546  0.00  0.00    -0.083 A 
ATOM      5  C4  GXE d   1     -17.999  36.577  42.477  0.00  0.00    -0.082 A 
ATOM      6  C5  GXE d   1     -17.255  35.459  42.021  0.00  0.00    -0.072 A 
ATOM      7  H6  GXE d   1     -17.399  35.945  38.687  0.00  0.00     0.084 H 
ATOM      8  H7  GXE d   1     -18.798  37.843  39.451  0.00  0.00     0.083 H 
ATOM      9  H8  GXE d   1     -19.155  38.304  41.864  0.00  0.00     0.083 H 
ATOM     10  H9  GXE d   1     -18.126  36.752  43.539  0.00  0.00     0.083 H 
ATOM     11  H10 GXE d   1     -16.863  34.771  42.762  0.00  0.00     0.084 H 
ENDROOT
BRANCH   1  12
ATOM     12 SE   GXE d   1     -16.081  33.875  40.213  0.00  0.00     0.000 Se
ATOM     13  H5  GXE d   1     -17.749  32.748  40.117  0.00  0.00     0.000 HD
ENDBRANCH   1  12
TORSDOF 1
