REMARK  4 active torsions:
REMARK  status: ('A' for Active; 'I' for Inactive)
REMARK    1  A    between atoms: C4_3  and  N5_13 
REMARK    2  A    between atoms: C6_4  and  C7_5 
REMARK    3  A    between atoms: N5_13  and  C6_4 
REMARK    4  A    between atoms: C13_17  and  C14_18 
ROOT
ATOM      1  C2  GXK d   1      -5.887  -7.677  28.167  0.00  0.00     0.149 A 
ATOM      2  C3  GXK d   1      -5.068  -7.422  27.051  0.00  0.00    -0.013 A 
ATOM      3  C4  GXK d   1      -4.500  -8.476  26.337  0.00  0.00     0.079 A 
ATOM      4  C12 GXK d   1      -4.941 -11.929  27.078  0.00  0.00     0.033 A 
ATOM      5 CL1  GXK d   1      -6.613  -6.401  29.089  0.00  0.00    -0.060 Cl
ATOM      6  C10 GXK d   1      -4.784  -9.796  26.771  0.00  0.00     0.177 A 
ATOM      7  N11 GXK d   1      -4.409 -10.978  26.319  0.00  0.00    -0.237 NA
ATOM      8  C13 GXK d   1      -5.700 -11.334  28.064  0.00  0.00     0.088 A 
ATOM      9  N23 GXK d   1      -5.592  -9.986  27.862  0.00  0.00    -0.210 N 
ATOM     10  N24 GXK d   1      -6.134  -8.897  28.543  0.00  0.00    -0.153 NA
ATOM     11  H1  GXK d   1      -4.877  -6.395  26.743  0.00  0.00     0.092 H 
ATOM     12  H7  GXK d   1      -4.801 -13.001  26.944  0.00  0.00     0.118 H 
ENDROOT
BRANCH   8  13
ATOM     13  C14 GXK d   1      -6.485 -12.015  29.123  0.00  0.00    -0.005 A 
ATOM     14  C15 GXK d   1      -6.776 -11.374  30.321  0.00  0.00    -0.057 A 
ATOM     15  C16 GXK d   1      -7.529 -12.046  31.308  0.00  0.00     0.012 A 
ATOM     16  H8  GXK d   1      -6.427 -10.363  30.497  0.00  0.00     0.086 H 
ATOM     17  C17 GXK d   1      -7.972 -11.718  32.573  0.00  0.00     0.034 A 
ATOM     18  C20 GXK d   1      -8.000 -13.417  31.042  0.00  0.00     0.061 A 
ATOM     19  N18 GXK d   1      -8.647 -12.770  33.049  0.00  0.00    -0.186 NA
ATOM     20  H9  GXK d   1      -7.803 -10.774  33.090  0.00  0.00     0.118 H 
ATOM     21  N19 GXK d   1      -8.660 -13.806  32.113  0.00  0.00    -0.278 N 
ATOM     22  H14 GXK d   1      -9.111 -14.723  32.239  0.00  0.00     0.189 HD
ATOM     23  C21 GXK d   1      -7.687 -14.016  29.801  0.00  0.00    -0.054 A 
ATOM     24  C22 GXK d   1      -6.957 -13.329  28.885  0.00  0.00    -0.069 A 
ATOM     25  H10 GXK d   1      -8.029 -15.021  29.581  0.00  0.00     0.087 H 
ATOM     26  H15 GXK d   1      -6.727 -13.803  27.938  0.00  0.00     0.085 H 
ENDBRANCH   8  13
BRANCH   3  27
ATOM     27  N5  GXK d   1      -3.682  -8.324  25.213  0.00  0.00    -0.386 N 
ATOM     28  H11 GXK d   1      -3.424  -9.169  24.684  0.00  0.00     0.159 HD
BRANCH  27  29
ATOM     29  C6  GXK d   1      -3.168  -7.030  24.742  0.00  0.00    -0.004 C 
ATOM     30  H2  GXK d   1      -2.839  -6.435  25.607  0.00  0.00     0.064 H 
ATOM     31  H3  GXK d   1      -2.314  -7.203  24.070  0.00  0.00     0.064 H 
BRANCH  29  32
ATOM     32  C7  GXK d   1      -4.254  -6.261  23.987  0.00  0.00    -0.039 A 
ATOM     33  C8  GXK d   1      -3.963  -5.801  22.555  0.00  0.00    -0.060 A 
ATOM     34  C9  GXK d   1      -4.944  -6.953  22.811  0.00  0.00    -0.060 A 
ATOM     35  H5  GXK d   1      -2.982  -6.004  22.100  0.00  0.00     0.033 H 
ATOM     36  H6  GXK d   1      -4.336  -4.828  22.203  0.00  0.00     0.033 H 
ATOM     37  H12 GXK d   1      -6.021  -6.806  22.641  0.00  0.00     0.033 H 
ATOM     38  H13 GXK d   1      -4.667  -7.982  22.539  0.00  0.00     0.033 H 
ATOM     39  H4  GXK d   1      -4.823  -5.622  24.678  0.00  0.00     0.042 H 
ENDBRANCH  29  32
ENDBRANCH  27  29
ENDBRANCH   3  27
TORSDOF 4
