REMARK  1 active torsions:
REMARK  status: ('A' for Active; 'I' for Inactive)
REMARK    1  A    between atoms: SE_1  and  C_2 
ROOT
ATOM      1  C   GXE d   1      -5.430   1.502  16.082  0.00  0.00    -0.026 A 
ATOM      2  C1  GXE d   1      -6.420   2.159  16.821  0.00  0.00    -0.072 A 
ATOM      3  C2  GXE d   1      -6.772   3.496  16.548  0.00  0.00    -0.082 A 
ATOM      4  C3  GXE d   1      -6.262   4.237  15.489  0.00  0.00    -0.083 A 
ATOM      5  C4  GXE d   1      -5.320   3.632  14.712  0.00  0.00    -0.082 A 
ATOM      6  C5  GXE d   1      -4.926   2.314  15.020  0.00  0.00    -0.072 A 
ATOM      7  H6  GXE d   1      -6.926   1.629  17.619  0.00  0.00     0.084 H 
ATOM      8  H7  GXE d   1      -7.486   3.977  17.206  0.00  0.00     0.083 H 
ATOM      9  H8  GXE d   1      -6.598   5.248  15.290  0.00  0.00     0.083 H 
ATOM     10  H9  GXE d   1      -4.881   4.156  13.871  0.00  0.00     0.083 H 
ATOM     11  H10 GXE d   1      -4.164   1.872  14.388  0.00  0.00     0.084 H 
ENDROOT
BRANCH   1  12
ATOM     12 SE   GXE d   1      -4.933  -0.078  16.322  0.00  0.00     0.000 Se
ATOM     13  H1  GXE d   1      -6.159  -0.222  17.915  0.00  0.00     0.000 HD
ENDBRANCH   1  12
TORSDOF 1
