REMARK  11 active torsions:
REMARK  status: ('A' for Active; 'I' for Inactive)
REMARK    1  A    between atoms: C10_1  and  C11_15 
REMARK    2  A    between atoms: N01_21  and  C10_1 
REMARK    3  A    between atoms: C15_3  and  O01_23 
REMARK    4  A    between atoms: O02_24  and  C17_4 
REMARK    5  A    between atoms: C01_6  and  O03_25 
REMARK    6  A    between atoms: O04_26  and  C02_7 
REMARK    7  A    between atoms: C14_17  and  O02_24 
REMARK    8  A    between atoms: O01_23  and  C18_19 
REMARK    9  A    between atoms: O03_25  and  C19_20 
REMARK   10  A    between atoms: S01_29  and  N02_22 
REMARK   11  A    between atoms: O04_26  and  S01_29 
ROOT
ATOM      1  C01 GXN d   1      17.263  64.874  46.492  0.00  0.00     0.103 A 
ATOM      2  C02 GXN d   1      17.886  65.929  47.165  0.00  0.00     0.124 A 
ATOM      3  C03 GXN d   1      18.344  67.031  46.449  0.00  0.00    -0.040 A 
ATOM      4  C04 GXN d   1      18.182  67.086  45.060  0.00  0.00    -0.046 A 
ATOM      5  C05 GXN d   1      17.564  66.032  44.377  0.00  0.00    -0.023 A 
ATOM      6  C06 GXN d   1      17.102  64.929  45.103  0.00  0.00    -0.040 A 
ATOM      7  C07 GXN d   1      18.694  68.287  44.319  0.00  0.00    -0.018 C 
ATOM      8  C08 GXN d   1      18.796  68.004  42.819  0.00  0.00     0.088 C 
ATOM      9  C09 GXN d   1      17.377  66.070  42.875  0.00  0.00     0.108 C 
ATOM     10  N01 GXN d   1      17.501  67.455  42.363  0.00  0.00    -0.063 N 
ATOM     11  H6  GXN d   1      18.828  67.850  46.969  0.00  0.00     0.088 H 
ATOM     12  H7  GXN d   1      16.615  64.110  44.585  0.00  0.00     0.088 H 
ATOM     13  H8  GXN d   1      19.691  68.549  44.704  0.00  0.00     0.042 H 
ATOM     14  H9  GXN d   1      18.005  69.129  44.480  0.00  0.00     0.042 H 
ATOM     15  H10 GXN d   1      19.597  67.273  42.632  0.00  0.00     0.076 H 
ATOM     16  H11 GXN d   1      19.016  68.936  42.278  0.00  0.00     0.076 H 
ATOM     17  H12 GXN d   1      16.378  65.682  42.626  0.00  0.00     0.083 H 
ATOM     18  H13 GXN d   1      18.144  65.440  42.400  0.00  0.00     0.083 H 
ATOM     19  H22 GXN d   1      16.753  68.008  42.751  0.00  0.00     0.280 HD
ENDROOT
BRANCH  10  20
ATOM     20  C10 GXN d   1      17.416  67.531  40.886  0.00  0.00     0.107 C 
ATOM     21  H1  GXN d   1      17.742  68.532  40.567  0.00  0.00     0.083 H 
ATOM     22  H2  GXN d   1      18.087  66.773  40.456  0.00  0.00     0.083 H 
BRANCH  20  23
ATOM     23  C11 GXN d   1      16.034  67.292  40.369  0.00  0.00    -0.028 A 
ATOM     24  C12 GXN d   1      15.901  66.978  39.055  0.00  0.00    -0.056 A 
ATOM     25  C13 GXN d   1      14.588  66.731  38.532  0.00  0.00     0.047 A 
ATOM     26  H14 GXN d   1      16.772  66.915  38.412  0.00  0.00     0.086 H 
ATOM     27 BR1  GXN d   1      14.413  66.403  37.171  0.00  0.00    -0.048 Br
ATOM     28  C14 GXN d   1      13.425  66.819  39.389  0.00  0.00     0.118 A 
ATOM     29  C15 GXN d   1      13.602  67.150  40.774  0.00  0.00     0.103 A 
ATOM     30  C16 GXN d   1      14.892  67.381  41.239  0.00  0.00    -0.040 A 
ATOM     31  H15 GXN d   1      15.041  67.634  42.282  0.00  0.00     0.088 H 
BRANCH  28  32
ATOM     32  O02 GXN d   1      12.282  66.569  38.792  0.00  0.00    -0.352 OA
BRANCH  32  33
ATOM     33  C17 GXN d   1      11.748  65.271  38.567  0.00  0.00     0.011 C 
ATOM     34  H3  GXN d   1      10.782  65.357  38.049  0.00  0.00     0.067 H 
ATOM     35  H4  GXN d   1      11.603  64.762  39.531  0.00  0.00     0.067 H 
ATOM     36  H5  GXN d   1      12.446  64.690  37.947  0.00  0.00     0.067 H 
ENDBRANCH  32  33
ENDBRANCH  28  32
BRANCH  29  37
ATOM     37  O01 GXN d   1      12.483  67.218  41.594  0.00  0.00    -0.353 OA
BRANCH  37  38
ATOM     38  C18 GXN d   1      11.566  68.271  41.417  0.00  0.00     0.010 C 
ATOM     39  H16 GXN d   1      10.747  68.171  42.145  0.00  0.00     0.066 H 
ATOM     40  H17 GXN d   1      11.156  68.233  40.397  0.00  0.00     0.066 H 
ATOM     41  H18 GXN d   1      12.078  69.233  41.571  0.00  0.00     0.066 H 
ENDBRANCH  37  38
ENDBRANCH  29  37
ENDBRANCH  20  23
ENDBRANCH  10  20
BRANCH   1  42
ATOM     42  O03 GXN d   1      16.794  63.763  47.175  0.00  0.00    -0.353 OA
BRANCH  42  43
ATOM     43  C19 GXN d   1      16.776  62.485  46.547  0.00  0.00     0.010 C 
ATOM     44  H19 GXN d   1      16.372  61.738  47.247  0.00  0.00     0.066 H 
ATOM     45  H20 GXN d   1      17.800  62.203  46.261  0.00  0.00     0.066 H 
ATOM     46  H21 GXN d   1      16.142  62.527  45.649  0.00  0.00     0.066 H 
ENDBRANCH  42  43
ENDBRANCH   1  42
BRANCH   2  47
ATOM     47  O04 GXN d   1      18.037  65.852  48.541  0.00  0.00    -0.214 OA
BRANCH  47  48
ATOM     48  S01 GXN d   1      17.122  66.768  49.543  0.00  0.00     0.360 S 
ATOM     49  O05 GXN d   1      17.716  66.676  50.872  0.00  0.00    -0.176 OA
ATOM     50  O06 GXN d   1      17.024  68.126  48.999  0.00  0.00    -0.176 OA
BRANCH  48  51
ATOM     51  N02 GXN d   1      15.587  66.060  49.570  0.00  0.00    -0.305 N 
ATOM     52  H23 GXN d   1      14.860  66.463  50.127  0.00  0.00     0.171 HD
ATOM     53  H24 GXN d   1      15.406  65.238  49.029  0.00  0.00     0.171 HD
ENDBRANCH  48  51
ENDBRANCH  47  48
ENDBRANCH   2  47
TORSDOF 11
