REMARK WARNING: 32 MAX_TORS EXCEEDED!!!
REMARK  53 active torsions:
REMARK  status: ('A' for Active; 'I' for Inactive)
REMARK    1  A    between atoms: N_1  and  CA_2 
REMARK    2  A    between atoms: CA_2  and  C_3 
REMARK    3  A    between atoms: CA_2  and  CB_5 
REMARK       I    between atoms: C_3  and  N_15 
REMARK    4  A    between atoms: CB_5  and  CG_6 
REMARK    5  A    between atoms: N_15  and  CA_16 
REMARK    6  A    between atoms: CA_16  and  C_17 
REMARK    7  A    between atoms: CA_16  and  CB_19 
REMARK       I    between atoms: C_17  and  N_23 
REMARK    8  A    between atoms: CB_19  and  CG_20 
REMARK    9  A    between atoms: CG_20  and  SD_21 
REMARK   10  A    between atoms: SD_21  and  CE_22 
REMARK   11  A    between atoms: N_23  and  CA_24 
REMARK   12  A    between atoms: CA_24  and  C_25 
REMARK   13  A    between atoms: CA_24  and  CB_27 
REMARK       I    between atoms: C_25  and  N_31 
REMARK   14  A    between atoms: CB_27  and  CG_28 
REMARK   15  A    between atoms: CG_28  and  CD1_29 
REMARK   16  A    between atoms: CG_28  and  CD2_30 
REMARK   17  A    between atoms: N_31  and  CA_32 
REMARK   18  A    between atoms: CA_32  and  C_33 
REMARK   19  A    between atoms: CA_32  and  CB_35 
REMARK       I    between atoms: C_33  and  N_39 
REMARK   20  A    between atoms: CB_35  and  CG_36 
REMARK   21  A    between atoms: CA_40  and  C_41 
REMARK       I    between atoms: C_41  and  N_46 
REMARK   22  A    between atoms: N_46  and  CA_47 
REMARK   23  A    between atoms: CA_47  and  C_48 
REMARK   24  A    between atoms: CA_47  and  CB_50 
REMARK       I    between atoms: C_48  and  N_54 
REMARK   25  A    between atoms: CB_50  and  CG1_51 
REMARK   26  A    between atoms: CB_50  and  CG2_52 
REMARK   27  A    between atoms: CG1_51  and  CD1_53 
REMARK   28  A    between atoms: N_54  and  CA_55 
REMARK   29  A    between atoms: CA_55  and  C_56 
REMARK   30  A    between atoms: CA_55  and  CB_58 
REMARK       I    between atoms: C_56  and  N_59 
REMARK   31  A    between atoms: N_59  and  CA_60 
REMARK   32  A    between atoms: CA_60  and  C_61 
REMARK       I    between atoms: C_61  and  N_63 
REMARK   33  A    between atoms: N_63  and  CA_64 
REMARK   34  A    between atoms: CA_64  and  C_65 
REMARK   35  A    between atoms: CA_64  and  CB_67 
REMARK       I    between atoms: C_65  and  N_72 
REMARK   36  A    between atoms: CB_67  and  CG_68 
REMARK   37  A    between atoms: CG_68  and  CD_69 
REMARK   38  A    between atoms: CD_69  and  CE_70 
REMARK   39  A    between atoms: CE_70  and  NZ_71 
REMARK   40  A    between atoms: N_72  and  CA_73 
REMARK   41  A    between atoms: CA_73  and  C_74 
REMARK   42  A    between atoms: CA_73  and  CB_76 
REMARK       I    between atoms: C_74  and  N_86 
REMARK   43  A    between atoms: CB_76  and  CG_77 
REMARK   44  A    between atoms: N_86  and  CA_87 
REMARK   45  A    between atoms: CA_87  and  C_88 
REMARK   46  A    between atoms: CA_87  and  CB_90 
REMARK       I    between atoms: C_88  and  N_92 
REMARK   47  A    between atoms: CB_90  and  OG_91 
REMARK   48  A    between atoms: N_92  and  CA_93 
REMARK   49  A    between atoms: CA_93  and  C_94 
REMARK   50  A    between atoms: CA_93  and  CB_96 
REMARK   51  A    between atoms: CB_96  and  CG_97 
REMARK   52  A    between atoms: CG_97  and  CD_98 
REMARK   53  A    between atoms: CD_98  and  NE_99 
REMARK       I    between atoms: NE_99  and  CZ_100 
REMARK       I    between atoms: CZ_100  and  NH1_101 
REMARK       I    between atoms: CZ_100  and  NH2_102 
ROOT
ATOM      1  CA  TRP d   1      -6.728  26.040  11.798  0.00  0.00     0.092 C 
ATOM      2  H45 TRP d   1      -7.804  26.161  11.602  0.00  0.00     0.088 H 
ENDROOT
BRANCH   1   3
ATOM      3  N   TRP d   1      -6.360  24.701  11.333  0.00  0.00    -0.346 N 
ATOM      4  C   TRP d   1      -6.673  24.291  10.107  0.00  0.00     0.241 C 
ATOM      5  O   TRP d   1      -7.299  24.985   9.306  0.00  0.00    -0.271 OA
ATOM      6  H44 TRP d   1      -5.866  24.085  11.947  0.00  0.00     0.163 HD
BRANCH   4   7
ATOM      7  CA  TRP d   1      -6.215  22.892   9.700  0.00  0.00     0.091 C 
ATOM      8  N   TRP d   1      -4.914  22.501  10.251  0.00  0.00    -0.337 N 
ATOM      9  C   TRP d   1      -3.802  23.192   9.913  0.00  0.00     0.243 C 
ATOM     10  CD  TRP d   1      -5.036  21.301  11.096  0.00  0.00    -0.001 C 
ATOM     11  O   TRP d   1      -3.836  24.169   9.166  0.00  0.00    -0.271 OA
ATOM     12  CG  TRP d   1      -6.295  20.664  10.571  0.00  0.00    -0.048 A 
ATOM     13  H42 TRP d   1      -5.139  21.570  12.158  0.00  0.00     0.064 H 
ATOM     14  H43 TRP d   1      -4.170  20.635  10.969  0.00  0.00     0.064 H 
ATOM     15  CB  TRP d   1      -7.172  21.829  10.260  0.00  0.00    -0.036 C 
ATOM     16  H40 TRP d   1      -6.089  20.074   9.666  0.00  0.00     0.035 H 
ATOM     17  H41 TRP d   1      -6.755  20.018  11.333  0.00  0.00     0.035 H 
ATOM     18  H38 TRP d   1      -7.931  21.556   9.512  0.00  0.00     0.036 H 
ATOM     19  H39 TRP d   1      -7.670  22.195  11.170  0.00  0.00     0.036 H 
ATOM     20  H37 TRP d   1      -6.184  22.843   8.602  0.00  0.00     0.087 H 
BRANCH   9  21
ATOM     21  CA  TRP d   1      -2.459  22.682  10.452  0.00  0.00     0.099 C 
ATOM     22  H34 TRP d   1      -2.617  22.176  11.416  0.00  0.00     0.088 H 
BRANCH  21  23
ATOM     23  N   TRP d   1      -1.948  21.731   9.467  0.00  0.00    -0.346 N 
ATOM     24  C   TRP d   1      -1.790  20.436   9.728  0.00  0.00     0.241 C 
ATOM     25  O   TRP d   1      -1.929  19.946  10.849  0.00  0.00    -0.271 OA
ATOM     26  H33 TRP d   1      -1.707  22.068   8.557  0.00  0.00     0.163 HD
BRANCH  24  27
ATOM     27  CA  TRP d   1      -1.397  19.562   8.540  0.00  0.00     0.089 C 
ATOM     28  H23 TRP d   1      -1.131  20.214   7.695  0.00  0.00     0.087 H 
BRANCH  27  29
ATOM     29  N   TRP d   1      -0.233  18.755   8.889  0.00  0.00    -0.346 N 
ATOM     30  C   TRP d   1       1.003  19.222   8.738  0.00  0.00     0.241 C 
ATOM     31  O   TRP d   1       1.254  20.302   8.201  0.00  0.00    -0.271 OA
ATOM     32  H22 TRP d   1      -0.367  17.832   9.249  0.00  0.00     0.163 HD
BRANCH  30  33
ATOM     33  CA  TRP d   1       2.134  18.341   9.272  0.00  0.00     0.090 C 
ATOM     34  H14 TRP d   1       1.708  17.368   9.557  0.00  0.00     0.087 H 
BRANCH  33  35
ATOM     35  N   TRP d   1       3.155  18.119   8.251  0.00  0.00    -0.346 N 
ATOM     36  C   TRP d   1       3.086  17.129   7.362  0.00  0.00     0.249 C 
ATOM     37  O   TRP d   1       2.146  16.322   7.298  0.00  0.00    -0.271 OA
ATOM     38  H13 TRP d   1       3.940  18.737   8.218  0.00  0.00     0.163 HD
BRANCH  36  39
ATOM     39  CA  TRP d   1       4.251  17.036   6.389  0.00  0.00     0.179 C 
ATOM     40  H4  TRP d   1       5.184  17.252   6.930  0.00  0.00     0.099 H 
BRANCH  39  41
ATOM     41  N   TRP d   1       4.327  15.651   5.833  0.00  0.00    -0.066 N 
ATOM     42  H1  TRP d   1       5.099  15.590   5.188  0.00  0.00     0.275 HD
ATOM     43  H2  TRP d   1       3.469  15.435   5.351  0.00  0.00     0.275 HD
ATOM     44  H3  TRP d   1       4.464  14.994   6.585  0.00  0.00     0.275 HD
ENDBRANCH  39  41
BRANCH  39  45
ATOM     45  CB  TRP d   1       4.089  18.067   5.263  0.00  0.00    -0.004 C 
ATOM     46  H5  TRP d   1       4.193  19.072   5.697  0.00  0.00     0.044 H 
ATOM     47  H6  TRP d   1       3.082  17.955   4.834  0.00  0.00     0.044 H 
BRANCH  45  48
ATOM     48  CG  TRP d   1       5.101  17.924   4.146  0.00  0.00    -0.028 A 
ATOM     49  CD1 TRP d   1       5.867  16.823   3.865  0.00  0.00    -0.015 A 
ATOM     50  NE1 TRP d   1       6.658  17.061   2.769  0.00  0.00    -0.365 N 
ATOM     51  H7  TRP d   1       5.850  15.892   4.430  0.00  0.00     0.112 H 
ATOM     52  CE2 TRP d   1       6.408  18.325   2.306  0.00  0.00     0.042 A 
ATOM     53  H8  TRP d   1       7.331  16.396   2.361  0.00  0.00     0.165 HD
ATOM     54  CD2 TRP d   1       5.427  18.900   3.146  0.00  0.00    -0.002 A 
ATOM     55  CZ2 TRP d   1       6.962  19.011   1.218  0.00  0.00    -0.056 A 
ATOM     56  CE3 TRP d   1       4.991  20.206   2.882  0.00  0.00    -0.070 A 
ATOM     57  CZ3 TRP d   1       5.541  20.887   1.798  0.00  0.00    -0.082 A 
ATOM     58  H9  TRP d   1       4.242  20.676   3.508  0.00  0.00     0.084 H 
ATOM     59  CH2 TRP d   1       6.515  20.284   0.979  0.00  0.00    -0.081 A 
ATOM     60  H11 TRP d   1       5.214  21.898   1.581  0.00  0.00     0.083 H 
ATOM     61  H12 TRP d   1       6.920  20.839   0.141  0.00  0.00     0.083 H 
ATOM     62  H10 TRP d   1       7.716  18.552   0.589  0.00  0.00     0.086 H 
ENDBRANCH  45  48
ENDBRANCH  39  45
ENDBRANCH  36  39
ENDBRANCH  33  35
BRANCH  33  63
ATOM     63  CB  TRP d   1       2.775  18.977  10.514  0.00  0.00    -0.030 C 
ATOM     64  H15 TRP d   1       3.447  19.779  10.174  0.00  0.00     0.037 H 
ATOM     65  H16 TRP d   1       3.361  18.200  11.027  0.00  0.00     0.037 H 
BRANCH  63  66
ATOM     66  CG  TRP d   1       1.803  19.577  11.528  0.00  0.00    -0.021 A 
ATOM     67  H17 TRP d   1       1.114  20.244  10.989  0.00  0.00     0.049 H 
ATOM     68  H18 TRP d   1       2.385  20.162  12.256  0.00  0.00     0.049 H 
BRANCH  66  69
ATOM     69  SD  TRP d   1       0.821  18.368  12.435  0.00  0.00    -0.173 SA
BRANCH  69  70
ATOM     70  CE  TRP d   1       2.057  17.651  13.517  0.00  0.00    -0.035 C 
ATOM     71  H19 TRP d   1       1.590  16.878  14.145  0.00  0.00     0.041 H 
ATOM     72  H20 TRP d   1       2.483  18.437  14.158  0.00  0.00     0.041 H 
ATOM     73  H21 TRP d   1       2.856  17.198  12.912  0.00  0.00     0.041 H 
ENDBRANCH  69  70
ENDBRANCH  66  69
ENDBRANCH  63  66
ENDBRANCH  33  63
ENDBRANCH  30  33
ENDBRANCH  27  29
BRANCH  27  74
ATOM     74  CB  TRP d   1      -2.574  18.677   8.118  0.00  0.00    -0.035 C 
ATOM     75  H24 TRP d   1      -2.778  17.987   8.950  0.00  0.00     0.037 H 
ATOM     76  H25 TRP d   1      -2.252  18.104   7.236  0.00  0.00     0.037 H 
BRANCH  74  77
ATOM     77  CG  TRP d   1      -3.900  19.359   7.757  0.00  0.00    -0.059 A 
ATOM     78  H26 TRP d   1      -4.207  19.985   8.608  0.00  0.00     0.038 H 
BRANCH  77  79
ATOM     79  CD1 TRP d   1      -3.762  20.262   6.532  0.00  0.00    -0.073 A 
ATOM     80  H27 TRP d   1      -4.733  20.729   6.310  0.00  0.00     0.028 H 
ATOM     81  H28 TRP d   1      -3.437  19.662   5.669  0.00  0.00     0.028 H 
ATOM     82  H29 TRP d   1      -3.017  21.045   6.736  0.00  0.00     0.028 H 
ENDBRANCH  77  79
BRANCH  77  83
ATOM     83  CD2 TRP d   1      -4.965  18.305   7.527  0.00  0.00    -0.073 A 
ATOM     84  H30 TRP d   1      -5.048  17.667   8.419  0.00  0.00     0.028 H 
ATOM     85  H31 TRP d   1      -4.689  17.688   6.659  0.00  0.00     0.028 H 
ATOM     86  H32 TRP d   1      -5.931  18.795   7.336  0.00  0.00     0.028 H 
ENDBRANCH  77  83
ENDBRANCH  74  77
ENDBRANCH  27  74
ENDBRANCH  24  27
ENDBRANCH  21  23
BRANCH  21  87
ATOM     87  CB  TRP d   1      -1.449  23.827  10.649  0.00  0.00     0.043 C 
ATOM     88  H35 TRP d   1      -1.361  24.383   9.704  0.00  0.00     0.052 H 
ATOM     89  H36 TRP d   1      -0.473  23.392  10.910  0.00  0.00     0.052 H 
BRANCH  87  90
ATOM     90  CG  TRP d   1      -1.858  24.804  11.753  0.00  0.00     0.175 A 
ATOM     91  OD1 TRP d   1      -3.049  24.836  12.126  0.00  0.00    -0.648 OA
ATOM     92  OD2 TRP d   1      -0.977  25.557  12.237  0.00  0.00    -0.648 OA
ENDBRANCH  87  90
ENDBRANCH  21  87
ENDBRANCH   9  21
ENDBRANCH   4   7
ENDBRANCH   1   3
BRANCH   1  93
ATOM     93  C   TRP d   1      -6.013  27.129  10.976  0.00  0.00     0.241 C 
ATOM     94  O   TRP d   1      -6.641  28.096  10.532  0.00  0.00    -0.271 OA
ATOM     95  N   TRP d   1      -4.717  26.950  10.735  0.00  0.00    -0.346 N 
ATOM     96  H55 TRP d   1      -4.239  26.184  11.165  0.00  0.00     0.163 HD
BRANCH  95  97
ATOM     97  CA  TRP d   1      -3.980  27.852   9.853  0.00  0.00     0.086 C 
ATOM     98  H56 TRP d   1      -4.213  28.885  10.151  0.00  0.00     0.086 H 
BRANCH  97  99
ATOM     99  C   TRP d   1      -4.397  27.671   8.393  0.00  0.00     0.240 C 
ATOM    100  O   TRP d   1      -4.279  28.599   7.583  0.00  0.00    -0.271 OA
ATOM    101  N   TRP d   1      -4.885  26.473   8.073  0.00  0.00    -0.351 N 
ATOM    102  H60 TRP d   1      -5.005  25.794   8.797  0.00  0.00     0.163 HD
BRANCH 101 103
ATOM    103  CA  TRP d   1      -5.252  26.112   6.705  0.00  0.00     0.069 C 
ATOM    104  H61 TRP d   1      -5.868  26.916   6.276  0.00  0.00     0.078 H 
ATOM    105  H62 TRP d   1      -5.831  25.177   6.724  0.00  0.00     0.078 H 
BRANCH 103 106
ATOM    106  C   TRP d   1      -4.023  25.914   5.837  0.00  0.00     0.236 C 
ATOM    107  O   TRP d   1      -3.924  26.483   4.748  0.00  0.00    -0.272 OA
ATOM    108  N   TRP d   1      -3.086  25.097   6.312  0.00  0.00    -0.346 N 
ATOM    109  H63 TRP d   1      -3.241  24.625   7.180  0.00  0.00     0.163 HD
BRANCH 108 110
ATOM    110  CA  TRP d   1      -1.834  24.876   5.588  0.00  0.00     0.089 C 
ATOM    111  H64 TRP d   1      -2.035  25.006   4.514  0.00  0.00     0.087 H 
BRANCH 110 112
ATOM    112  C   TRP d   1      -1.270  23.475   5.800  0.00  0.00     0.241 C 
ATOM    113  O   TRP d   1      -1.553  22.821   6.810  0.00  0.00    -0.271 OA
ATOM    114  N   TRP d   1      -0.477  23.026   4.829  0.00  0.00    -0.346 N 
ATOM    115  H76 TRP d   1      -0.546  23.436   3.919  0.00  0.00     0.163 HD
BRANCH 114 116
ATOM    116  CA  TRP d   1       0.488  21.957   5.050  0.00  0.00     0.093 C 
ATOM    117  H77 TRP d   1       0.138  21.294   5.855  0.00  0.00     0.088 H 
BRANCH 116 118
ATOM    118  C   TRP d   1       1.785  22.642   5.458  0.00  0.00     0.241 C 
ATOM    119  O   TRP d   1       2.287  23.507   4.734  0.00  0.00    -0.271 OA
ATOM    120  N   TRP d   1       2.312  22.283   6.624  0.00  0.00    -0.344 N 
ATOM    121  H86 TRP d   1       1.874  21.565   7.165  0.00  0.00     0.163 HD
BRANCH 120 122
ATOM    122  CA  TRP d   1       3.525  22.926   7.125  0.00  0.00     0.109 C 
ATOM    123  H87 TRP d   1       3.386  24.014   7.036  0.00  0.00     0.090 H 
BRANCH 122 124
ATOM    124  C   TRP d   1       4.757  22.546   6.299  0.00  0.00     0.243 C 
ATOM    125  O   TRP d   1       4.958  21.375   5.961  0.00  0.00    -0.271 OA
ATOM    126  N   TRP d   1       5.563  23.554   5.968  0.00  0.00    -0.345 N 
ATOM    127  H91 TRP d   1       5.298  24.481   6.234  0.00  0.00     0.163 HD
BRANCH 126 128
ATOM    128  CA  TRP d   1       6.815  23.372   5.235  0.00  0.00     0.096 C 
ATOM    129  H92 TRP d   1       6.644  22.644   4.428  0.00  0.00     0.089 H 
BRANCH 128 130
ATOM    130  C   TRP d   1       7.913  22.840   6.150  0.00  0.00     0.196 C 
ATOM    131  O   TRP d   1       8.969  22.401   5.681  0.00  0.00    -0.646 OA
ATOM    132  OXT TRP d   1       7.777  22.848   7.378  0.00  0.00    -0.646 OA
ENDBRANCH 128 130
BRANCH 128 133
ATOM    133  CB  TRP d   1       7.270  24.697   4.618  0.00  0.00    -0.035 C 
ATOM    134  H93 TRP d   1       8.280  24.553   4.207  0.00  0.00     0.036 H 
ATOM    135  H94 TRP d   1       7.303  25.453   5.417  0.00  0.00     0.036 H 
BRANCH 133 136
ATOM    136  CG  TRP d   1       6.377  25.226   3.503  0.00  0.00    -0.047 A 
ATOM    137  H95 TRP d   1       5.325  25.146   3.815  0.00  0.00     0.035 H 
ATOM    138  H96 TRP d   1       6.537  24.623   2.597  0.00  0.00     0.035 H 
BRANCH 136 139
ATOM    139  CD  TRP d   1       6.697  26.683   3.196  0.00  0.00     0.009 C 
ATOM    140  H97 TRP d   1       6.031  27.032   2.393  0.00  0.00     0.064 H 
ATOM    141  H98 TRP d   1       7.743  26.756   2.863  0.00  0.00     0.064 H 
BRANCH 139 142
ATOM    142  NE  TRP d   1       6.513  27.538   4.370  0.00  0.00    -0.227 N 
ATOM    143  CZ  TRP d   1       6.745  28.849   4.401  0.00  0.00     0.665 C 
ATOM    144  NH1 TRP d   1       7.172  29.487   3.317  0.00  0.00    -0.235 N 
ATOM    145  NH2 TRP d   1       6.544  29.528   5.523  0.00  0.00    -0.235 N 
ATOM    146 0H10 TRP d   1       7.348  30.501   3.352  0.00  0.00     0.174 HD
ATOM    147 1H10 TRP d   1       7.327  28.968   2.441  0.00  0.00     0.174 HD
ATOM    148 2H10 TRP d   1       6.213  29.040   6.368  0.00  0.00     0.174 HD
ATOM    149 3H10 TRP d   1       6.719  30.543   5.549  0.00  0.00     0.174 HD
ATOM    150  H99 TRP d   1       6.179  27.092   5.237  0.00  0.00     0.177 HD
ENDBRANCH 139 142
ENDBRANCH 136 139
ENDBRANCH 133 136
ENDBRANCH 128 133
ENDBRANCH 126 128
ENDBRANCH 122 124
BRANCH 122 151
ATOM    151  CB  TRP d   1       3.745  22.601   8.603  0.00  0.00     0.044 C 
ATOM    152  H88 TRP d   1       3.965  21.528   8.707  0.00  0.00     0.077 H 
ATOM    153  H89 TRP d   1       2.831  22.844   9.165  0.00  0.00     0.077 H 
BRANCH 151 154
ATOM    154  OG  TRP d   1       4.828  23.350   9.132  0.00  0.00    -0.398 OA
ATOM    155  H90 TRP d   1       4.641  24.278   9.048  0.00  0.00     0.209 HD
ENDBRANCH 151 154
ENDBRANCH 122 151
ENDBRANCH 120 122
ENDBRANCH 116 118
BRANCH 116 156
ATOM    156  CB  TRP d   1       0.708  21.133   3.778  0.00  0.00    -0.012 C 
ATOM    157  H78 TRP d   1       1.595  20.500   3.925  0.00  0.00     0.044 H 
ATOM    158  H79 TRP d   1       0.887  21.827   2.943  0.00  0.00     0.044 H 
BRANCH 156 159
ATOM    159  CG  TRP d   1      -0.441  20.253   3.418  0.00  0.00    -0.028 A 
ATOM    160  CD1 TRP d   1      -1.351  20.462   2.420  0.00  0.00    -0.015 A 
ATOM    161  NE1 TRP d   1      -2.269  19.438   2.393  0.00  0.00    -0.365 N 
ATOM    162  H80 TRP d   1      -1.349  21.316   1.744  0.00  0.00     0.112 H 
ATOM    163  CE2 TRP d   1      -1.962  18.539   3.380  0.00  0.00     0.042 A 
ATOM    164  H81 TRP d   1      -3.059  19.360   1.737  0.00  0.00     0.165 HD
ATOM    165  CD2 TRP d   1      -0.812  19.020   4.048  0.00  0.00    -0.002 A 
ATOM    166  CZ2 TRP d   1      -2.595  17.346   3.738  0.00  0.00    -0.056 A 
ATOM    167  CE3 TRP d   1      -0.287  18.276   5.114  0.00  0.00    -0.070 A 
ATOM    168  CZ3 TRP d   1      -0.918  17.090   5.471  0.00  0.00    -0.082 A 
ATOM    169  H82 TRP d   1       0.592  18.618   5.648  0.00  0.00     0.084 H 
ATOM    170  CH2 TRP d   1      -2.065  16.640   4.786  0.00  0.00    -0.081 A 
ATOM    171  H84 TRP d   1      -0.521  16.501   6.290  0.00  0.00     0.083 H 
ATOM    172  H85 TRP d   1      -2.538  15.715   5.095  0.00  0.00     0.083 H 
ATOM    173  H83 TRP d   1      -3.472  16.993   3.207  0.00  0.00     0.086 H 
ENDBRANCH 156 159
ENDBRANCH 116 156
ENDBRANCH 114 116
ENDBRANCH 110 112
BRANCH 110 174
ATOM    174  CB  TRP d   1      -0.784  25.909   6.021  0.00  0.00    -0.038 C 
ATOM    175  H65 TRP d   1      -1.198  26.916   5.864  0.00  0.00     0.036 H 
ATOM    176  H66 TRP d   1       0.112  25.780   5.396  0.00  0.00     0.036 H 
BRANCH 174 177
ATOM    177  CG  TRP d   1      -0.377  25.774   7.487  0.00  0.00    -0.061 A 
ATOM    178  H67 TRP d   1      -0.185  24.711   7.697  0.00  0.00     0.033 H 
ATOM    179  H68 TRP d   1      -1.211  26.127   8.112  0.00  0.00     0.033 H 
BRANCH 177 180
ATOM    180  CD  TRP d   1       0.859  26.562   7.853  0.00  0.00    -0.043 C 
ATOM    181  H69 TRP d   1       0.664  27.637   7.722  0.00  0.00     0.035 H 
ATOM    182  H70 TRP d   1       1.695  26.259   7.205  0.00  0.00     0.035 H 
BRANCH 180 183
ATOM    183  CE  TRP d   1       1.214  26.281   9.310  0.00  0.00     0.080 C 
ATOM    184  H71 TRP d   1       1.476  25.217   9.407  0.00  0.00     0.075 H 
ATOM    185  H72 TRP d   1       0.334  26.500   9.932  0.00  0.00     0.075 H 
BRANCH 183 186
ATOM    186  NZ  TRP d   1       2.354  27.093   9.803  0.00  0.00    -0.079 N 
ATOM    187  H73 TRP d   1       2.539  26.863  10.767  0.00  0.00     0.274 HD
ATOM    188  H74 TRP d   1       2.126  28.072   9.729  0.00  0.00     0.274 HD
ATOM    189  H75 TRP d   1       3.172  26.896   9.248  0.00  0.00     0.274 HD
ENDBRANCH 183 186
ENDBRANCH 180 183
ENDBRANCH 177 180
ENDBRANCH 174 177
ENDBRANCH 110 174
ENDBRANCH 108 110
ENDBRANCH 103 106
ENDBRANCH 101 103
ENDBRANCH  97  99
BRANCH  97 190
ATOM    190  CB  TRP d   1      -2.486  27.640   9.997  0.00  0.00    -0.049 C 
ATOM    191  H57 TRP d   1      -1.952  28.328   9.325  0.00  0.00     0.030 H 
ATOM    192  H58 TRP d   1      -2.236  26.602   9.733  0.00  0.00     0.030 H 
ATOM    193  H59 TRP d   1      -2.186  27.836  11.037  0.00  0.00     0.030 H 
ENDBRANCH  97 190
ENDBRANCH  95  97
ENDBRANCH   1  93
BRANCH   1 194
ATOM    194  CB  TRP d   1      -6.548  26.181  13.337  0.00  0.00    -0.030 C 
ATOM    195  H46 TRP d   1      -5.559  25.790  13.617  0.00  0.00     0.043 H 
BRANCH 194 196
ATOM    196  CG1 TRP d   1      -7.629  25.342  14.039  0.00  0.00    -0.063 C 
ATOM    197  H47 TRP d   1      -7.833  24.459  13.415  0.00  0.00     0.033 H 
ATOM    198  H48 TRP d   1      -8.539  25.955  14.116  0.00  0.00     0.033 H 
BRANCH 196 199
ATOM    199  CD1 TRP d   1      -7.266  24.857  15.441  0.00  0.00    -0.076 A 
ATOM    200  H52 TRP d   1      -8.100  24.270  15.853  0.00  0.00     0.027 H 
ATOM    201  H53 TRP d   1      -7.071  25.724  16.090  0.00  0.00     0.027 H 
ATOM    202  H54 TRP d   1      -6.365  24.228  15.390  0.00  0.00     0.027 H 
ENDBRANCH 196 199
ENDBRANCH 194 196
BRANCH 194 203
ATOM    203  CG2 TRP d   1      -6.622  27.650  13.759  0.00  0.00    -0.071 C 
ATOM    204  H49 TRP d   1      -5.838  28.221  13.240  0.00  0.00     0.028 H 
ATOM    205  H50 TRP d   1      -6.473  27.727  14.846  0.00  0.00     0.028 H 
ATOM    206  H51 TRP d   1      -7.608  28.058  13.494  0.00  0.00     0.028 H 
ENDBRANCH 194 203
ENDBRANCH   1 194
TORSDOF 53
