REMARK  28 active torsions:
REMARK  status: ('A' for Active; 'I' for Inactive)
REMARK    1  A    between atoms: N_1  and  CA_2 
REMARK    2  A    between atoms: CA_2  and  C_3 
REMARK       I    between atoms: C_3  and  N_5 
REMARK    3  A    between atoms: N_5  and  CA_6 
REMARK    4  A    between atoms: CA_18  and  CB_21 
REMARK    5  A    between atoms: CB_21  and  OG_22 
REMARK    6  A    between atoms: CA_24  and  CB_27 
REMARK    7  A    between atoms: CB_27  and  CG_28 
REMARK    8  A    between atoms: CA_39  and  CB_42 
REMARK    9  A    between atoms: CB_42  and  CG_43 
REMARK   10  A    between atoms: CG_43  and  CD_44 
REMARK   11  A    between atoms: CD_44  and  NE_45 
REMARK       I    between atoms: NE_45  and  CZ_46 
REMARK       I    between atoms: CZ_46  and  NH1_47 
REMARK       I    between atoms: CZ_46  and  NH2_48 
REMARK   12  A    between atoms: CA_56  and  CB_59 
REMARK   13  A    between atoms: CB_59  and  CG_60 
REMARK   14  A    between atoms: CG_60  and  CD_61 
REMARK   15  A    between atoms: CD_61  and  NE_62 
REMARK       I    between atoms: NE_62  and  CZ_63 
REMARK       I    between atoms: CZ_63  and  NH1_64 
REMARK       I    between atoms: CZ_63  and  NH2_65 
REMARK   16  A    between atoms: CA_67  and  CB_70 
REMARK   17  A    between atoms: CB_70  and  CG_71 
REMARK   18  A    between atoms: CA_79  and  CB_82 
REMARK   19  A    between atoms: CB_82  and  CG_83 
REMARK   20  A    between atoms: CG_83  and  CD_84 
REMARK   21  A    between atoms: CD_84  and  NE_85 
REMARK       I    between atoms: NE_85  and  CZ_86 
REMARK       I    between atoms: CZ_86  and  NH1_87 
REMARK       I    between atoms: CZ_86  and  NH2_88 
REMARK   22  A    between atoms: CA_90  and  C_91 
REMARK       I    between atoms: C_91  and  N_95 
REMARK   23  A    between atoms: N_95  and  CA_96 
REMARK   24  A    between atoms: CA_96  and  CB_97 
REMARK   25  A    between atoms: CA_96  and  C_104 
REMARK   26  A    between atoms: CB_97  and  CG_98 
REMARK   27  A    between atoms: CG_98  and  CD_99 
REMARK   28  A    between atoms: CD_99  and  NE_100 
REMARK       I    between atoms: NE_100  and  CZ_101 
REMARK       I    between atoms: CZ_101  and  NH1_102 
REMARK       I    between atoms: CZ_101  and  NH2_103 
REMARK       I    between atoms: C_104  and  NT_106 
ROOT
ATOM      1  CA  GLY d   1      51.231  35.233  52.583  0.00  0.00     0.098 C 
ATOM      2  C   GLY d   1      50.727  33.940  51.944  0.00  0.00     0.242 C 
ATOM      3  O   GLY d   1      51.233  32.854  52.255  0.00  0.00    -0.271 OA
ATOM      4  CB  GLY d   1      50.385  35.625  53.797  0.00  0.00     0.013 C 
ATOM      5  SG  GLY d   1      49.860  34.277  54.918  0.00  0.00    -0.095 SA
ATOM      6  N   GLY d   1      49.769  34.032  51.024  0.00  0.00    -0.345 N 
ATOM      7  CA  GLY d   1      49.110  32.834  50.514  0.00  0.00     0.098 C 
ATOM      8  C   GLY d   1      49.890  32.131  49.409  0.00  0.00     0.242 C 
ATOM      9  O   GLY d   1      49.416  31.111  48.903  0.00  0.00    -0.271 OA
ATOM     10  CB  GLY d   1      47.704  33.185  50.021  0.00  0.00     0.013 C 
ATOM     11  SG  GLY d   1      46.804  34.282  51.166  0.00  0.00    -0.095 SA
ATOM     12  N   GLY d   1      51.052  32.654  49.014  0.00  0.00    -0.344 N 
ATOM     13  CA  GLY d   1      51.957  31.956  48.108  0.00  0.00     0.109 C 
ATOM     14  C   GLY d   1      53.274  31.704  48.826  0.00  0.00     0.243 C 
ATOM     15  O   GLY d   1      54.356  31.898  48.259  0.00  0.00    -0.271 OA
ATOM     16  N   GLY d   1      53.179  31.304  50.087  0.00  0.00    -0.345 N 
ATOM     17  CA  GLY d   1      54.319  31.055  50.958  0.00  0.00     0.099 C 
ATOM     18  C   GLY d   1      53.981  29.798  51.753  0.00  0.00     0.243 C 
ATOM     19  O   GLY d   1      53.016  29.804  52.524  0.00  0.00    -0.271 OA
ATOM     20  N   GLY d   1      54.703  28.692  51.557  0.00  0.00    -0.337 N 
ATOM     21  CA  GLY d   1      54.333  27.446  52.255  0.00  0.00     0.091 C 
ATOM     22  C   GLY d   1      54.374  27.562  53.769  0.00  0.00     0.241 C 
ATOM     23  O   GLY d   1      53.703  26.781  54.456  0.00  0.00    -0.271 OA
ATOM     24  CB  GLY d   1      55.361  26.434  51.734  0.00  0.00    -0.036 C 
ATOM     25  CG  GLY d   1      56.508  27.276  51.241  0.00  0.00    -0.048 C 
ATOM     26  CD  GLY d   1      55.864  28.508  50.672  0.00  0.00    -0.001 C 
ATOM     27  N   GLY d   1      55.133  28.509  54.316  0.00  0.00    -0.346 N 
ATOM     28  CA  GLY d   1      55.152  28.707  55.759  0.00  0.00     0.089 C 
ATOM     29  C   GLY d   1      53.932  29.473  56.264  0.00  0.00     0.241 C 
ATOM     30  O   GLY d   1      53.701  29.526  57.480  0.00  0.00    -0.271 OA
ATOM     31  N   GLY d   1      53.170  30.098  55.362  0.00  0.00    -0.345 N 
ATOM     32  CA  GLY d   1      52.037  30.936  55.727  0.00  0.00     0.098 C 
ATOM     33  C   GLY d   1      50.814  30.218  55.167  0.00  0.00     0.241 C 
ATOM     34  O   GLY d   1      50.330  29.251  55.780  0.00  0.00    -0.271 OA
ATOM     35  CB  GLY d   1      52.282  32.368  55.215  0.00  0.00     0.013 C 
ATOM     36  SG  GLY d   1      51.475  33.788  56.085  0.00  0.00    -0.095 SA
ATOM     37  N   GLY d   1      50.306  30.615  54.004  0.00  0.00    -0.346 N 
ATOM     38  CA  GLY d   1      49.520  29.742  53.131  0.00  0.00     0.089 C 
ATOM     39  C   GLY d   1      48.347  29.009  53.788  0.00  0.00     0.241 C 
ATOM     40  O   GLY d   1      47.213  29.485  53.703  0.00  0.00    -0.271 OA
ATOM     41  N   GLY d   1      48.571  27.823  54.368  0.00  0.00    -0.346 N 
ATOM     42  CA  GLY d   1      47.468  27.091  54.994  0.00  0.00     0.093 C 
ATOM     43  C   GLY d   1      47.105  27.878  56.246  0.00  0.00     0.241 C 
ATOM     44  O   GLY d   1      47.453  27.489  57.364  0.00  0.00    -0.271 OA
ATOM     45  N   GLY d   1      46.448  29.021  56.041  0.00  0.00    -0.346 N 
ATOM     46  CA  GLY d   1      46.187  30.035  57.056  0.00  0.00     0.089 C 
ATOM     47  C   GLY d   1      45.408  31.164  56.388  0.00  0.00     0.241 C 
ATOM     48  O   GLY d   1      44.822  32.014  57.068  0.00  0.00    -0.271 OA
ATOM     49  N   GLY d   1      45.424  31.177  55.050  0.00  0.00    -0.345 N 
ATOM     50  CA  GLY d   1      44.476  31.932  54.223  0.00  0.00     0.098 C 
ATOM     51  CB  GLY d   1      45.104  32.467  52.922  0.00  0.00     0.013 C 
ATOM     52  SG  GLY d   1      46.711  33.287  52.953  0.00  0.00    -0.095 SA
ATOM     53  H7  GLY d   1      52.261  35.059  52.926  0.00  0.00     0.088 H 
ATOM     54  H8  GLY d   1      49.475  36.117  53.422  0.00  0.00     0.053 H 
ATOM     55  H9  GLY d   1      50.971  36.341  54.392  0.00  0.00     0.053 H 
ATOM     56  H10 GLY d   1      49.498  34.931  50.679  0.00  0.00     0.163 HD
ATOM     57  H11 GLY d   1      49.014  32.127  51.351  0.00  0.00     0.088 H 
ATOM     58  H12 GLY d   1      47.130  32.254  49.904  0.00  0.00     0.053 H 
ATOM     59  H13 GLY d   1      47.789  33.688  49.047  0.00  0.00     0.053 H 
ATOM     60  H14 GLY d   1      51.312  33.559  49.352  0.00  0.00     0.163 HD
ATOM     61  H15 GLY d   1      51.509  30.988  47.838  0.00  0.00     0.090 H 
ATOM     62  H19 GLY d   1      52.264  31.164  50.465  0.00  0.00     0.163 HD
ATOM     63  H20 GLY d   1      55.215  30.868  50.349  0.00  0.00     0.088 H 
ATOM     64  H23 GLY d   1      53.318  27.141  51.962  0.00  0.00     0.087 H 
ATOM     65  H24 GLY d   1      54.937  25.837  50.913  0.00  0.00     0.036 H 
ATOM     66  H25 GLY d   1      55.690  25.764  52.542  0.00  0.00     0.036 H 
ATOM     67  H26 GLY d   1      57.075  26.742  50.465  0.00  0.00     0.035 H 
ATOM     68  H27 GLY d   1      57.181  27.539  52.071  0.00  0.00     0.035 H 
ATOM     69  H28 GLY d   1      56.543  29.372  50.721  0.00  0.00     0.064 H 
ATOM     70  H29 GLY d   1      55.549  28.348  49.630  0.00  0.00     0.064 H 
ATOM     71  H30 GLY d   1      55.697  29.091  53.730  0.00  0.00     0.163 HD
ATOM     72  H31 GLY d   1      55.159  27.716  56.237  0.00  0.00     0.087 H 
ATOM     73  H43 GLY d   1      53.388  29.985  54.392  0.00  0.00     0.163 HD
ATOM     74  H44 GLY d   1      51.943  30.984  56.822  0.00  0.00     0.088 H 
ATOM     75  H45 GLY d   1      51.943  32.398  54.169  0.00  0.00     0.053 H 
ATOM     76  H46 GLY d   1      53.367  32.542  55.254  0.00  0.00     0.053 H 
ATOM     77  H47 GLY d   1      50.469  31.557  53.711  0.00  0.00     0.163 HD
ATOM     78  H48 GLY d   1      49.093  30.381  52.344  0.00  0.00     0.087 H 
ATOM     79  H60 GLY d   1      49.493  27.436  54.374  0.00  0.00     0.163 HD
ATOM     80  H61 GLY d   1      46.606  27.091  54.311  0.00  0.00     0.088 H 
ATOM     81  H69 GLY d   1      46.107  29.196  55.117  0.00  0.00     0.163 HD
ATOM     82  H70 GLY d   1      45.570  29.596  57.854  0.00  0.00     0.087 H 
ATOM     83  H82 GLY d   1      46.126  30.638  54.584  0.00  0.00     0.163 HD
ATOM     84  H83 GLY d   1      44.096  32.780  54.812  0.00  0.00     0.088 H 
ATOM     85  H84 GLY d   1      44.389  33.189  52.500  0.00  0.00     0.053 H 
ATOM     86  H85 GLY d   1      45.201  31.608  52.242  0.00  0.00     0.053 H 
ENDROOT
BRANCH  50  87
ATOM     87  C   GLY d   1      43.322  31.026  53.822  0.00  0.00     0.241 C 
ATOM     88  O   GLY d   1      42.673  31.268  52.804  0.00  0.00    -0.271 OA
ATOM     89  N   GLY d   1      43.097  29.960  54.583  0.00  0.00    -0.346 N 
ATOM     90  H86 GLY d   1      43.626  29.839  55.423  0.00  0.00     0.163 HD
BRANCH  89  91
ATOM     91  CA  GLY d   1      42.075  28.940  54.213  0.00  0.00     0.089 C 
ATOM     92  H87 GLY d   1      41.371  29.402  53.505  0.00  0.00     0.087 H 
BRANCH  91  93
ATOM     93  CB  GLY d   1      42.725  27.732  53.535  0.00  0.00    -0.036 C 
ATOM     94  H88 GLY d   1      41.958  27.205  52.950  0.00  0.00     0.036 H 
ATOM     95  H89 GLY d   1      43.116  27.062  54.315  0.00  0.00     0.036 H 
BRANCH  93  96
ATOM     96  CG  GLY d   1      43.871  28.112  52.602  0.00  0.00    -0.048 C 
ATOM     97  H90 GLY d   1      44.545  28.812  53.117  0.00  0.00     0.035 H 
ATOM     98  H91 GLY d   1      43.464  28.591  51.699  0.00  0.00     0.035 H 
BRANCH  96  99
ATOM     99  CD  GLY d   1      44.648  26.856  52.205  0.00  0.00     0.009 C 
ATOM    100  H92 GLY d   1      44.008  26.262  51.536  0.00  0.00     0.064 H 
ATOM    101  H93 GLY d   1      44.852  26.283  53.121  0.00  0.00     0.064 H 
BRANCH  99 102
ATOM    102  NE  GLY d   1      45.918  27.079  51.526  0.00  0.00    -0.227 N 
ATOM    103  CZ  GLY d   1      46.114  27.969  50.545  0.00  0.00     0.665 C 
ATOM    104  NH1 GLY d   1      45.244  28.841  50.264  0.00  0.00    -0.235 N 
ATOM    105  NH2 GLY d   1      47.321  27.934  49.796  0.00  0.00    -0.235 N 
ATOM    106  H95 GLY d   1      45.417  29.515  49.505  0.00  0.00     0.174 HD
ATOM    107  H96 GLY d   1      44.362  28.878  50.794  0.00  0.00     0.174 HD
ATOM    108  H97 GLY d   1      48.041  27.230  50.012  0.00  0.00     0.174 HD
ATOM    109  H98 GLY d   1      47.476  28.613  49.037  0.00  0.00     0.174 HD
ATOM    110  H94 GLY d   1      46.724  26.510  51.822  0.00  0.00     0.177 HD
ENDBRANCH  99 102
ENDBRANCH  96  99
ENDBRANCH  93  96
ENDBRANCH  91  93
BRANCH  91 111
ATOM    111  C   GLY d   1      41.307  28.478  55.414  0.00  0.00     0.238 C 
ATOM    112  O   GLY d   1      41.804  28.592  56.523  0.00  0.00    -0.271 OA
ATOM    113  NT  GLY d   1      40.024  27.901  55.243  0.00  0.00    -0.368 N 
ATOM    114  H99 GLY d   1      39.505  27.590  56.039  0.00  0.00     0.159 HD
ATOM    115 0H10 GLY d   1      39.637  27.805  54.326  0.00  0.00     0.159 HD
ENDBRANCH  91 111
ENDBRANCH  89  91
ENDBRANCH  50  87
BRANCH  46 116
ATOM    116  CB  GLY d   1      47.492  30.543  57.681  0.00  0.00    -0.036 C 
ATOM    117  H71 GLY d   1      48.143  30.899  56.869  0.00  0.00     0.036 H 
ATOM    118  H72 GLY d   1      47.975  29.699  58.194  0.00  0.00     0.036 H 
BRANCH 116 119
ATOM    119  CG  GLY d   1      47.329  31.677  58.688  0.00  0.00    -0.048 C 
ATOM    120  H73 GLY d   1      46.587  31.382  59.445  0.00  0.00     0.035 H 
ATOM    121  H74 GLY d   1      46.979  32.578  58.162  0.00  0.00     0.035 H 
BRANCH 119 122
ATOM    122  CD  GLY d   1      48.649  31.985  59.378  0.00  0.00     0.009 C 
ATOM    123  H75 GLY d   1      49.386  32.286  58.619  0.00  0.00     0.064 H 
ATOM    124  H76 GLY d   1      49.002  31.079  59.893  0.00  0.00     0.064 H 
BRANCH 122 125
ATOM    125  NE  GLY d   1      48.509  33.058  60.352  0.00  0.00    -0.227 N 
ATOM    126  CZ  GLY d   1      49.363  33.288  61.347  0.00  0.00     0.665 C 
ATOM    127  NH1 GLY d   1      50.423  32.500  61.505  0.00  0.00    -0.235 N 
ATOM    128  NH2 GLY d   1      49.157  34.301  62.190  0.00  0.00    -0.235 N 
ATOM    129  H78 GLY d   1      51.085  32.676  62.274  0.00  0.00     0.174 HD
ATOM    130  H79 GLY d   1      50.581  31.714  60.858  0.00  0.00     0.174 HD
ATOM    131  H80 GLY d   1      48.337  34.913  62.070  0.00  0.00     0.174 HD
ATOM    132  H81 GLY d   1      49.818  34.472  62.961  0.00  0.00     0.174 HD
ATOM    133  H77 GLY d   1      47.694  33.682  60.265  0.00  0.00     0.177 HD
ENDBRANCH 122 125
ENDBRANCH 119 122
ENDBRANCH 116 119
ENDBRANCH  46 116
BRANCH  42 134
ATOM    134  CB  GLY d   1      47.828  25.607  55.294  0.00  0.00    -0.014 C 
ATOM    135  H62 GLY d   1      47.218  25.286  56.151  0.00  0.00     0.043 H 
ATOM    136  H63 GLY d   1      48.893  25.574  55.568  0.00  0.00     0.043 H 
BRANCH 134 137
ATOM    137  CG  GLY d   1      47.605  24.566  54.140  0.00  0.00    -0.059 A 
ATOM    138  CD1 GLY d   1      46.343  23.961  53.878  0.00  0.00    -0.091 A 
ATOM    139  CE1 GLY d   1      46.173  22.940  52.808  0.00  0.00    -0.002 A 
ATOM    140  H64 GLY d   1      45.480  24.253  54.475  0.00  0.00     0.078 H 
ATOM    141  CZ  GLY d   1      47.169  22.656  52.073  0.00  0.00     0.088 A 
ATOM    142  H66 GLY d   1      45.372  23.297  52.144  0.00  0.00     0.049 H 
ATOM    143  H67 GLY d   1      45.855  22.008  53.297  0.00  0.00     0.049 H 
ATOM    144  CE2 GLY d   1      48.429  23.180  52.291  0.00  0.00    -0.051 A 
ATOM    145  OH  GLY d   1      46.987  21.779  51.125  0.00  0.00    -0.197 OA
ATOM    146  CD2 GLY d   1      48.661  24.137  53.330  0.00  0.00    -0.075 A 
ATOM    147  H68 GLY d   1      49.259  22.860  51.662  0.00  0.00     0.087 H 
ATOM    148  H65 GLY d   1      49.663  24.532  53.490  0.00  0.00     0.084 H 
ENDBRANCH 134 137
ENDBRANCH  42 134
BRANCH   1 149
ATOM    149  N   GLY d   1      51.252  36.330  51.625  0.00  0.00    -0.346 N 
ATOM    150  C   GLY d   1      51.974  36.223  50.508  0.00  0.00     0.243 C 
ATOM    151  O   GLY d   1      52.600  35.203  50.208  0.00  0.00    -0.272 OA
ATOM    152  H6  GLY d   1      50.726  37.162  51.804  0.00  0.00     0.163 HD
BRANCH 150 153
ATOM    153  CA  GLY d   1      51.987  37.426  49.593  0.00  0.00     0.152 C 
ATOM    154  H4  GLY d   1      50.995  37.542  49.133  0.00  0.00     0.090 H 
ATOM    155  H5  GLY d   1      52.226  38.325  50.180  0.00  0.00     0.090 H 
BRANCH 153 156
ATOM    156  N   GLY d   1      52.979  37.258  48.552  0.00  0.00    -0.071 N 
ATOM    157  H1  GLY d   1      52.976  38.067  47.951  0.00  0.00     0.274 HD
ATOM    158  H2  GLY d   1      52.762  36.436  48.010  0.00  0.00     0.274 HD
ATOM    159  H3  GLY d   1      53.890  37.154  48.970  0.00  0.00     0.274 HD
ENDBRANCH 153 156
ENDBRANCH 150 153
ENDBRANCH   1 149
BRANCH  13 160
ATOM    160  CB  GLY d   1      52.182  32.757  46.825  0.00  0.00     0.044 C 
ATOM    161  H16 GLY d   1      53.136  32.452  46.371  0.00  0.00     0.077 H 
ATOM    162  H17 GLY d   1      52.218  33.829  47.069  0.00  0.00     0.077 H 
BRANCH 160 163
ATOM    163  OG  GLY d   1      51.133  32.524  45.905  0.00  0.00    -0.398 OA
ATOM    164  H18 GLY d   1      51.288  33.028  45.115  0.00  0.00     0.209 HD
ENDBRANCH 160 163
ENDBRANCH  13 160
BRANCH  38 165
ATOM    165  CB  GLY d   1      50.452  28.724  52.464  0.00  0.00    -0.036 C 
ATOM    166  H49 GLY d   1      50.706  27.948  53.201  0.00  0.00     0.036 H 
ATOM    167  H50 GLY d   1      51.368  29.244  52.149  0.00  0.00     0.036 H 
BRANCH 165 168
ATOM    168  CG  GLY d   1      49.844  28.058  51.261  0.00  0.00    -0.048 C 
ATOM    169  H51 GLY d   1      49.087  28.727  50.826  0.00  0.00     0.035 H 
ATOM    170  H52 GLY d   1      49.366  27.119  51.575  0.00  0.00     0.035 H 
BRANCH 168 171
ATOM    171  CD  GLY d   1      50.888  27.752  50.216  0.00  0.00     0.009 C 
ATOM    172  H53 GLY d   1      51.791  28.340  50.434  0.00  0.00     0.064 H 
ATOM    173  H54 GLY d   1      50.495  28.036  49.228  0.00  0.00     0.064 H 
BRANCH 171 174
ATOM    174  NE  GLY d   1      51.243  26.336  50.192  0.00  0.00    -0.227 N 
ATOM    175  CZ  GLY d   1      52.178  25.818  49.403  0.00  0.00     0.665 C 
ATOM    176  NH1 GLY d   1      52.852  26.600  48.568  0.00  0.00    -0.235 N 
ATOM    177  NH2 GLY d   1      52.439  24.520  49.449  0.00  0.00    -0.235 N 
ATOM    178  H56 GLY d   1      53.577  26.197  47.957  0.00  0.00     0.174 HD
ATOM    179  H57 GLY d   1      52.650  27.609  48.532  0.00  0.00     0.174 HD
ATOM    180  H58 GLY d   1      51.917  23.912  50.096  0.00  0.00     0.174 HD
ATOM    181  H59 GLY d   1      53.164  24.119  48.837  0.00  0.00     0.174 HD
ATOM    182  H55 GLY d   1      50.738  25.700  50.825  0.00  0.00     0.177 HD
ENDBRANCH 171 174
ENDBRANCH 168 171
ENDBRANCH 165 168
ENDBRANCH  38 165
BRANCH  17 183
ATOM    183  CB  GLY d   1      54.593  32.275  51.863  0.00  0.00     0.043 C 
ATOM    184  H21 GLY d   1      53.721  32.429  52.515  0.00  0.00     0.052 H 
ATOM    185  H22 GLY d   1      54.735  33.159  51.224  0.00  0.00     0.052 H 
BRANCH 183 186
ATOM    186  CG  GLY d   1      55.840  32.106  52.747  0.00  0.00     0.175 C 
ATOM    187  OD1 GLY d   1      56.161  30.952  53.125  0.00  0.00    -0.648 OA
ATOM    188  OD2 GLY d   1      56.500  33.131  53.068  0.00  0.00    -0.648 OA
ENDBRANCH 183 186
ENDBRANCH  17 183
BRANCH  28 189
ATOM    189  CB  GLY d   1      56.419  29.464  56.178  0.00  0.00    -0.036 C 
ATOM    190  H32 GLY d   1      56.425  29.524  57.276  0.00  0.00     0.036 H 
ATOM    191  H33 GLY d   1      56.359  30.478  55.755  0.00  0.00     0.036 H 
BRANCH 189 192
ATOM    192  CG  GLY d   1      57.733  28.862  55.743  0.00  0.00    -0.048 C 
ATOM    193  H34 GLY d   1      57.659  28.544  54.693  0.00  0.00     0.035 H 
ATOM    194  H35 GLY d   1      57.962  27.991  56.375  0.00  0.00     0.035 H 
BRANCH 192 195
ATOM    195  CD  GLY d   1      58.860  29.907  55.883  0.00  0.00     0.009 C 
ATOM    196  H36 GLY d   1      59.831  29.411  55.739  0.00  0.00     0.064 H 
ATOM    197  H37 GLY d   1      58.820  30.348  56.890  0.00  0.00     0.064 H 
BRANCH 195 198
ATOM    198  NE  GLY d   1      58.712  30.973  54.886  0.00  0.00    -0.227 N 
ATOM    199  CZ  GLY d   1      59.598  31.946  54.640  0.00  0.00     0.665 C 
ATOM    200  NH1 GLY d   1      60.754  32.030  55.312  0.00  0.00    -0.235 N 
ATOM    201  NH2 GLY d   1      59.322  32.841  53.692  0.00  0.00    -0.235 N 
ATOM    202  H39 GLY d   1      61.418  32.789  55.102  0.00  0.00     0.174 HD
ATOM    203  H40 GLY d   1      60.979  31.335  56.038  0.00  0.00     0.174 HD
ATOM    204  H41 GLY d   1      58.435  32.783  53.171  0.00  0.00     0.174 HD
ATOM    205  H42 GLY d   1      59.995  33.591  53.480  0.00  0.00     0.174 HD
ATOM    206  H38 GLY d   1      57.848  30.973  54.325  0.00  0.00     0.177 HD
ENDBRANCH 195 198
ENDBRANCH 192 195
ENDBRANCH 189 192
ENDBRANCH  28 189
TORSDOF 28
