REMARK  9 active torsions:
REMARK  status: ('A' for Active; 'I' for Inactive)
REMARK    1  A    between atoms: O3A_8  and  PB_1 
REMARK    2  A    between atoms: PA_5  and  O3A_8 
REMARK    3  A    between atoms: PA_5  and  O5'_9 
REMARK    4  A    between atoms: O5'_9  and  C5'_10 
REMARK    5  A    between atoms: C5'_10  and  C4'_11 
REMARK    6  A    between atoms: C3'_13  and  O3'_14 
REMARK    7  A    between atoms: C2'_15  and  O2'_16 
REMARK    8  A    between atoms: C1'_17  and  N9_18 
REMARK    9  A    between atoms: C6_22  and  N6_23 
ROOT
ATOM      1  C4' ADP d   1      18.643  13.292 121.973  0.00  0.00     0.089 C 
ATOM      2  O4' ADP d   1      17.986  12.237 122.703  0.00  0.00    -0.353 OA
ATOM      3  C3' ADP d   1      17.514  14.273 121.701  0.00  0.00     0.091 C 
ATOM      4  C2' ADP d   1      16.382  13.328 121.302  0.00  0.00     0.105 C 
ATOM      5  C1' ADP d   1      16.660  12.113 122.209  0.00  0.00     0.139 C 
ATOM      6  H3  ADP d   1      19.021  12.909 121.013  0.00  0.00     0.090 H 
ATOM      7  H4  ADP d   1      17.245  14.808 122.624  0.00  0.00     0.091 H 
ATOM      8  H6  ADP d   1      15.401  13.775 121.518  0.00  0.00     0.093 H 
ATOM      9  H8  ADP d   1      16.590  11.204 121.594  0.00  0.00     0.122 H 
ENDROOT
BRANCH   5  10
ATOM     10  N9  ADP d   1      15.727  11.968 123.327  0.00  0.00    -0.294 N 
ATOM     11  C8  ADP d   1      15.900  12.365 124.628  0.00  0.00     0.071 A 
ATOM     12  N7  ADP d   1      14.922  12.013 125.428  0.00  0.00    -0.236 NA
ATOM     13  H9  ADP d   1      16.772  12.923 124.967  0.00  0.00     0.144 H 
ATOM     14  C5  ADP d   1      14.036  11.347 124.593  0.00  0.00     0.149 A 
ATOM     15  C6  ADP d   1      12.789  10.723 124.826  0.00  0.00     0.155 A 
ATOM     16  C4  ADP d   1      14.508  11.335 123.291  0.00  0.00     0.167 A 
ATOM     17  N1  ADP d   1      12.121  10.237 123.753  0.00  0.00    -0.222 NA
ATOM     18  C2  ADP d   1      12.689  10.323 122.545  0.00  0.00     0.091 A 
ATOM     19  N3  ADP d   1      13.877  10.836 122.216  0.00  0.00    -0.222 NA
ATOM     20  H12 ADP d   1      12.107   9.922 121.723  0.00  0.00     0.146 H 
BRANCH  15  21
ATOM     21  N6  ADP d   1      12.307  10.448 126.042  0.00  0.00    -0.382 N 
ATOM     22  H10 ADP d   1      11.389   9.991 126.141  0.00  0.00     0.157 HD
ATOM     23  H11 ADP d   1      12.853  10.693 126.880  0.00  0.00     0.157 HD
ENDBRANCH  15  21
ENDBRANCH   5  10
BRANCH   4  24
ATOM     24  O2' ADP d   1      16.434  12.950 119.927  0.00  0.00    -0.388 OA
ATOM     25  H7  ADP d   1      15.711  12.365 119.733  0.00  0.00     0.210 HD
ENDBRANCH   4  24
BRANCH   1  26
ATOM     26  C5' ADP d   1      19.825  13.820 122.745  0.00  0.00     0.058 C 
ATOM     27  H1  ADP d   1      20.397  12.979 123.163  0.00  0.00     0.079 H 
ATOM     28  H2  ADP d   1      20.471  14.406 122.075  0.00  0.00     0.079 H 
BRANCH  26  29
ATOM     29  O5' ADP d   1      19.352  14.659 123.813  0.00  0.00    -0.287 OA
BRANCH  29  30
ATOM     30  PA  ADP d   1      20.150  14.920 125.151  0.00  0.00     0.418 P 
ATOM     31  O1A ADP d   1      21.044  13.808 125.556  0.00  0.00    -0.624 OA
ATOM     32  O2A ADP d   1      19.069  15.251 126.190  0.00  0.00    -0.624 OA
BRANCH  30  33
ATOM     33  O3A ADP d   1      21.061  16.200 124.882  0.00  0.00    -0.173 OA
BRANCH  33  34
ATOM     34  PB  ADP d   1      21.693  17.350 125.788  0.00  0.00     0.431 P 
ATOM     35  O1B ADP d   1      23.029  17.640 125.273  0.00  0.00    -0.616 OA
ATOM     36  O2B ADP d   1      20.694  18.500 125.742  0.00  0.00    -0.616 OA
ATOM     37  O3B ADP d   1      21.737  16.882 127.244  0.00  0.00    -0.616 OA
ENDBRANCH  33  34
ENDBRANCH  30  33
ENDBRANCH  29  30
ENDBRANCH  26  29
ENDBRANCH   1  26
BRANCH   3  38
ATOM     38  O3' ADP d   1      17.853  15.246 120.724  0.00  0.00    -0.390 OA
ATOM     39  H5  ADP d   1      18.064  14.812 119.906  0.00  0.00     0.210 HD
ENDBRANCH   3  38
TORSDOF 9
