REMARK  18 active torsions:
REMARK  status: ('A' for Active; 'I' for Inactive)
REMARK    1  A    between atoms: CA_2  and  N_1 
REMARK    2  A    between atoms: CA_11  and  CB_14 
REMARK    3  A    between atoms: CB_14  and  CG_15 
REMARK    4  A    between atoms: CG_15  and  CD_16 
REMARK    5  A    between atoms: CD_16  and  NE_17 
REMARK       I    between atoms: NE_17  and  CZ_18 
REMARK       I    between atoms: CZ_18  and  NH1_19 
REMARK       I    between atoms: CZ_18  and  NH2_20 
REMARK    6  A    between atoms: CA_22  and  CB_25 
REMARK    7  A    between atoms: CB_25  and  CG_26 
REMARK    8  A    between atoms: CG_26  and  CD_27 
REMARK    9  A    between atoms: CD_27  and  NE_28 
REMARK       I    between atoms: NE_28  and  CZ_29 
REMARK       I    between atoms: CZ_29  and  NH1_30 
REMARK       I    between atoms: CZ_29  and  NH2_31 
REMARK   10  A    between atoms: CA_33  and  CB_34 
REMARK   11  A    between atoms: CB_34  and  CG1_35 
REMARK   12  A    between atoms: CB_34  and  CG2_36 
REMARK   13  A    between atoms: CB_34  and  CG3_37 
REMARK   14  A    between atoms: CA_41  and  C_42 
REMARK       I    between atoms: C_42  and  N23_49 
REMARK   15  A    between atoms: N23_49  and  C16_50 
REMARK   16  A    between atoms: C16_50  and  C17_51 
REMARK   17  A    between atoms: C24_54  and  C27_55 
REMARK   18  A    between atoms: C27_55  and  N35_56 
ROOT
ATOM      1  CA  LYS d   1      55.302 -35.730  -6.926  0.00  0.00     0.176 C 
ATOM      2  C   LYS d   1      54.817 -35.675  -5.620  0.00  0.00     0.248 C 
ATOM      3  O   LYS d   1      54.553 -36.696  -4.987  0.00  0.00    -0.271 OA
ATOM      4  CB  LYS d   1      54.080 -35.663  -7.827  0.00  0.00    -0.030 C 
ATOM      5  CG  LYS d   1      54.436 -35.628  -9.282  0.00  0.00    -0.061 C 
ATOM      6  CD  LYS d   1      53.134 -35.528 -10.065  0.00  0.00    -0.050 C 
ATOM      7  CE  LYS d   1      53.284 -34.375 -10.994  0.00  0.00    -0.005 C 
ATOM      8  NZ  LYS d   1      54.484 -34.639 -11.793  0.00  0.00    -0.361 N 
ATOM      9  N   LYS d   1      54.550 -34.433  -5.046  0.00  0.00    -0.346 N 
ATOM     10  CA  LYS d   1      53.986 -34.371  -3.685  0.00  0.00     0.089 C 
ATOM     11  C   LYS d   1      52.603 -34.634  -3.791  0.00  0.00     0.241 C 
ATOM     12  O   LYS d   1      52.010 -35.280  -2.925  0.00  0.00    -0.271 OA
ATOM     13  N   LYS d   1      51.885 -34.201  -4.919  0.00  0.00    -0.346 N 
ATOM     14  CA  LYS d   1      50.427 -34.479  -5.061  0.00  0.00     0.089 C 
ATOM     15  C   LYS d   1      50.198 -34.964  -6.360  0.00  0.00     0.241 C 
ATOM     16  O   LYS d   1      50.889 -34.575  -7.302  0.00  0.00    -0.271 OA
ATOM     17  N   LYS d   1      49.200 -35.927  -6.599  0.00  0.00    -0.345 N 
ATOM     18  CA  LYS d   1      48.959 -36.528  -7.938  0.00  0.00     0.095 C 
ATOM     19  C   LYS d   1      47.595 -36.467  -8.321  0.00  0.00     0.241 C 
ATOM     20  O   LYS d   1      46.701 -36.469  -7.476  0.00  0.00    -0.271 OA
ATOM     21  N   LYS d   1      47.247 -36.385  -9.686  0.00  0.00    -0.346 N 
ATOM     22  CA  LYS d   1      45.862 -36.427 -10.214  0.00  0.00     0.089 C 
ATOM     23  CB  LYS d   1      45.832 -36.259 -11.741  0.00  0.00    -0.038 C 
ATOM     24  CG  LYS d   1      46.352 -34.895 -12.109  0.00  0.00    -0.061 C 
ATOM     25  CD  LYS d   1      46.759 -34.794 -13.596  0.00  0.00    -0.050 C 
ATOM     26  CE  LYS d   1      46.709 -33.302 -13.932  0.00  0.00    -0.005 C 
ATOM     27  NZ  LYS d   1      47.702 -32.796 -14.921  0.00  0.00    -0.361 N 
ATOM     28  C1  LYS d   1      48.922 -32.263 -14.427  0.00  0.00     0.217 C 
ATOM     29  C2  LYS d   1      49.889 -31.738 -15.283  0.00  0.00     0.010 C 
ATOM     30  C3  LYS d   1      49.877 -32.493 -16.567  0.00  0.00    -0.049 C 
ATOM     31  C4  LYS d   1      50.636 -33.806 -16.439  0.00  0.00     0.010 C 
ATOM     32  C5  LYS d   1      51.942 -33.631 -16.889  0.00  0.00     0.217 C 
ATOM     33  O1  LYS d   1      49.126 -32.262 -13.213  0.00  0.00    -0.274 OA
ATOM     34  O5  LYS d   1      52.481 -32.527 -16.809  0.00  0.00    -0.274 OA
ATOM     35  N1  LYS d   1      52.636 -34.723 -17.451  0.00  0.00    -0.357 N 
ATOM     36  C2  LYS d   1      55.257 -35.347 -14.552  0.00  0.00    -0.076 A 
ATOM     37  C3  LYS d   1      54.648 -35.494 -15.784  0.00  0.00    -0.075 A 
ATOM     38  C4  LYS d   1      54.689 -34.443 -16.688  0.00  0.00    -0.041 A 
ATOM     39  C5  LYS d   1      55.302 -33.240 -16.355  0.00  0.00    -0.075 A 
ATOM     40  C6  LYS d   1      55.906 -33.091 -15.114  0.00  0.00    -0.076 A 
ATOM     41  CA  LYS d   1      56.461 -34.019 -12.972  0.00  0.00     0.033 C 
ATOM     42  C   LYS d   1      55.385 -33.645 -12.172  0.00  0.00     0.221 C 
ATOM     43  O   LYS d   1      55.178 -32.471 -11.867  0.00  0.00    -0.273 OA
ATOM     44  C1  LYS d   1      55.890 -34.154 -14.222  0.00  0.00    -0.049 A 
ATOM     45  C7  LYS d   1      54.048 -34.598 -17.900  0.00  0.00     0.019 C 
ATOM     46  H4  LYS d   1      55.961 -34.872  -7.125  0.00  0.00     0.099 H 
ATOM     47  H5  LYS d   1      53.511 -34.754  -7.582  0.00  0.00     0.036 H 
ATOM     48  H6  LYS d   1      53.455 -36.548  -7.639  0.00  0.00     0.036 H 
ATOM     49  H7  LYS d   1      54.973 -36.547  -9.560  0.00  0.00     0.033 H 
ATOM     50  H8  LYS d   1      55.070 -34.755  -9.493  0.00  0.00     0.033 H 
ATOM     51  H9  LYS d   1      52.291 -35.356  -9.380  0.00  0.00     0.035 H 
ATOM     52  H10 LYS d   1      52.961 -36.454 -10.634  0.00  0.00     0.035 H 
ATOM     53  H11 LYS d   1      53.404 -33.441 -10.425  0.00  0.00     0.064 H 
ATOM     54  H12 LYS d   1      52.402 -34.296 -11.647  0.00  0.00     0.064 H 
ATOM     55  H13 LYS d   1      54.666 -35.579 -12.081  0.00  0.00     0.162 HD
ATOM     56  H14 LYS d   1      54.739 -33.592  -5.553  0.00  0.00     0.163 HD
ATOM     57  H15 LYS d   1      54.456 -35.133  -3.045  0.00  0.00     0.087 H 
ATOM     58  H27 LYS d   1      52.361 -33.697  -5.640  0.00  0.00     0.163 HD
ATOM     59  H28 LYS d   1      50.143 -35.258  -4.338  0.00  0.00     0.087 H 
ATOM     60  H40 LYS d   1      48.627 -36.221  -5.834  0.00  0.00     0.163 HD
ATOM     61  H41 LYS d   1      49.548 -35.973  -8.683  0.00  0.00     0.088 H 
ATOM     62  H51 LYS d   1      47.991 -36.291 -10.348  0.00  0.00     0.163 HD
ATOM     63  H52 LYS d   1      45.268 -35.623  -9.755  0.00  0.00     0.087 H 
ATOM     64  H53 LYS d   1      44.798 -36.366 -12.101  0.00  0.00     0.036 H 
ATOM     65  H54 LYS d   1      46.464 -37.030 -12.207  0.00  0.00     0.036 H 
ATOM     66  H55 LYS d   1      47.232 -34.674 -11.487  0.00  0.00     0.033 H 
ATOM     67  H56 LYS d   1      45.566 -34.153 -11.908  0.00  0.00     0.033 H 
ATOM     68  H57 LYS d   1      46.053 -35.354 -14.227  0.00  0.00     0.035 H 
ATOM     69  H58 LYS d   1      47.775 -35.188 -13.744  0.00  0.00     0.035 H 
ATOM     70  H59 LYS d   1      46.861 -32.746 -12.995  0.00  0.00     0.064 H 
ATOM     71  H60 LYS d   1      45.706 -33.085 -14.328  0.00  0.00     0.064 H 
ATOM     72  H61 LYS d   1      47.515 -32.831 -15.903  0.00  0.00     0.162 HD
ATOM     73  H73 LYS d   1      50.880 -31.826 -14.815  0.00  0.00     0.047 H 
ATOM     74  H74 LYS d   1      49.669 -30.678 -15.479  0.00  0.00     0.047 H 
ATOM     75  H75 LYS d   1      50.350 -31.880 -17.349  0.00  0.00     0.034 H 
ATOM     76  H76 LYS d   1      48.835 -32.706 -16.848  0.00  0.00     0.034 H 
ATOM     77  H77 LYS d   1      50.139 -34.578 -17.045  0.00  0.00     0.047 H 
ATOM     78  H78 LYS d   1      50.650 -34.120 -15.385  0.00  0.00     0.047 H 
ATOM     79  H79 LYS d   1      52.168 -35.601 -17.550  0.00  0.00     0.162 HD
ATOM     80  H80 LYS d   1      55.241 -36.165 -13.841  0.00  0.00     0.084 H 
ATOM     81  H81 LYS d   1      54.145 -36.419 -16.041  0.00  0.00     0.084 H 
ATOM     82  H82 LYS d   1      55.308 -32.420 -17.064  0.00  0.00     0.084 H 
ATOM     83  H83 LYS d   1      56.384 -32.156 -14.845  0.00  0.00     0.084 H 
ATOM     84  H84 LYS d   1      56.895 -34.971 -12.631  0.00  0.00     0.054 H 
ATOM     85  H85 LYS d   1      57.239 -33.242 -12.975  0.00  0.00     0.054 H 
ATOM     86  H86 LYS d   1      54.191 -33.721 -18.549  0.00  0.00     0.071 H 
ATOM     87  H87 LYS d   1      54.388 -35.503 -18.425  0.00  0.00     0.071 H 
ENDROOT
BRANCH  22  88
ATOM     88  C   LYS d   1      45.333 -37.676  -9.858  0.00  0.00     0.240 C 
ATOM     89  O   LYS d   1      46.033 -38.673 -10.002  0.00  0.00    -0.271 OA
ATOM     90  N23 LYS d   1      44.077 -37.716  -9.361  0.00  0.00    -0.355 N 
ATOM     91  H62 LYS d   1      43.549 -36.868  -9.306  0.00  0.00     0.162 HD
BRANCH  90  92
ATOM     92  C16 LYS d   1      43.458 -38.981  -8.894  0.00  0.00     0.019 C 
ATOM     93  H63 LYS d   1      43.977 -39.839  -9.346  0.00  0.00     0.071 H 
ATOM     94  H64 LYS d   1      42.396 -39.004  -9.179  0.00  0.00     0.071 H 
BRANCH  92  95
ATOM     95  C17 LYS d   1      43.579 -39.036  -7.474  0.00  0.00    -0.040 A 
ATOM     96  C22 LYS d   1      44.722 -39.548  -6.870  0.00  0.00    -0.074 A 
ATOM     97  C21 LYS d   1      44.850 -39.587  -5.478  0.00  0.00    -0.069 A 
ATOM     98  H65 LYS d   1      45.528 -39.924  -7.489  0.00  0.00     0.084 H 
ATOM     99  C24 LYS d   1      43.834 -39.116  -4.640  0.00  0.00     0.007 A 
ATOM    100  H66 LYS d   1      45.755 -39.991  -5.039  0.00  0.00     0.085 H 
ATOM    101  C19 LYS d   1      42.685 -38.602  -5.251  0.00  0.00    -0.069 A 
ATOM    102  C18 LYS d   1      42.563 -38.567  -6.644  0.00  0.00    -0.074 A 
ATOM    103  H71 LYS d   1      41.877 -38.225  -4.635  0.00  0.00     0.085 H 
ATOM    104  H72 LYS d   1      41.658 -38.166  -7.087  0.00  0.00     0.084 H 
BRANCH  99 105
ATOM    105  C27 LYS d   1      43.958 -39.151  -3.232  0.00  0.00     0.102 C 
ATOM    106  N34 LYS d   1      42.892 -38.882  -2.477  0.00  0.00    -0.385 N 
ATOM    107  H69 LYS d   1      41.977 -38.716  -2.919  0.00  0.00     0.157 HD
ATOM    108  H70 LYS d   1      42.984 -38.840  -1.452  0.00  0.00     0.157 HD
BRANCH 105 109
ATOM    109  N35 LYS d   1      45.158 -39.370  -2.678  0.00  0.00    -0.385 N 
ATOM    110  H67 LYS d   1      45.255 -39.397  -1.653  0.00  0.00     0.157 HD
ATOM    111  H68 LYS d   1      45.984 -39.512  -3.277  0.00  0.00     0.157 HD
ENDBRANCH 105 109
ENDBRANCH  99 105
ENDBRANCH  92  95
ENDBRANCH  90  92
ENDBRANCH  22  88
BRANCH  18 112
ATOM    112  CB  LYS d   1      49.452 -38.005  -7.902  0.00  0.00    -0.022 C 
BRANCH 112 113
ATOM    113  CG1 LYS d   1      49.350 -38.647  -9.300  0.00  0.00    -0.067 C 
ATOM    114  H42 LYS d   1      49.703 -39.688  -9.252  0.00  0.00     0.028 H 
ATOM    115  H43 LYS d   1      49.972 -38.082 -10.009  0.00  0.00     0.028 H 
ATOM    116  H44 LYS d   1      48.303 -38.630  -9.636  0.00  0.00     0.028 H 
ENDBRANCH 112 113
BRANCH 112 117
ATOM    117  CG2 LYS d   1      50.917 -38.065  -7.465  0.00  0.00    -0.067 C 
ATOM    118  H45 LYS d   1      51.021 -37.613  -6.468  0.00  0.00     0.028 H 
ATOM    119  H46 LYS d   1      51.537 -37.511  -8.185  0.00  0.00     0.028 H 
ATOM    120  H47 LYS d   1      51.246 -39.114  -7.428  0.00  0.00     0.028 H 
ENDBRANCH 112 117
BRANCH 112 121
ATOM    121  CG3 LYS d   1      48.618 -38.841  -6.917  0.00  0.00    -0.067 C 
ATOM    122  H48 LYS d   1      47.559 -38.810  -7.215  0.00  0.00     0.028 H 
ATOM    123  H49 LYS d   1      48.726 -38.428  -5.903  0.00  0.00     0.028 H 
ATOM    124  H50 LYS d   1      48.972 -39.882  -6.929  0.00  0.00     0.028 H 
ENDBRANCH 112 121
ENDBRANCH  18 112
BRANCH  14 125
ATOM    125  CB  LYS d   1      49.586 -33.226  -4.767  0.00  0.00    -0.036 C 
ATOM    126  H29 LYS d   1      48.519 -33.477  -4.862  0.00  0.00     0.036 H 
ATOM    127  H30 LYS d   1      49.843 -32.441  -5.493  0.00  0.00     0.036 H 
BRANCH 125 128
ATOM    128  CG  LYS d   1      49.858 -32.705  -3.340  0.00  0.00    -0.048 C 
ATOM    129  H31 LYS d   1      49.432 -31.697  -3.233  0.00  0.00     0.035 H 
ATOM    130  H32 LYS d   1      50.944 -32.665  -3.167  0.00  0.00     0.035 H 
BRANCH 128 131
ATOM    131  CD  LYS d   1      49.214 -33.641  -2.309  0.00  0.00     0.009 C 
ATOM    132  H33 LYS d   1      49.653 -34.644  -2.412  0.00  0.00     0.064 H 
ATOM    133  H34 LYS d   1      48.132 -33.693  -2.499  0.00  0.00     0.064 H 
BRANCH 131 134
ATOM    134  NE  LYS d   1      49.439 -33.156  -0.930  0.00  0.00    -0.227 N 
ATOM    135  CZ  LYS d   1      50.232 -33.755  -0.017  0.00  0.00     0.665 C 
ATOM    136  NH1 LYS d   1      50.333 -33.248   1.226  0.00  0.00    -0.235 N 
ATOM    137  NH2 LYS d   1      50.904 -34.874  -0.322  0.00  0.00    -0.235 N 
ATOM    138  H36 LYS d   1      50.939 -33.706   1.922  0.00  0.00     0.174 HD
ATOM    139  H37 LYS d   1      49.805 -32.402   1.482  0.00  0.00     0.174 HD
ATOM    140  H38 LYS d   1      50.836 -35.273  -1.269  0.00  0.00     0.174 HD
ATOM    141  H39 LYS d   1      51.488 -35.334   0.391  0.00  0.00     0.174 HD
ATOM    142  H35 LYS d   1      48.953 -32.294  -0.644  0.00  0.00     0.177 HD
ENDBRANCH 131 134
ENDBRANCH 128 131
ENDBRANCH 125 128
ENDBRANCH  14 125
BRANCH  10 143
ATOM    143  CB  LYS d   1      54.263 -32.983  -3.101  0.00  0.00    -0.036 C 
ATOM    144  H16 LYS d   1      53.787 -32.229  -3.744  0.00  0.00     0.036 H 
ATOM    145  H17 LYS d   1      55.350 -32.818  -3.085  0.00  0.00     0.036 H 
BRANCH 143 146
ATOM    146  CG  LYS d   1      53.716 -32.823  -1.660  0.00  0.00    -0.048 C 
ATOM    147  H18 LYS d   1      54.165 -33.582  -1.002  0.00  0.00     0.035 H 
ATOM    148  H19 LYS d   1      52.622 -32.939  -1.660  0.00  0.00     0.035 H 
BRANCH 146 149
ATOM    149  CD  LYS d   1      54.093 -31.419  -1.171  0.00  0.00     0.009 C 
ATOM    150  H20 LYS d   1      53.720 -30.678  -1.894  0.00  0.00     0.064 H 
ATOM    151  H21 LYS d   1      55.189 -31.348  -1.105  0.00  0.00     0.064 H 
BRANCH 149 152
ATOM    152  NE  LYS d   1      53.514 -31.124   0.156  0.00  0.00    -0.227 N 
ATOM    153  CZ  LYS d   1      52.325 -30.519   0.336  0.00  0.00     0.665 C 
ATOM    154  NH1 LYS d   1      51.877 -30.259   1.589  0.00  0.00    -0.235 N 
ATOM    155  NH2 LYS d   1      51.590 -30.171  -0.741  0.00  0.00    -0.235 N 
ATOM    156  H23 LYS d   1      50.967 -29.796   1.725  0.00  0.00     0.174 HD
ATOM    157  H24 LYS d   1      52.447 -30.524   2.405  0.00  0.00     0.174 HD
ATOM    158  H25 LYS d   1      51.938 -30.372  -1.689  0.00  0.00     0.174 HD
ATOM    159  H26 LYS d   1      50.681 -29.704  -0.615  0.00  0.00     0.174 HD
ATOM    160  H22 LYS d   1      54.051 -31.397   0.991  0.00  0.00     0.177 HD
ENDBRANCH 149 152
ENDBRANCH 146 149
ENDBRANCH 143 146
ENDBRANCH  10 143
BRANCH   1 161
ATOM    161  N   LYS d   1      56.059 -36.976  -7.124  0.00  0.00    -0.067 N 
ATOM    162  H1  LYS d   1      56.407 -37.011  -8.069  0.00  0.00     0.275 HD
ATOM    163  H2  LYS d   1      55.455 -37.766  -6.959  0.00  0.00     0.275 HD
ATOM    164  H3  LYS d   1      56.833 -37.005  -6.479  0.00  0.00     0.275 HD
ENDBRANCH   1 161
TORSDOF 18
