REMARK  24 active torsions:
REMARK  status: ('A' for Active; 'I' for Inactive)
REMARK    1  A    between atoms: CA_2  and  CB_5 
REMARK    2  A    between atoms: CB_5  and  CG_6 
REMARK    3  A    between atoms: CG_6  and  CD_7 
REMARK    4  A    between atoms: CD_7  and  NE_8 
REMARK       I    between atoms: NE_8  and  CZ_9 
REMARK       I    between atoms: CZ_9  and  NH1_10 
REMARK       I    between atoms: CZ_9  and  NH2_11 
REMARK    5  A    between atoms: CA_13  and  CB_16 
REMARK    6  A    between atoms: CB_16  and  CG_17 
REMARK    7  A    between atoms: CG_17  and  CD_18 
REMARK    8  A    between atoms: CD_18  and  NE_19 
REMARK       I    between atoms: NE_19  and  CZ_20 
REMARK       I    between atoms: CZ_20  and  NH1_21 
REMARK       I    between atoms: CZ_20  and  NH2_22 
REMARK    9  A    between atoms: CA_24  and  CB_27 
REMARK   10  A    between atoms: CB_27  and  CG_28 
REMARK   11  A    between atoms: CG_28  and  CD_29 
REMARK   12  A    between atoms: CD_29  and  NE_30 
REMARK       I    between atoms: NE_30  and  CZ_31 
REMARK       I    between atoms: CZ_31  and  NH1_32 
REMARK       I    between atoms: CZ_31  and  NH2_33 
REMARK   13  A    between atoms: CA_35  and  C_36 
REMARK       I    between atoms: C_36  and  N_43 
REMARK   14  A    between atoms: N_43  and  CA_44 
REMARK   15  A    between atoms: CA_44  and  C_45 
REMARK   16  A    between atoms: CA_44  and  CB_47 
REMARK       I    between atoms: C_45  and  N23_54 
REMARK   17  A    between atoms: CB_47  and  CG_48 
REMARK   18  A    between atoms: CG_48  and  CD_49 
REMARK   19  A    between atoms: CD_49  and  NE_50 
REMARK       I    between atoms: NE_50  and  CZ_51 
REMARK       I    between atoms: CZ_51  and  NH1_52 
REMARK       I    between atoms: CZ_51  and  NH2_53 
REMARK   20  A    between atoms: N23_54  and  C16_55 
REMARK   21  A    between atoms: C16_55  and  C17_56 
REMARK   22  A    between atoms: C24_59  and  C27_60 
REMARK   23  A    between atoms: C27_60  and  N35_61 
REMARK   24  A    between atoms: C27_60  and  N34_62 
ROOT
ATOM      1  N   ARG d   1      55.390 -35.579  -8.413  0.00  0.00    -0.348 N 
ATOM      2  CA  ARG d   1      54.849 -34.358  -7.781  0.00  0.00     0.089 C 
ATOM      3  C   ARG d   1      54.376 -34.677  -6.489  0.00  0.00     0.241 C 
ATOM      4  O   ARG d   1      54.034 -35.827  -6.182  0.00  0.00    -0.271 OA
ATOM      5  N   ARG d   1      54.288 -33.652  -5.546  0.00  0.00    -0.346 N 
ATOM      6  CA  ARG d   1      53.807 -33.856  -4.152  0.00  0.00     0.089 C 
ATOM      7  C   ARG d   1      52.459 -34.272  -4.148  0.00  0.00     0.241 C 
ATOM      8  O   ARG d   1      52.031 -35.036  -3.275  0.00  0.00    -0.271 OA
ATOM      9  N   ARG d   1      51.592 -33.840  -5.172  0.00  0.00    -0.346 N 
ATOM     10  CA  ARG d   1      50.163 -34.261  -5.250  0.00  0.00     0.089 C 
ATOM     11  C   ARG d   1      49.892 -34.715  -6.556  0.00  0.00     0.241 C 
ATOM     12  O   ARG d   1      50.395 -34.157  -7.531  0.00  0.00    -0.271 OA
ATOM     13  N   ARG d   1      49.072 -35.837  -6.768  0.00  0.00    -0.346 N 
ATOM     14  CA  ARG d   1      48.793 -36.379  -8.130  0.00  0.00     0.089 C 
ATOM     15  CB  ARG d   1      49.086 -37.878  -8.092  0.00  0.00    -0.038 C 
ATOM     16  CG  ARG d   1      50.503 -38.186  -7.606  0.00  0.00    -0.061 C 
ATOM     17  CD  ARG d   1      51.487 -38.172  -8.748  0.00  0.00    -0.050 C 
ATOM     18  CE  ARG d   1      52.648 -39.120  -8.413  0.00  0.00    -0.005 C 
ATOM     19  NZ  ARG d   1      53.666 -38.523  -7.515  0.00  0.00    -0.361 N 
ATOM     20  C1  ARG d   1      56.552 -36.190  -7.921  0.00  0.00     0.218 C 
ATOM     21  C2  ARG d   1      56.986 -37.373  -8.511  0.00  0.00     0.010 C 
ATOM     22  C3  ARG d   1      57.218 -38.430  -7.425  0.00  0.00    -0.049 C 
ATOM     23  C4  ARG d   1      55.933 -38.670  -6.609  0.00  0.00     0.010 C 
ATOM     24  C5  ARG d   1      54.913 -39.174  -7.432  0.00  0.00     0.217 C 
ATOM     25  O1  ARG d   1      57.150 -35.698  -6.961  0.00  0.00    -0.274 OA
ATOM     26  O5  ARG d   1      55.077 -40.204  -8.087  0.00  0.00    -0.274 OA
ATOM     27  H1  ARG d   1      54.921 -35.975  -9.202  0.00  0.00     0.163 HD
ATOM     28  H2  ARG d   1      55.645 -33.602  -7.707  0.00  0.00     0.087 H 
ATOM     29  H14 ARG d   1      54.563 -32.731  -5.822  0.00  0.00     0.163 HD
ATOM     30  H15 ARG d   1      54.413 -34.638  -3.671  0.00  0.00     0.087 H 
ATOM     31  H27 ARG d   1      51.950 -33.226  -5.875  0.00  0.00     0.163 HD
ATOM     32  H28 ARG d   1      50.002 -35.090  -4.545  0.00  0.00     0.087 H 
ATOM     33  H40 ARG d   1      48.660 -36.289  -5.976  0.00  0.00     0.163 HD
ATOM     34  H41 ARG d   1      49.422 -35.867  -8.873  0.00  0.00     0.087 H 
ATOM     35  H42 ARG d   1      48.964 -38.287  -9.106  0.00  0.00     0.036 H 
ATOM     36  H43 ARG d   1      48.368 -38.361  -7.413  0.00  0.00     0.036 H 
ATOM     37  H44 ARG d   1      50.513 -39.181  -7.136  0.00  0.00     0.033 H 
ATOM     38  H45 ARG d   1      50.801 -37.428  -6.866  0.00  0.00     0.033 H 
ATOM     39  H46 ARG d   1      51.873 -37.152  -8.891  0.00  0.00     0.035 H 
ATOM     40  H47 ARG d   1      50.989 -38.509  -9.669  0.00  0.00     0.035 H 
ATOM     41  H48 ARG d   1      53.141 -39.410  -9.352  0.00  0.00     0.064 H 
ATOM     42  H49 ARG d   1      52.236 -40.015  -7.924  0.00  0.00     0.064 H 
ATOM     43  H50 ARG d   1      53.475 -37.693  -6.990  0.00  0.00     0.162 HD
ATOM     44  H75 ARG d   1      57.926 -37.190  -9.051  0.00  0.00     0.047 H 
ATOM     45  H76 ARG d   1      56.222 -37.733  -9.216  0.00  0.00     0.047 H 
ATOM     46  H77 ARG d   1      58.014 -38.084  -6.750  0.00  0.00     0.034 H 
ATOM     47  H78 ARG d   1      57.525 -39.373  -7.900  0.00  0.00     0.034 H 
ATOM     48  H79 ARG d   1      55.603 -37.719  -6.166  0.00  0.00     0.047 H 
ATOM     49  H80 ARG d   1      56.143 -39.395  -5.808  0.00  0.00     0.047 H 
ENDROOT
BRANCH  14  50
ATOM     50  C   ARG d   1      47.436 -36.275  -8.486  0.00  0.00     0.241 C 
ATOM     51  O   ARG d   1      46.567 -36.316  -7.619  0.00  0.00    -0.271 OA
ATOM     52  N   ARG d   1      47.154 -36.197  -9.802  0.00  0.00    -0.346 N 
ATOM     53  H51 ARG d   1      47.907 -36.126 -10.456  0.00  0.00     0.163 HD
BRANCH  52  54
ATOM     54  CA  ARG d   1      45.767 -36.214 -10.306  0.00  0.00     0.089 C 
ATOM     55  H52 ARG d   1      45.192 -35.405  -9.832  0.00  0.00     0.087 H 
BRANCH  54  56
ATOM     56  C   ARG d   1      45.187 -37.578  -9.907  0.00  0.00     0.240 C 
ATOM     57  O   ARG d   1      45.869 -38.581 -10.080  0.00  0.00    -0.271 OA
ATOM     58  N23 ARG d   1      43.961 -37.611  -9.355  0.00  0.00    -0.355 N 
ATOM     59  H64 ARG d   1      43.441 -36.762  -9.262  0.00  0.00     0.162 HD
BRANCH  58  60
ATOM     60  C16 ARG d   1      43.368 -38.885  -8.882  0.00  0.00     0.019 C 
ATOM     61  H65 ARG d   1      43.901 -39.732  -9.338  0.00  0.00     0.071 H 
ATOM     62  H66 ARG d   1      42.306 -38.925  -9.165  0.00  0.00     0.071 H 
BRANCH  60  63
ATOM     63  C17 ARG d   1      43.489 -38.951  -7.459  0.00  0.00    -0.040 A 
ATOM     64  C22 ARG d   1      42.408 -38.686  -6.621  0.00  0.00    -0.074 A 
ATOM     65  C21 ARG d   1      42.540 -38.740  -5.227  0.00  0.00    -0.069 A 
ATOM     66  H67 ARG d   1      41.447 -38.434  -7.055  0.00  0.00     0.084 H 
ATOM     67  C24 ARG d   1      43.754 -39.066  -4.616  0.00  0.00     0.007 A 
ATOM     68  H68 ARG d   1      41.678 -38.523  -4.606  0.00  0.00     0.085 H 
ATOM     69  C19 ARG d   1      44.831 -39.327  -5.455  0.00  0.00    -0.069 A 
ATOM     70  C18 ARG d   1      44.702 -39.269  -6.851  0.00  0.00    -0.074 A 
ATOM     71  H73 ARG d   1      45.791 -39.581  -5.021  0.00  0.00     0.085 H 
ATOM     72  H74 ARG d   1      45.566 -39.477  -7.471  0.00  0.00     0.084 H 
BRANCH  67  73
ATOM     73  C27 ARG d   1      43.888 -39.119  -3.206  0.00  0.00     0.102 C 
BRANCH  73  74
ATOM     74  N35 ARG d   1      45.071 -39.414  -2.667  0.00  0.00    -0.385 N 
ATOM     75  H69 ARG d   1      45.175 -39.454  -1.643  0.00  0.00     0.157 HD
ATOM     76  H70 ARG d   1      45.881 -39.602  -3.275  0.00  0.00     0.157 HD
ENDBRANCH  73  74
BRANCH  73  77
ATOM     77  N34 ARG d   1      42.839 -38.820  -2.443  0.00  0.00    -0.385 N 
ATOM     78  H71 ARG d   1      41.933 -38.595  -2.878  0.00  0.00     0.157 HD
ATOM     79  H72 ARG d   1      42.933 -38.814  -1.417  0.00  0.00     0.157 HD
ENDBRANCH  73  77
ENDBRANCH  67  73
ENDBRANCH  60  63
ENDBRANCH  58  60
ENDBRANCH  54  56
BRANCH  54  80
ATOM     80  CB  ARG d   1      45.696 -36.046 -11.829  0.00  0.00    -0.036 C 
ATOM     81  H53 ARG d   1      44.646 -36.133 -12.144  0.00  0.00     0.036 H 
ATOM     82  H54 ARG d   1      46.287 -36.846 -12.299  0.00  0.00     0.036 H 
BRANCH  80  83
ATOM     83  CG  ARG d   1      46.239 -34.691 -12.303  0.00  0.00    -0.048 C 
ATOM     84  H55 ARG d   1      47.172 -34.453 -11.771  0.00  0.00     0.035 H 
ATOM     85  H56 ARG d   1      45.497 -33.901 -12.114  0.00  0.00     0.035 H 
BRANCH  83  86
ATOM     86  CD  ARG d   1      46.510 -34.807 -13.812  0.00  0.00     0.009 C 
ATOM     87  H57 ARG d   1      45.588 -35.130 -14.317  0.00  0.00     0.064 H 
ATOM     88  H58 ARG d   1      47.300 -35.554 -13.977  0.00  0.00     0.064 H 
BRANCH  86  89
ATOM     89  NE  ARG d   1      46.942 -33.519 -14.382  0.00  0.00    -0.227 N 
ATOM     90  CZ  ARG d   1      48.205 -33.074 -14.297  0.00  0.00     0.665 C 
ATOM     91  NH1 ARG d   1      48.548 -31.895 -14.840  0.00  0.00    -0.235 N 
ATOM     92  NH2 ARG d   1      49.122 -33.802 -13.645  0.00  0.00    -0.235 N 
ATOM     93  H60 ARG d   1      49.519 -31.559 -14.771  0.00  0.00     0.174 HD
ATOM     94  H61 ARG d   1      47.840 -31.326 -15.325  0.00  0.00     0.174 HD
ATOM     95  H62 ARG d   1      48.860 -34.707 -13.228  0.00  0.00     0.174 HD
ATOM     96  H63 ARG d   1      50.089 -33.457 -13.561  0.00  0.00     0.174 HD
ATOM     97  H59 ARG d   1      46.245 -32.935 -14.866  0.00  0.00     0.177 HD
ENDBRANCH  86  89
ENDBRANCH  83  86
ENDBRANCH  80  83
ENDBRANCH  54  80
ENDBRANCH  52  54
ENDBRANCH  14  50
BRANCH  10  98
ATOM     98  CB  ARG d   1      49.214 -33.112  -4.870  0.00  0.00    -0.036 C 
ATOM     99  H29 ARG d   1      48.175 -33.473  -4.904  0.00  0.00     0.036 H 
ATOM    100  H30 ARG d   1      49.339 -32.286  -5.586  0.00  0.00     0.036 H 
BRANCH  98 101
ATOM    101  CG  ARG d   1      49.529 -32.603  -3.447  0.00  0.00    -0.048 C 
ATOM    102  H31 ARG d   1      49.034 -31.633  -3.292  0.00  0.00     0.035 H 
ATOM    103  H32 ARG d   1      50.617 -32.481  -3.339  0.00  0.00     0.035 H 
BRANCH 101 104
ATOM    104  CD  ARG d   1      49.022 -33.607  -2.389  0.00  0.00     0.009 C 
ATOM    105  H33 ARG d   1      49.523 -34.573  -2.549  0.00  0.00     0.064 H 
ATOM    106  H34 ARG d   1      47.936 -33.733  -2.512  0.00  0.00     0.064 H 
BRANCH 104 107
ATOM    107  NE  ARG d   1      49.295 -33.152  -1.009  0.00  0.00    -0.227 N 
ATOM    108  CZ  ARG d   1      50.173 -33.737  -0.160  0.00  0.00     0.665 C 
ATOM    109  NH1 ARG d   1      50.308 -33.287   1.107  0.00  0.00    -0.235 N 
ATOM    110  NH2 ARG d   1      50.904 -34.790  -0.555  0.00  0.00    -0.235 N 
ATOM    111  H36 ARG d   1      50.978 -33.739   1.745  0.00  0.00     0.174 HD
ATOM    112  H37 ARG d   1      49.740 -32.492   1.435  0.00  0.00     0.174 HD
ATOM    113  H38 ARG d   1      50.815 -35.147  -1.517  0.00  0.00     0.174 HD
ATOM    114  H39 ARG d   1      51.555 -35.241   0.104  0.00  0.00     0.174 HD
ATOM    115  H35 ARG d   1      48.779 -32.328  -0.668  0.00  0.00     0.177 HD
ENDBRANCH 104 107
ENDBRANCH 101 104
ENDBRANCH  98 101
ENDBRANCH  10  98
BRANCH   6 116
ATOM    116  CB  ARG d   1      54.000 -32.538  -3.393  0.00  0.00    -0.036 C 
ATOM    117  H16 ARG d   1      53.464 -31.741  -3.929  0.00  0.00     0.036 H 
ATOM    118  H17 ARG d   1      55.074 -32.302  -3.364  0.00  0.00     0.036 H 
BRANCH 116 119
ATOM    119  CG  ARG d   1      53.466 -32.603  -1.935  0.00  0.00    -0.048 C 
ATOM    120  H18 ARG d   1      53.746 -33.562  -1.476  0.00  0.00     0.035 H 
ATOM    121  H19 ARG d   1      52.371 -32.501  -1.932  0.00  0.00     0.035 H 
BRANCH 119 122
ATOM    122  CD  ARG d   1      54.100 -31.446  -1.155  0.00  0.00     0.009 C 
ATOM    123  H20 ARG d   1      54.017 -30.533  -1.763  0.00  0.00     0.064 H 
ATOM    124  H21 ARG d   1      55.162 -31.681  -0.991  0.00  0.00     0.064 H 
BRANCH 122 125
ATOM    125  NE  ARG d   1      53.474 -31.187   0.158  0.00  0.00    -0.227 N 
ATOM    126  CZ  ARG d   1      52.288 -30.571   0.361  0.00  0.00     0.665 C 
ATOM    127  NH1 ARG d   1      51.850 -30.340   1.624  0.00  0.00    -0.235 N 
ATOM    128  NH2 ARG d   1      51.549 -30.179  -0.688  0.00  0.00    -0.235 N 
ATOM    129  H23 ARG d   1      50.946 -29.871   1.778  0.00  0.00     0.174 HD
ATOM    130  H24 ARG d   1      52.421 -30.634   2.429  0.00  0.00     0.174 HD
ATOM    131  H25 ARG d   1      51.882 -30.355  -1.647  0.00  0.00     0.174 HD
ATOM    132  H26 ARG d   1      50.649 -29.703  -0.534  0.00  0.00     0.174 HD
ATOM    133  H22 ARG d   1      53.987 -31.504   0.993  0.00  0.00     0.177 HD
ENDBRANCH 122 125
ENDBRANCH 119 122
ENDBRANCH 116 119
ENDBRANCH   6 116
BRANCH   2 134
ATOM    134  CB  ARG d   1      53.691 -33.797  -8.611  0.00  0.00    -0.036 C 
ATOM    135  H3  ARG d   1      53.194 -32.996  -8.043  0.00  0.00     0.036 H 
ATOM    136  H4  ARG d   1      52.971 -34.602  -8.816  0.00  0.00     0.036 H 
BRANCH 134 137
ATOM    137  CG  ARG d   1      54.203 -33.228  -9.941  0.00  0.00    -0.048 C 
ATOM    138  H5  ARG d   1      53.449 -33.385 -10.726  0.00  0.00     0.035 H 
ATOM    139  H6  ARG d   1      55.139 -33.732 -10.225  0.00  0.00     0.035 H 
BRANCH 137 140
ATOM    140  CD  ARG d   1      54.458 -31.729  -9.761  0.00  0.00     0.009 C 
ATOM    141  H7  ARG d   1      55.437 -31.586  -9.281  0.00  0.00     0.064 H 
ATOM    142  H8  ARG d   1      53.670 -31.305  -9.121  0.00  0.00     0.064 H 
BRANCH 140 143
ATOM    143  NE  ARG d   1      54.452 -31.029 -11.059  0.00  0.00    -0.227 N 
ATOM    144  CZ  ARG d   1      55.401 -30.149 -11.424  0.00  0.00     0.665 C 
ATOM    145  NH1 ARG d   1      55.324 -29.529 -12.606  0.00  0.00    -0.235 N 
ATOM    146  NH2 ARG d   1      56.422 -29.876 -10.594  0.00  0.00    -0.235 N 
ATOM    147  H10 ARG d   1      56.053 -28.855 -12.883  0.00  0.00     0.174 HD
ATOM    148  H11 ARG d   1      54.536 -29.725 -13.240  0.00  0.00     0.174 HD
ATOM    149  H12 ARG d   1      56.486 -30.351  -9.682  0.00  0.00     0.174 HD
ATOM    150  H13 ARG d   1      57.141 -29.192 -10.870  0.00  0.00     0.174 HD
ATOM    151  H9  ARG d   1      53.684 -31.223 -11.717  0.00  0.00     0.177 HD
ENDBRANCH 140 143
ENDBRANCH 137 140
ENDBRANCH 134 137
ENDBRANCH   2 134
TORSDOF 24
