REMARK  5 active torsions:
REMARK  status: ('A' for Active; 'I' for Inactive)
REMARK    1  A    between atoms: C_6  and  C1_1 
REMARK    2  A    between atoms: C1_1  and  C2_7 
REMARK    3  A    between atoms: C3_2  and  C4_4 
REMARK    4  A    between atoms: C3_2  and  C_6 
REMARK    5  A    between atoms: C4_4  and  N_5 
ROOT
ATOM      1  C3  FVT d   1      19.011   2.691  32.752  0.00  0.00     0.152 C 
ATOM      2  O2  FVT d   1      18.643   3.795  32.408  0.00  0.00    -0.296 OA
ENDROOT
BRANCH   1   3
ATOM      3  C4  FVT d   1      18.205   1.449  32.424  0.00  0.00     0.134 C 
ATOM      4  H3  FVT d   1      18.299   0.747  33.266  0.00  0.00     0.087 H 
ATOM      5  H4  FVT d   1      18.631   0.994  31.518  0.00  0.00     0.087 H 
BRANCH   3   6
ATOM      6  N   FVT d   1      16.791   1.687  32.189  0.00  0.00    -0.073 N 
ATOM      7  H5  FVT d   1      16.334   0.814  31.979  0.00  0.00     0.274 HD
ATOM      8  H6  FVT d   1      16.681   2.319  31.412  0.00  0.00     0.274 HD
ATOM      9  H7  FVT d   1      16.377   2.093  33.013  0.00  0.00     0.274 HD
ENDBRANCH   3   6
ENDBRANCH   1   3
BRANCH   1  10
ATOM     10  C   FVT d   1      20.290   2.503  33.526  0.00  0.00     0.001 C 
ATOM     11  H8  FVT d   1      20.367   3.296  34.284  0.00  0.00     0.045 H 
ATOM     12  H9  FVT d   1      20.264   1.522  34.023  0.00  0.00     0.045 H 
BRANCH  10  13
ATOM     13  C1  FVT d   1      21.510   2.565  32.624  0.00  0.00     0.022 C 
ATOM     14  H1  FVT d   1      21.306   3.280  31.813  0.00  0.00     0.049 H 
ATOM     15  H2  FVT d   1      21.679   1.565  32.198  0.00  0.00     0.049 H 
BRANCH  13  16
ATOM     16  C2  FVT d   1      22.762   2.996  33.333  0.00  0.00     0.172 C 
ATOM     17  O   FVT d   1      23.297   4.071  33.135  0.00  0.00    -0.648 OA
ATOM     18  O1  FVT d   1      23.233   2.099  34.164  0.00  0.00    -0.648 OA
ENDBRANCH  13  16
ENDBRANCH  10  13
ENDBRANCH   1  10
TORSDOF 5
