REMARK  4 active torsions:
REMARK  status: ('A' for Active; 'I' for Inactive)
REMARK    1  A    between atoms: N8_16  and  C7_5 
REMARK    2  A    between atoms: N16_20  and  C19_11 
REMARK    3  A    between atoms: C23_13  and  C25_23 
REMARK    4  A    between atoms: N8_16  and  C9_17 
ROOT
ATOM      1  C25 GYQ d   1       4.790  51.747   2.397  0.00  0.00     0.018 C 
ATOM      2  C26 GYQ d   1       3.690  51.448   1.479  0.00  0.00     0.059 C 
ATOM      3  N27 GYQ d   1       2.804  51.179   0.802  0.00  0.00    -0.197 NA
ATOM      4  H14 GYQ d   1       4.388  51.904   3.409  0.00  0.00     0.055 H 
ATOM      5  H15 GYQ d   1       5.494  50.902   2.409  0.00  0.00     0.055 H 
ENDROOT
BRANCH   1   6
ATOM      6  C23 GYQ d   1       5.533  53.028   1.936  0.00  0.00    -0.042 C 
ATOM      7  C22 GYQ d   1       6.110  52.808   0.527  0.00  0.00    -0.059 C 
ATOM      8  C21 GYQ d   1       6.979  54.008   0.146  0.00  0.00    -0.045 C 
ATOM      9  H12 GYQ d   1       6.721  51.894   0.519  0.00  0.00     0.033 H 
ATOM     10  H13 GYQ d   1       5.287  52.706  -0.196  0.00  0.00     0.033 H 
ATOM     11  C19 GYQ d   1       8.160  54.050   1.118  0.00  0.00     0.023 C 
ATOM     12  H7  GYQ d   1       7.345  53.894  -0.885  0.00  0.00     0.036 H 
ATOM     13  H8  GYQ d   1       6.394  54.936   0.226  0.00  0.00     0.036 H 
ATOM     14  C29 GYQ d   1       7.635  54.394   2.514  0.00  0.00    -0.045 C 
ATOM     15  H6  GYQ d   1       8.601  53.044   1.178  0.00  0.00     0.073 H 
ATOM     16  C28 GYQ d   1       6.696  53.217   2.948  0.00  0.00    -0.059 C 
ATOM     17  H18 GYQ d   1       7.070  55.337   2.484  0.00  0.00     0.036 H 
ATOM     18  H19 GYQ d   1       8.473  54.490   3.220  0.00  0.00     0.036 H 
ATOM     19  H16 GYQ d   1       7.284  52.288   2.998  0.00  0.00     0.033 H 
ATOM     20  H17 GYQ d   1       6.276  53.439   3.940  0.00  0.00     0.033 H 
ATOM     21  H9  GYQ d   1       4.860  53.898   1.940  0.00  0.00     0.041 H 
BRANCH  11  22
ATOM     22  N16 GYQ d   1       9.184  54.934   0.571  0.00  0.00    -0.277 N 
ATOM     23  C17 GYQ d   1       9.068  56.275   0.237  0.00  0.00     0.181 A 
ATOM     24  C12 GYQ d   1      10.319  56.645  -0.314  0.00  0.00     0.102 A 
ATOM     25  N18 GYQ d   1       8.096  57.196   0.309  0.00  0.00    -0.042 NA
ATOM     26  C11 GYQ d   1      10.497  57.942  -0.770  0.00  0.00     0.051 A 
ATOM     27  N13 GYQ d   1      11.129  55.521  -0.287  0.00  0.00    -0.304 N 
ATOM     28  N10 GYQ d   1       9.491  58.794  -0.658  0.00  0.00    -0.073 NA
ATOM     29  H4  GYQ d   1      11.439  58.251  -1.208  0.00  0.00     0.119 H 
ATOM     30  C9  GYQ d   1       8.315  58.441  -0.123  0.00  0.00     0.729 A 
ATOM     31  C14 GYQ d   1      10.422  54.510   0.233  0.00  0.00     0.329 A 
ATOM     32  H5  GYQ d   1      12.077  55.473  -0.601  0.00  0.00     0.171 HD
ATOM     33  O15 GYQ d   1      10.857  53.386   0.380  0.00  0.00    -0.246 OA
BRANCH  30  34
ATOM     34  N8  GYQ d   1       7.389  59.473  -0.092  0.00  0.00    -0.182 N 
ATOM     35  H11 GYQ d   1       7.679  60.332  -0.581  0.00  0.00     0.184 HD
BRANCH  34  36
ATOM     36  C7  GYQ d   1       6.115  59.531   0.503  0.00  0.00     0.117 A 
ATOM     37  C2  GYQ d   1       5.508  60.806   0.512  0.00  0.00     0.272 A 
ATOM     38  O1  GYQ d   1       6.093  61.770   0.036  0.00  0.00    -0.266 OA
ATOM     39  N3  GYQ d   1       4.284  60.973   1.050  0.00  0.00    -0.332 N 
ATOM     40  C4  GYQ d   1       3.606  59.926   1.582  0.00  0.00    -0.020 A 
ATOM     41  H10 GYQ d   1       3.869  61.883   1.057  0.00  0.00     0.168 HD
ATOM     42  C5  GYQ d   1       4.144  58.686   1.593  0.00  0.00    -0.066 A 
ATOM     43  H1  GYQ d   1       2.616  60.086   2.006  0.00  0.00     0.111 H 
ATOM     44  C6  GYQ d   1       5.420  58.472   1.046  0.00  0.00    -0.050 A 
ATOM     45  H2  GYQ d   1       3.589  57.855   2.025  0.00  0.00     0.085 H 
ATOM     46  H3  GYQ d   1       5.858  57.475   1.051  0.00  0.00     0.087 H 
ENDBRANCH  34  36
ENDBRANCH  30  34
ENDBRANCH  11  22
ENDBRANCH   1   6
TORSDOF 4
