REMARK  5 active torsions:
REMARK  status: ('A' for Active; 'I' for Inactive)
REMARK    1  A    between atoms: C12_8  and  C7_6 
REMARK    2  A    between atoms: C22_18  and  C23_12 
REMARK    3  A    between atoms: C23_12  and  O24_19 
REMARK    4  A    between atoms: N18_17  and  C22_18 
REMARK    5  A    between atoms: N20_22  and  C25_23 
ROOT
ATOM      1  C2  GYW d   1      10.212  26.066   0.001  0.00  0.00     0.134 A 
ATOM      2  C3  GYW d   1       8.770  26.740   1.740  0.00  0.00     0.007 A 
ATOM      3  C4  GYW d   1       9.725  27.026  -0.858  0.00  0.00    -0.037 A 
ATOM      4  C5  GYW d   1       8.250  27.723   0.907  0.00  0.00     0.060 A 
ATOM      5  C6  GYW d   1       8.729  27.868  -0.388  0.00  0.00    -0.058 A 
ATOM      6  C7  GYW d   1      10.405  24.929   1.814  0.00  0.00     0.106 A 
ATOM      7  C8  GYW d   1      11.305  24.447   0.886  0.00  0.00     0.035 A 
ATOM      8  N1  GYW d   1       9.743  25.942   1.248  0.00  0.00    -0.301 N 
ATOM      9  N9  GYW d   1      11.171  25.166  -0.244  0.00  0.00    -0.240 NA
ATOM     10  C10 GYW d   1       7.222  28.599   1.362  0.00  0.00     0.101 C 
ATOM     11  N11 GYW d   1       6.385  29.314   1.726  0.00  0.00    -0.191 NA
ATOM     12  H1  GYW d   1       8.405  26.616   2.758  0.00  0.00     0.114 H 
ATOM     13  H2  GYW d   1      10.109  27.120  -1.873  0.00  0.00     0.089 H 
ATOM     14  H3  GYW d   1       8.322  28.644  -1.035  0.00  0.00     0.086 H 
ATOM     15  H4  GYW d   1      12.004  23.626   1.041  0.00  0.00     0.118 H 
ENDROOT
BRANCH   6  16
ATOM     16  C12 GYW d   1      10.285  24.387   3.181  0.00  0.00     0.180 A 
ATOM     17  N14 GYW d   1      10.920  23.200   3.539  0.00  0.00    -0.237 NA
ATOM     18  C13 GYW d   1      10.821  22.692   4.826  0.00  0.00     0.034 A 
ATOM     19  C15 GYW d   1      10.081  23.398   5.761  0.00  0.00     0.103 A 
ATOM     20  H14 GYW d   1      11.312  21.763   5.094  0.00  0.00     0.118 H 
ATOM     21  C16 GYW d   1       9.469  24.572   5.406  0.00  0.00     0.165 A 
ATOM     22  N18 GYW d   1       9.834  23.115   7.123  0.00  0.00    -0.292 N 
ATOM     23  N20 GYW d   1       8.786  25.113   6.510  0.00  0.00    -0.277 N 
ATOM     24  N17 GYW d   1       9.557  25.087   4.132  0.00  0.00    -0.207 NA
ATOM     25  C19 GYW d   1       9.040  24.187   7.516  0.00  0.00     0.331 A 
ATOM     26  O21 GYW d   1       8.601  24.312   8.639  0.00  0.00    -0.246 OA
BRANCH  23  27
ATOM     27  C25 GYW d   1       7.965  26.327   6.692  0.00  0.00     0.027 C 
ATOM     28  C30 GYW d   1       8.807  27.558   6.364  0.00  0.00    -0.026 C 
ATOM     29  C29 GYW d   1       7.906  28.795   6.450  0.00  0.00     0.021 C 
ATOM     30  H9  GYW d   1       9.218  27.467   5.348  0.00  0.00     0.039 H 
ATOM     31  H10 GYW d   1       9.632  27.648   7.086  0.00  0.00     0.039 H 
ATOM     32  O28 GYW d   1       6.852  28.684   5.493  0.00  0.00    -0.391 OA
ATOM     33  H16 GYW d   1       7.478  28.867   7.461  0.00  0.00     0.074 H 
ATOM     34  H17 GYW d   1       8.500  29.696   6.239  0.00  0.00     0.074 H 
ATOM     35  C27 GYW d   1       5.975  27.594   5.790  0.00  0.00     0.021 C 
ATOM     36  C26 GYW d   1       6.739  26.258   5.763  0.00  0.00    -0.026 C 
ATOM     37  H7  GYW d   1       5.169  27.564   5.042  0.00  0.00     0.074 H 
ATOM     38  H8  GYW d   1       5.541  27.742   6.790  0.00  0.00     0.074 H 
ATOM     39  H18 GYW d   1       7.073  26.051   4.736  0.00  0.00     0.039 H 
ATOM     40  H19 GYW d   1       6.072  25.451   6.101  0.00  0.00     0.039 H 
ATOM     41  H15 GYW d   1       7.626  26.387   7.737  0.00  0.00     0.073 H 
ENDBRANCH  23  27
BRANCH  22  42
ATOM     42  C22 GYW d   1      10.252  21.976   7.970  0.00  0.00     0.024 C 
ATOM     43  H11 GYW d   1      10.107  22.266   9.021  0.00  0.00     0.068 H 
ATOM     44  H12 GYW d   1       9.601  21.122   7.732  0.00  0.00     0.068 H 
BRANCH  42  45
ATOM     45  C23 GYW d   1      11.710  21.517   7.805  0.00  0.00     0.032 C 
ATOM     46  H5  GYW d   1      11.796  20.931   6.878  0.00  0.00     0.076 H 
ATOM     47  H6  GYW d   1      11.984  20.886   8.664  0.00  0.00     0.076 H 
BRANCH  45  48
ATOM     48  O24 GYW d   1      12.609  22.618   7.738  0.00  0.00    -0.399 OA
ATOM     49  H13 GYW d   1      12.546  23.126   8.538  0.00  0.00     0.209 HD
ENDBRANCH  45  48
ENDBRANCH  42  45
ENDBRANCH  22  42
ENDBRANCH   6  16
TORSDOF 5
