REMARK  12 active torsions:
REMARK  status: ('A' for Active; 'I' for Inactive)
REMARK    1  A    between atoms: N15_32  and  C14_12 
REMARK    2  A    between atoms: C17_14  and  C16_13 
REMARK    3  A    between atoms: C16_13  and  N15_32 
REMARK    4  A    between atoms: C18_15  and  C17_14 
REMARK    5  A    between atoms: C19_16  and  C18_15 
REMARK    6  A    between atoms: C20_17  and  C19_16 
REMARK    7  A    between atoms: C21_18  and  C20_17 
REMARK    8  A    between atoms: N22_33  and  C21_18 
REMARK    9  A    between atoms: C23_19  and  C24_20 
REMARK       I    between atoms: C23_19  and  N22_33 
REMARK   10  A    between atoms: C24_20  and  C26_21 
REMARK   11  A    between atoms: C24_20  and  N25_34 
REMARK   12  A    between atoms: C26_21  and  C27_22 
ROOT
ATOM      1  C19 GZ5 d   1     135.045 109.398  41.450  0.00  0.00    -0.064 C 
ATOM      2  H13 GZ5 d   1     134.673 108.743  40.648  0.00  0.00     0.033 H 
ATOM      3  H14 GZ5 d   1     134.522 109.162  42.389  0.00  0.00     0.033 H 
ENDROOT
BRANCH   1   4
ATOM      4  C18 GZ5 d   1     134.702 110.856  41.069  0.00  0.00    -0.064 C 
ATOM      5  H11 GZ5 d   1     134.546 111.425  41.998  0.00  0.00     0.033 H 
ATOM      6  H12 GZ5 d   1     135.558 111.277  40.521  0.00  0.00     0.033 H 
BRANCH   4   7
ATOM      7  C17 GZ5 d   1     133.425 111.018  40.178  0.00  0.00    -0.050 C 
ATOM      8  H9  GZ5 d   1     133.422 110.201  39.441  0.00  0.00     0.035 H 
ATOM      9  H10 GZ5 d   1     132.544 110.927  40.831  0.00  0.00     0.035 H 
BRANCH   7  10
ATOM     10  C16 GZ5 d   1     133.309 112.344  39.412  0.00  0.00    -0.007 C 
ATOM     11  H7  GZ5 d   1     133.290 112.117  38.336  0.00  0.00     0.063 H 
ATOM     12  H8  GZ5 d   1     134.197 112.951  39.643  0.00  0.00     0.063 H 
BRANCH  10  13
ATOM     13  N15 GZ5 d   1     132.144 113.121  39.725  0.00  0.00    -0.388 N 
ATOM     14  H28 GZ5 d   1     131.285 112.899  39.203  0.00  0.00     0.159 HD
BRANCH  13  15
ATOM     15  C14 GZ5 d   1     132.057 114.166  40.683  0.00  0.00     0.053 A 
ATOM     16  C05 GZ5 d   1     131.364 113.926  41.929  0.00  0.00     0.020 A 
ATOM     17  C04 GZ5 d   1     130.768 112.706  42.268  0.00  0.00    -0.067 A 
ATOM     18  C06 GZ5 d   1     131.291 114.985  42.870  0.00  0.00     0.071 A 
ATOM     19  C03 GZ5 d   1     130.133 112.511  43.459  0.00  0.00    -0.061 A 
ATOM     20  H2  GZ5 d   1     130.813 111.887  41.559  0.00  0.00     0.085 H 
ATOM     21  C02 GZ5 d   1     130.062 113.579  44.357  0.00  0.00     0.036 A 
ATOM     22  H1  GZ5 d   1     129.694 111.550  43.703  0.00  0.00     0.086 H 
ATOM     23  C37 GZ5 d   1     130.614 114.776  44.103  0.00  0.00    -0.033 A 
ATOM     24 CL   GZ5 d   1     129.243 113.323  45.822  0.00  0.00    -0.084 Cl
ATOM     25  H27 GZ5 d   1     130.544 115.576  44.831  0.00  0.00     0.089 H 
ATOM     26  N07 GZ5 d   1     131.845 116.238  42.634  0.00  0.00    -0.247 NA
ATOM     27  C08 GZ5 d   1     132.469 116.450  41.484  0.00  0.00     0.070 A 
ATOM     28  C09 GZ5 d   1     133.051 117.828  41.343  0.00  0.00    -0.054 C 
ATOM     29  C13 GZ5 d   1     132.604 115.436  40.462  0.00  0.00     0.020 A 
ATOM     30  C10 GZ5 d   1     133.917 118.079  40.125  0.00  0.00    -0.081 C 
ATOM     31  H3  GZ5 d   1     132.861 118.604  42.076  0.00  0.00     0.087 H 
ATOM     32  C11 GZ5 d   1     133.397 117.300  38.917  0.00  0.00    -0.082 C 
ATOM     33  H4  GZ5 d   1     134.788 118.724  40.112  0.00  0.00     0.083 H 
ATOM     34  C12 GZ5 d   1     133.325 115.791  39.213  0.00  0.00    -0.069 C 
ATOM     35  H5  GZ5 d   1     133.115 117.752  37.973  0.00  0.00     0.083 H 
ATOM     36  H6  GZ5 d   1     133.766 115.046  38.561  0.00  0.00     0.085 H 
ENDBRANCH  13  15
ENDBRANCH  10  13
ENDBRANCH   7  10
ENDBRANCH   4   7
ENDBRANCH   1   4
BRANCH   1  37
ATOM     37  C20 GZ5 d   1     136.522 109.100  41.650  0.00  0.00    -0.050 C 
ATOM     38  H15 GZ5 d   1     136.633 108.604  42.626  0.00  0.00     0.035 H 
ATOM     39  H16 GZ5 d   1     137.058 110.061  41.664  0.00  0.00     0.035 H 
BRANCH  37  40
ATOM     40  C21 GZ5 d   1     137.204 108.192  40.576  0.00  0.00    -0.005 C 
ATOM     41  H17 GZ5 d   1     136.708 107.210  40.560  0.00  0.00     0.064 H 
ATOM     42  H18 GZ5 d   1     138.267 108.062  40.830  0.00  0.00     0.064 H 
BRANCH  40  43
ATOM     43  N22 GZ5 d   1     137.091 108.821  39.238  0.00  0.00    -0.359 N 
ATOM     44  C23 GZ5 d   1     138.101 109.410  38.392  0.00  0.00     0.248 C 
ATOM     45  O36 GZ5 d   1     137.765 109.877  37.315  0.00  0.00    -0.271 OA
ATOM     46  H29 GZ5 d   1     136.165 108.840  38.861  0.00  0.00     0.162 HD
BRANCH  44  47
ATOM     47  C24 GZ5 d   1     139.685 109.482  38.802  0.00  0.00     0.179 C 
ATOM     48  H19 GZ5 d   1     140.207 108.687  38.250  0.00  0.00     0.099 H 
BRANCH  47  49
ATOM     49  C26 GZ5 d   1     140.300 110.847  38.434  0.00  0.00    -0.004 C 
ATOM     50  H20 GZ5 d   1     139.943 111.145  37.437  0.00  0.00     0.044 H 
ATOM     51  H21 GZ5 d   1     141.396 110.755  38.419  0.00  0.00     0.044 H 
BRANCH  49  52
ATOM     52  C27 GZ5 d   1     139.906 111.913  39.440  0.00  0.00    -0.028 A 
ATOM     53  C28 GZ5 d   1     140.709 112.373  40.476  0.00  0.00    -0.015 A 
ATOM     54  N29 GZ5 d   1     140.053 113.346  41.237  0.00  0.00    -0.365 N 
ATOM     55  H22 GZ5 d   1     141.721 112.021  40.671  0.00  0.00     0.112 H 
ATOM     56  C30 GZ5 d   1     138.789 113.537  40.700  0.00  0.00     0.042 A 
ATOM     57  H33 GZ5 d   1     140.442 113.836  42.055  0.00  0.00     0.165 HD
ATOM     58  C31 GZ5 d   1     138.662 112.648  39.569  0.00  0.00    -0.002 A 
ATOM     59  C35 GZ5 d   1     137.769 114.418  41.121  0.00  0.00    -0.056 A 
ATOM     60  C32 GZ5 d   1     137.454 112.673  38.863  0.00  0.00    -0.070 A 
ATOM     61  C33 GZ5 d   1     136.457 113.545  39.264  0.00  0.00    -0.082 A 
ATOM     62  H23 GZ5 d   1     137.301 112.018  38.013  0.00  0.00     0.084 H 
ATOM     63  C34 GZ5 d   1     136.600 114.409  40.387  0.00  0.00    -0.081 A 
ATOM     64  H24 GZ5 d   1     135.531 113.571  38.701  0.00  0.00     0.083 H 
ATOM     65  H25 GZ5 d   1     135.784 115.065  40.668  0.00  0.00     0.083 H 
ATOM     66  H26 GZ5 d   1     137.898 115.069  41.978  0.00  0.00     0.086 H 
ENDBRANCH  49  52
ENDBRANCH  47  49
BRANCH  47  67
ATOM     67  N25 GZ5 d   1     139.949 109.311  40.233  0.00  0.00    -0.066 N 
ATOM     68  H30 GZ5 d   1     139.569 108.430  40.542  0.00  0.00     0.275 HD
ATOM     69  H31 GZ5 d   1     139.515 110.062  40.747  0.00  0.00     0.275 HD
ATOM     70  H32 GZ5 d   1     140.944 109.324  40.395  0.00  0.00     0.275 HD
ENDBRANCH  47  67
ENDBRANCH  44  47
ENDBRANCH  40  43
ENDBRANCH  37  40
ENDBRANCH   1  37
TORSDOF 12
