REMARK  3 active torsions:
REMARK  status: ('A' for Active; 'I' for Inactive)
REMARK    1  A    between atoms: C8_2  and  C3_4 
REMARK    2  A    between atoms: C2_5  and  C7_6 
REMARK    3  A    between atoms: C6_11  and  S_13 
ROOT
ATOM      1  C3  GZ8 d   1      11.020   1.420  10.898  0.00  0.00     0.057 A 
ATOM      2  C2  GZ8 d   1      10.901   1.285  12.293  0.00  0.00     0.059 A 
ATOM      3  C4  GZ8 d   1      11.615   0.378  10.196  0.00  0.00    -0.064 A 
ATOM      4  C5  GZ8 d   1      12.098  -0.745  10.842  0.00  0.00    -0.066 A 
ATOM      5  C6  GZ8 d   1      11.963  -0.847  12.212  0.00  0.00    -0.002 A 
ATOM      6  C1  GZ8 d   1      11.378   0.171  12.924  0.00  0.00    -0.049 A 
ATOM      7  H1  GZ8 d   1      11.702   0.448   9.118  0.00  0.00     0.085 H 
ATOM      8  H2  GZ8 d   1      12.578  -1.537  10.278  0.00  0.00     0.085 H 
ATOM      9  H3  GZ8 d   1      11.293   0.090  14.002  0.00  0.00     0.087 H 
ENDROOT
BRANCH   1  10
ATOM     10  C8  GZ8 d   1      10.374   2.561  10.169  0.00  0.00     0.210 C 
ATOM     11  O3  GZ8 d   1       9.347   3.055  10.677  0.00  0.00    -0.644 OA
ATOM     12  O4  GZ8 d   1      10.591   2.897   9.006  0.00  0.00    -0.644 OA
ENDBRANCH   1  10
BRANCH   2  13
ATOM     13  C7  GZ8 d   1      10.315   2.319  13.196  0.00  0.00     0.210 C 
ATOM     14  O2  GZ8 d   1       9.475   2.012  14.017  0.00  0.00    -0.644 OA
ATOM     15  O1  GZ8 d   1      10.740   3.505  13.153  0.00  0.00    -0.644 OA
ENDBRANCH   2  13
BRANCH   5  16
ATOM     16  S   GZ8 d   1      12.412  -2.208  13.110  0.00  0.00    -0.143 SA
ATOM     17  H4  GZ8 d   1      12.829  -2.891  12.497  0.00  0.00     0.107 HD
ENDBRANCH   5  16
TORSDOF 3
