REMARK  2 active torsions:
REMARK  status: ('A' for Active; 'I' for Inactive)
REMARK    1  A    between atoms: C7_2  and  C2_4 
REMARK    2  A    between atoms: C3_10  and  C8_11 
ROOT
ATOM      1  C2  QAS d   1      10.944   0.968  12.469  0.00  0.00     0.130 A 
ATOM      2  N1  QAS d   1      11.428  -0.109  13.042  0.00  0.00    -0.234 NA
ATOM      3  C6  QAS d   1      12.047  -1.069  12.359  0.00  0.00     0.123 A 
ATOM      4  S   QAS d   1      12.474  -2.395  13.341  0.00  0.00    -0.058 SA
ATOM      5  C5  QAS d   1      12.254  -0.995  10.986  0.00  0.00    -0.047 A 
ATOM      6  C4  QAS d   1      11.745   0.129  10.315  0.00  0.00    -0.080 A 
ATOM      7  C3  QAS d   1      11.101   1.141  11.029  0.00  0.00     0.096 A 
ATOM      8  H1  QAS d   1      12.790  -1.778  10.452  0.00  0.00     0.087 H 
ATOM      9  H2  QAS d   1      11.853   0.211   9.235  0.00  0.00     0.079 H 
ATOM     10  H3  QAS d   1      12.041   1.700  11.144  0.00  0.00     0.073 H 
ENDROOT
BRANCH   7  11
ATOM     11  C8  QAS d   1      10.430   2.319  10.388  0.00  0.00     0.187 C 
ATOM     12  O4  QAS d   1      10.689   2.673   9.231  0.00  0.00    -0.647 OA
ATOM     13  O3  QAS d   1       9.347   2.724  10.966  0.00  0.00    -0.647 OA
ENDBRANCH   7  11
BRANCH   1  14
ATOM     14  C7  QAS d   1      10.350   1.974  13.346  0.00  0.00     0.226 C 
ATOM     15  O1  QAS d   1      10.821   3.131  13.154  0.00  0.00    -0.643 OA
ATOM     16  O2  QAS d   1       9.524   1.672  14.219  0.00  0.00    -0.643 OA
ENDBRANCH   1  14
TORSDOF 2
