REMARK  3 active torsions:
REMARK  status: ('A' for Active; 'I' for Inactive)
REMARK    1  A    between atoms: C7_2  and  C2_4 
REMARK    2  A    between atoms: C5_7  and  S_8 
REMARK    3  A    between atoms: C3_10  and  C8_11 
ROOT
ATOM      1  C2  QAT d   1      11.191   1.128  11.179  0.00  0.00     0.149 A 
ATOM      2  N1  QAT d   1      11.953   0.289  10.469  0.00  0.00    -0.252 NA
ATOM      3  C6  QAT d   1      12.839  -0.509  11.058  0.00  0.00     0.019 A 
ATOM      4  C5  QAT d   1      13.015  -0.491  12.436  0.00  0.00     0.016 A 
ATOM      5  C4  QAT d   1      12.259   0.357  13.242  0.00  0.00    -0.046 A 
ATOM      6  C3  QAT d   1      11.336   1.184  12.648  0.00  0.00     0.077 A 
ATOM      7  H1  QAT d   1      13.433  -1.184  10.453  0.00  0.00     0.116 H 
ATOM      8  H3  QAT d   1      12.396   0.364  14.317  0.00  0.00     0.087 H 
ENDROOT
BRANCH   1   9
ATOM      9  C7  QAT d   1      10.218   1.978  10.436  0.00  0.00     0.230 C 
ATOM     10  O1  QAT d   1      10.402   2.137   9.216  0.00  0.00    -0.643 OA
ATOM     11  O2  QAT d   1       9.256   2.486  11.028  0.00  0.00    -0.643 OA
ENDBRANCH   1   9
BRANCH   6  12
ATOM     12  C8  QAT d   1      10.528   2.105  13.476  0.00  0.00     0.212 C 
ATOM     13  O4  QAT d   1       9.642   1.689  14.241  0.00  0.00    -0.644 OA
ATOM     14  O3  QAT d   1      10.794   3.307  13.373  0.00  0.00    -0.644 OA
ENDBRANCH   6  12
BRANCH   4  15
ATOM     15  S   QAT d   1      14.191  -1.517  13.145  0.00  0.00    -0.142 SA
ATOM     16  H2  QAT d   1      14.193  -1.384  14.144  0.00  0.00     0.107 HD
ENDBRANCH   4  15
TORSDOF 3
