REMARK  7 active torsions:
REMARK  status: ('A' for Active; 'I' for Inactive)
REMARK    1  A    between atoms: P_2  and  O5'_5 
REMARK    2  A    between atoms: O5'_5  and  C5'_6 
REMARK    3  A    between atoms: C5'_6  and  C4'_7 
REMARK    4  A    between atoms: C3'_9  and  O3'_10 
REMARK    5  A    between atoms: C2'_11  and  O2'_12 
REMARK    6  A    between atoms: C1'_13  and  N1_14 
REMARK    7  A    between atoms: C4_17  and  N4_21 
ROOT
ATOM      1  C4' C5P d   1     -25.310 -26.897   4.930  0.00  0.00     0.089 A 
ATOM      2  O4' C5P d   1     -24.277 -27.824   5.277  0.00  0.00    -0.353 OA
ATOM      3  C3' C5P d   1     -26.111 -27.495   3.784  0.00  0.00     0.091 A 
ATOM      4  C2' C5P d   1     -25.456 -28.832   3.462  0.00  0.00     0.105 A 
ATOM      5  C1' C5P d   1     -24.289 -28.975   4.428  0.00  0.00     0.141 A 
ATOM      6  H3  C5P d   1     -24.860 -25.948   4.602  0.00  0.00     0.090 H 
ATOM      7  H4  C5P d   1     -27.151 -27.665   4.100  0.00  0.00     0.091 H 
ATOM      8  H6  C5P d   1     -26.181 -29.643   3.623  0.00  0.00     0.093 H 
ATOM      9  H8  C5P d   1     -23.344 -29.036   3.868  0.00  0.00     0.123 H 
ENDROOT
BRANCH   5  10
ATOM     10  N1  C5P d   1     -24.460 -30.188   5.232  0.00  0.00    -0.280 N 
ATOM     11  C2  C5P d   1     -24.331 -31.455   4.627  0.00  0.00     0.330 A 
ATOM     12  N3  C5P d   1     -24.487 -32.578   5.362  0.00  0.00    -0.295 N 
ATOM     13  O2  C5P d   1     -24.073 -31.540   3.407  0.00  0.00    -0.246 OA
ATOM     14  C4  C5P d   1     -24.767 -32.497   6.680  0.00  0.00     0.103 A 
ATOM     15  H9  C5P d   1     -24.395 -33.474   4.927  0.00  0.00     0.172 HD
ATOM     16  C5  C5P d   1     -24.896 -31.254   7.289  0.00  0.00    -0.026 A 
ATOM     17  C6  C5P d   1     -24.737 -30.097   6.537  0.00  0.00    -0.010 A 
ATOM     18  H10 C5P d   1     -25.121 -31.188   8.352  0.00  0.00     0.091 H 
ATOM     19  H11 C5P d   1     -24.837 -29.120   7.008  0.00  0.00     0.112 H 
BRANCH  14  20
ATOM     20  N4  C5P d   1     -24.921 -33.628   7.410  0.00  0.00    -0.385 N 
ATOM     21  H12 C5P d   1     -25.135 -33.567   8.416  0.00  0.00     0.157 HD
ATOM     22  H13 C5P d   1     -24.824 -34.549   6.959  0.00  0.00     0.157 HD
ENDBRANCH  14  20
ENDBRANCH   5  10
BRANCH   4  23
ATOM     23  O2' C5P d   1     -24.976 -28.904   2.112  0.00  0.00    -0.388 OA
ATOM     24  H7  C5P d   1     -24.578 -29.754   1.963  0.00  0.00     0.210 HD
ENDBRANCH   4  23
BRANCH   1  25
ATOM     25  C5' C5P d   1     -26.192 -26.632   6.144  0.00  0.00     0.059 C 
ATOM     26  H1  C5P d   1     -27.189 -26.310   5.810  0.00  0.00     0.079 H 
ATOM     27  H2  C5P d   1     -26.284 -27.553   6.738  0.00  0.00     0.079 H 
BRANCH  25  28
ATOM     28  O5' C5P d   1     -25.604 -25.607   6.943  0.00  0.00    -0.280 OA
BRANCH  28  29
ATOM     29  P   C5P d   1     -25.361 -25.836   8.519  0.00  0.00     0.422 P 
ATOM     30  O3P C5P d   1     -26.200 -24.766   9.175  0.00  0.00    -0.617 OA
ATOM     31  O1P C5P d   1     -23.872 -25.651   8.688  0.00  0.00    -0.617 OA
ATOM     32  O2P C5P d   1     -25.846 -27.245   8.762  0.00  0.00    -0.617 OA
ENDBRANCH  28  29
ENDBRANCH  25  28
ENDBRANCH   1  25
BRANCH   3  33
ATOM     33  O3' C5P d   1     -26.111 -26.593   2.670  0.00  0.00    -0.390 OA
ATOM     34  H5  C5P d   1     -25.217 -26.443   2.385  0.00  0.00     0.210 HD
ENDBRANCH   3  33
TORSDOF 7
