REMARK  3 active torsions:
REMARK  status: ('A' for Active; 'I' for Inactive)
REMARK    1  A    between atoms: C7_4  and  C6_3 
REMARK    2  A    between atoms: C18_20  and  N17_19 
REMARK    3  A    between atoms: C18_20  and  C19_21 
ROOT
ATOM      1  C7  H28 d   1      -7.105  11.157  -1.243  0.00  0.00     0.034 C 
ATOM      2  C15 H28 d   1      -9.246  10.727  -0.135  0.00  0.00     0.133 A 
ATOM      3  C22 H28 d   1      -7.224  11.920   0.099  0.00  0.00     0.245 A 
ATOM      4  C26 H28 d   1      -5.622  13.219   1.189  0.00  0.00     0.045 A 
ATOM      5  C28 H28 d   1      -4.959  15.478   0.691  0.00  0.00     0.036 A 
ATOM      6  C9  H28 d   1      -8.259  10.138  -1.185  0.00  0.00     0.063 A 
ATOM      7  C11 H28 d   1      -9.034  10.035  -2.498  0.00  0.00     0.224 A 
ATOM      8  O12 H28 d   1      -8.592   9.626  -3.564  0.00  0.00    -0.273 OA
ATOM      9  N13 H28 d   1     -10.311  10.419  -2.336  0.00  0.00    -0.359 N 
ATOM     10  C14 H28 d   1     -10.567  10.863  -0.961  0.00  0.00     0.023 A 
ATOM     11  N17 H28 d   1      -8.694  12.054   0.233  0.00  0.00    -0.041 N 
ATOM     12  C23 H28 d   1      -6.602  11.167   1.276  0.00  0.00     0.264 A 
ATOM     13  O24 H28 d   1      -6.878  10.046   1.633  0.00  0.00    -0.270 OA
ATOM     14  N25 H28 d   1      -5.686  11.979   1.838  0.00  0.00    -0.324 N 
ATOM     15  C27 H28 d   1      -4.836  14.339   1.477  0.00  0.00    -0.036 A 
ATOM     16 CL9  H28 d   1      -4.022  16.885   0.996  0.00  0.00    -0.084 Cl
ATOM     17  C30 H28 d   1      -5.869  15.515  -0.352  0.00  0.00    -0.061 A 
ATOM     18  C31 H28 d   1      -6.673  14.425  -0.645  0.00  0.00    -0.070 A 
ATOM     19  C32 H28 d   1      -6.537  13.262   0.126  0.00  0.00     0.015 A 
ATOM     20  H3  H28 d   1      -7.297  11.854  -2.072  0.00  0.00     0.054 H 
ATOM     21  H4  H28 d   1      -9.375  10.086   0.750  0.00  0.00     0.088 H 
ATOM     22  H10 H28 d   1      -7.885   9.148  -0.887  0.00  0.00     0.059 H 
ATOM     23  H11 H28 d   1     -11.000  10.404  -3.061  0.00  0.00     0.162 HD
ATOM     24  H12 H28 d   1     -10.894  11.913  -0.966  0.00  0.00     0.067 H 
ATOM     25  H13 H28 d   1     -11.351  10.237  -0.510  0.00  0.00     0.067 H 
ATOM     26  H14 H28 d   1      -9.011  12.732  -0.443  0.00  0.00     0.282 HD
ATOM     27  H18 H28 d   1      -5.120  11.727   2.623  0.00  0.00     0.169 HD
ATOM     28  H19 H28 d   1      -4.137  14.319   2.306  0.00  0.00     0.089 H 
ATOM     29  H20 H28 d   1      -5.954  16.414  -0.951  0.00  0.00     0.086 H 
ATOM     30  H21 H28 d   1      -7.393  14.471  -1.454  0.00  0.00     0.084 H 
ENDROOT
BRANCH   1  31
ATOM     31  C6  H28 d   1      -5.708  10.572  -1.475  0.00  0.00    -0.009 A 
ATOM     32  C5  H28 d   1      -5.284   9.306  -1.029  0.00  0.00    -0.073 A 
ATOM     33  C4  H28 d   1      -3.984   8.874  -1.303  0.00  0.00    -0.081 A 
ATOM     34  H2  H28 d   1      -5.964   8.669  -0.475  0.00  0.00     0.084 H 
ATOM     35  C3  H28 d   1      -3.112   9.670  -2.024  0.00  0.00    -0.059 A 
ATOM     36  H1  H28 d   1      -3.655   7.904  -0.947  0.00  0.00     0.083 H 
ATOM     37  C2  H28 d   1      -3.508  10.918  -2.478  0.00  0.00     0.073 A 
ATOM     38  H9  H28 d   1      -2.110   9.314  -2.236  0.00  0.00     0.086 H 
ATOM     39 CL1  H28 d   1      -2.445  11.983  -3.372  0.00  0.00    -0.081 Cl
ATOM     40  C33 H28 d   1      -4.798  11.363  -2.193  0.00  0.00     0.144 A 
ATOM     41  F34 H28 d   1      -5.141  12.582  -2.657  0.00  0.00    -0.204 F 
ENDBRANCH   1  31
BRANCH  11  42
ATOM     42  C18 H28 d   1      -9.160  12.530   1.569  0.00  0.00     0.089 C 
ATOM     43  H15 H28 d   1      -8.439  13.262   1.962  0.00  0.00     0.076 H 
ATOM     44  H16 H28 d   1      -9.224  11.673   2.255  0.00  0.00     0.076 H 
BRANCH  42  45
ATOM     45  C19 H28 d   1     -10.537  13.190   1.462  0.00  0.00    -0.031 A 
ATOM     46  C20 H28 d   1     -10.785  14.301   2.467  0.00  0.00    -0.060 A 
ATOM     47  C21 H28 d   1     -10.541  14.633   0.983  0.00  0.00    -0.060 A 
ATOM     48  H5  H28 d   1     -11.785  14.435   2.905  0.00  0.00     0.033 H 
ATOM     49  H6  H28 d   1     -10.020  14.544   3.219  0.00  0.00     0.033 H 
ATOM     50  H7  H28 d   1      -9.601  15.114   0.673  0.00  0.00     0.033 H 
ATOM     51  H8  H28 d   1     -11.367  15.004   0.358  0.00  0.00     0.033 H 
ATOM     52  H17 H28 d   1     -11.321  12.476   1.168  0.00  0.00     0.042 H 
ENDBRANCH  42  45
ENDBRANCH  11  42
TORSDOF 3
