REMARK  7 active torsions:
REMARK  status: ('A' for Active; 'I' for Inactive)
REMARK    1  A    between atoms: C10_6  and  C11_7 
REMARK    2  A    between atoms: C10_6  and  C16_14 
REMARK    3  A    between atoms: O1_20  and  C10_6 
REMARK    4  A    between atoms: C11_7  and  N1_21 
REMARK    5  A    between atoms: C25_12  and  N2_31 
REMARK    6  A    between atoms: C7_17  and  O1_20 
REMARK    7  A    between atoms: C21_27  and  C17_23 
ROOT
ATOM      1  C1  H2E d   1      17.019  11.567  77.324  0.00  0.00    -0.036 A 
ATOM      2  C2  H2E d   1      18.341  11.949  77.587  0.00  0.00     0.025 A 
ATOM      3  C3  H2E d   1      18.320   9.774  79.299  0.00  0.00     0.012 A 
ATOM      4  C4  H2E d   1      17.002   9.569  78.892  0.00  0.00    -0.034 A 
ATOM      5  C5  H2E d   1      16.237  10.706  78.279  0.00  0.00    -0.014 C 
ATOM      6  C6  H2E d   1      16.412   8.320  79.080  0.00  0.00    -0.043 A 
ATOM      7  S1  H2E d   1      19.099  11.328  79.060  0.00  0.00    -0.088 SA
ATOM      8  C7  H2E d   1      17.158   7.285  79.640  0.00  0.00     0.070 A 
ATOM      9  C8  H2E d   1      18.481   7.499  80.038  0.00  0.00    -0.049 A 
ATOM     10  C9  H2E d   1      19.048   8.736  79.871  0.00  0.00    -0.063 A 
ATOM     11  C17 H2E d   1      19.020  12.817  76.705  0.00  0.00     0.016 A 
ATOM     12  C18 H2E d   1      18.382  13.226  75.542  0.00  0.00    -0.069 A 
ATOM     13  C19 H2E d   1      17.075  12.848  75.286  0.00  0.00    -0.082 A 
ATOM     14  C20 H2E d   1      16.397  12.040  76.171  0.00  0.00    -0.075 A 
ATOM     15  H1  H2E d   1      15.381  10.284  77.733  0.00  0.00     0.047 H 
ATOM     16  H2  H2E d   1      15.871  11.348  79.094  0.00  0.00     0.047 H 
ATOM     17  H13 H2E d   1      15.380   8.155  78.793  0.00  0.00     0.088 H 
ATOM     18  H19 H2E d   1      19.055   6.691  80.476  0.00  0.00     0.087 H 
ATOM     19  H20 H2E d   1      20.071   8.906  80.187  0.00  0.00     0.085 H 
ATOM     20  H22 H2E d   1      18.912  13.847  74.828  0.00  0.00     0.085 H 
ATOM     21  H23 H2E d   1      16.582  13.190  74.383  0.00  0.00     0.083 H 
ATOM     22  H24 H2E d   1      15.367  11.769  75.968  0.00  0.00     0.084 H 
ENDROOT
BRANCH   8  23
ATOM     23  O1  H2E d   1      16.670   6.026  79.859  0.00  0.00    -0.345 OA
BRANCH  23  24
ATOM     24  C10 H2E d   1      15.296   5.737  79.463  0.00  0.00     0.065 C 
ATOM     25  H3  H2E d   1      15.078   6.238  78.508  0.00  0.00     0.086 H 
BRANCH  24  26
ATOM     26  C11 H2E d   1      15.189   4.231  79.259  0.00  0.00     0.107 C 
ATOM     27  H4  H2E d   1      14.173   3.995  78.910  0.00  0.00     0.080 H 
ATOM     28  H5  H2E d   1      15.371   3.732  80.222  0.00  0.00     0.080 H 
BRANCH  26  29
ATOM     29  N1  H2E d   1      16.148   3.722  78.281  0.00  0.00    -0.065 N 
ATOM     30  C12 H2E d   1      16.039   4.413  76.986  0.00  0.00     0.103 C 
ATOM     31  C13 H2E d   1      17.019   3.832  76.003  0.00  0.00     0.042 C 
ATOM     32  H6  H2E d   1      15.018   4.293  76.595  0.00  0.00     0.079 H 
ATOM     33  H7  H2E d   1      16.255   5.482  77.126  0.00  0.00     0.079 H 
ATOM     34  O2  H2E d   1      16.813   2.438  75.813  0.00  0.00    -0.388 OA
ATOM     35  H8  H2E d   1      18.040   3.993  76.380  0.00  0.00     0.076 H 
ATOM     36  H9  H2E d   1      16.900   4.344  75.037  0.00  0.00     0.076 H 
ATOM     37  C14 H2E d   1      16.930   1.760  77.057  0.00  0.00     0.042 C 
ATOM     38  C15 H2E d   1      15.943   2.283  78.067  0.00  0.00     0.103 C 
ATOM     39  H10 H2E d   1      16.744   0.688  76.898  0.00  0.00     0.076 H 
ATOM     40  H11 H2E d   1      17.949   1.902  77.447  0.00  0.00     0.076 H 
ATOM     41  H17 H2E d   1      16.082   1.751  79.020  0.00  0.00     0.079 H 
ATOM     42  H18 H2E d   1      14.921   2.113  77.698  0.00  0.00     0.079 H 
ATOM     43  H21 H2E d   1      17.077   3.869  78.645  0.00  0.00     0.280 HD
ENDBRANCH  26  29
ENDBRANCH  24  26
BRANCH  24  44
ATOM     44  C16 H2E d   1      14.325   6.279  80.521  0.00  0.00    -0.050 C 
ATOM     45  H14 H2E d   1      14.456   7.367  80.616  0.00  0.00     0.031 H 
ATOM     46  H15 H2E d   1      14.532   5.799  81.489  0.00  0.00     0.031 H 
ATOM     47  H16 H2E d   1      13.291   6.059  80.216  0.00  0.00     0.031 H 
ENDBRANCH  24  44
ENDBRANCH  23  24
ENDBRANCH   8  23
BRANCH  11  48
ATOM     48  C21 H2E d   1      20.451  13.183  76.902  0.00  0.00     0.093 A 
ATOM     49  C22 H2E d   1      21.026  14.431  76.717  0.00  0.00    -0.001 A 
ATOM     50  C23 H2E d   1      22.385  14.622  76.932  0.00  0.00     0.178 A 
ATOM     51  H25 H2E d   1      20.407  15.269  76.400  0.00  0.00     0.094 H 
ATOM     52  C24 H2E d   1      23.153  13.504  77.303  0.00  0.00     0.015 A 
ATOM     53  O5  H2E d   1      22.910  15.753  76.811  0.00  0.00    -0.288 OA
ATOM     54  C25 H2E d   1      22.542  12.274  77.498  0.00  0.00     0.150 A 
ATOM     55  H12 H2E d   1      24.229  13.604  77.437  0.00  0.00     0.096 H 
ATOM     56  O3  H2E d   1      21.227  12.110  77.235  0.00  0.00    -0.293 OA
BRANCH  54  57
ATOM     57  N2  H2E d   1      23.248  11.138  77.782  0.00  0.00    -0.357 N 
ATOM     58  C26 H2E d   1      24.714  11.112  77.873  0.00  0.00     0.017 C 
ATOM     59  C27 H2E d   1      25.162  10.042  78.846  0.00  0.00     0.034 C 
ATOM     60  H26 H2E d   1      25.073  12.092  78.221  0.00  0.00     0.067 H 
ATOM     61  H27 H2E d   1      25.135  10.898  76.880  0.00  0.00     0.067 H 
ATOM     62  O4  H2E d   1      24.594   8.775  78.536  0.00  0.00    -0.388 OA
ATOM     63  H28 H2E d   1      24.853  10.332  79.861  0.00  0.00     0.076 H 
ATOM     64  H29 H2E d   1      26.258   9.960  78.805  0.00  0.00     0.076 H 
ATOM     65  C28 H2E d   1      23.189   8.852  78.637  0.00  0.00     0.034 C 
ATOM     66  C29 H2E d   1      22.616   9.818  77.635  0.00  0.00     0.017 C 
ATOM     67  H30 H2E d   1      22.921   9.187  79.650  0.00  0.00     0.076 H 
ATOM     68  H31 H2E d   1      22.762   7.854  78.456  0.00  0.00     0.076 H 
ATOM     69  H32 H2E d   1      22.799   9.439  76.619  0.00  0.00     0.067 H 
ATOM     70  H33 H2E d   1      21.533   9.913  77.801  0.00  0.00     0.067 H 
ENDBRANCH  54  57
ENDBRANCH  11  48
TORSDOF 7
