REMARK  26 active torsions:
REMARK  status: ('A' for Active; 'I' for Inactive)
REMARK    1  A    between atoms: N_1  and  CA_2 
REMARK    2  A    between atoms: CA_2  and  C_3 
REMARK    3  A    between atoms: CA_2  and  CB_5 
REMARK       I    between atoms: C_3  and  N_6 
REMARK    4  A    between atoms: N_6  and  CA_7 
REMARK    5  A    between atoms: CA_7  and  C_8 
REMARK    6  A    between atoms: CA_7  and  CB_10 
REMARK       I    between atoms: C_8  and  N_11 
REMARK    7  A    between atoms: N_11  and  CA_12 
REMARK    8  A    between atoms: CA_12  and  C_13 
REMARK    9  A    between atoms: CA_12  and  CB_15 
REMARK       I    between atoms: C_13  and  N_19 
REMARK   10  A    between atoms: CB_15  and  CG_16 
REMARK   11  A    between atoms: N_19  and  CA_20 
REMARK   12  A    between atoms: CA_20  and  C_21 
REMARK   13  A    between atoms: CA_20  and  CB_23 
REMARK       I    between atoms: C_21  and  N_26 
REMARK   14  A    between atoms: CB_23  and  OG1_24 
REMARK   15  A    between atoms: CB_23  and  CG2_25 
REMARK   16  A    between atoms: N_26  and  CA_27 
REMARK   17  A    between atoms: CA_27  and  C_28 
REMARK   18  A    between atoms: CA_27  and  CB_30 
REMARK       I    between atoms: C_28  and  N_33 
REMARK   19  A    between atoms: CB_30  and  OG1_31 
REMARK   20  A    between atoms: CB_30  and  CG2_32 
REMARK   21  A    between atoms: N_33  and  CA_34 
REMARK   22  A    between atoms: CA_34  and  C_35 
REMARK   23  A    between atoms: CA_34  and  CB_37 
REMARK       I    between atoms: C_35  and  N_40 
REMARK   24  A    between atoms: CB_37  and  OG1_38 
REMARK   25  A    between atoms: CB_37  and  CG2_39 
REMARK   26  A    between atoms: CA_41  and  C_42 
ROOT
ATOM      1  CA  LYS d   1     -22.916  -1.240   2.907  0.00  0.00     0.113 C 
ATOM      2  H18 LYS d   1     -22.024  -1.354   2.273  0.00  0.00     0.091 H 
ENDROOT
BRANCH   1   3
ATOM      3  N   LYS d   1     -23.325   0.156   2.894  0.00  0.00    -0.344 N 
ATOM      4  C   LYS d   1     -22.641   1.120   2.283  0.00  0.00     0.241 C 
ATOM      5  O   LYS d   1     -21.591   0.921   1.665  0.00  0.00    -0.271 OA
ATOM      6  H17 LYS d   1     -24.168   0.405   3.371  0.00  0.00     0.163 HD
BRANCH   4   7
ATOM      7  CA  LYS d   1     -23.248   2.515   2.391  0.00  0.00     0.098 C 
ATOM      8  H14 LYS d   1     -23.614   2.661   3.418  0.00  0.00     0.088 H 
BRANCH   7   9
ATOM      9  N   LYS d   1     -22.229   3.518   2.120  0.00  0.00    -0.346 N 
ATOM     10  C   LYS d   1     -21.916   4.467   2.996  0.00  0.00     0.240 C 
ATOM     11  O   LYS d   1     -22.524   4.628   4.058  0.00  0.00    -0.271 OA
ATOM     12  H13 LYS d   1     -21.747   3.492   1.244  0.00  0.00     0.163 HD
BRANCH  10  13
ATOM     13  CA  LYS d   1     -20.743   5.357   2.612  0.00  0.00     0.086 C 
ATOM     14  H9  LYS d   1     -20.744   5.495   1.521  0.00  0.00     0.086 H 
BRANCH  13  15
ATOM     15  N   LYS d   1     -20.866   6.658   3.243  0.00  0.00    -0.346 N 
ATOM     16  C   LYS d   1     -21.641   7.603   2.720  0.00  0.00     0.248 C 
ATOM     17  O   LYS d   1     -22.240   7.462   1.655  0.00  0.00    -0.271 OA
ATOM     18  H8  LYS d   1     -20.360   6.847   4.085  0.00  0.00     0.163 HD
BRANCH  16  19
ATOM     19  CA  LYS d   1     -21.746   8.907   3.502  0.00  0.00     0.172 C 
ATOM     20  H4  LYS d   1     -20.874   8.986   4.168  0.00  0.00     0.098 H 
BRANCH  19  21
ATOM     21  N   LYS d   1     -21.735  10.047   2.592  0.00  0.00    -0.067 N 
ATOM     22  H1  LYS d   1     -21.805  10.901   3.123  0.00  0.00     0.275 HD
ATOM     23  H2  LYS d   1     -22.517   9.979   1.959  0.00  0.00     0.275 HD
ATOM     24  H3  LYS d   1     -20.876  10.048   2.065  0.00  0.00     0.275 HD
ENDBRANCH  19  21
BRANCH  19  25
ATOM     25  CB  LYS d   1     -23.014   8.912   4.364  0.00  0.00    -0.042 C 
ATOM     26  H5  LYS d   1     -23.000   8.045   5.041  0.00  0.00     0.030 H 
ATOM     27  H6  LYS d   1     -23.900   8.856   3.714  0.00  0.00     0.030 H 
ATOM     28  H7  LYS d   1     -23.052   9.839   4.955  0.00  0.00     0.030 H 
ENDBRANCH  19  25
ENDBRANCH  16  19
ENDBRANCH  13  15
BRANCH  13  29
ATOM     29  CB  LYS d   1     -19.436   4.681   3.021  0.00  0.00    -0.049 C 
ATOM     30  H10 LYS d   1     -19.363   3.698   2.533  0.00  0.00     0.030 H 
ATOM     31  H11 LYS d   1     -19.417   4.550   4.113  0.00  0.00     0.030 H 
ATOM     32  H12 LYS d   1     -18.587   5.308   2.712  0.00  0.00     0.030 H 
ENDBRANCH  13  29
ENDBRANCH  10  13
ENDBRANCH   7   9
BRANCH   7  33
ATOM     33  CB  LYS d   1     -24.435   2.646   1.435  0.00  0.00     0.043 C 
ATOM     34  H15 LYS d   1     -24.864   3.653   1.541  0.00  0.00     0.052 H 
ATOM     35  H16 LYS d   1     -25.191   1.895   1.707  0.00  0.00     0.052 H 
BRANCH  33  36
ATOM     36  CG  LYS d   1     -24.042   2.437  -0.009  0.00  0.00     0.175 C 
ATOM     37  OD1 LYS d   1     -23.427   3.350  -0.612  0.00  0.00    -0.648 OA
ATOM     38  OD2 LYS d   1     -24.316   1.340  -0.529  0.00  0.00    -0.648 OA
ENDBRANCH  33  36
ENDBRANCH   7  33
ENDBRANCH   4   7
ENDBRANCH   1   3
BRANCH   1  39
ATOM     39  C   LYS d   1     -24.040  -2.095   2.342  0.00  0.00     0.243 C 
ATOM     40  O   LYS d   1     -25.221  -1.764   2.481  0.00  0.00    -0.271 OA
ATOM     41  N   LYS d   1     -23.669  -3.202   1.701  0.00  0.00    -0.344 N 
ATOM     42  H24 LYS d   1     -22.696  -3.421   1.627  0.00  0.00     0.163 HD
BRANCH  41  43
ATOM     43  CA  LYS d   1     -24.649  -4.102   1.105  0.00  0.00     0.113 C 
ATOM     44  H25 LYS d   1     -25.608  -3.564   1.061  0.00  0.00     0.091 H 
BRANCH  43  45
ATOM     45  C   LYS d   1     -24.868  -5.374   1.914  0.00  0.00     0.243 C 
ATOM     46  O   LYS d   1     -25.592  -6.260   1.457  0.00  0.00    -0.271 OA
ATOM     47  N   LYS d   1     -24.264  -5.491   3.096  0.00  0.00    -0.344 N 
ATOM     48  H31 LYS d   1     -23.735  -4.717   3.444  0.00  0.00     0.163 HD
BRANCH  47  49
ATOM     49  CA  LYS d   1     -24.344  -6.700   3.900  0.00  0.00     0.114 C 
ATOM     50  H32 LYS d   1     -25.081  -7.377   3.443  0.00  0.00     0.091 H 
BRANCH  49  51
ATOM     51  C   LYS d   1     -24.801  -6.361   5.315  0.00  0.00     0.246 C 
ATOM     52  O   LYS d   1     -24.312  -5.394   5.910  0.00  0.00    -0.271 OA
ATOM     53  N   LYS d   1     -25.742  -7.136   5.880  0.00  0.00    -0.336 N 
ATOM     54  CA  LYS d   1     -26.246  -6.871   7.234  0.00  0.00     0.098 C 
ATOM     55  CD  LYS d   1     -26.402  -8.302   5.266  0.00  0.00    -0.001 C 
ATOM     56  CB  LYS d   1     -27.453  -7.808   7.347  0.00  0.00    -0.035 C 
ATOM     57  H38 LYS d   1     -26.559  -5.820   7.326  0.00  0.00     0.089 H 
ATOM     58  CG  LYS d   1     -27.136  -8.928   6.423  0.00  0.00    -0.048 C 
ATOM     59  H39 LYS d   1     -28.375  -7.295   7.036  0.00  0.00     0.036 H 
ATOM     60  H40 LYS d   1     -27.567  -8.174   8.378  0.00  0.00     0.036 H 
ATOM     61  H41 LYS d   1     -28.060  -9.412   6.075  0.00  0.00     0.035 H 
ATOM     62  H42 LYS d   1     -26.499  -9.671   6.925  0.00  0.00     0.035 H 
ATOM     63  H43 LYS d   1     -25.662  -8.998   4.845  0.00  0.00     0.064 H 
ATOM     64  H44 LYS d   1     -27.102  -7.989   4.477  0.00  0.00     0.064 H 
BRANCH  54  65
ATOM     65  C   LYS d   1     -25.218  -7.176   8.321  0.00  0.00     0.196 C 
ATOM     66  O   LYS d   1     -25.154  -6.442   9.309  0.00  0.00    -0.646 OA
ATOM     67  OXT LYS d   1     -24.474  -8.150   8.187  0.00  0.00    -0.646 OA
ENDBRANCH  54  65
ENDBRANCH  49  51
BRANCH  49  68
ATOM     68  CB  LYS d   1     -22.982  -7.413   3.946  0.00  0.00     0.060 C 
ATOM     69  H33 LYS d   1     -23.013  -8.198   4.716  0.00  0.00     0.086 H 
BRANCH  68  70
ATOM     70  OG1 LYS d   1     -21.952  -6.469   4.269  0.00  0.00    -0.393 OA
ATOM     71  H34 LYS d   1     -22.134  -6.082   5.117  0.00  0.00     0.210 HD
ENDBRANCH  68  70
BRANCH  68  72
ATOM     72  CG2 LYS d   1     -22.665  -8.042   2.601  0.00  0.00    -0.050 C 
ATOM     73  H35 LYS d   1     -21.689  -8.546   2.653  0.00  0.00     0.031 H 
ATOM     74  H36 LYS d   1     -22.633  -7.259   1.829  0.00  0.00     0.031 H 
ATOM     75  H37 LYS d   1     -23.444  -8.776   2.347  0.00  0.00     0.031 H 
ENDBRANCH  68  72
ENDBRANCH  49  68
ENDBRANCH  47  49
ENDBRANCH  43  45
BRANCH  43  76
ATOM     76  CB  LYS d   1     -24.239  -4.472  -0.326  0.00  0.00     0.060 C 
ATOM     77  H26 LYS d   1     -25.085  -4.968  -0.825  0.00  0.00     0.086 H 
BRANCH  76  78
ATOM     78  OG1 LYS d   1     -23.118  -5.367  -0.290  0.00  0.00    -0.393 OA
ATOM     79  H27 LYS d   1     -22.389  -4.943   0.148  0.00  0.00     0.210 HD
ENDBRANCH  76  78
BRANCH  76  80
ATOM     80  CG2 LYS d   1     -23.859  -3.229  -1.109  0.00  0.00    -0.050 C 
ATOM     81  H28 LYS d   1     -23.568  -3.514  -2.131  0.00  0.00     0.031 H 
ATOM     82  H29 LYS d   1     -23.014  -2.728  -0.614  0.00  0.00     0.031 H 
ATOM     83  H30 LYS d   1     -24.719  -2.544  -1.150  0.00  0.00     0.031 H 
ENDBRANCH  76  80
ENDBRANCH  43  76
ENDBRANCH  41  43
ENDBRANCH   1  39
BRANCH   1  84
ATOM     84  CB  LYS d   1     -22.570  -1.707   4.328  0.00  0.00     0.060 C 
ATOM     85  H19 LYS d   1     -21.776  -1.062   4.732  0.00  0.00     0.086 H 
BRANCH  84  86
ATOM     86  OG1 LYS d   1     -22.110  -3.062   4.293  0.00  0.00    -0.393 OA
ATOM     87  H20 LYS d   1     -21.336  -3.118   3.745  0.00  0.00     0.210 HD
ENDBRANCH  84  86
BRANCH  84  88
ATOM     88  CG2 LYS d   1     -23.804  -1.626   5.249  0.00  0.00    -0.050 C 
ATOM     89  H21 LYS d   1     -23.530  -1.965   6.259  0.00  0.00     0.031 H 
ATOM     90  H22 LYS d   1     -24.602  -2.269   4.850  0.00  0.00     0.031 H 
ATOM     91  H23 LYS d   1     -24.160  -0.586   5.295  0.00  0.00     0.031 H 
ENDBRANCH  84  88
ENDBRANCH   1  84
TORSDOF 26
