REMARK WARNING: 32 MAX_TORS EXCEEDED!!!
REMARK  39 active torsions:
REMARK  status: ('A' for Active; 'I' for Inactive)
REMARK    1  A    between atoms: N_1  and  CA_2 
REMARK    2  A    between atoms: CA_2  and  C_3 
REMARK    3  A    between atoms: CA_2  and  CB_5 
REMARK       I    between atoms: C_3  and  N_7 
REMARK    4  A    between atoms: CB_5  and  OG_6 
REMARK    5  A    between atoms: N_7  and  CA_8 
REMARK    6  A    between atoms: CA_8  and  C_9 
REMARK    7  A    between atoms: CA_8  and  CB_11 
REMARK       I    between atoms: C_9  and  N_18 
REMARK    8  A    between atoms: CB_11  and  CG_12 
REMARK    9  A    between atoms: N_18  and  CA_19 
REMARK   10  A    between atoms: CA_19  and  C_20 
REMARK   11  A    between atoms: CA_19  and  CB_22 
REMARK       I    between atoms: C_20  and  N_23 
REMARK   12  A    between atoms: N_23  and  CA_24 
REMARK   13  A    between atoms: CA_24  and  C_25 
REMARK   14  A    between atoms: CA_24  and  CB_27 
REMARK       I    between atoms: C_25  and  N_39 
REMARK   15  A    between atoms: CB_27  and  CG_28 
REMARK   16  A    between atoms: CZ_33  and  OH_34 
REMARK   17  A    between atoms: OH_34  and  P_35 
REMARK   18  A    between atoms: N_39  and  CA_40 
REMARK   19  A    between atoms: CA_40  and  C_41 
REMARK   20  A    between atoms: CA_40  and  CB_43 
REMARK       I    between atoms: C_41  and  N_46 
REMARK   21  A    between atoms: CB_43  and  OG1_44 
REMARK   22  A    between atoms: CB_43  and  CG2_45 
REMARK   23  A    between atoms: N_46  and  CA_47 
REMARK   24  A    between atoms: CA_47  and  C_48 
REMARK   25  A    between atoms: CA_47  and  CB_50 
REMARK       I    between atoms: C_48  and  N_54 
REMARK   26  A    between atoms: CB_50  and  CG1_51 
REMARK   27  A    between atoms: CB_50  and  CG2_52 
REMARK   28  A    between atoms: CG1_51  and  CD1_53 
REMARK   29  A    between atoms: N_54  and  CA_55 
REMARK   30  A    between atoms: CA_55  and  C_56 
REMARK   31  A    between atoms: CA_55  and  CB_58 
REMARK       I    between atoms: C_56  and  N_62 
REMARK   32  A    between atoms: CB_58  and  CG_59 
REMARK   33  A    between atoms: CG_59  and  CD1_60 
REMARK   34  A    between atoms: CG_59  and  CD2_61 
REMARK   35  A    between atoms: N_62  and  CA_63 
REMARK   36  A    between atoms: CA_63  and  C_64 
REMARK   37  A    between atoms: CA_63  and  CB_66 
REMARK       I    between atoms: C_64  and  N_70 
REMARK   38  A    between atoms: CB_66  and  CG_67 
REMARK   39  A    between atoms: CA_71  and  C_72 
ROOT
ATOM      1  CA  SER d   1     129.065  28.998 215.729  0.00  0.00     0.113 C 
ATOM      2  H31 SER d   1     129.200  30.066 215.957  0.00  0.00     0.091 H 
ENDROOT
BRANCH   1   3
ATOM      3  N   SER d   1     127.749  28.593 216.192  0.00  0.00    -0.344 N 
ATOM      4  C   SER d   1     126.926  29.428 216.815  0.00  0.00     0.241 C 
ATOM      5  O   SER d   1     127.191  30.612 217.020  0.00  0.00    -0.271 OA
ATOM      6  H30 SER d   1     127.452  27.651 216.036  0.00  0.00     0.163 HD
BRANCH   4   7
ATOM      7  CA  SER d   1     125.611  28.812 217.270  0.00  0.00     0.093 C 
ATOM      8  H23 SER d   1     125.808  27.764 217.540  0.00  0.00     0.088 H 
BRANCH   7   9
ATOM      9  N   SER d   1     125.056  29.475 218.443  0.00  0.00    -0.346 N 
ATOM     10  C   SER d   1     125.042  28.868 219.623  0.00  0.00     0.240 C 
ATOM     11  O   SER d   1     125.496  27.736 219.796  0.00  0.00    -0.271 OA
ATOM     12  H22 SER d   1     124.681  30.398 218.358  0.00  0.00     0.163 HD
BRANCH  10  13
ATOM     13  CA  SER d   1     124.430  29.645 220.783  0.00  0.00     0.086 C 
ATOM     14  H18 SER d   1     125.249  30.029 221.408  0.00  0.00     0.086 H 
BRANCH  13  15
ATOM     15  N   SER d   1     123.642  30.783 220.320  0.00  0.00    -0.346 N 
ATOM     16  C   SER d   1     124.139  32.016 220.316  0.00  0.00     0.241 C 
ATOM     17  O   SER d   1     125.301  32.261 220.661  0.00  0.00    -0.271 OA
ATOM     18  H17 SER d   1     122.707  30.632 219.999  0.00  0.00     0.163 HD
BRANCH  16  19
ATOM     19  CA  SER d   1     123.230  33.153 219.867  0.00  0.00     0.093 C 
ATOM     20  H9  SER d   1     123.864  33.954 219.459  0.00  0.00     0.088 H 
BRANCH  19  21
ATOM     21  N   SER d   1     122.298  32.740 218.823  0.00  0.00    -0.346 N 
ATOM     22  C   SER d   1     122.715  32.550 217.570  0.00  0.00     0.251 C 
ATOM     23  O   SER d   1     123.897  32.638 217.234  0.00  0.00    -0.271 OA
ATOM     24  H8  SER d   1     121.335  32.598 219.050  0.00  0.00     0.163 HD
BRANCH  22  25
ATOM     25  CA  SER d   1     121.636  32.204 216.549  0.00  0.00     0.195 C 
ATOM     26  H4  SER d   1     121.606  33.003 215.794  0.00  0.00     0.102 H 
BRANCH  25  27
ATOM     27  N   SER d   1     121.933  30.948 215.871  0.00  0.00    -0.064 N 
ATOM     28  H1  SER d   1     121.205  30.746 215.204  0.00  0.00     0.275 HD
ATOM     29  H2  SER d   1     121.984  30.204 216.549  0.00  0.00     0.275 HD
ATOM     30  H3  SER d   1     122.816  31.026 215.391  0.00  0.00     0.275 HD
ENDBRANCH  25  27
BRANCH  25  31
ATOM     31  CB  SER d   1     120.271  32.133 217.234  0.00  0.00     0.051 C 
ATOM     32  H5  SER d   1     119.537  31.711 216.531  0.00  0.00     0.077 H 
ATOM     33  H6  SER d   1     119.960  33.148 217.523  0.00  0.00     0.077 H 
BRANCH  31  34
ATOM     34  OG  SER d   1     120.326  31.318 218.392  0.00  0.00    -0.398 OA
ATOM     35  H7  SER d   1     119.468  31.290 218.799  0.00  0.00     0.209 HD
ENDBRANCH  31  34
ENDBRANCH  25  31
ENDBRANCH  22  25
ENDBRANCH  19  21
BRANCH  19  36
ATOM     36  CB  SER d   1     122.460  33.709 221.067  0.00  0.00    -0.014 C 
ATOM     37  H10 SER d   1     123.187  34.031 221.827  0.00  0.00     0.043 H 
ATOM     38  H11 SER d   1     121.831  32.906 221.478  0.00  0.00     0.043 H 
BRANCH  36  39
ATOM     39  CG  SER d   1     121.577  34.877 220.732  0.00  0.00    -0.056 A 
ATOM     40  CD1 SER d   1     121.943  35.780 219.746  0.00  0.00    -0.077 A 
ATOM     41  CE1 SER d   1     121.131  36.855 219.434  0.00  0.00    -0.082 A 
ATOM     42  H12 SER d   1     122.877  35.642 219.213  0.00  0.00     0.084 H 
ATOM     43  CZ  SER d   1     119.941  37.038 220.110  0.00  0.00    -0.083 A 
ATOM     44  H14 SER d   1     121.428  37.553 218.660  0.00  0.00     0.083 H 
ATOM     45  CE2 SER d   1     119.564  36.145 221.095  0.00  0.00    -0.082 A 
ATOM     46  H16 SER d   1     119.303  37.881 219.869  0.00  0.00     0.083 H 
ATOM     47  CD2 SER d   1     120.381  35.072 221.402  0.00  0.00    -0.077 A 
ATOM     48  H15 SER d   1     118.629  36.285 221.626  0.00  0.00     0.083 H 
ATOM     49  H13 SER d   1     120.081  34.375 222.177  0.00  0.00     0.084 H 
ENDBRANCH  36  39
ENDBRANCH  19  36
ENDBRANCH  16  19
ENDBRANCH  13  15
BRANCH  13  50
ATOM     50  CB  SER d   1     123.567  28.711 221.635  0.00  0.00    -0.049 C 
ATOM     51  H19 SER d   1     124.174  27.860 221.976  0.00  0.00     0.030 H 
ATOM     52  H20 SER d   1     122.723  28.342 221.034  0.00  0.00     0.030 H 
ATOM     53  H21 SER d   1     123.183  29.260 222.507  0.00  0.00     0.030 H 
ENDBRANCH  13  50
ENDBRANCH  10  13
ENDBRANCH   7   9
BRANCH   7  54
ATOM     54  CB  SER d   1     124.597  28.827 216.128  0.00  0.00    -0.014 C 
ATOM     55  H24 SER d   1     125.141  28.806 215.172  0.00  0.00     0.043 H 
ATOM     56  H25 SER d   1     124.006  29.752 216.193  0.00  0.00     0.043 H 
BRANCH  54  57
ATOM     57  CG  SER d   1     123.658  27.648 216.176  0.00  0.00    -0.056 A 
ATOM     58  CD1 SER d   1     122.566  27.641 217.032  0.00  0.00    -0.074 A 
ATOM     59  CE1 SER d   1     121.709  26.559 217.087  0.00  0.00    -0.050 A 
ATOM     60  H26 SER d   1     122.382  28.499 217.668  0.00  0.00     0.084 H 
ATOM     61  CZ  SER d   1     121.941  25.465 216.282  0.00  0.00     0.082 A 
ATOM     62  H28 SER d   1     120.859  26.570 217.760  0.00  0.00     0.087 H 
ATOM     63  CE2 SER d   1     123.023  25.445 215.428  0.00  0.00    -0.050 A 
ATOM     64  CD2 SER d   1     123.875  26.532 215.380  0.00  0.00    -0.074 A 
ATOM     65  H29 SER d   1     123.204  24.582 214.798  0.00  0.00     0.087 H 
ATOM     66  H27 SER d   1     124.727  26.513 214.710  0.00  0.00     0.084 H 
BRANCH  61  67
ATOM     67  OH  SER d   1     121.138  24.444 216.330  0.00  0.00    -0.240 OA
BRANCH  67  68
ATOM     68  P   SER d   1     119.822  24.396 215.403  0.00  0.00     0.427 P 
ATOM     69  O1P SER d   1     120.224  23.984 214.041  0.00  0.00    -0.617 OA
ATOM     70  O2P SER d   1     118.825  23.370 215.973  0.00  0.00    -0.617 OA
ATOM     71  O3P SER d   1     119.163  25.788 215.351  0.00  0.00    -0.617 OA
ENDBRANCH  67  68
ENDBRANCH  61  67
ENDBRANCH  54  57
ENDBRANCH   7  54
ENDBRANCH   4   7
ENDBRANCH   1   3
BRANCH   1  72
ATOM     72  C   SER d   1     129.178  28.802 214.221  0.00  0.00     0.243 C 
ATOM     73  O   SER d   1     128.562  27.902 213.651  0.00  0.00    -0.271 OA
ATOM     74  N   SER d   1     129.952  29.674 213.580  0.00  0.00    -0.346 N 
ATOM     75  H37 SER d   1     130.269  30.483 214.074  0.00  0.00     0.163 HD
BRANCH  74  76
ATOM     76  CA  SER d   1     130.359  29.505 212.194  0.00  0.00     0.092 C 
ATOM     77  H38 SER d   1     129.980  28.539 211.831  0.00  0.00     0.088 H 
BRANCH  76  78
ATOM     78  C   SER d   1     131.881  29.482 212.160  0.00  0.00     0.241 C 
ATOM     79  O   SER d   1     132.552  29.974 213.070  0.00  0.00    -0.271 OA
ATOM     80  N   SER d   1     132.428  28.885 211.109  0.00  0.00    -0.346 N 
ATOM     81  H48 SER d   1     131.843  28.489 210.401  0.00  0.00     0.163 HD
BRANCH  80  82
ATOM     82  CA  SER d   1     133.876  28.803 210.980  0.00  0.00     0.089 C 
ATOM     83  H49 SER d   1     134.318  28.816 211.987  0.00  0.00     0.087 H 
BRANCH  82  84
ATOM     84  C   SER d   1     134.391  30.012 210.210  0.00  0.00     0.241 C 
ATOM     85  O   SER d   1     133.915  30.319 209.114  0.00  0.00    -0.271 OA
ATOM     86  N   SER d   1     135.362  30.697 210.796  0.00  0.00    -0.346 N 
ATOM     87  H59 SER d   1     135.777  30.314 211.621  0.00  0.00     0.163 HD
BRANCH  86  88
ATOM     88  CA  SER d   1     135.858  31.971 210.309  0.00  0.00     0.099 C 
ATOM     89  H60 SER d   1     135.658  32.042 209.230  0.00  0.00     0.088 H 
BRANCH  88  90
ATOM     90  C   SER d   1     137.359  32.044 210.544  0.00  0.00     0.244 C 
ATOM     91  O   SER d   1     137.866  31.467 211.513  0.00  0.00    -0.271 OA
ATOM     92  N   SER d   1     138.103  32.722 209.658  0.00  0.00    -0.336 N 
ATOM     93  CA  SER d   1     139.524  33.012 209.855  0.00  0.00     0.098 C 
ATOM     94  CD  SER d   1     137.685  33.037 208.284  0.00  0.00    -0.001 C 
ATOM     95  CB  SER d   1     140.035  33.179 208.426  0.00  0.00    -0.035 C 
ATOM     96  H63 SER d   1     140.028  32.174 210.359  0.00  0.00     0.089 H 
ATOM     97  CG  SER d   1     138.874  33.756 207.708  0.00  0.00    -0.048 C 
ATOM     98  H64 SER d   1     140.321  32.208 207.995  0.00  0.00     0.036 H 
ATOM     99  H65 SER d   1     140.896  33.862 208.394  0.00  0.00     0.036 H 
ATOM    100  H66 SER d   1     138.954  33.572 206.626  0.00  0.00     0.035 H 
ATOM    101  H67 SER d   1     138.801  34.838 207.891  0.00  0.00     0.035 H 
ATOM    102  H68 SER d   1     136.796  33.685 208.283  0.00  0.00     0.064 H 
ATOM    103  H69 SER d   1     137.470  32.118 207.719  0.00  0.00     0.064 H 
BRANCH  93 104
ATOM    104  C   SER d   1     139.741  34.288 210.662  0.00  0.00     0.196 C 
ATOM    105  O   SER d   1     140.108  34.201 211.833  0.00  0.00    -0.646 OA
ATOM    106  OXT SER d   1     139.544  35.377 210.125  0.00  0.00    -0.646 OA
ENDBRANCH  93 104
ENDBRANCH  88  90
BRANCH  88 107
ATOM    107  CB  SER d   1     135.160  33.144 211.020  0.00  0.00     0.043 C 
ATOM    108  H61 SER d   1     135.596  33.257 212.023  0.00  0.00     0.052 H 
ATOM    109  H62 SER d   1     134.088  32.913 211.110  0.00  0.00     0.052 H 
BRANCH 107 110
ATOM    110  CG  SER d   1     135.312  34.457 210.275  0.00  0.00     0.175 C 
ATOM    111  OD1 SER d   1     136.378  35.094 210.404  0.00  0.00    -0.648 OA
ATOM    112  OD2 SER d   1     134.360  34.861 209.576  0.00  0.00    -0.648 OA
ENDBRANCH 107 110
ENDBRANCH  88 107
ENDBRANCH  86  88
ENDBRANCH  82  84
BRANCH  82 113
ATOM    113  CB  SER d   1     134.291  27.499 210.291  0.00  0.00    -0.035 C 
ATOM    114  H50 SER d   1     135.189  27.696 209.686  0.00  0.00     0.037 H 
ATOM    115  H51 SER d   1     133.470  27.177 209.634  0.00  0.00     0.037 H 
BRANCH 113 116
ATOM    116  CG  SER d   1     134.606  26.357 211.267  0.00  0.00    -0.059 C 
ATOM    117  H52 SER d   1     135.497  26.649 211.843  0.00  0.00     0.038 H 
BRANCH 116 118
ATOM    118  CD1 SER d   1     133.466  26.152 212.246  0.00  0.00    -0.073 C 
ATOM    119  H53 SER d   1     133.716  25.330 212.933  0.00  0.00     0.028 H 
ATOM    120  H54 SER d   1     132.548  25.902 211.693  0.00  0.00     0.028 H 
ATOM    121  H55 SER d   1     133.307  27.076 212.822  0.00  0.00     0.028 H 
ENDBRANCH 116 118
BRANCH 116 122
ATOM    122  CD2 SER d   1     134.931  25.053 210.545  0.00  0.00    -0.073 C 
ATOM    123  H56 SER d   1     135.759  25.221 209.840  0.00  0.00     0.028 H 
ATOM    124  H57 SER d   1     134.044  24.708 209.993  0.00  0.00     0.028 H 
ATOM    125  H58 SER d   1     135.225  24.290 211.281  0.00  0.00     0.028 H 
ENDBRANCH 116 122
ENDBRANCH 113 116
ENDBRANCH  82 113
ENDBRANCH  80  82
ENDBRANCH  76  78
BRANCH  76 126
ATOM    126  CB  SER d   1     129.796  30.613 211.278  0.00  0.00    -0.030 C 
ATOM    127  H39 SER d   1     128.770  30.838 211.604  0.00  0.00     0.043 H 
BRANCH 126 128
ATOM    128  CG1 SER d   1     129.739  30.136 209.825  0.00  0.00    -0.063 C 
ATOM    129  H40 SER d   1     129.243  29.155 209.800  0.00  0.00     0.033 H 
ATOM    130  H41 SER d   1     130.769  30.035 209.452  0.00  0.00     0.033 H 
BRANCH 128 131
ATOM    131  CD1 SER d   1     128.989  31.073 208.909  0.00  0.00    -0.076 C 
ATOM    132  H45 SER d   1     128.990  30.666 207.887  0.00  0.00     0.027 H 
ATOM    133  H46 SER d   1     129.478  32.058 208.912  0.00  0.00     0.027 H 
ATOM    134  H47 SER d   1     127.952  31.178 209.261  0.00  0.00     0.027 H 
ENDBRANCH 128 131
ENDBRANCH 126 128
BRANCH 126 135
ATOM    135  CG2 SER d   1     130.620  31.884 211.404  0.00  0.00    -0.071 C 
ATOM    136  H42 SER d   1     130.643  32.203 212.457  0.00  0.00     0.028 H 
ATOM    137  H43 SER d   1     130.167  32.677 210.791  0.00  0.00     0.028 H 
ATOM    138  H44 SER d   1     131.646  31.692 211.056  0.00  0.00     0.028 H 
ENDBRANCH 126 135
ENDBRANCH  76 126
ENDBRANCH  74  76
ENDBRANCH   1  72
BRANCH   1 139
ATOM    139  CB  SER d   1     130.181  28.198 216.444  0.00  0.00     0.060 C 
ATOM    140  H32 SER d   1     130.114  27.144 216.136  0.00  0.00     0.086 H 
BRANCH 139 141
ATOM    141  OG1 SER d   1     130.002  28.288 217.862  0.00  0.00    -0.393 OA
ATOM    142  H33 SER d   1     129.155  27.928 218.097  0.00  0.00     0.210 HD
ENDBRANCH 139 141
BRANCH 139 143
ATOM    143  CG2 SER d   1     131.562  28.730 216.085  0.00  0.00    -0.050 C 
ATOM    144  H34 SER d   1     132.329  28.141 216.608  0.00  0.00     0.031 H 
ATOM    145  H35 SER d   1     131.639  29.785 216.388  0.00  0.00     0.031 H 
ATOM    146  H36 SER d   1     131.715  28.649 214.999  0.00  0.00     0.031 H 
ENDBRANCH 139 143
ENDBRANCH   1 139
TORSDOF 39
