REMARK  5 active torsions:
REMARK  status: ('A' for Active; 'I' for Inactive)
REMARK    1  A    between atoms: C2_20  and  C4_1 
REMARK    2  A    between atoms: C9_8  and  C11_10 
REMARK    3  A    between atoms: N3_12  and  C13_13 
REMARK    4  A    between atoms: C13_13  and  C14_14 
REMARK    5  A    between atoms: N_18  and  C_17 
ROOT
ATOM      1  C4  H3E d   1      20.579  42.813  10.767  0.00  0.00     0.070 A 
ATOM      2  C5  H3E d   1      20.925  42.053   9.652  0.00  0.00    -0.051 A 
ATOM      3  C6  H3E d   1      20.554  42.499   8.392  0.00  0.00    -0.046 A 
ATOM      4  C7  H3E d   1      19.864  43.693   8.289  0.00  0.00     0.104 A 
ATOM      5  C8  H3E d   1      19.548  44.385   9.461  0.00  0.00     0.104 A 
ATOM      6  C9  H3E d   1      18.740  45.506   9.092  0.00  0.00     0.031 A 
ATOM      7  C10 H3E d   1      18.686  45.430   7.740  0.00  0.00     0.033 A 
ATOM      8  N4  H3E d   1      19.901  43.971  10.681  0.00  0.00    -0.244 NA
ATOM      9  O   H3E d   1      19.361  44.362   7.211  0.00  0.00    -0.319 OA
ATOM     10  H1  H3E d   1      21.476  41.127   9.767  0.00  0.00     0.087 H 
ATOM     11  H2  H3E d   1      20.800  41.924   7.507  0.00  0.00     0.087 H 
ATOM     12  H3  H3E d   1      18.152  46.155   7.127  0.00  0.00     0.124 H 
ENDROOT
BRANCH   6  13
ATOM     13  C11 H3E d   1      18.161  46.467  10.022  0.00  0.00     0.015 A 
ATOM     14  C12 H3E d   1      16.969  47.216   9.913  0.00  0.00     0.034 A 
ATOM     15  N2  H3E d   1      16.685  47.856  11.029  0.00  0.00    -0.184 NA
ATOM     16  H4  H3E d   1      16.357  47.260   9.013  0.00  0.00     0.118 H 
ATOM     17  N3  H3E d   1      17.705  47.541  11.867  0.00  0.00    -0.276 N 
ATOM     18  C20 H3E d   1      18.591  46.708  11.309  0.00  0.00     0.011 A 
ATOM     19  H13 H3E d   1      19.482  46.298  11.782  0.00  0.00     0.115 H 
BRANCH  17  20
ATOM     20  C13 H3E d   1      17.761  48.107  13.212  0.00  0.00     0.040 C 
ATOM     21  H5  H3E d   1      16.805  48.610  13.419  0.00  0.00     0.074 H 
ATOM     22  H6  H3E d   1      18.578  48.843  13.247  0.00  0.00     0.074 H 
BRANCH  20  23
ATOM     23  C14 H3E d   1      18.002  47.071  14.287  0.00  0.00    -0.038 A 
ATOM     24  C15 H3E d   1      17.334  45.854  14.281  0.00  0.00    -0.075 A 
ATOM     25  C16 H3E d   1      17.481  44.960  15.324  0.00  0.00    -0.082 A 
ATOM     26  H7  H3E d   1      16.689  45.602  13.447  0.00  0.00     0.084 H 
ATOM     27  C17 H3E d   1      18.260  45.281  16.409  0.00  0.00    -0.083 A 
ATOM     28  H17 H3E d   1      16.979  44.000  15.286  0.00  0.00     0.083 H 
ATOM     29  C18 H3E d   1      18.947  46.468  16.422  0.00  0.00    -0.082 A 
ATOM     30  H16 H3E d   1      18.331  44.600  17.250  0.00  0.00     0.083 H 
ATOM     31  C19 H3E d   1      18.835  47.353  15.355  0.00  0.00    -0.075 A 
ATOM     32  H15 H3E d   1      19.579  46.717  17.267  0.00  0.00     0.083 H 
ATOM     33  H14 H3E d   1      19.407  48.274  15.360  0.00  0.00     0.084 H 
ENDBRANCH  20  23
ENDBRANCH  17  20
ENDBRANCH   6  13
BRANCH   1  34
ATOM     34  C2  H3E d   1      20.917  42.393  12.134  0.00  0.00     0.029 A 
ATOM     35  C3  H3E d   1      21.704  41.311  12.572  0.00  0.00     0.035 A 
ATOM     36  N1  H3E d   1      21.735  41.218  13.882  0.00  0.00    -0.185 NA
ATOM     37  H11 H3E d   1      22.227  40.630  11.902  0.00  0.00     0.118 H 
ATOM     38  N   H3E d   1      20.949  42.241  14.300  0.00  0.00    -0.285 N 
ATOM     39  C1  H3E d   1      20.458  42.963  13.286  0.00  0.00     0.011 A 
ATOM     40  H12 H3E d   1      19.815  43.838  13.365  0.00  0.00     0.115 H 
BRANCH  38  41
ATOM     41  C   H3E d   1      20.708  42.442  15.717  0.00  0.00     0.002 C 
ATOM     42  H8  H3E d   1      20.052  43.314  15.857  0.00  0.00     0.059 H 
ATOM     43  H9  H3E d   1      21.665  42.617  16.231  0.00  0.00     0.059 H 
ATOM     44  H10 H3E d   1      20.224  41.548  16.137  0.00  0.00     0.059 H 
ENDBRANCH  38  41
ENDBRANCH   1  34
TORSDOF 5
