REMARK WARNING: 32 MAX_TORS EXCEEDED!!!
REMARK  47 active torsions:
REMARK  status: ('A' for Active; 'I' for Inactive)
REMARK    1  A    between atoms: CA_2  and  C_3 
REMARK       I    between atoms: C_3  and  N_8 
REMARK    2  A    between atoms: N_8  and  CA_9 
REMARK    3  A    between atoms: CA_9  and  C_10 
REMARK    4  A    between atoms: CA_9  and  CB_12 
REMARK       I    between atoms: C_10  and  N_15 
REMARK    5  A    between atoms: CB_12  and  CG1_13 
REMARK    6  A    between atoms: CB_12  and  CG2_14 
REMARK    7  A    between atoms: CA_16  and  C_17 
REMARK       I    between atoms: C_17  and  N_22 
REMARK    8  A    between atoms: N_22  and  CA_23 
REMARK    9  A    between atoms: CA_23  and  C_24 
REMARK   10  A    between atoms: CA_23  and  CB_26 
REMARK       I    between atoms: C_24  and  N_30 
REMARK   11  A    between atoms: CB_26  and  CG_27 
REMARK   12  A    between atoms: N_30  and  CA_31 
REMARK   13  A    between atoms: CA_31  and  C_32 
REMARK   14  A    between atoms: CA_31  and  CB_34 
REMARK       I    between atoms: C_32  and  N_46 
REMARK   15  A    between atoms: CB_34  and  CG_35 
REMARK   16  A    between atoms: CZ_40  and  OH_41 
REMARK   17  A    between atoms: OH_41  and  P_42 
REMARK   18  A    between atoms: N_46  and  CA_47 
REMARK   19  A    between atoms: CA_47  and  C_48 
REMARK   20  A    between atoms: CA_47  and  CB_50 
REMARK       I    between atoms: C_48  and  N_53 
REMARK   21  A    between atoms: CB_50  and  OG1_51 
REMARK   22  A    between atoms: CB_50  and  CG2_52 
REMARK   23  A    between atoms: N_53  and  CA_54 
REMARK   24  A    between atoms: CA_54  and  C_55 
REMARK   25  A    between atoms: CA_54  and  CB_57 
REMARK       I    between atoms: C_55  and  N_59 
REMARK   26  A    between atoms: CB_57  and  OG_58 
REMARK   27  A    between atoms: N_59  and  CA_60 
REMARK   28  A    between atoms: CA_60  and  C_61 
REMARK   29  A    between atoms: CA_60  and  CB_63 
REMARK       I    between atoms: C_61  and  N_67 
REMARK   30  A    between atoms: CB_63  and  CG1_64 
REMARK   31  A    between atoms: CB_63  and  CG2_65 
REMARK   32  A    between atoms: CG1_64  and  CD1_66 
REMARK   33  A    between atoms: N_67  and  CA_68 
REMARK   34  A    between atoms: CA_68  and  C_69 
REMARK   35  A    between atoms: CA_68  and  CB_71 
REMARK       I    between atoms: C_69  and  N_77 
REMARK   36  A    between atoms: CB_71  and  CG_72 
REMARK   37  A    between atoms: N_77  and  CA_78 
REMARK   38  A    between atoms: CA_78  and  C_79 
REMARK   39  A    between atoms: CA_78  and  CB_81 
REMARK       I    between atoms: C_79  and  N_85 
REMARK   40  A    between atoms: CB_81  and  CG1_82 
REMARK   41  A    between atoms: CB_81  and  CG2_83 
REMARK   42  A    between atoms: CG1_82  and  CD1_84 
REMARK   43  A    between atoms: N_85  and  CA_86 
REMARK   44  A    between atoms: CA_86  and  C_87 
REMARK   45  A    between atoms: CA_86  and  CB_89 
REMARK       I    between atoms: C_87  and  NT_92 
REMARK   46  A    between atoms: CB_89  and  CG1_90 
REMARK   47  A    between atoms: CB_89  and  CG2_91 
ROOT
ATOM      1  CA  PRO d   1      60.600  -5.460  33.705  0.00  0.00     0.113 C 
ATOM      2  H39 PRO d   1      60.478  -6.452  33.245  0.00  0.00     0.091 H 
ENDROOT
BRANCH   1   3
ATOM      3  N   PRO d   1      61.483  -4.674  32.853  0.00  0.00    -0.344 N 
ATOM      4  C   PRO d   1      62.247  -5.240  31.925  0.00  0.00     0.241 C 
ATOM      5  O   PRO d   1      62.253  -6.451  31.706  0.00  0.00    -0.271 OA
ATOM      6  H38 PRO d   1      61.515  -3.681  32.970  0.00  0.00     0.163 HD
BRANCH   4   7
ATOM      7  CA  PRO d   1      63.139  -4.294  31.134  0.00  0.00     0.093 C 
ATOM      8  H31 PRO d   1      63.119  -3.312  31.629  0.00  0.00     0.088 H 
BRANCH   7   9
ATOM      9  N   PRO d   1      64.522  -4.759  31.112  0.00  0.00    -0.346 N 
ATOM     10  C   PRO d   1      65.530  -3.946  31.409  0.00  0.00     0.241 C 
ATOM     11  O   PRO d   1      65.371  -2.755  31.672  0.00  0.00    -0.271 OA
ATOM     12  H30 PRO d   1      64.715  -5.709  30.868  0.00  0.00     0.163 HD
BRANCH  10  13
ATOM     13  CA  PRO d   1      66.927  -4.562  31.414  0.00  0.00     0.098 C 
ATOM     14  H27 PRO d   1      67.548  -3.992  32.120  0.00  0.00     0.088 H 
BRANCH  13  15
ATOM     15  N   PRO d   1      66.903  -5.953  31.855  0.00  0.00    -0.346 N 
ATOM     16  C   PRO d   1      66.589  -6.283  33.103  0.00  0.00     0.241 C 
ATOM     17  O   PRO d   1      66.243  -5.456  33.950  0.00  0.00    -0.271 OA
ATOM     18  H26 PRO d   1      67.129  -6.676  31.202  0.00  0.00     0.163 HD
BRANCH  16  19
ATOM     19  CA  PRO d   1      66.681  -7.769  33.417  0.00  0.00     0.091 C 
ATOM     20  N   PRO d   1      66.807  -8.001  34.859  0.00  0.00    -0.337 N 
ATOM     21  C   PRO d   1      67.903  -7.609  35.504  0.00  0.00     0.243 C 
ATOM     22  CD  PRO d   1      65.747  -8.889  35.368  0.00  0.00    -0.001 C 
ATOM     23  O   PRO d   1      68.909  -7.234  34.882  0.00  0.00    -0.271 OA
ATOM     24  CG  PRO d   1      65.203  -9.516  34.120  0.00  0.00    -0.048 C 
ATOM     25  H24 PRO d   1      64.969  -8.315  35.893  0.00  0.00     0.064 H 
ATOM     26  H25 PRO d   1      66.161  -9.651  36.045  0.00  0.00     0.064 H 
ATOM     27  CB  PRO d   1      65.383  -8.496  33.048  0.00  0.00    -0.036 C 
ATOM     28  H22 PRO d   1      65.761 -10.432  33.876  0.00  0.00     0.035 H 
ATOM     29  H23 PRO d   1      64.137  -9.758  34.245  0.00  0.00     0.035 H 
ATOM     30  H20 PRO d   1      65.475  -8.979  32.064  0.00  0.00     0.036 H 
ATOM     31  H21 PRO d   1      64.536  -7.794  33.034  0.00  0.00     0.036 H 
ATOM     32  H19 PRO d   1      67.536  -8.201  32.877  0.00  0.00     0.087 H 
BRANCH  21  33
ATOM     33  CA  PRO d   1      67.933  -7.678  37.028  0.00  0.00     0.092 C 
ATOM     34  H11 PRO d   1      67.257  -8.483  37.351  0.00  0.00     0.088 H 
BRANCH  33  35
ATOM     35  N   PRO d   1      69.287  -8.002  37.469  0.00  0.00    -0.346 N 
ATOM     36  C   PRO d   1      69.780  -9.237  37.442  0.00  0.00     0.249 C 
ATOM     37  O   PRO d   1      69.165 -10.201  36.986  0.00  0.00    -0.271 OA
ATOM     38  H10 PRO d   1      69.869  -7.262  37.806  0.00  0.00     0.163 HD
BRANCH  36  39
ATOM     39  CA  PRO d   1      71.184  -9.418  38.015  0.00  0.00     0.178 C 
ATOM     40  N   PRO d   1      71.465 -10.804  38.398  0.00  0.00    -0.062 N 
ATOM     41  CD  PRO d   1      72.876 -11.147  38.172  0.00  0.00     0.083 C 
ATOM     42  H1  PRO d   1      70.886 -11.420  37.849  0.00  0.00     0.278 HD
ATOM     43  H2  PRO d   1      71.251 -10.924  39.376  0.00  0.00     0.278 HD
ATOM     44  CG  PRO d   1      73.229 -10.297  36.992  0.00  0.00    -0.040 C 
ATOM     45  H8  PRO d   1      72.994 -12.216  37.941  0.00  0.00     0.075 H 
ATOM     46  H9  PRO d   1      73.493 -10.890  39.046  0.00  0.00     0.075 H 
ATOM     47  CB  PRO d   1      72.255  -9.120  36.955  0.00  0.00    -0.028 C 
ATOM     48  H6  PRO d   1      74.260  -9.927  37.093  0.00  0.00     0.035 H 
ATOM     49  H7  PRO d   1      73.140 -10.886  36.067  0.00  0.00     0.035 H 
ATOM     50  H4  PRO d   1      72.779  -8.183  37.195  0.00  0.00     0.036 H 
ATOM     51  H5  PRO d   1      71.794  -9.037  35.960  0.00  0.00     0.036 H 
ATOM     52  H3  PRO d   1      71.301  -8.752  38.882  0.00  0.00     0.099 H 
ENDBRANCH  36  39
ENDBRANCH  33  35
BRANCH  33  53
ATOM     53  CB  PRO d   1      67.451  -6.364  37.670  0.00  0.00    -0.033 C 
ATOM     54  H12 PRO d   1      67.772  -6.367  38.722  0.00  0.00     0.042 H 
BRANCH  53  55
ATOM     55  CG1 PRO d   1      68.087  -5.156  36.992  0.00  0.00    -0.071 C 
ATOM     56  H13 PRO d   1      67.725  -4.234  37.471  0.00  0.00     0.028 H 
ATOM     57  H14 PRO d   1      67.814  -5.148  35.926  0.00  0.00     0.028 H 
ATOM     58  H15 PRO d   1      69.181  -5.215  37.090  0.00  0.00     0.028 H 
ENDBRANCH  53  55
BRANCH  53  59
ATOM     59  CG2 PRO d   1      65.930  -6.264  37.648  0.00  0.00    -0.071 C 
ATOM     60  H16 PRO d   1      65.497  -7.146  38.142  0.00  0.00     0.028 H 
ATOM     61  H17 PRO d   1      65.581  -6.220  36.606  0.00  0.00     0.028 H 
ATOM     62  H18 PRO d   1      65.615  -5.354  38.180  0.00  0.00     0.028 H 
ENDBRANCH  53  59
ENDBRANCH  33  53
ENDBRANCH  21  33
ENDBRANCH  16  19
ENDBRANCH  13  15
BRANCH  13  63
ATOM     63  CB  PRO d   1      67.557  -4.454  30.024  0.00  0.00     0.043 C 
ATOM     64  H28 PRO d   1      67.284  -3.482  29.588  0.00  0.00     0.052 H 
ATOM     65  H29 PRO d   1      67.161  -5.263  29.393  0.00  0.00     0.052 H 
BRANCH  63  66
ATOM     66  CG  PRO d   1      69.069  -4.563  30.062  0.00  0.00     0.175 C 
ATOM     67  OD1 PRO d   1      69.675  -4.089  31.047  0.00  0.00    -0.648 OA
ATOM     68  OD2 PRO d   1      69.653  -5.124  29.111  0.00  0.00    -0.648 OA
ENDBRANCH  63  66
ENDBRANCH  13  63
ENDBRANCH  10  13
ENDBRANCH   7   9
BRANCH   7  69
ATOM     69  CB  PRO d   1      62.600  -4.123  29.712  0.00  0.00    -0.014 C 
ATOM     70  H32 PRO d   1      61.507  -4.242  29.735  0.00  0.00     0.043 H 
ATOM     71  H33 PRO d   1      63.041  -4.903  29.074  0.00  0.00     0.043 H 
BRANCH  69  72
ATOM     72  CG  PRO d   1      62.924  -2.774  29.116  0.00  0.00    -0.056 A 
ATOM     73  CD1 PRO d   1      62.063  -1.698  29.283  0.00  0.00    -0.074 A 
ATOM     74  CE1 PRO d   1      62.356  -0.459  28.746  0.00  0.00    -0.050 A 
ATOM     75  H34 PRO d   1      61.145  -1.832  29.844  0.00  0.00     0.084 H 
ATOM     76  CZ  PRO d   1      63.524  -0.285  28.035  0.00  0.00     0.082 A 
ATOM     77  H36 PRO d   1      61.672   0.371  28.883  0.00  0.00     0.087 H 
ATOM     78  CE2 PRO d   1      64.399  -1.336  27.861  0.00  0.00    -0.050 A 
ATOM     79  CD2 PRO d   1      64.096  -2.572  28.401  0.00  0.00    -0.074 A 
ATOM     80  H37 PRO d   1      65.318  -1.194  27.305  0.00  0.00     0.087 H 
ATOM     81  H35 PRO d   1      64.785  -3.397  28.264  0.00  0.00     0.084 H 
BRANCH  76  82
ATOM     82  OH  PRO d   1      63.803   0.881  27.535  0.00  0.00    -0.240 OA
BRANCH  82  83
ATOM     83  P   PRO d   1      63.036   1.418  26.227  0.00  0.00     0.427 P 
ATOM     84  O1P PRO d   1      63.062   0.344  25.124  0.00  0.00    -0.617 OA
ATOM     85  O2P PRO d   1      61.636   1.727  26.594  0.00  0.00    -0.617 OA
ATOM     86  O3P PRO d   1      63.732   2.699  25.732  0.00  0.00    -0.617 OA
ENDBRANCH  82  83
ENDBRANCH  76  82
ENDBRANCH  69  72
ENDBRANCH   7  69
ENDBRANCH   4   7
ENDBRANCH   1   3
BRANCH   1  87
ATOM     87  C   PRO d   1      59.225  -4.812  33.833  0.00  0.00     0.243 C 
ATOM     88  O   PRO d   1      59.050  -3.638  33.510  0.00  0.00    -0.271 OA
ATOM     89  N   PRO d   1      58.255  -5.589  34.306  0.00  0.00    -0.344 N 
ATOM     90  H45 PRO d   1      58.455  -6.556  34.465  0.00  0.00     0.163 HD
BRANCH  89  91
ATOM     91  CA  PRO d   1      56.919  -5.101  34.603  0.00  0.00     0.109 C 
ATOM     92  H46 PRO d   1      56.906  -4.010  34.465  0.00  0.00     0.090 H 
BRANCH  91  93
ATOM     93  C   PRO d   1      56.579  -5.417  36.054  0.00  0.00     0.243 C 
ATOM     94  O   PRO d   1      57.149  -6.325  36.663  0.00  0.00    -0.271 OA
ATOM     95  N   PRO d   1      55.641  -4.653  36.608  0.00  0.00    -0.346 N 
ATOM     96  H50 PRO d   1      55.142  -3.992  36.047  0.00  0.00     0.163 HD
BRANCH  95  97
ATOM     97  CA  PRO d   1      55.336  -4.773  38.027  0.00  0.00     0.092 C 
ATOM     98  H51 PRO d   1      56.268  -5.019  38.557  0.00  0.00     0.088 H 
BRANCH  97  99
ATOM     99  C   PRO d   1      54.346  -5.910  38.258  0.00  0.00     0.241 C 
ATOM    100  O   PRO d   1      53.620  -6.341  37.358  0.00  0.00    -0.271 OA
ATOM    101  N   PRO d   1      54.329  -6.404  39.496  0.00  0.00    -0.346 N 
ATOM    102  H61 PRO d   1      54.974  -6.039  40.168  0.00  0.00     0.163 HD
BRANCH 101 103
ATOM    103  CA  PRO d   1      53.405  -7.458  39.910  0.00  0.00     0.094 C 
ATOM    104  H62 PRO d   1      52.495  -7.405  39.294  0.00  0.00     0.088 H 
BRANCH 103 105
ATOM    105  C   PRO d   1      53.041  -7.195  41.364  0.00  0.00     0.241 C 
ATOM    106  O   PRO d   1      53.886  -7.340  42.253  0.00  0.00    -0.271 OA
ATOM    107  N   PRO d   1      51.791  -6.812  41.602  0.00  0.00    -0.346 N 
ATOM    108  H68 PRO d   1      51.143  -6.771  40.842  0.00  0.00     0.163 HD
BRANCH 107 109
ATOM    109  CA  PRO d   1      51.337  -6.450  42.938  0.00  0.00     0.092 C 
ATOM    110  H69 PRO d   1      52.212  -6.133  43.524  0.00  0.00     0.088 H 
BRANCH 109 111
ATOM    111  C   PRO d   1      50.706  -7.648  43.640  0.00  0.00     0.241 C 
ATOM    112  O   PRO d   1      49.796  -8.282  43.107  0.00  0.00    -0.271 OA
ATOM    113  N   PRO d   1      51.192  -7.952  44.840  0.00  0.00    -0.346 N 
ATOM    114  H79 PRO d   1      51.449  -7.075  45.246  0.00  0.00     0.163 HD
BRANCH 113 115
ATOM    115  CA  PRO d   1      51.530  -8.952  45.848  0.00  0.00     0.092 C 
ATOM    116  H80 PRO d   1      50.877  -9.827  45.715  0.00  0.00     0.088 H 
BRANCH 115 117
ATOM    117  C   PRO d   1      51.306  -8.392  47.255  0.00  0.00     0.238 C 
ATOM    118  O   PRO d   1      51.728  -7.271  47.549  0.00  0.00    -0.271 OA
ATOM    119  NT  PRO d   1      50.648  -9.164  48.106  0.00  0.00    -0.368 N 
ATOM    120  H88 PRO d   1      50.475  -8.846  49.038  0.00  0.00     0.159 HD
ATOM    121  H89 PRO d   1      50.325 -10.065  47.817  0.00  0.00     0.159 HD
ENDBRANCH 115 117
BRANCH 115 122
ATOM    122  CB  PRO d   1      53.006  -9.394  45.639  0.00  0.00    -0.033 C 
ATOM    123  H81 PRO d   1      53.647  -8.501  45.594  0.00  0.00     0.042 H 
BRANCH 122 124
ATOM    124  CG1 PRO d   1      53.117 -10.155  44.326  0.00  0.00    -0.071 C 
ATOM    125  H82 PRO d   1      54.160 -10.471  44.172  0.00  0.00     0.028 H 
ATOM    126  H83 PRO d   1      52.805  -9.503  43.497  0.00  0.00     0.028 H 
ATOM    127  H84 PRO d   1      52.467 -11.041  44.360  0.00  0.00     0.028 H 
ENDBRANCH 122 124
BRANCH 122 128
ATOM    128  CG2 PRO d   1      53.461 -10.270  46.798  0.00  0.00    -0.071 C 
ATOM    129  H85 PRO d   1      53.375  -9.707  47.739  0.00  0.00     0.028 H 
ATOM    130  H86 PRO d   1      54.508 -10.568  46.643  0.00  0.00     0.028 H 
ATOM    131  H87 PRO d   1      52.828 -11.168  46.849  0.00  0.00     0.028 H 
ENDBRANCH 122 128
ENDBRANCH 115 122
ENDBRANCH 113 115
ENDBRANCH 109 111
BRANCH 109 132
ATOM    132  CB  PRO d   1      50.351  -5.270  42.872  0.00  0.00    -0.030 C 
ATOM    133  H70 PRO d   1      49.600  -5.492  42.100  0.00  0.00     0.043 H 
BRANCH 132 134
ATOM    134  CG1 PRO d   1      51.082  -3.986  42.474  0.00  0.00    -0.063 C 
ATOM    135  H71 PRO d   1      51.645  -4.179  41.549  0.00  0.00     0.033 H 
ATOM    136  H72 PRO d   1      51.782  -3.721  43.280  0.00  0.00     0.033 H 
BRANCH 134 137
ATOM    137  CD1 PRO d   1      50.162  -2.811  42.236  0.00  0.00    -0.076 C 
ATOM    138  H76 PRO d   1      50.758  -1.930  41.955  0.00  0.00     0.027 H 
ATOM    139  H77 PRO d   1      49.598  -2.595  43.155  0.00  0.00     0.027 H 
ATOM    140  H78 PRO d   1      49.461  -3.053  41.424  0.00  0.00     0.027 H 
ENDBRANCH 134 137
ENDBRANCH 132 134
BRANCH 132 141
ATOM    141  CG2 PRO d   1      49.630  -5.096  44.196  0.00  0.00    -0.071 C 
ATOM    142  H73 PRO d   1      49.114  -6.031  44.458  0.00  0.00     0.028 H 
ATOM    143  H74 PRO d   1      48.894  -4.283  44.109  0.00  0.00     0.028 H 
ATOM    144  H75 PRO d   1      50.359  -4.847  44.981  0.00  0.00     0.028 H 
ENDBRANCH 132 141
ENDBRANCH 109 132
ENDBRANCH 107 109
ENDBRANCH 103 105
BRANCH 103 145
ATOM    145  CB  PRO d   1      54.027  -8.842  39.733  0.00  0.00     0.004 C 
ATOM    146  H63 PRO d   1      54.993  -8.857  40.259  0.00  0.00     0.046 H 
ATOM    147  H64 PRO d   1      54.192  -9.013  38.659  0.00  0.00     0.046 H 
BRANCH 145 148
ATOM    148  CG  PRO d   1      53.184  -9.961  40.264  0.00  0.00     0.053 A 
ATOM    149  ND1 PRO d   1      51.837  -9.826  40.523  0.00  0.00    -0.247 NA
ATOM    150  CE1 PRO d   1      51.362 -10.971  40.980  0.00  0.00     0.064 A 
ATOM    151  NE2 PRO d   1      52.351 -11.845  41.024  0.00  0.00    -0.359 N 
ATOM    152  H66 PRO d   1      50.330 -11.162  41.271  0.00  0.00     0.143 H 
ATOM    153  CD2 PRO d   1      53.501 -11.239  40.581  0.00  0.00     0.002 A 
ATOM    154  H67 PRO d   1      52.273 -12.822  41.339  0.00  0.00     0.166 HD
ATOM    155  H65 PRO d   1      54.484 -11.700  40.500  0.00  0.00     0.114 H 
ENDBRANCH 145 148
ENDBRANCH 103 145
ENDBRANCH 101 103
ENDBRANCH  97  99
BRANCH  97 156
ATOM    156  CB  PRO d   1      54.805  -3.446  38.598  0.00  0.00    -0.030 C 
ATOM    157  H52 PRO d   1      54.752  -3.534  39.693  0.00  0.00     0.043 H 
BRANCH 156 158
ATOM    158  CG1 PRO d   1      53.401  -3.161  38.069  0.00  0.00    -0.063 C 
ATOM    159  H53 PRO d   1      52.797  -4.075  38.171  0.00  0.00     0.033 H 
ATOM    160  H54 PRO d   1      53.477  -2.888  37.006  0.00  0.00     0.033 H 
BRANCH 158 161
ATOM    161  CD1 PRO d   1      52.704  -2.044  38.800  0.00  0.00    -0.076 C 
ATOM    162  H58 PRO d   1      51.703  -1.893  38.370  0.00  0.00     0.027 H 
ATOM    163  H59 PRO d   1      53.290  -1.118  38.700  0.00  0.00     0.027 H 
ATOM    164  H60 PRO d   1      52.610  -2.305  39.864  0.00  0.00     0.027 H 
ENDBRANCH 158 161
ENDBRANCH 156 158
BRANCH 156 165
ATOM    165  CG2 PRO d   1      55.747  -2.310  38.254  0.00  0.00    -0.071 C 
ATOM    166  H55 PRO d   1      56.751  -2.535  38.644  0.00  0.00     0.028 H 
ATOM    167  H56 PRO d   1      55.379  -1.378  38.707  0.00  0.00     0.028 H 
ATOM    168  H57 PRO d   1      55.796  -2.192  37.161  0.00  0.00     0.028 H 
ENDBRANCH 156 165
ENDBRANCH  97 156
ENDBRANCH  95  97
ENDBRANCH  91  93
BRANCH  91 169
ATOM    169  CB  PRO d   1      55.875  -5.719  33.664  0.00  0.00     0.044 C 
ATOM    170  H47 PRO d   1      55.919  -5.207  32.691  0.00  0.00     0.077 H 
ATOM    171  H48 PRO d   1      54.875  -5.587  34.103  0.00  0.00     0.077 H 
BRANCH 169 172
ATOM    172  OG  PRO d   1      56.115  -7.101  33.470  0.00  0.00    -0.398 OA
ATOM    173  H49 PRO d   1      55.456  -7.457  32.886  0.00  0.00     0.209 HD
ENDBRANCH 169 172
ENDBRANCH  91 169
ENDBRANCH  89  91
ENDBRANCH   1  87
BRANCH   1 174
ATOM    174  CB  PRO d   1      61.193  -5.643  35.117  0.00  0.00     0.060 C 
ATOM    175  H40 PRO d   1      60.428  -6.090  35.770  0.00  0.00     0.086 H 
BRANCH 174 176
ATOM    176  OG1 PRO d   1      61.577  -4.368  35.646  0.00  0.00    -0.393 OA
ATOM    177  H41 PRO d   1      62.229  -3.974  35.078  0.00  0.00     0.210 HD
ENDBRANCH 174 176
BRANCH 174 178
ATOM    178  CG2 PRO d   1      62.406  -6.560  35.079  0.00  0.00    -0.050 C 
ATOM    179  H42 PRO d   1      62.811  -6.675  36.095  0.00  0.00     0.031 H 
ATOM    180  H43 PRO d   1      63.175  -6.123  34.425  0.00  0.00     0.031 H 
ATOM    181  H44 PRO d   1      62.109  -7.545  34.689  0.00  0.00     0.031 H 
ENDBRANCH 174 178
ENDBRANCH   1 174
TORSDOF 47
