REMARK WARNING: 32 MAX_TORS EXCEEDED!!!
REMARK  44 active torsions:
REMARK  status: ('A' for Active; 'I' for Inactive)
REMARK    1  A    between atoms: N_1  and  CA_2 
REMARK    2  A    between atoms: CA_2  and  C_3 
REMARK    3  A    between atoms: CA_2  and  CB_5 
REMARK       I    between atoms: C_3  and  N_6 
REMARK    4  A    between atoms: CA_7  and  C_8 
REMARK       I    between atoms: C_8  and  N_13 
REMARK    5  A    between atoms: N_13  and  CA_14 
REMARK    6  A    between atoms: CA_14  and  C_15 
REMARK    7  A    between atoms: CA_14  and  CB_17 
REMARK       I    between atoms: C_15  and  N_21 
REMARK    8  A    between atoms: CB_17  and  CG_18 
REMARK    9  A    between atoms: N_21  and  CA_22 
REMARK   10  A    between atoms: CA_22  and  C_23 
REMARK   11  A    between atoms: CA_22  and  CB_25 
REMARK       I    between atoms: C_23  and  N_37 
REMARK   12  A    between atoms: CB_25  and  CG_26 
REMARK   13  A    between atoms: CZ_31  and  OH_32 
REMARK   14  A    between atoms: OH_32  and  P_33 
REMARK   15  A    between atoms: N_37  and  CA_38 
REMARK   16  A    between atoms: CA_38  and  C_39 
REMARK   17  A    between atoms: CA_38  and  CB_41 
REMARK       I    between atoms: C_39  and  N_44 
REMARK   18  A    between atoms: CB_41  and  OG1_42 
REMARK   19  A    between atoms: CB_41  and  CG2_43 
REMARK   20  A    between atoms: N_44  and  CA_45 
REMARK   21  A    between atoms: CA_45  and  C_46 
REMARK   22  A    between atoms: CA_45  and  CB_48 
REMARK       I    between atoms: C_46  and  N_50 
REMARK   23  A    between atoms: CB_48  and  OG_49 
REMARK   24  A    between atoms: N_50  and  CA_51 
REMARK   25  A    between atoms: CA_51  and  C_52 
REMARK   26  A    between atoms: CA_51  and  CB_54 
REMARK       I    between atoms: C_52  and  N_58 
REMARK   27  A    between atoms: CB_54  and  CG1_55 
REMARK   28  A    between atoms: CB_54  and  CG2_56 
REMARK   29  A    between atoms: CG1_55  and  CD1_57 
REMARK   30  A    between atoms: N_58  and  CA_59 
REMARK   31  A    between atoms: CA_59  and  C_60 
REMARK   32  A    between atoms: CA_59  and  CB_62 
REMARK       I    between atoms: C_60  and  N_68 
REMARK   33  A    between atoms: CB_62  and  CG_63 
REMARK   34  A    between atoms: N_68  and  CA_69 
REMARK   35  A    between atoms: CA_69  and  C_70 
REMARK   36  A    between atoms: CA_69  and  CB_72 
REMARK       I    between atoms: C_70  and  N_76 
REMARK   37  A    between atoms: CB_72  and  CG1_73 
REMARK   38  A    between atoms: CB_72  and  CG2_74 
REMARK   39  A    between atoms: CG1_73  and  CD1_75 
REMARK   40  A    between atoms: N_76  and  CA_77 
REMARK   41  A    between atoms: CA_77  and  C_78 
REMARK   42  A    between atoms: CA_77  and  CB_80 
REMARK       I    between atoms: C_78  and  NT_83 
REMARK   43  A    between atoms: CB_80  and  CG1_81 
REMARK   44  A    between atoms: CB_80  and  CG2_82 
ROOT
ATOM      1  CA  VAL d   1       4.526  48.263 -25.749  0.00  0.00     0.109 C 
ATOM      2  H35 VAL d   1       3.828  48.407 -26.587  0.00  0.00     0.090 H 
ENDROOT
BRANCH   1   3
ATOM      3  N   VAL d   1       3.983  48.935 -24.579  0.00  0.00    -0.344 N 
ATOM      4  C   VAL d   1       2.794  48.575 -24.094  0.00  0.00     0.243 C 
ATOM      5  O   VAL d   1       2.061  47.746 -24.643  0.00  0.00    -0.271 OA
ATOM      6  H34 VAL d   1       4.502  49.667 -24.138  0.00  0.00     0.163 HD
BRANCH   4   7
ATOM      7  CA  VAL d   1       2.337  49.242 -22.800  0.00  0.00     0.113 C 
ATOM      8  H28 VAL d   1       2.987  50.102 -22.582  0.00  0.00     0.091 H 
BRANCH   7   9
ATOM      9  N   VAL d   1       0.964  49.725 -22.968  0.00  0.00    -0.344 N 
ATOM     10  C   VAL d   1       0.595  50.956 -22.632  0.00  0.00     0.241 C 
ATOM     11  O   VAL d   1       1.310  51.729 -22.018  0.00  0.00    -0.271 OA
ATOM     12  H27 VAL d   1       0.279  49.105 -23.350  0.00  0.00     0.163 HD
BRANCH  10  13
ATOM     13  CA  VAL d   1      -0.789  51.405 -23.070  0.00  0.00     0.093 C 
ATOM     14  H20 VAL d   1      -1.364  50.524 -23.392  0.00  0.00     0.088 H 
BRANCH  13  15
ATOM     15  N   VAL d   1      -1.516  52.041 -21.981  0.00  0.00    -0.346 N 
ATOM     16  C   VAL d   1      -1.845  51.345 -20.901  0.00  0.00     0.241 C 
ATOM     17  O   VAL d   1      -1.565  50.164 -20.768  0.00  0.00    -0.271 OA
ATOM     18  H19 VAL d   1      -1.768  53.006 -22.047  0.00  0.00     0.163 HD
BRANCH  16  19
ATOM     19  CA  VAL d   1      -2.593  52.075 -19.803  0.00  0.00     0.098 C 
ATOM     20  H16 VAL d   1      -2.914  53.058 -20.178  0.00  0.00     0.088 H 
BRANCH  19  21
ATOM     21  N   VAL d   1      -3.773  51.315 -19.418  0.00  0.00    -0.346 N 
ATOM     22  C   VAL d   1      -4.713  50.997 -20.310  0.00  0.00     0.241 C 
ATOM     23  O   VAL d   1      -4.719  51.429 -21.467  0.00  0.00    -0.271 OA
ATOM     24  H15 VAL d   1      -3.881  51.026 -18.467  0.00  0.00     0.163 HD
BRANCH  22  25
ATOM     25  CA  VAL d   1      -5.825  50.088 -19.811  0.00  0.00     0.091 C 
ATOM     26  N   VAL d   1      -7.147  50.609 -20.200  0.00  0.00    -0.337 N 
ATOM     27  C   VAL d   1      -7.554  51.798 -19.722  0.00  0.00     0.250 C 
ATOM     28  CD  VAL d   1      -7.753  49.775 -21.257  0.00  0.00    -0.001 C 
ATOM     29  O   VAL d   1      -6.803  52.549 -19.090  0.00  0.00    -0.271 OA
ATOM     30  CG  VAL d   1      -7.200  48.432 -20.975  0.00  0.00    -0.048 C 
ATOM     31  H13 VAL d   1      -7.455  50.124 -22.256  0.00  0.00     0.064 H 
ATOM     32  H14 VAL d   1      -8.850  49.775 -21.181  0.00  0.00     0.064 H 
ATOM     33  CB  VAL d   1      -5.769  48.707 -20.482  0.00  0.00    -0.036 C 
ATOM     34  H11 VAL d   1      -7.789  47.923 -20.198  0.00  0.00     0.035 H 
ATOM     35  H12 VAL d   1      -7.187  47.817 -21.887  0.00  0.00     0.035 H 
ATOM     36  H9  VAL d   1      -5.458  47.940 -19.758  0.00  0.00     0.036 H 
ATOM     37  H10 VAL d   1      -5.066  48.719 -21.328  0.00  0.00     0.036 H 
ATOM     38  H8  VAL d   1      -5.750  49.991 -18.718  0.00  0.00     0.087 H 
BRANCH  27  39
ATOM     39  CA  VAL d   1      -9.011  52.247 -19.974  0.00  0.00     0.172 C 
ATOM     40  H4  VAL d   1      -9.097  53.282 -19.613  0.00  0.00     0.098 H 
BRANCH  39  41
ATOM     41  N   VAL d   1      -9.384  52.257 -21.389  0.00  0.00    -0.067 N 
ATOM     42  H1  VAL d   1     -10.342  52.558 -21.482  0.00  0.00     0.275 HD
ATOM     43  H2  VAL d   1      -9.285  51.329 -21.769  0.00  0.00     0.275 HD
ATOM     44  H3  VAL d   1      -8.782  52.892 -21.891  0.00  0.00     0.275 HD
ENDBRANCH  39  41
BRANCH  39  45
ATOM     45  CB  VAL d   1      -9.993  51.376 -19.140  0.00  0.00    -0.042 C 
ATOM     46  H5  VAL d   1      -9.687  51.388 -18.083  0.00  0.00     0.030 H 
ATOM     47  H6  VAL d   1      -9.975  50.342 -19.515  0.00  0.00     0.030 H 
ATOM     48  H7  VAL d   1     -11.011  51.782 -19.232  0.00  0.00     0.030 H 
ENDBRANCH  39  45
ENDBRANCH  27  39
ENDBRANCH  22  25
ENDBRANCH  19  21
BRANCH  19  49
ATOM     49  CB  VAL d   1      -1.652  52.282 -18.608  0.00  0.00     0.043 C 
ATOM     50  H17 VAL d   1      -0.629  52.422 -18.987  0.00  0.00     0.052 H 
ATOM     51  H18 VAL d   1      -1.688  51.384 -17.974  0.00  0.00     0.052 H 
BRANCH  49  52
ATOM     52  CG  VAL d   1      -2.024  53.486 -17.763  0.00  0.00     0.175 C 
ATOM     53  OD1 VAL d   1      -2.665  54.421 -18.287  0.00  0.00    -0.648 OA
ATOM     54  OD2 VAL d   1      -1.653  53.498 -16.572  0.00  0.00    -0.648 OA
ENDBRANCH  49  52
ENDBRANCH  19  49
ENDBRANCH  16  19
ENDBRANCH  13  15
BRANCH  13  55
ATOM     55  CB  VAL d   1      -0.608  52.335 -24.265  0.00  0.00    -0.014 C 
ATOM     56  H21 VAL d   1      -0.119  53.258 -23.920  0.00  0.00     0.043 H 
ATOM     57  H22 VAL d   1      -1.600  52.577 -24.675  0.00  0.00     0.043 H 
BRANCH  55  58
ATOM     58  CG  VAL d   1       0.234  51.724 -25.365  0.00  0.00    -0.056 A 
ATOM     59  CD1 VAL d   1       1.626  51.854 -25.377  0.00  0.00    -0.074 A 
ATOM     60  CE1 VAL d   1       2.389  51.295 -26.385  0.00  0.00    -0.050 A 
ATOM     61  H23 VAL d   1       2.116  52.403 -24.581  0.00  0.00     0.084 H 
ATOM     62  CZ  VAL d   1       1.759  50.596 -27.402  0.00  0.00     0.082 A 
ATOM     63  H25 VAL d   1       3.468  51.402 -26.380  0.00  0.00     0.087 H 
ATOM     64  CE2 VAL d   1       0.386  50.451 -27.402  0.00  0.00    -0.050 A 
ATOM     65  CD2 VAL d   1      -0.363  51.007 -26.389  0.00  0.00    -0.074 A 
ATOM     66  H26 VAL d   1      -0.102  49.900 -28.198  0.00  0.00     0.087 H 
ATOM     67  H24 VAL d   1      -1.440  50.881 -26.393  0.00  0.00     0.084 H 
BRANCH  62  68
ATOM     68  OH  VAL d   1       2.437  50.040 -28.367  0.00  0.00    -0.240 OA
BRANCH  68  69
ATOM     69  P   VAL d   1       3.466  50.825 -29.332  0.00  0.00     0.427 P 
ATOM     70  O1P VAL d   1       3.609  50.016 -30.639  0.00  0.00    -0.617 OA
ATOM     71  O2P VAL d   1       4.812  50.894 -28.597  0.00  0.00    -0.617 OA
ATOM     72  O3P VAL d   1       3.022  52.215 -29.610  0.00  0.00    -0.617 OA
ENDBRANCH  68  69
ENDBRANCH  62  68
ENDBRANCH  55  58
ENDBRANCH  13  55
ENDBRANCH  10  13
ENDBRANCH   7   9
BRANCH   7  73
ATOM     73  CB  VAL d   1       2.472  48.215 -21.652  0.00  0.00     0.060 C 
ATOM     74  H29 VAL d   1       3.498  47.818 -21.657  0.00  0.00     0.086 H 
BRANCH  73  75
ATOM     75  OG1 VAL d   1       1.556  47.125 -21.866  0.00  0.00    -0.393 OA
ATOM     76  H30 VAL d   1       1.642  46.497 -21.159  0.00  0.00     0.210 HD
ENDBRANCH  73  75
BRANCH  73  77
ATOM     77  CG2 VAL d   1       2.219  48.872 -20.298  0.00  0.00    -0.050 C 
ATOM     78  H31 VAL d   1       2.321  48.121 -19.501  0.00  0.00     0.031 H 
ATOM     79  H32 VAL d   1       1.202  49.291 -20.278  0.00  0.00     0.031 H 
ATOM     80  H33 VAL d   1       2.951  49.677 -20.139  0.00  0.00     0.031 H 
ENDBRANCH  73  77
ENDBRANCH   7  73
ENDBRANCH   4   7
ENDBRANCH   1   3
BRANCH   1  81
ATOM     81  C   VAL d   1       4.677  46.773 -25.488  0.00  0.00     0.243 C 
ATOM     82  O   VAL d   1       5.195  46.360 -24.447  0.00  0.00    -0.271 OA
ATOM     83  N   VAL d   1       4.262  45.966 -26.460  0.00  0.00    -0.346 N 
ATOM     84  H39 VAL d   1       3.896  46.374 -27.297  0.00  0.00     0.163 HD
BRANCH  83  85
ATOM     85  CA  VAL d   1       4.317  44.512 -26.359  0.00  0.00     0.092 C 
ATOM     86  H40 VAL d   1       4.851  44.240 -25.437  0.00  0.00     0.088 H 
BRANCH  85  87
ATOM     87  C   VAL d   1       5.086  43.993 -27.560  0.00  0.00     0.241 C 
ATOM     88  O   VAL d   1       4.586  44.058 -28.690  0.00  0.00    -0.271 OA
ATOM     89  N   VAL d   1       6.294  43.480 -27.321  0.00  0.00    -0.346 N 
ATOM     90  H50 VAL d   1       6.687  43.561 -26.405  0.00  0.00     0.163 HD
BRANCH  89  91
ATOM     91  CA  VAL d   1       7.051  42.806 -28.363  0.00  0.00     0.094 C 
ATOM     92  H51 VAL d   1       6.988  43.396 -29.290  0.00  0.00     0.088 H 
BRANCH  91  93
ATOM     93  C   VAL d   1       6.467  41.419 -28.610  0.00  0.00     0.241 C 
ATOM     94  O   VAL d   1       6.047  40.737 -27.674  0.00  0.00    -0.271 OA
ATOM     95  N   VAL d   1       6.461  40.987 -29.866  0.00  0.00    -0.346 N 
ATOM     96  H57 VAL d   1       6.663  41.619 -30.614  0.00  0.00     0.163 HD
BRANCH  95  97
ATOM     97  CA  VAL d   1       6.160  39.590 -30.151  0.00  0.00     0.092 C 
ATOM     98  H58 VAL d   1       6.076  39.065 -29.188  0.00  0.00     0.088 H 
BRANCH  97  99
ATOM     99  C   VAL d   1       7.277  38.946 -30.940  0.00  0.00     0.241 C 
ATOM    100  O   VAL d   1       7.978  39.607 -31.685  0.00  0.00    -0.271 OA
ATOM    101  N   VAL d   1       7.770  37.883 -30.188  0.00  0.00    -0.346 N 
ATOM    102  H68 VAL d   1       7.295  37.526 -29.384  0.00  0.00     0.163 HD
BRANCH 101 103
ATOM    103  CA  VAL d   1       9.040  37.328 -30.666  0.00  0.00     0.092 C 
ATOM    104  H69 VAL d   1       9.389  37.893 -31.543  0.00  0.00     0.088 H 
BRANCH 103 105
ATOM    105  C   VAL d   1       8.824  35.867 -31.059  0.00  0.00     0.238 C 
ATOM    106  O   VAL d   1       7.947  35.207 -30.494  0.00  0.00    -0.271 OA
ATOM    107  NT  VAL d   1       9.598  35.379 -32.015  0.00  0.00    -0.368 N 
ATOM    108  H77 VAL d   1       9.494  34.428 -32.306  0.00  0.00     0.159 HD
ATOM    109  H78 VAL d   1      10.287  35.961 -32.446  0.00  0.00     0.159 HD
ENDBRANCH 103 105
BRANCH 103 110
ATOM    110  CB  VAL d   1      10.100  37.450 -29.509  0.00  0.00    -0.033 C 
ATOM    111  H70 VAL d   1      11.093  37.216 -29.920  0.00  0.00     0.042 H 
BRANCH 110 112
ATOM    112  CG1 VAL d   1       9.786  36.456 -28.403  0.00  0.00    -0.071 C 
ATOM    113  H71 VAL d   1      10.533  36.551 -27.601  0.00  0.00     0.028 H 
ATOM    114  H72 VAL d   1       9.813  35.434 -28.810  0.00  0.00     0.028 H 
ATOM    115  H73 VAL d   1       8.785  36.663 -27.997  0.00  0.00     0.028 H 
ENDBRANCH 110 112
BRANCH 110 116
ATOM    116  CG2 VAL d   1      10.129  38.863 -28.951  0.00  0.00    -0.071 C 
ATOM    117  H74 VAL d   1      10.357  39.572 -29.760  0.00  0.00     0.028 H 
ATOM    118  H75 VAL d   1      10.903  38.934 -28.172  0.00  0.00     0.028 H 
ATOM    119  H76 VAL d   1       9.148  39.106 -28.516  0.00  0.00     0.028 H 
ENDBRANCH 110 116
ENDBRANCH 103 110
ENDBRANCH 101 103
ENDBRANCH  97  99
BRANCH  97 120
ATOM    120  CB  VAL d   1       4.833  39.421 -30.893  0.00  0.00    -0.030 C 
ATOM    121  H59 VAL d   1       4.767  38.371 -31.215  0.00  0.00     0.043 H 
BRANCH 120 122
ATOM    122  CG1 VAL d   1       4.784  40.284 -32.146  0.00  0.00    -0.063 C 
ATOM    123  H60 VAL d   1       5.617  40.001 -32.807  0.00  0.00     0.033 H 
ATOM    124  H61 VAL d   1       4.888  41.340 -31.856  0.00  0.00     0.033 H 
BRANCH 122 125
ATOM    125  CD1 VAL d   1       3.466  40.104 -32.903  0.00  0.00    -0.076 C 
ATOM    126  H65 VAL d   1       3.468  40.742 -33.799  0.00  0.00     0.027 H 
ATOM    127  H66 VAL d   1       2.627  40.390 -32.252  0.00  0.00     0.027 H 
ATOM    128  H67 VAL d   1       3.356  39.051 -33.202  0.00  0.00     0.027 H 
ENDBRANCH 122 125
ENDBRANCH 120 122
BRANCH 120 129
ATOM    129  CG2 VAL d   1       3.633  39.692 -29.964  0.00  0.00    -0.071 C 
ATOM    130  H62 VAL d   1       3.706  39.050 -29.074  0.00  0.00     0.028 H 
ATOM    131  H63 VAL d   1       2.698  39.471 -30.499  0.00  0.00     0.028 H 
ATOM    132  H64 VAL d   1       3.639  40.748 -29.656  0.00  0.00     0.028 H 
ENDBRANCH 120 129
ENDBRANCH  97 120
ENDBRANCH  95  97
ENDBRANCH  91  93
BRANCH  91 133
ATOM    133  CB  VAL d   1       8.523  42.671 -27.954  0.00  0.00     0.004 C 
ATOM    134  H52 VAL d   1       8.969  41.853 -28.538  0.00  0.00     0.046 H 
ATOM    135  H53 VAL d   1       8.561  42.420 -26.884  0.00  0.00     0.046 H 
BRANCH 133 136
ATOM    136  CG  VAL d   1       9.342  43.906 -28.176  0.00  0.00     0.053 A 
ATOM    137  ND1 VAL d   1      10.702  43.942 -27.940  0.00  0.00    -0.247 NA
ATOM    138  CE1 VAL d   1      11.166  45.147 -28.222  0.00  0.00     0.064 A 
ATOM    139  NE2 VAL d   1      10.155  45.901 -28.622  0.00  0.00    -0.359 N 
ATOM    140  H55 VAL d   1      12.204  45.465 -28.139  0.00  0.00     0.143 H 
ATOM    141  CD2 VAL d   1       9.001  45.146 -28.609  0.00  0.00     0.002 A 
ATOM    142  H56 VAL d   1      10.219  46.891 -28.898  0.00  0.00     0.166 HD
ATOM    143  H54 VAL d   1       8.005  45.481 -28.893  0.00  0.00     0.114 H 
ENDBRANCH 133 136
ENDBRANCH  91 133
ENDBRANCH  89  91
ENDBRANCH  85  87
BRANCH  85 144
ATOM    144  CB  VAL d   1       2.929  43.871 -26.321  0.00  0.00    -0.030 C 
ATOM    145  H41 VAL d   1       2.437  44.059 -27.287  0.00  0.00     0.043 H 
BRANCH 144 146
ATOM    146  CG1 VAL d   1       2.056  44.486 -25.228  0.00  0.00    -0.063 C 
ATOM    147  H42 VAL d   1       1.782  45.508 -25.530  0.00  0.00     0.033 H 
ATOM    148  H43 VAL d   1       2.635  44.523 -24.294  0.00  0.00     0.033 H 
BRANCH 146 149
ATOM    149  CD1 VAL d   1       0.773  43.688 -24.978  0.00  0.00    -0.076 C 
ATOM    150  H47 VAL d   1       0.187  44.175 -24.185  0.00  0.00     0.027 H 
ATOM    151  H48 VAL d   1       1.032  42.665 -24.667  0.00  0.00     0.027 H 
ATOM    152  H49 VAL d   1       0.178  43.650 -25.903  0.00  0.00     0.027 H 
ENDBRANCH 146 149
ENDBRANCH 144 146
BRANCH 144 153
ATOM    153  CG2 VAL d   1       3.081  42.361 -26.150  0.00  0.00    -0.071 C 
ATOM    154  H44 VAL d   1       3.715  41.963 -26.956  0.00  0.00     0.028 H 
ATOM    155  H45 VAL d   1       2.090  41.885 -26.194  0.00  0.00     0.028 H 
ATOM    156  H46 VAL d   1       3.548  42.147 -25.177  0.00  0.00     0.028 H 
ENDBRANCH 144 153
ENDBRANCH  85 144
ENDBRANCH  83  85
ENDBRANCH   1  81
BRANCH   1 157
ATOM    157  CB  VAL d   1       5.883  48.846 -26.137  0.00  0.00     0.044 C 
ATOM    158  H36 VAL d   1       6.218  48.384 -27.077  0.00  0.00     0.077 H 
ATOM    159  H37 VAL d   1       6.610  48.627 -25.341  0.00  0.00     0.077 H 
BRANCH 157 160
ATOM    160  OG  VAL d   1       5.798  50.237 -26.313  0.00  0.00    -0.398 OA
ATOM    161  H38 VAL d   1       5.173  50.430 -27.002  0.00  0.00     0.209 HD
ENDBRANCH 157 160
ENDBRANCH   1 157
TORSDOF 44
