REMARK  27 active torsions:
REMARK  status: ('A' for Active; 'I' for Inactive)
REMARK    1  A    between atoms: N_1  and  CA_2 
REMARK    2  A    between atoms: CA_2  and  C_3 
REMARK    3  A    between atoms: CA_2  and  CB_5 
REMARK       I    between atoms: C_3  and  N_7 
REMARK    4  A    between atoms: CB_5  and  CG_6 
REMARK    5  A    between atoms: N_7  and  CA_8 
REMARK    6  A    between atoms: CA_8  and  C_9 
REMARK    7  A    between atoms: CA_8  and  CB_11 
REMARK       I    between atoms: C_9  and  N_12 
REMARK    8  A    between atoms: N_12  and  CA_13 
REMARK    9  A    between atoms: CA_13  and  C_14 
REMARK   10  A    between atoms: CA_13  and  CB_16 
REMARK       I    between atoms: C_14  and  N_20 
REMARK   11  A    between atoms: CB_16  and  CG_17 
REMARK   12  A    between atoms: N_20  and  CA_21 
REMARK   13  A    between atoms: CA_21  and  C_22 
REMARK   14  A    between atoms: CA_21  and  CB_24 
REMARK       I    between atoms: C_22  and  N_27 
REMARK   15  A    between atoms: CB_24  and  OG1_25 
REMARK   16  A    between atoms: CB_24  and  CG2_26 
REMARK   17  A    between atoms: N_27  and  CA_28 
REMARK   18  A    between atoms: CA_28  and  C_29 
REMARK   19  A    between atoms: CA_28  and  CB_31 
REMARK       I    between atoms: C_29  and  N_34 
REMARK   20  A    between atoms: CB_31  and  OG1_32 
REMARK   21  A    between atoms: CB_31  and  CG2_33 
REMARK   22  A    between atoms: N_34  and  CA_35 
REMARK   23  A    between atoms: CA_35  and  C_36 
REMARK   24  A    between atoms: CA_35  and  CB_38 
REMARK       I    between atoms: C_36  and  N_41 
REMARK   25  A    between atoms: CB_38  and  OG1_39 
REMARK   26  A    between atoms: CB_38  and  CG2_40 
REMARK   27  A    between atoms: CA_42  and  C_43 
ROOT
ATOM      1  CA  LYS d   1      15.952   2.987  18.987  0.00  0.00     0.113 C 
ATOM      2  H20 LYS d   1      15.377   2.723  18.087  0.00  0.00     0.091 H 
ENDROOT
BRANCH   1   3
ATOM      3  N   LYS d   1      15.037   3.038  20.116  0.00  0.00    -0.344 N 
ATOM      4  C   LYS d   1      13.714   2.953  19.990  0.00  0.00     0.241 C 
ATOM      5  O   LYS d   1      13.148   2.853  18.900  0.00  0.00    -0.271 OA
ATOM      6  H19 LYS d   1      15.421   3.142  21.034  0.00  0.00     0.163 HD
BRANCH   4   7
ATOM      7  CA  LYS d   1      12.938   2.989  21.300  0.00  0.00     0.098 C 
ATOM      8  H16 LYS d   1      13.331   3.809  21.919  0.00  0.00     0.088 H 
BRANCH   7   9
ATOM      9  N   LYS d   1      11.527   3.243  21.056  0.00  0.00    -0.346 N 
ATOM     10  C   LYS d   1      10.850   4.179  21.723  0.00  0.00     0.240 C 
ATOM     11  O   LYS d   1      11.331   4.827  22.656  0.00  0.00    -0.271 OA
ATOM     12  H15 LYS d   1      11.049   2.699  20.366  0.00  0.00     0.163 HD
BRANCH  10  13
ATOM     13  CA  LYS d   1       9.424   4.411  21.271  0.00  0.00     0.086 C 
ATOM     14  H11 LYS d   1       8.980   3.455  20.958  0.00  0.00     0.086 H 
BRANCH  13  15
ATOM     15  N   LYS d   1       8.644   4.953  22.376  0.00  0.00    -0.346 N 
ATOM     16  C   LYS d   1       8.337   4.220  23.449  0.00  0.00     0.248 C 
ATOM     17  O   LYS d   1       8.618   3.019  23.556  0.00  0.00    -0.271 OA
ATOM     18  H10 LYS d   1       8.330   5.901  22.329  0.00  0.00     0.163 HD
BRANCH  16  19
ATOM     19  CA  LYS d   1       7.574   4.942  24.574  0.00  0.00     0.175 C 
ATOM     20  H4  LYS d   1       7.412   5.987  24.271  0.00  0.00     0.099 H 
BRANCH  19  21
ATOM     21  N   LYS d   1       6.276   4.317  24.805  0.00  0.00    -0.067 N 
ATOM     22  H1  LYS d   1       5.795   4.805  25.544  0.00  0.00     0.275 HD
ATOM     23  H2  LYS d   1       6.409   3.354  25.070  0.00  0.00     0.275 HD
ATOM     24  H3  LYS d   1       5.727   4.361  23.961  0.00  0.00     0.275 HD
ENDBRANCH  19  21
BRANCH  19  25
ATOM     25  CB  LYS d   1       8.389   4.927  25.862  0.00  0.00    -0.034 C 
ATOM     26  H5  LYS d   1       8.701   3.890  26.055  0.00  0.00     0.036 H 
ATOM     27  H6  LYS d   1       7.740   5.273  26.680  0.00  0.00     0.036 H 
BRANCH  25  28
ATOM     28  CG  LYS d   1       9.613   5.784  25.850  0.00  0.00    -0.074 C 
ATOM     29  H7  LYS d   1      10.127   5.703  26.819  0.00  0.00     0.027 H 
ATOM     30  H8  LYS d   1       9.326   6.831  25.673  0.00  0.00     0.027 H 
ATOM     31  H9  LYS d   1      10.288   5.449  25.049  0.00  0.00     0.027 H 
ENDBRANCH  25  28
ENDBRANCH  19  25
ENDBRANCH  16  19
ENDBRANCH  13  15
BRANCH  13  32
ATOM     32  CB  LYS d   1       9.437   5.371  20.077  0.00  0.00    -0.049 C 
ATOM     33  H12 LYS d   1      10.032   4.934  19.262  0.00  0.00     0.030 H 
ATOM     34  H13 LYS d   1       9.881   6.330  20.382  0.00  0.00     0.030 H 
ATOM     35  H14 LYS d   1       8.407   5.538  19.730  0.00  0.00     0.030 H 
ENDBRANCH  13  32
ENDBRANCH  10  13
ENDBRANCH   7   9
BRANCH   7  36
ATOM     36  CB  LYS d   1      13.158   1.670  22.049  0.00  0.00     0.043 C 
ATOM     37  H17 LYS d   1      12.539   1.673  22.958  0.00  0.00     0.052 H 
ATOM     38  H18 LYS d   1      14.219   1.596  22.328  0.00  0.00     0.052 H 
BRANCH  36  39
ATOM     39  CG  LYS d   1      12.788   0.452  21.211  0.00  0.00     0.175 C 
ATOM     40  OD1 LYS d   1      11.577   0.139  21.172  0.00  0.00    -0.648 OA
ATOM     41  OD2 LYS d   1      13.699  -0.180  20.608  0.00  0.00    -0.648 OA
ENDBRANCH  36  39
ENDBRANCH   7  36
ENDBRANCH   4   7
ENDBRANCH   1   3
BRANCH   1  42
ATOM     42  C   LYS d   1      16.999   1.914  19.236  0.00  0.00     0.243 C 
ATOM     43  O   LYS d   1      17.283   1.560  20.385  0.00  0.00    -0.271 OA
ATOM     44  N   LYS d   1      17.535   1.373  18.145  0.00  0.00    -0.344 N 
ATOM     45  H26 LYS d   1      17.193   1.668  17.253  0.00  0.00     0.163 HD
BRANCH  44  46
ATOM     46  CA  LYS d   1      18.594   0.373  18.182  0.00  0.00     0.113 C 
ATOM     47  H27 LYS d   1      18.678  -0.001  19.213  0.00  0.00     0.091 H 
BRANCH  46  48
ATOM     48  C   LYS d   1      19.929   0.995  17.779  0.00  0.00     0.243 C 
ATOM     49  O   LYS d   1      20.685   0.409  17.002  0.00  0.00    -0.271 OA
ATOM     50  N   LYS d   1      20.235   2.199  18.304  0.00  0.00    -0.344 N 
ATOM     51  H33 LYS d   1      19.702   2.534  19.081  0.00  0.00     0.163 HD
BRANCH  50  52
ATOM     52  CA  LYS d   1      21.319   3.035  17.779  0.00  0.00     0.114 C 
ATOM     53  H34 LYS d   1      22.202   2.400  17.613  0.00  0.00     0.091 H 
BRANCH  52  54
ATOM     54  C   LYS d   1      21.699   4.150  18.751  0.00  0.00     0.246 C 
ATOM     55  O   LYS d   1      20.849   4.631  19.507  0.00  0.00    -0.271 OA
ATOM     56  N   LYS d   1      22.971   4.587  18.778  0.00  0.00    -0.336 N 
ATOM     57  CA  LYS d   1      23.290   5.873  19.409  0.00  0.00     0.098 C 
ATOM     58  CD  LYS d   1      24.183   3.846  18.389  0.00  0.00    -0.001 C 
ATOM     59  CB  LYS d   1      24.815   5.837  19.523  0.00  0.00    -0.035 C 
ATOM     60  H40 LYS d   1      22.823   5.945  20.403  0.00  0.00     0.089 H 
ATOM     61  CG  LYS d   1      25.247   4.899  18.442  0.00  0.00    -0.048 C 
ATOM     62  H41 LYS d   1      25.123   5.461  20.510  0.00  0.00     0.036 H 
ATOM     63  H42 LYS d   1      25.241   6.838  19.363  0.00  0.00     0.036 H 
ATOM     64  H43 LYS d   1      26.221   4.451  18.686  0.00  0.00     0.035 H 
ATOM     65  H44 LYS d   1      25.317   5.426  17.479  0.00  0.00     0.035 H 
ATOM     66  H45 LYS d   1      24.086   3.432  17.375  0.00  0.00     0.064 H 
ATOM     67  H46 LYS d   1      24.395   3.033  19.099  0.00  0.00     0.064 H 
BRANCH  57  68
ATOM     68  C   LYS d   1      22.834   7.061  18.550  0.00  0.00     0.196 C 
ATOM     69  O   LYS d   1      22.367   8.077  19.073  0.00  0.00    -0.646 OA
ATOM     70  OXT LYS d   1      22.925   7.023  17.320  0.00  0.00    -0.646 OA
ENDBRANCH  57  68
ENDBRANCH  52  54
BRANCH  52  71
ATOM     71  CB  LYS d   1      20.884   3.648  16.441  0.00  0.00     0.060 C 
ATOM     72  H35 LYS d   1      19.904   4.124  16.595  0.00  0.00     0.086 H 
BRANCH  71  73
ATOM     73  OG1 LYS d   1      20.740   2.619  15.452  0.00  0.00    -0.393 OA
ATOM     74  H36 LYS d   1      20.471   3.008  14.628  0.00  0.00     0.210 HD
ENDBRANCH  71  73
BRANCH  71  75
ATOM     75  CG2 LYS d   1      21.843   4.712  15.923  0.00  0.00    -0.050 C 
ATOM     76  H37 LYS d   1      21.471   5.106  14.966  0.00  0.00     0.031 H 
ATOM     77  H38 LYS d   1      22.838   4.268  15.775  0.00  0.00     0.031 H 
ATOM     78  H39 LYS d   1      21.912   5.531  16.654  0.00  0.00     0.031 H 
ENDBRANCH  71  75
ENDBRANCH  52  71
ENDBRANCH  50  52
ENDBRANCH  46  48
BRANCH  46  79
ATOM     79  CB  LYS d   1      18.283  -0.812  17.261  0.00  0.00     0.060 C 
ATOM     80  H28 LYS d   1      18.897  -1.669  17.575  0.00  0.00     0.086 H 
BRANCH  79  81
ATOM     81  OG1 LYS d   1      18.613  -0.465  15.911  0.00  0.00    -0.393 OA
ATOM     82  H29 LYS d   1      18.099   0.288  15.644  0.00  0.00     0.210 HD
ENDBRANCH  79  81
BRANCH  79  83
ATOM     83  CG2 LYS d   1      16.809  -1.219  17.319  0.00  0.00    -0.050 C 
ATOM     84  H30 LYS d   1      16.637  -2.070  16.644  0.00  0.00     0.031 H 
ATOM     85  H31 LYS d   1      16.182  -0.371  17.007  0.00  0.00     0.031 H 
ATOM     86  H32 LYS d   1      16.549  -1.509  18.348  0.00  0.00     0.031 H 
ENDBRANCH  79  83
ENDBRANCH  46  79
ENDBRANCH  44  46
ENDBRANCH   1  42
BRANCH   1  87
ATOM     87  CB  LYS d   1      16.643   4.327  18.739  0.00  0.00     0.060 C 
ATOM     88  H21 LYS d   1      15.889   5.070  18.439  0.00  0.00     0.086 H 
BRANCH  87  89
ATOM     89  OG1 LYS d   1      17.598   4.174  17.684  0.00  0.00    -0.393 OA
ATOM     90  H22 LYS d   1      17.152   3.893  16.893  0.00  0.00     0.210 HD
ENDBRANCH  87  89
BRANCH  87  91
ATOM     91  CG2 LYS d   1      17.341   4.814  20.006  0.00  0.00    -0.050 C 
ATOM     92  H23 LYS d   1      17.831   5.778  19.807  0.00  0.00     0.031 H 
ATOM     93  H24 LYS d   1      18.096   4.076  20.316  0.00  0.00     0.031 H 
ATOM     94  H25 LYS d   1      16.599   4.939  20.808  0.00  0.00     0.031 H 
ENDBRANCH  87  91
ENDBRANCH   1  87
TORSDOF 27
