REMARK  13 active torsions:
REMARK  status: ('A' for Active; 'I' for Inactive)
REMARK    1  A    between atoms: CZ_3  and  OH_4 
REMARK    2  A    between atoms: CG_7  and  CB_8 
REMARK    3  A    between atoms: CB_8  and  CA_9 
REMARK    4  A    between atoms: CA_9  and  N_10 
REMARK    5  A    between atoms: CA_9  and  C_11 
REMARK       I    between atoms: C_11  and  NAT_13 
REMARK    6  A    between atoms: NAT_13  and  SBI_14 
REMARK    7  A    between atoms: SBI_14  and  O5'_17 
REMARK    8  A    between atoms: O5'_17  and  C5'_18 
REMARK    9  A    between atoms: C5'_18  and  C4'_19 
REMARK   10  A    between atoms: C3'_21  and  O3'_22 
REMARK   11  A    between atoms: C2'_23  and  O2'_24 
REMARK   12  A    between atoms: C1'_25  and  N9_26 
REMARK   13  A    between atoms: C6_34  and  N6_35 
ROOT
ATOM      1  C5' YSA d   1     -55.220   2.923 -47.101  0.00  0.00     0.066 C 
ATOM      2  H13 YSA d   1     -55.986   2.276 -47.552  0.00  0.00     0.080 H 
ATOM      3  H14 YSA d   1     -54.458   2.301 -46.609  0.00  0.00     0.080 H 
ENDROOT
BRANCH   1   4
ATOM      4  O5' YSA d   1     -55.837   3.829 -46.125  0.00  0.00    -0.257 OA
BRANCH   4   5
ATOM      5  SBI YSA d   1     -55.683   3.448 -44.587  0.00  0.00     0.364 S 
ATOM      6  OAD YSA d   1     -56.257   4.521 -43.858  0.00  0.00    -0.175 OA
ATOM      7  OAE YSA d   1     -56.169   2.124 -44.449  0.00  0.00    -0.175 OA
BRANCH   5   8
ATOM      8  NAT YSA d   1     -54.100   3.549 -44.398  0.00  0.00    -0.230 N 
ATOM      9  C   YSA d   1     -53.380   3.301 -43.251  0.00  0.00     0.263 C 
ATOM     10  O   YSA d   1     -53.894   3.427 -42.140  0.00  0.00    -0.270 OA
ATOM     11  H12 YSA d   1     -53.573   3.823 -45.203  0.00  0.00     0.183 HD
BRANCH   9  12
ATOM     12  CA  YSA d   1     -51.945   2.859 -43.468  0.00  0.00     0.180 C 
ATOM     13  H8  YSA d   1     -51.506   3.345 -44.352  0.00  0.00     0.099 H 
BRANCH  12  14
ATOM     14  CB  YSA d   1     -52.006   1.344 -43.665  0.00  0.00    -0.006 C 
ATOM     15  H6  YSA d   1     -52.586   0.911 -42.836  0.00  0.00     0.043 H 
ATOM     16  H7  YSA d   1     -52.518   1.140 -44.617  0.00  0.00     0.043 H 
BRANCH  14  17
ATOM     17  CG  YSA d   1     -50.656   0.674 -43.700  0.00  0.00    -0.056 A 
ATOM     18  CD1 YSA d   1     -49.702   1.029 -44.650  0.00  0.00    -0.074 A 
ATOM     19  CE1 YSA d   1     -48.471   0.393 -44.696  0.00  0.00    -0.051 A 
ATOM     20  H1  YSA d   1     -49.925   1.814 -45.364  0.00  0.00     0.084 H 
ATOM     21  CZ  YSA d   1     -48.160  -0.576 -43.752  0.00  0.00     0.065 A 
ATOM     22  H2  YSA d   1     -47.754   0.652 -45.467  0.00  0.00     0.087 H 
ATOM     23  CE2 YSA d   1     -49.099  -0.931 -42.793  0.00  0.00    -0.051 A 
ATOM     24  CD2 YSA d   1     -50.339  -0.320 -42.782  0.00  0.00    -0.074 A 
ATOM     25  H4  YSA d   1     -48.860  -1.687 -42.053  0.00  0.00     0.087 H 
ATOM     26  H5  YSA d   1     -51.076  -0.621 -42.046  0.00  0.00     0.084 H 
BRANCH  21  27
ATOM     27  OH  YSA d   1     -46.930  -1.153 -43.731  0.00  0.00    -0.361 OA
ATOM     28  H3  YSA d   1     -46.892  -1.789 -43.026  0.00  0.00     0.217 HD
ENDBRANCH  21  27
ENDBRANCH  14  17
ENDBRANCH  12  14
BRANCH  12  29
ATOM     29  N   YSA d   1     -51.184   3.217 -42.266  0.00  0.00    -0.066 N 
ATOM     30  H9  YSA d   1     -51.164   4.220 -42.167  0.00  0.00     0.275 HD
ATOM     31  H10 YSA d   1     -50.242   2.869 -42.349  0.00  0.00     0.275 HD
ATOM     32  H11 YSA d   1     -51.623   2.808 -41.456  0.00  0.00     0.275 HD
ENDBRANCH  12  29
ENDBRANCH   9  12
ENDBRANCH   5   8
ENDBRANCH   4   5
ENDBRANCH   1   4
BRANCH   1  33
ATOM     33  C4' YSA d   1     -54.579   3.785 -48.163  0.00  0.00     0.090 C 
ATOM     34  O4' YSA d   1     -55.589   4.572 -48.837  0.00  0.00    -0.353 OA
ATOM     35  C1' YSA d   1     -55.118   5.899 -48.939  0.00  0.00     0.139 C 
ATOM     36  C2' YSA d   1     -54.276   6.106 -47.691  0.00  0.00     0.105 C 
ATOM     37  H20 YSA d   1     -54.482   6.012 -49.829  0.00  0.00     0.122 H 
ATOM     38  C3' YSA d   1     -53.525   4.780 -47.662  0.00  0.00     0.091 C 
ATOM     39  H18 YSA d   1     -54.894   6.234 -46.790  0.00  0.00     0.093 H 
ATOM     40  H16 YSA d   1     -53.195   4.537 -46.641  0.00  0.00     0.091 H 
ATOM     41  H15 YSA d   1     -54.098   3.112 -48.888  0.00  0.00     0.090 H 
BRANCH  35  42
ATOM     42  N9  YSA d   1     -56.254   6.807 -49.067  0.00  0.00    -0.294 N 
ATOM     43  C8  YSA d   1     -57.303   6.981 -48.199  0.00  0.00     0.071 A 
ATOM     44  N7  YSA d   1     -58.130   7.940 -48.544  0.00  0.00    -0.236 NA
ATOM     45  H21 YSA d   1     -57.437   6.377 -47.303  0.00  0.00     0.144 H 
ATOM     46  C5  YSA d   1     -57.591   8.430 -49.724  0.00  0.00     0.149 A 
ATOM     47  C4  YSA d   1     -56.443   7.729 -50.068  0.00  0.00     0.167 A 
ATOM     48  C6  YSA d   1     -57.981   9.474 -50.587  0.00  0.00     0.155 A 
ATOM     49  N3  YSA d   1     -55.676   7.928 -51.147  0.00  0.00    -0.222 NA
ATOM     50  C2  YSA d   1     -56.140   8.940 -51.890  0.00  0.00     0.091 A 
ATOM     51  N1  YSA d   1     -57.222   9.701 -51.684  0.00  0.00    -0.222 NA
ATOM     52  H22 YSA d   1     -55.563   9.175 -52.777  0.00  0.00     0.146 H 
BRANCH  48  53
ATOM     53  N6  YSA d   1     -59.014  10.292 -50.343  0.00  0.00    -0.382 N 
ATOM     54  H23 YSA d   1     -59.250  11.038 -51.013  0.00  0.00     0.157 HD
ATOM     55  H24 YSA d   1     -59.572  10.175 -49.485  0.00  0.00     0.157 HD
ENDBRANCH  48  53
ENDBRANCH  35  42
BRANCH  36  56
ATOM     56  O2' YSA d   1     -53.445   7.238 -47.854  0.00  0.00    -0.388 OA
ATOM     57  H19 YSA d   1     -53.980   8.023 -47.863  0.00  0.00     0.210 HD
ENDBRANCH  36  56
BRANCH  38  58
ATOM     58  O3' YSA d   1     -52.401   4.780 -48.539  0.00  0.00    -0.390 OA
ATOM     59  H17 YSA d   1     -52.022   3.909 -48.566  0.00  0.00     0.210 HD
ENDBRANCH  38  58
ENDBRANCH   1  33
TORSDOF 13
