REMARK  29 active torsions:
REMARK  status: ('A' for Active; 'I' for Inactive)
REMARK    1  A    between atoms: N_1  and  CA_2 
REMARK    2  A    between atoms: CA_2  and  C_3 
REMARK    3  A    between atoms: CA_2  and  CB_5 
REMARK       I    between atoms: C_3  and  N_9 
REMARK    4  A    between atoms: CB_5  and  CG_6 
REMARK    5  A    between atoms: CG_6  and  CD_7 
REMARK    6  A    between atoms: CD_7  and  CE_8 
REMARK    7  A    between atoms: N_9  and  CA_10 
REMARK    8  A    between atoms: CA_10  and  C_11 
REMARK    9  A    between atoms: CA_10  and  CB_13 
REMARK       I    between atoms: C_11  and  N_14 
REMARK   10  A    between atoms: N_14  and  CA_15 
REMARK   11  A    between atoms: CA_15  and  C_16 
REMARK   12  A    between atoms: CA_15  and  CB_18 
REMARK       I    between atoms: C_16  and  N_22 
REMARK   13  A    between atoms: CB_18  and  CG_19 
REMARK   14  A    between atoms: N_22  and  CA_23 
REMARK   15  A    between atoms: CA_23  and  C_24 
REMARK   16  A    between atoms: CA_23  and  CB_26 
REMARK       I    between atoms: C_24  and  N_29 
REMARK   17  A    between atoms: CB_26  and  OG1_27 
REMARK   18  A    between atoms: CB_26  and  CG2_28 
REMARK   19  A    between atoms: N_29  and  CA_30 
REMARK   20  A    between atoms: CA_30  and  C_31 
REMARK   21  A    between atoms: CA_30  and  CB_33 
REMARK       I    between atoms: C_31  and  N_36 
REMARK   22  A    between atoms: CB_33  and  OG1_34 
REMARK   23  A    between atoms: CB_33  and  CG2_35 
REMARK   24  A    between atoms: N_36  and  CA_37 
REMARK   25  A    between atoms: CA_37  and  C_38 
REMARK   26  A    between atoms: CA_37  and  CB_40 
REMARK       I    between atoms: C_38  and  N_43 
REMARK   27  A    between atoms: CB_40  and  OG1_41 
REMARK   28  A    between atoms: CB_40  and  CG2_42 
REMARK   29  A    between atoms: CA_44  and  C_45 
ROOT
ATOM      1  CA  LYS d   1       8.922   3.726  29.739  0.00  0.00     0.113 C 
ATOM      2  H24 LYS d   1       9.641   3.340  30.477  0.00  0.00     0.091 H 
ENDROOT
BRANCH   1   3
ATOM      3  N   LYS d   1       9.660   4.296  28.621  0.00  0.00    -0.344 N 
ATOM      4  C   LYS d   1      10.979   4.450  28.622  0.00  0.00     0.241 C 
ATOM      5  O   LYS d   1      11.691   4.176  29.594  0.00  0.00    -0.271 OA
ATOM      6  H23 LYS d   1       9.148   4.586  27.812  0.00  0.00     0.163 HD
BRANCH   4   7
ATOM      7  CA  LYS d   1      11.575   4.991  27.329  0.00  0.00     0.098 C 
ATOM      8  H20 LYS d   1      10.965   5.839  26.985  0.00  0.00     0.088 H 
BRANCH   7   9
ATOM      9  N   LYS d   1      12.924   5.464  27.577  0.00  0.00    -0.346 N 
ATOM     10  C   LYS d   1      13.296   6.718  27.341  0.00  0.00     0.240 C 
ATOM     11  O   LYS d   1      12.575   7.534  26.759  0.00  0.00    -0.271 OA
ATOM     12  H19 LYS d   1      13.600   4.822  27.939  0.00  0.00     0.163 HD
BRANCH  10  13
ATOM     13  CA  LYS d   1      14.682   7.092  27.834  0.00  0.00     0.086 C 
ATOM     14  H15 LYS d   1      15.329   6.205  27.767  0.00  0.00     0.086 H 
BRANCH  13  15
ATOM     15  N   LYS d   1      15.258   8.144  27.013  0.00  0.00    -0.346 N 
ATOM     16  C   LYS d   1      15.661   7.893  25.773  0.00  0.00     0.248 C 
ATOM     17  O   LYS d   1      15.509   6.800  25.226  0.00  0.00    -0.271 OA
ATOM     18  H14 LYS d   1      15.352   9.067  27.386  0.00  0.00     0.163 HD
BRANCH  16  19
ATOM     19  CA  LYS d   1      16.312   9.053  25.027  0.00  0.00     0.176 C 
ATOM     20  H4  LYS d   1      17.104   9.481  25.660  0.00  0.00     0.099 H 
BRANCH  19  21
ATOM     21  N   LYS d   1      16.916   8.577  23.785  0.00  0.00    -0.067 N 
ATOM     22  H1  LYS d   1      17.343   9.351  23.301  0.00  0.00     0.275 HD
ATOM     23  H2  LYS d   1      16.204   8.167  23.201  0.00  0.00     0.275 HD
ATOM     24  H3  LYS d   1      17.618   7.885  23.996  0.00  0.00     0.275 HD
ENDBRANCH  19  21
BRANCH  19  25
ATOM     25  CB  LYS d   1      15.272  10.140  24.744  0.00  0.00    -0.030 C 
ATOM     26  H5  LYS d   1      15.734  10.909  24.107  0.00  0.00     0.036 H 
ATOM     27  H6  LYS d   1      14.968  10.591  25.700  0.00  0.00     0.036 H 
BRANCH  25  28
ATOM     28  CG  LYS d   1      14.026   9.610  24.039  0.00  0.00    -0.063 C 
ATOM     29  H7  LYS d   1      13.449   9.000  24.750  0.00  0.00     0.033 H 
ATOM     30  H8  LYS d   1      14.338   8.986  23.189  0.00  0.00     0.033 H 
BRANCH  28  31
ATOM     31  CD  LYS d   1      13.134  10.736  23.521  0.00  0.00    -0.068 C 
ATOM     32  H9  LYS d   1      13.739  11.421  22.908  0.00  0.00     0.032 H 
ATOM     33  H10 LYS d   1      12.713  11.284  24.377  0.00  0.00     0.032 H 
BRANCH  31  34
ATOM     34  CE  LYS d   1      11.997  10.186  22.676  0.00  0.00    -0.077 C 
ATOM     35  H11 LYS d   1      11.372  11.017  22.317  0.00  0.00     0.027 H 
ATOM     36  H12 LYS d   1      11.385   9.503  23.284  0.00  0.00     0.027 H 
ATOM     37  H13 LYS d   1      12.411   9.640  21.815  0.00  0.00     0.027 H 
ENDBRANCH  31  34
ENDBRANCH  28  31
ENDBRANCH  25  28
ENDBRANCH  19  25
ENDBRANCH  16  19
ENDBRANCH  13  15
BRANCH  13  38
ATOM     38  CB  LYS d   1      14.608   7.535  29.295  0.00  0.00    -0.049 C 
ATOM     39  H16 LYS d   1      14.170   6.728  29.901  0.00  0.00     0.030 H 
ATOM     40  H17 LYS d   1      13.980   8.435  29.374  0.00  0.00     0.030 H 
ATOM     41  H18 LYS d   1      15.620   7.761  29.661  0.00  0.00     0.030 H 
ENDBRANCH  13  38
ENDBRANCH  10  13
ENDBRANCH   7   9
BRANCH   7  42
ATOM     42  CB  LYS d   1      11.550   3.904  26.245  0.00  0.00     0.043 C 
ATOM     43  H21 LYS d   1      12.010   4.307  25.331  0.00  0.00     0.052 H 
ATOM     44  H22 LYS d   1      10.504   3.634  26.040  0.00  0.00     0.052 H 
BRANCH  42  45
ATOM     45  CG  LYS d   1      12.305   2.651  26.660  0.00  0.00     0.175 C 
ATOM     46  OD1 LYS d   1      13.543   2.643  26.512  0.00  0.00    -0.648 OA
ATOM     47  OD2 LYS d   1      11.660   1.683  27.125  0.00  0.00    -0.648 OA
ENDBRANCH  42  45
ENDBRANCH   7  42
ENDBRANCH   4   7
ENDBRANCH   1   3
BRANCH   1  48
ATOM     48  C   LYS d   1       8.063   2.573  29.234  0.00  0.00     0.243 C 
ATOM     49  O   LYS d   1       7.666   2.541  28.066  0.00  0.00    -0.271 OA
ATOM     50  N   LYS d   1       7.779   1.619  30.123  0.00  0.00    -0.344 N 
ATOM     51  H30 LYS d   1       8.157   1.690  31.046  0.00  0.00     0.163 HD
BRANCH  50  52
ATOM     52  CA  LYS d   1       6.936   0.478  29.793  0.00  0.00     0.113 C 
ATOM     53  H31 LYS d   1       6.867   0.420  28.697  0.00  0.00     0.091 H 
BRANCH  52  54
ATOM     54  C   LYS d   1       5.516   0.617  30.341  0.00  0.00     0.243 C 
ATOM     55  O   LYS d   1       4.786  -0.378  30.415  0.00  0.00    -0.271 OA
ATOM     56  N   LYS d   1       5.110   1.824  30.727  0.00  0.00    -0.344 N 
ATOM     57  H37 LYS d   1       5.761   2.579  30.650  0.00  0.00     0.163 HD
BRANCH  56  58
ATOM     58  CA  LYS d   1       3.791   2.124  31.251  0.00  0.00     0.114 C 
ATOM     59  H38 LYS d   1       3.107   1.307  30.980  0.00  0.00     0.091 H 
BRANCH  58  60
ATOM     60  C   LYS d   1       3.285   3.417  30.628  0.00  0.00     0.246 C 
ATOM     61  O   LYS d   1       4.051   4.143  29.985  0.00  0.00    -0.271 OA
ATOM     62  N   LYS d   1       1.981   3.736  30.775  0.00  0.00    -0.336 N 
ATOM     63  CA  LYS d   1       1.496   4.958  30.118  0.00  0.00     0.098 C 
ATOM     64  CD  LYS d   1       0.887   3.028  31.467  0.00  0.00    -0.001 C 
ATOM     65  CB  LYS d   1      -0.023   4.874  30.301  0.00  0.00    -0.035 C 
ATOM     66  H44 LYS d   1       1.761   4.942  29.051  0.00  0.00     0.089 H 
ATOM     67  CG  LYS d   1      -0.201   4.059  31.528  0.00  0.00    -0.048 C 
ATOM     68  H45 LYS d   1      -0.493   4.383  29.436  0.00  0.00     0.036 H 
ATOM     69  H46 LYS d   1      -0.455   5.877  30.433  0.00  0.00     0.036 H 
ATOM     70  H47 LYS d   1      -1.190   3.578  31.533  0.00  0.00     0.035 H 
ATOM     71  H48 LYS d   1      -0.092   4.684  32.427  0.00  0.00     0.035 H 
ATOM     72  H49 LYS d   1       1.194   2.718  32.477  0.00  0.00     0.064 H 
ATOM     73  H50 LYS d   1       0.563   2.146  30.895  0.00  0.00     0.064 H 
BRANCH  63  74
ATOM     74  C   LYS d   1       2.035   6.248  30.736  0.00  0.00     0.196 C 
ATOM     75  O   LYS d   1       1.994   6.397  31.956  0.00  0.00    -0.646 OA
ATOM     76  OXT LYS d   1       2.502   7.119  30.005  0.00  0.00    -0.646 OA
ENDBRANCH  63  74
ENDBRANCH  58  60
BRANCH  58  77
ATOM     77  CB  LYS d   1       3.829   2.244  32.786  0.00  0.00     0.060 C 
ATOM     78  H39 LYS d   1       2.839   2.565  33.142  0.00  0.00     0.086 H 
BRANCH  77  79
ATOM     79  OG1 LYS d   1       4.802   3.225  33.166  0.00  0.00    -0.393 OA
ATOM     80  H40 LYS d   1       5.657   2.961  32.848  0.00  0.00     0.210 HD
ENDBRANCH  77  79
BRANCH  77  81
ATOM     81  CG2 LYS d   1       4.169   0.901  33.427  0.00  0.00    -0.050 C 
ATOM     82  H41 LYS d   1       4.190   1.012  34.521  0.00  0.00     0.031 H 
ATOM     83  H42 LYS d   1       5.155   0.565  33.073  0.00  0.00     0.031 H 
ATOM     84  H43 LYS d   1       3.407   0.158  33.148  0.00  0.00     0.031 H 
ENDBRANCH  77  81
ENDBRANCH  58  77
ENDBRANCH  56  58
ENDBRANCH  52  54
BRANCH  52  85
ATOM     85  CB  LYS d   1       7.572  -0.820  30.301  0.00  0.00     0.060 C 
ATOM     86  H32 LYS d   1       7.083  -1.672  29.805  0.00  0.00     0.086 H 
BRANCH  85  87
ATOM     87  OG1 LYS d   1       7.385  -0.933  31.720  0.00  0.00    -0.393 OA
ATOM     88  H33 LYS d   1       7.795  -0.193  32.152  0.00  0.00     0.210 HD
ENDBRANCH  85  87
BRANCH  85  89
ATOM     89  CG2 LYS d   1       9.070  -0.852  29.980  0.00  0.00    -0.050 C 
ATOM     90  H34 LYS d   1       9.505  -1.791  30.353  0.00  0.00     0.031 H 
ATOM     91  H35 LYS d   1       9.567   0.001  30.465  0.00  0.00     0.031 H 
ATOM     92  H36 LYS d   1       9.213  -0.789  28.891  0.00  0.00     0.031 H 
ENDBRANCH  85  89
ENDBRANCH  52  85
ENDBRANCH  50  52
ENDBRANCH   1  48
BRANCH   1  93
ATOM     93  CB  LYS d   1       8.036   4.790  30.427  0.00  0.00     0.060 C 
ATOM     94  H25 LYS d   1       8.685   5.593  30.806  0.00  0.00     0.086 H 
BRANCH  93  95
ATOM     95  OG1 LYS d   1       7.323   4.211  31.534  0.00  0.00    -0.393 OA
ATOM     96  H26 LYS d   1       7.945   3.870  32.166  0.00  0.00     0.210 HD
ENDBRANCH  93  95
BRANCH  93  97
ATOM     97  CG2 LYS d   1       7.040   5.395  29.430  0.00  0.00    -0.050 C 
ATOM     98  H27 LYS d   1       6.422   6.148  29.941  0.00  0.00     0.031 H 
ATOM     99  H28 LYS d   1       6.394   4.600  29.029  0.00  0.00     0.031 H 
ATOM    100  H29 LYS d   1       7.590   5.871  28.605  0.00  0.00     0.031 H 
ENDBRANCH  93  97
ENDBRANCH   1  93
TORSDOF 29
