REMARK  9 active torsions:
REMARK  status: ('A' for Active; 'I' for Inactive)
REMARK    1  A    between atoms: C19_16  and  C20_1 
REMARK    2  A    between atoms: C02_4  and  C01_3 
REMARK    3  A    between atoms: S08_34  and  C07_9 
REMARK    4  A    between atoms: C09_10  and  S08_34 
REMARK    5  A    between atoms: C11_11  and  C12_12 
REMARK    6  A    between atoms: C12_12  and  O13_31 
REMARK    7  A    between atoms: C14_13  and  O15_32 
REMARK    8  A    between atoms: N17_27  and  C16_14 
REMARK    9  A    between atoms: C33_21  and  O34_33 
ROOT
ATOM      1  C09 H5Z d   1     -19.752   8.709  -1.710  0.00  0.00     0.114 C 
ATOM      2  C11 H5Z d   1     -19.616   6.551  -0.884  0.00  0.00     0.087 C 
ATOM      3  C14 H5Z d   1     -18.103   6.682  -0.586  0.00  0.00     0.086 C 
ATOM      4  C16 H5Z d   1     -17.567   7.701  -1.612  0.00  0.00     0.090 C 
ATOM      5  C33 H5Z d   1     -18.267   9.067  -1.484  0.00  0.00     0.093 C 
ATOM      6  O10 H5Z d   1     -20.214   7.824  -0.742  0.00  0.00    -0.362 OA
ATOM      7  H8  H5Z d   1     -19.845   8.226  -2.694  0.00  0.00     0.105 H 
ATOM      8  H9  H5Z d   1     -19.752   6.189  -1.914  0.00  0.00     0.090 H 
ATOM      9  H12 H5Z d   1     -17.604   5.711  -0.721  0.00  0.00     0.090 H 
ATOM     10  H13 H5Z d   1     -17.766   7.308  -2.620  0.00  0.00     0.084 H 
ATOM     11  H15 H5Z d   1     -18.098   9.545  -0.508  0.00  0.00     0.091 H 
ENDROOT
BRANCH   4  12
ATOM     12  N17 H5Z d   1     -16.147   7.861  -1.458  0.00  0.00    -0.250 N 
ATOM     13  C18 H5Z d   1     -15.433   8.314  -0.374  0.00  0.00     0.031 A 
ATOM     14  C19 H5Z d   1     -14.108   8.262  -0.774  0.00  0.00     0.114 A 
ATOM     15  H14 H5Z d   1     -15.824   8.642   0.588  0.00  0.00     0.118 H 
ATOM     16  N31 H5Z d   1     -14.122   7.774  -2.090  0.00  0.00    -0.130 NA
ATOM     17  N32 H5Z d   1     -15.296   7.545  -2.471  0.00  0.00    -0.065 NA
BRANCH  14  18
ATOM     18  C20 H5Z d   1     -12.898   8.594  -0.040  0.00  0.00     0.080 A 
ATOM     19  C21 H5Z d   1     -11.684   9.006  -0.642  0.00  0.00     0.173 A 
ATOM     20  C23 H5Z d   1     -10.534   9.287   0.051  0.00  0.00     0.197 A 
ATOM     21  F22 H5Z d   1     -11.656   9.174  -1.959  0.00  0.00    -0.202 F 
ATOM     22  C25 H5Z d   1     -10.518   9.141   1.426  0.00  0.00     0.199 A 
ATOM     23  F24 H5Z d   1      -9.455   9.694  -0.602  0.00  0.00    -0.199 F 
ATOM     24  C27 H5Z d   1     -11.660   8.719   2.072  0.00  0.00     0.197 A 
ATOM     25  F26 H5Z d   1      -9.471   9.396   2.098  0.00  0.00    -0.199 F 
ATOM     26  C29 H5Z d   1     -12.808   8.453   1.358  0.00  0.00     0.173 A 
ATOM     27  F28 H5Z d   1     -11.649   8.593   3.384  0.00  0.00    -0.199 F 
ATOM     28  F30 H5Z d   1     -13.877   8.021   2.010  0.00  0.00    -0.202 F 
ENDBRANCH  14  18
ENDBRANCH   4  12
BRANCH   3  29
ATOM     29  O15 H5Z d   1     -17.894   7.124   0.715  0.00  0.00    -0.391 OA
ATOM     30  H17 H5Z d   1     -16.963   7.243   0.862  0.00  0.00     0.210 HD
ENDBRANCH   3  29
BRANCH   5  31
ATOM     31  O34 H5Z d   1     -17.800   9.866  -2.531  0.00  0.00    -0.390 OA
ATOM     32  H18 H5Z d   1     -18.014   9.456  -3.361  0.00  0.00     0.210 HD
ENDBRANCH   5  31
BRANCH   2  33
ATOM     33  C12 H5Z d   1     -20.296   5.580   0.086  0.00  0.00     0.043 C 
ATOM     34  H10 H5Z d   1     -20.217   5.977   1.109  0.00  0.00     0.078 H 
ATOM     35  H11 H5Z d   1     -19.792   4.604   0.032  0.00  0.00     0.078 H 
BRANCH  33  36
ATOM     36  O13 H5Z d   1     -21.646   5.417  -0.239  0.00  0.00    -0.398 OA
ATOM     37  H16 H5Z d   1     -22.086   6.258  -0.190  0.00  0.00     0.209 HD
ENDBRANCH  33  36
ENDBRANCH   2  33
BRANCH   1  38
ATOM     38  S08 H5Z d   1     -20.764  10.207  -1.706  0.00  0.00    -0.095 SA
BRANCH  38  39
ATOM     39  C07 H5Z d   1     -22.077   9.866  -2.878  0.00  0.00     0.003 A 
ATOM     40  C04 H5Z d   1     -22.787  10.857  -3.512  0.00  0.00    -0.066 A 
ATOM     41  C03 H5Z d   1     -23.820  10.564  -4.404  0.00  0.00    -0.076 A 
ATOM     42  H5  H5Z d   1     -22.538  11.893  -3.314  0.00  0.00     0.085 H 
ATOM     43  C02 H5Z d   1     -24.222   9.260  -4.742  0.00  0.00    -0.062 A 
ATOM     44  H4  H5Z d   1     -24.345  11.393  -4.864  0.00  0.00     0.084 H 
ATOM     45  C05 H5Z d   1     -23.478   8.275  -4.081  0.00  0.00    -0.076 A 
ATOM     46  C06 H5Z d   1     -22.443   8.564  -3.182  0.00  0.00    -0.066 A 
ATOM     47  H6  H5Z d   1     -23.715   7.235  -4.275  0.00  0.00     0.084 H 
ATOM     48  H7  H5Z d   1     -21.913   7.745  -2.710  0.00  0.00     0.085 H 
BRANCH  43  49
ATOM     49  C01 H5Z d   1     -25.374   8.944  -5.717  0.00  0.00    -0.051 C 
ATOM     50  H1  H5Z d   1     -25.796   9.884  -6.102  0.00  0.00     0.033 H 
ATOM     51  H2  H5Z d   1     -26.157   8.380  -5.189  0.00  0.00     0.033 H 
ATOM     52  H3  H5Z d   1     -24.991   8.344  -6.555  0.00  0.00     0.033 H 
ENDBRANCH  43  49
ENDBRANCH  38  39
ENDBRANCH   1  38
TORSDOF 9
