REMARK  10 active torsions:
REMARK  status: ('A' for Active; 'I' for Inactive)
REMARK    1  A    between atoms: C09_10  and  C10_1 
REMARK    2  A    between atoms: C10_1  and  O11_30 
REMARK    3  A    between atoms: C18_14  and  C17_2 
REMARK    4  A    between atoms: C02_5  and  C01_4 
REMARK    5  A    between atoms: S06_34  and  C05_8 
REMARK    6  A    between atoms: C07_9  and  S06_34 
REMARK    7  A    between atoms: C12_11  and  O13_31 
REMARK    8  A    between atoms: N15_26  and  C14_12 
REMARK    9  A    between atoms: C23_16  and  O24_32 
REMARK   10  A    between atoms: C31_19  and  O32_33 
ROOT
ATOM      1  C07 H5T d   1     -19.045   9.218  -2.408  0.00  0.00     0.114 C 
ATOM      2  C09 H5T d   1     -18.874   7.115  -1.506  0.00  0.00     0.087 C 
ATOM      3  C12 H5T d   1     -17.322   7.230  -1.360  0.00  0.00     0.086 C 
ATOM      4  C14 H5T d   1     -16.822   8.211  -2.437  0.00  0.00     0.090 C 
ATOM      5  C31 H5T d   1     -17.542   9.510  -2.341  0.00  0.00     0.093 C 
ATOM      6  O08 H5T d   1     -19.453   8.367  -1.391  0.00  0.00    -0.362 OA
ATOM      7  H8  H5T d   1     -19.237   8.712  -3.366  0.00  0.00     0.105 H 
ATOM      8  H9  H5T d   1     -19.101   6.692  -2.495  0.00  0.00     0.090 H 
ATOM      9  H10 H5T d   1     -16.855   6.244  -1.502  0.00  0.00     0.090 H 
ATOM     10  H11 H5T d   1     -17.076   7.786  -3.419  0.00  0.00     0.084 H 
ATOM     11  H13 H5T d   1     -17.295  10.009  -1.393  0.00  0.00     0.091 H 
ENDROOT
BRANCH   4  12
ATOM     12  N15 H5T d   1     -15.391   8.291  -2.381  0.00  0.00    -0.250 N 
ATOM     13  C16 H5T d   1     -14.529   8.795  -1.443  0.00  0.00     0.031 A 
ATOM     14  C17 H5T d   1     -13.216   8.640  -1.877  0.00  0.00     0.114 A 
ATOM     15  H12 H5T d   1     -14.827   9.249  -0.499  0.00  0.00     0.118 H 
ATOM     16  N29 H5T d   1     -13.363   8.039  -3.176  0.00  0.00    -0.130 NA
ATOM     17  N30 H5T d   1     -14.636   7.892  -3.466  0.00  0.00    -0.065 NA
BRANCH  14  18
ATOM     18  C18 H5T d   1     -11.930   8.977  -1.231  0.00  0.00     0.080 A 
ATOM     19  C19 H5T d   1     -11.700   8.929   0.089  0.00  0.00     0.173 A 
ATOM     20  C21 H5T d   1     -10.521   9.221   0.758  0.00  0.00     0.192 A 
ATOM     21  F20 H5T d   1     -12.761   8.604   0.768  0.00  0.00    -0.202 F 
ATOM     22  C23 H5T d   1      -9.366   9.520   0.009  0.00  0.00     0.149 A 
ATOM     23  F22 H5T d   1     -10.457   9.131   2.080  0.00  0.00    -0.200 F 
ATOM     24  C25 H5T d   1      -9.549   9.562  -1.378  0.00  0.00     0.192 A 
ATOM     25  C27 H5T d   1     -10.800   9.236  -1.932  0.00  0.00     0.173 A 
ATOM     26  F26 H5T d   1      -8.516   9.872  -2.164  0.00  0.00    -0.200 F 
ATOM     27  F28 H5T d   1     -10.974   9.281  -3.246  0.00  0.00    -0.202 F 
BRANCH  22  28
ATOM     28  O24 H5T d   1      -8.146   9.781   0.577  0.00  0.00    -0.355 OA
ATOM     29  H18 H5T d   1      -8.215   9.705   1.522  0.00  0.00     0.218 HD
ENDBRANCH  22  28
ENDBRANCH  14  18
ENDBRANCH   4  12
BRANCH   3  30
ATOM     30  O13 H5T d   1     -17.004   7.724  -0.082  0.00  0.00    -0.391 OA
ATOM     31  H17 H5T d   1     -17.315   7.115   0.578  0.00  0.00     0.210 HD
ENDBRANCH   3  30
BRANCH   5  32
ATOM     32  O32 H5T d   1     -17.174  10.347  -3.437  0.00  0.00    -0.390 OA
ATOM     33  H19 H5T d   1     -16.237  10.503  -3.414  0.00  0.00     0.210 HD
ENDBRANCH   5  32
BRANCH   2  34
ATOM     34  C10 H5T d   1     -19.480   6.267  -0.469  0.00  0.00     0.043 C 
ATOM     35  H1  H5T d   1     -19.352   6.765   0.504  0.00  0.00     0.078 H 
ATOM     36  H2  H5T d   1     -18.953   5.302  -0.459  0.00  0.00     0.078 H 
BRANCH  34  37
ATOM     37  O11 H5T d   1     -20.825   6.025  -0.660  0.00  0.00    -0.398 OA
ATOM     38  H16 H5T d   1     -21.297   6.849  -0.661  0.00  0.00     0.209 HD
ENDBRANCH  34  37
ENDBRANCH   2  34
BRANCH   1  39
ATOM     39  S06 H5T d   1     -20.090  10.810  -2.374  0.00  0.00    -0.095 SA
BRANCH  39  40
ATOM     40  C05 H5T d   1     -21.584  10.480  -3.296  0.00  0.00     0.003 A 
ATOM     41  C04 H5T d   1     -22.061   9.157  -3.412  0.00  0.00    -0.066 A 
ATOM     42  C03 H5T d   1     -23.216   8.873  -4.184  0.00  0.00    -0.076 A 
ATOM     43  H7  H5T d   1     -21.540   8.351  -2.907  0.00  0.00     0.085 H 
ATOM     44  C02 H5T d   1     -23.945   9.912  -4.784  0.00  0.00    -0.062 A 
ATOM     45  H6  H5T d   1     -23.538   7.846  -4.312  0.00  0.00     0.084 H 
ATOM     46  C34 H5T d   1     -23.435  11.219  -4.604  0.00  0.00    -0.076 A 
ATOM     47  C33 H5T d   1     -22.288  11.507  -3.872  0.00  0.00    -0.066 A 
ATOM     48  H15 H5T d   1     -23.969  12.043  -5.063  0.00  0.00     0.084 H 
ATOM     49  H14 H5T d   1     -21.954  12.532  -3.758  0.00  0.00     0.085 H 
BRANCH  44  50
ATOM     50  C01 H5T d   1     -25.208   9.657  -5.607  0.00  0.00    -0.051 C 
ATOM     51  H3  H5T d   1     -25.427   8.579  -5.619  0.00  0.00     0.033 H 
ATOM     52  H4  H5T d   1     -25.052  10.011  -6.637  0.00  0.00     0.033 H 
ATOM     53  H5  H5T d   1     -26.054  10.198  -5.158  0.00  0.00     0.033 H 
ENDBRANCH  44  50
ENDBRANCH  39  40
ENDBRANCH   1  39
TORSDOF 10
