REMARK  10 active torsions:
REMARK  status: ('A' for Active; 'I' for Inactive)
REMARK    1  A    between atoms: C09_10  and  C10_1 
REMARK    2  A    between atoms: C10_1  and  O11_31 
REMARK    3  A    between atoms: C18_14  and  C17_2 
REMARK    4  A    between atoms: C02_5  and  C01_4 
REMARK    5  A    between atoms: S06_34  and  C05_8 
REMARK    6  A    between atoms: C07_9  and  S06_34 
REMARK    7  A    between atoms: C12_11  and  O13_32 
REMARK    8  A    between atoms: N15_26  and  C14_12 
REMARK    9  A    between atoms: C23_16  and  N24_27 
REMARK   10  A    between atoms: C31_19  and  O32_33 
ROOT
ATOM      1  C07 H5Q d   1     -20.007   8.502  -1.560  0.00  0.00     0.114 C 
ATOM      2  C09 H5Q d   1     -19.700   6.266  -0.649  0.00  0.00     0.087 C 
ATOM      3  C12 H5Q d   1     -18.200   6.586  -0.451  0.00  0.00     0.086 C 
ATOM      4  C14 H5Q d   1     -17.692   7.610  -1.524  0.00  0.00     0.090 C 
ATOM      5  C31 H5Q d   1     -18.500   8.912  -1.405  0.00  0.00     0.093 C 
ATOM      6  O08 H5Q d   1     -20.426   7.543  -0.628  0.00  0.00    -0.362 OA
ATOM      7  H8  H5Q d   1     -20.136   8.064  -2.561  0.00  0.00     0.105 H 
ATOM      8  H9  H5Q d   1     -19.813   5.806  -1.642  0.00  0.00     0.090 H 
ATOM      9  H10 H5Q d   1     -17.633   5.653  -0.589  0.00  0.00     0.090 H 
ATOM     10  H11 H5Q d   1     -17.927   7.188  -2.512  0.00  0.00     0.084 H 
ATOM     11  H13 H5Q d   1     -18.326   9.411  -0.440  0.00  0.00     0.091 H 
ENDROOT
BRANCH   4  12
ATOM     12  N15 H5Q d   1     -16.264   7.756  -1.489  0.00  0.00    -0.250 N 
ATOM     13  C16 H5Q d   1     -15.526   8.311  -0.431  0.00  0.00     0.031 A 
ATOM     14  C17 H5Q d   1     -14.176   8.283  -0.828  0.00  0.00     0.114 A 
ATOM     15  H12 H5Q d   1     -15.921   8.689   0.511  0.00  0.00     0.118 H 
ATOM     16  N29 H5Q d   1     -14.201   7.714  -2.122  0.00  0.00    -0.130 NA
ATOM     17  N30 H5Q d   1     -15.387   7.426  -2.496  0.00  0.00    -0.065 NA
BRANCH  14  18
ATOM     18  C18 H5Q d   1     -12.955   8.704  -0.115  0.00  0.00     0.080 A 
ATOM     19  C19 H5Q d   1     -12.767   8.582   1.274  0.00  0.00     0.173 A 
ATOM     20  C21 H5Q d   1     -11.564   8.974   1.962  0.00  0.00     0.185 A 
ATOM     21  F20 H5Q d   1     -13.774   8.117   1.950  0.00  0.00    -0.202 F 
ATOM     22  C23 H5Q d   1     -10.426   9.486   1.307  0.00  0.00     0.110 A 
ATOM     23  F22 H5Q d   1     -11.508   8.817   3.283  0.00  0.00    -0.200 F 
ATOM     24  C25 H5Q d   1     -10.603   9.583  -0.086  0.00  0.00     0.185 A 
ATOM     25  C27 H5Q d   1     -11.813   9.200  -0.751  0.00  0.00     0.173 A 
ATOM     26  F26 H5Q d   1      -9.584  10.060  -0.817  0.00  0.00    -0.200 F 
ATOM     27  F28 H5Q d   1     -11.892   9.324  -2.062  0.00  0.00    -0.202 F 
BRANCH  22  28
ATOM     28  N24 H5Q d   1      -9.248   9.865   1.957  0.00  0.00    -0.394 N 
ATOM     29  H16 H5Q d   1      -9.172   9.773   2.980  0.00  0.00     0.156 HD
ATOM     30  H17 H5Q d   1      -8.456  10.236   1.413  0.00  0.00     0.156 HD
ENDBRANCH  22  28
ENDBRANCH  14  18
ENDBRANCH   4  12
BRANCH   3  31
ATOM     31  O13 H5Q d   1     -17.981   7.020   0.818  0.00  0.00    -0.391 OA
ATOM     32  H19 H5Q d   1     -17.049   7.149   0.951  0.00  0.00     0.210 HD
ENDBRANCH   3  31
BRANCH   5  33
ATOM     33  O32 H5Q d   1     -18.099   9.736  -2.472  0.00  0.00    -0.390 OA
ATOM     34  H20 H5Q d   1     -17.167   9.909  -2.405  0.00  0.00     0.210 HD
ENDBRANCH   5  33
BRANCH   2  35
ATOM     35  C10 H5Q d   1     -20.322   5.321   0.356  0.00  0.00     0.043 C 
ATOM     36  H1  H5Q d   1     -20.317   5.780   1.356  0.00  0.00     0.078 H 
ATOM     37  H2  H5Q d   1     -19.758   4.377   0.383  0.00  0.00     0.078 H 
BRANCH  35  38
ATOM     38  O11 H5Q d   1     -21.638   5.079  -0.052  0.00  0.00    -0.398 OA
ATOM     39  H18 H5Q d   1     -22.116   5.899  -0.077  0.00  0.00     0.209 HD
ENDBRANCH  35  38
ENDBRANCH   2  35
BRANCH   1  40
ATOM     40  S06 H5Q d   1     -21.002   9.976  -1.461  0.00  0.00    -0.095 SA
BRANCH  40  41
ATOM     41  C05 H5Q d   1     -22.318   9.967  -2.738  0.00  0.00     0.003 A 
ATOM     42  C04 H5Q d   1     -22.582   8.791  -3.482  0.00  0.00    -0.066 A 
ATOM     43  C03 H5Q d   1     -23.584   8.759  -4.472  0.00  0.00    -0.076 A 
ATOM     44  H7  H5Q d   1     -22.001   7.897  -3.286  0.00  0.00     0.085 H 
ATOM     45  C02 H5Q d   1     -24.366   9.885  -4.775  0.00  0.00    -0.062 A 
ATOM     46  H6  H5Q d   1     -23.756   7.837  -5.016  0.00  0.00     0.084 H 
ATOM     47  C34 H5Q d   1     -24.106  11.049  -4.034  0.00  0.00    -0.076 A 
ATOM     48  C33 H5Q d   1     -23.101  11.096  -3.035  0.00  0.00    -0.066 A 
ATOM     49  H15 H5Q d   1     -24.692  11.939  -4.232  0.00  0.00     0.084 H 
ATOM     50  H14 H5Q d   1     -22.934  12.018  -2.491  0.00  0.00     0.085 H 
BRANCH  45  51
ATOM     51  C01 H5Q d   1     -25.431   9.824  -5.823  0.00  0.00    -0.051 C 
ATOM     52  H3  H5Q d   1     -25.451   8.818  -6.267  0.00  0.00     0.033 H 
ATOM     53  H4  H5Q d   1     -25.218  10.566  -6.606  0.00  0.00     0.033 H 
ATOM     54  H5  H5Q d   1     -26.408  10.043  -5.367  0.00  0.00     0.033 H 
ENDBRANCH  45  51
ENDBRANCH  40  41
ENDBRANCH   1  40
TORSDOF 10
