REMARK  11 active torsions:
REMARK  status: ('A' for Active; 'I' for Inactive)
REMARK    1  A    between atoms: C19_1  and  S20_35 
REMARK    2  A    between atoms: S20_35  and  C21_3 
REMARK    3  A    between atoms: C15_8  and  C16_4 
REMARK    4  A    between atoms: C16_4  and  O17_32 
REMARK    5  A    between atoms: N11_28  and  C12_5 
REMARK    6  A    between atoms: C13_6  and  O14_31 
REMARK    7  A    between atoms: N02_27  and  C01_10 
REMARK    8  A    between atoms: C03_11  and  N02_27 
REMARK    9  A    between atoms: C08_14  and  C09_15 
REMARK   10  A    between atoms: C24_16  and  C25_17 
REMARK   11  A    between atoms: C28_20  and  O29_34 
ROOT
ATOM      1  C19 H5H d   1     -20.326   8.253  -1.550  0.00  0.00     0.114 C 
ATOM      2  C12 H5H d   1     -18.040   7.533  -1.544  0.00  0.00     0.090 C 
ATOM      3  C13 H5H d   1     -18.409   6.479  -0.508  0.00  0.00     0.086 C 
ATOM      4  C15 H5H d   1     -19.895   6.186  -0.611  0.00  0.00     0.087 C 
ATOM      5  C28 H5H d   1     -18.906   8.813  -1.470  0.00  0.00     0.093 C 
ATOM      6  O18 H5H d   1     -20.587   7.424  -0.441  0.00  0.00    -0.362 OA
ATOM      7  H1  H5H d   1     -20.389   7.647  -2.466  0.00  0.00     0.105 H 
ATOM      8  H5  H5H d   1     -18.247   7.087  -2.528  0.00  0.00     0.084 H 
ATOM      9  H6  H5H d   1     -17.832   5.560  -0.690  0.00  0.00     0.090 H 
ATOM     10  H8  H5H d   1     -20.117   5.734  -1.589  0.00  0.00     0.090 H 
ATOM     11  H18 H5H d   1     -18.735   9.379  -0.542  0.00  0.00     0.091 H 
ENDROOT
BRANCH   2  12
ATOM     12  N11 H5H d   1     -16.595   7.807  -1.506  0.00  0.00    -0.250 N 
ATOM     13  C10 H5H d   1     -15.867   8.353  -0.521  0.00  0.00     0.031 A 
ATOM     14  C09 H5H d   1     -14.578   8.358  -0.990  0.00  0.00     0.114 A 
ATOM     15  H9  H5H d   1     -16.222   8.714   0.443  0.00  0.00     0.118 H 
ATOM     16  N31 H5H d   1     -14.592   7.822  -2.244  0.00  0.00    -0.130 NA
ATOM     17  N30 H5H d   1     -15.817   7.483  -2.561  0.00  0.00    -0.065 NA
BRANCH  14  18
ATOM     18  C08 H5H d   1     -13.321   8.811  -0.365  0.00  0.00     0.080 A 
ATOM     19  C06 H5H d   1     -12.318   9.444  -1.072  0.00  0.00     0.173 A 
ATOM     20  C04 H5H d   1     -11.144   9.846  -0.472  0.00  0.00     0.185 A 
ATOM     21  F07 H5H d   1     -12.491   9.648  -2.385  0.00  0.00    -0.202 F 
ATOM     22  C03 H5H d   1     -10.893   9.659   0.885  0.00  0.00     0.112 A 
ATOM     23  F05 H5H d   1     -10.212  10.426  -1.246  0.00  0.00    -0.200 F 
ATOM     24  C34 H5H d   1     -11.921   9.041   1.588  0.00  0.00     0.185 A 
ATOM     25  C32 H5H d   1     -13.080   8.616   0.981  0.00  0.00     0.173 A 
ATOM     26  F35 H5H d   1     -11.828   8.891   2.909  0.00  0.00    -0.200 F 
ATOM     27  F33 H5H d   1     -14.017   8.021   1.720  0.00  0.00    -0.202 F 
BRANCH  22  28
ATOM     28  N02 H5H d   1      -9.633  10.040   1.519  0.00  0.00    -0.389 N 
ATOM     29  H19 H5H d   1      -8.833   9.417   1.339  0.00  0.00     0.159 HD
BRANCH  28  30
ATOM     30  C01 H5H d   1      -9.364  11.186   2.372  0.00  0.00    -0.021 C 
ATOM     31  H10 H5H d   1      -8.308  11.174   2.680  0.00  0.00     0.056 H 
ATOM     32  H11 H5H d   1     -10.007  11.138   3.264  0.00  0.00     0.056 H 
ATOM     33  H12 H5H d   1      -9.574  12.113   1.818  0.00  0.00     0.056 H 
ENDBRANCH  28  30
ENDBRANCH  22  28
ENDBRANCH  14  18
ENDBRANCH   2  12
BRANCH   3  34
ATOM     34  O14 H5H d   1     -18.131   6.970   0.789  0.00  0.00    -0.391 OA
ATOM     35  H20 H5H d   1     -17.202   7.157   0.864  0.00  0.00     0.210 HD
ENDBRANCH   3  34
BRANCH   5  36
ATOM     36  O29 H5H d   1     -18.643   9.618  -2.607  0.00  0.00    -0.390 OA
ATOM     37  H22 H5H d   1     -17.723   9.854  -2.620  0.00  0.00     0.210 HD
ENDBRANCH   5  36
BRANCH   4  38
ATOM     38  C16 H5H d   1     -20.395   5.311   0.484  0.00  0.00     0.043 C 
ATOM     39  H3  H5H d   1     -20.273   5.818   1.452  0.00  0.00     0.078 H 
ATOM     40  H4  H5H d   1     -19.834   4.365   0.492  0.00  0.00     0.078 H 
BRANCH  38  41
ATOM     41  O17 H5H d   1     -21.750   5.057   0.249  0.00  0.00    -0.398 OA
ATOM     42  H21 H5H d   1     -22.228   5.878   0.240  0.00  0.00     0.209 HD
ENDBRANCH  38  41
ENDBRANCH   4  38
BRANCH   1  43
ATOM     43  S20 H5H d   1     -21.621   9.501  -1.626  0.00  0.00    -0.095 SA
BRANCH  43  44
ATOM     44  C21 H5H d   1     -22.821   8.514  -2.491  0.00  0.00     0.003 A 
ATOM     45  C22 H5H d   1     -23.540   7.572  -1.767  0.00  0.00    -0.066 A 
ATOM     46  C23 H5H d   1     -24.434   6.736  -2.408  0.00  0.00    -0.076 A 
ATOM     47  H2  H5H d   1     -23.399   7.492  -0.695  0.00  0.00     0.085 H 
ATOM     48  C24 H5H d   1     -24.645   6.818  -3.779  0.00  0.00    -0.062 A 
ATOM     49  H7  H5H d   1     -24.982   6.001  -1.829  0.00  0.00     0.084 H 
ATOM     50  C26 H5H d   1     -23.928   7.774  -4.489  0.00  0.00    -0.076 A 
ATOM     51  C27 H5H d   1     -23.023   8.611  -3.861  0.00  0.00    -0.066 A 
ATOM     52  H16 H5H d   1     -24.081   7.866  -5.558  0.00  0.00     0.084 H 
ATOM     53  H17 H5H d   1     -22.471   9.343  -4.439  0.00  0.00     0.085 H 
BRANCH  48  54
ATOM     54  C25 H5H d   1     -25.606   5.891  -4.474  0.00  0.00    -0.051 C 
ATOM     55  H13 H5H d   1     -25.625   6.122  -5.549  0.00  0.00     0.033 H 
ATOM     56  H14 H5H d   1     -26.613   6.024  -4.053  0.00  0.00     0.033 H 
ATOM     57  H15 H5H d   1     -25.282   4.850  -4.328  0.00  0.00     0.033 H 
ENDBRANCH  48  54
ENDBRANCH  43  44
ENDBRANCH   1  43
TORSDOF 11
