REMARK  26 active torsions:
REMARK  status: ('A' for Active; 'I' for Inactive)
REMARK    1  A    between atoms: N_1  and  CA_2 
REMARK    2  A    between atoms: CA_2  and  C_3 
REMARK    3  A    between atoms: CA_2  and  CB_5 
REMARK       I    between atoms: C_3  and  N_6 
REMARK    4  A    between atoms: N_6  and  CA_7 
REMARK    5  A    between atoms: CA_7  and  C_8 
REMARK    6  A    between atoms: CA_7  and  CB_10 
REMARK       I    between atoms: C_8  and  N_11 
REMARK    7  A    between atoms: N_11  and  CA_12 
REMARK    8  A    between atoms: CA_12  and  C_13 
REMARK    9  A    between atoms: CA_12  and  CB_15 
REMARK       I    between atoms: C_13  and  N_19 
REMARK   10  A    between atoms: CB_15  and  CG_16 
REMARK   11  A    between atoms: N_19  and  CA_20 
REMARK   12  A    between atoms: CA_20  and  C_21 
REMARK   13  A    between atoms: CA_20  and  CB_23 
REMARK       I    between atoms: C_21  and  N_26 
REMARK   14  A    between atoms: CB_23  and  OG1_24 
REMARK   15  A    between atoms: CB_23  and  CG2_25 
REMARK   16  A    between atoms: N_26  and  CA_27 
REMARK   17  A    between atoms: CA_27  and  C_28 
REMARK   18  A    between atoms: CA_27  and  CB_30 
REMARK       I    between atoms: C_28  and  N_33 
REMARK   19  A    between atoms: CB_30  and  OG1_31 
REMARK   20  A    between atoms: CB_30  and  CG2_32 
REMARK   21  A    between atoms: N_33  and  CA_34 
REMARK   22  A    between atoms: CA_34  and  C_35 
REMARK   23  A    between atoms: CA_34  and  CB_37 
REMARK       I    between atoms: C_35  and  N_40 
REMARK   24  A    between atoms: CB_37  and  OG1_38 
REMARK   25  A    between atoms: CB_37  and  CG2_39 
REMARK   26  A    between atoms: CA_41  and  C_42 
ROOT
ATOM      1  CA  LYS d   1      -8.061  -2.553   8.293  0.00  0.00     0.113 C 
ATOM      2  H18 LYS d   1      -8.822  -2.069   8.923  0.00  0.00     0.091 H 
ENDROOT
BRANCH   1   3
ATOM      3  N   LYS d   1      -8.736  -3.278   7.228  0.00  0.00    -0.344 N 
ATOM      4  C   LYS d   1     -10.049  -3.506   7.223  0.00  0.00     0.241 C 
ATOM      5  O   LYS d   1     -10.797  -3.154   8.139  0.00  0.00    -0.271 OA
ATOM      6  H17 LYS d   1      -8.190  -3.621   6.464  0.00  0.00     0.163 HD
BRANCH   4   7
ATOM      7  CA  LYS d   1     -10.576  -4.237   5.996  0.00  0.00     0.098 C 
ATOM      8  H14 LYS d   1      -9.931  -5.106   5.800  0.00  0.00     0.088 H 
BRANCH   7   9
ATOM      9  N   LYS d   1     -11.925  -4.715   6.251  0.00  0.00    -0.346 N 
ATOM     10  C   LYS d   1     -12.274  -5.988   6.080  0.00  0.00     0.240 C 
ATOM     11  O   LYS d   1     -11.479  -6.857   5.709  0.00  0.00    -0.271 OA
ATOM     12  H13 LYS d   1     -12.616  -4.064   6.566  0.00  0.00     0.163 HD
BRANCH  10  13
ATOM     13  CA  LYS d   1     -13.733  -6.316   6.371  0.00  0.00     0.086 C 
ATOM     14  H9  LYS d   1     -14.350  -5.451   6.086  0.00  0.00     0.086 H 
BRANCH  13  15
ATOM     15  N   LYS d   1     -14.162  -7.465   5.591  0.00  0.00    -0.346 N 
ATOM     16  C   LYS d   1     -14.517  -7.338   4.317  0.00  0.00     0.248 C 
ATOM     17  O   LYS d   1     -14.546  -6.253   3.734  0.00  0.00    -0.271 OA
ATOM     18  H8  LYS d   1     -14.191  -8.367   6.021  0.00  0.00     0.163 HD
BRANCH  16  19
ATOM     19  CA  LYS d   1     -14.901  -8.625   3.595  0.00  0.00     0.172 C 
ATOM     20  H4  LYS d   1     -15.647  -9.155   4.205  0.00  0.00     0.098 H 
BRANCH  19  21
ATOM     21  N   LYS d   1     -15.495  -8.335   2.296  0.00  0.00    -0.067 N 
ATOM     22  H1  LYS d   1     -15.740  -9.199   1.838  0.00  0.00     0.275 HD
ATOM     23  H2  LYS d   1     -14.832  -7.830   1.728  0.00  0.00     0.275 HD
ATOM     24  H3  LYS d   1     -16.323  -7.775   2.423  0.00  0.00     0.275 HD
ENDBRANCH  19  21
BRANCH  19  25
ATOM     25  CB  LYS d   1     -13.675  -9.528   3.437  0.00  0.00    -0.042 C 
ATOM     26  H5  LYS d   1     -13.242  -9.735   4.427  0.00  0.00     0.030 H 
ATOM     27  H6  LYS d   1     -12.927  -9.024   2.808  0.00  0.00     0.030 H 
ATOM     28  H7  LYS d   1     -13.975 -10.474   2.963  0.00  0.00     0.030 H 
ENDBRANCH  19  25
ENDBRANCH  16  19
ENDBRANCH  13  15
BRANCH  13  29
ATOM     29  CB  LYS d   1     -13.923  -6.579   7.865  0.00  0.00    -0.049 C 
ATOM     30  H10 LYS d   1     -13.593  -5.699   8.437  0.00  0.00     0.030 H 
ATOM     31  H11 LYS d   1     -13.326  -7.454   8.162  0.00  0.00     0.030 H 
ATOM     32  H12 LYS d   1     -14.986  -6.773   8.071  0.00  0.00     0.030 H 
ENDBRANCH  13  29
ENDBRANCH  10  13
ENDBRANCH   7   9
BRANCH   7  33
ATOM     33  CB  LYS d   1     -10.530  -3.315   4.770  0.00  0.00     0.043 C 
ATOM     34  H15 LYS d   1     -11.015  -3.827   3.926  0.00  0.00     0.052 H 
ATOM     35  H16 LYS d   1      -9.478  -3.112   4.521  0.00  0.00     0.052 H 
BRANCH  33  36
ATOM     36  CG  LYS d   1     -11.236  -1.994   5.008  0.00  0.00     0.175 C 
ATOM     37  OD1 LYS d   1     -12.481  -1.960   4.927  0.00  0.00    -0.648 OA
ATOM     38  OD2 LYS d   1     -10.545  -0.990   5.280  0.00  0.00    -0.648 OA
ENDBRANCH  33  36
ENDBRANCH   7  33
ENDBRANCH   4   7
ENDBRANCH   1   3
BRANCH   1  39
ATOM     39  C   LYS d   1      -7.166  -1.480   7.688  0.00  0.00     0.243 C 
ATOM     40  O   LYS d   1      -6.746  -1.580   6.532  0.00  0.00    -0.271 OA
ATOM     41  N   LYS d   1      -6.889  -0.444   8.477  0.00  0.00    -0.344 N 
ATOM     42  H24 LYS d   1      -7.319  -0.400   9.379  0.00  0.00     0.163 HD
BRANCH  41  43
ATOM     43  CA  LYS d   1      -5.986   0.628   8.081  0.00  0.00     0.113 C 
ATOM     44  H25 LYS d   1      -5.858   0.576   6.990  0.00  0.00     0.091 H 
BRANCH  43  45
ATOM     45  C   LYS d   1      -4.611   0.487   8.722  0.00  0.00     0.243 C 
ATOM     46  O   LYS d   1      -3.832   1.445   8.727  0.00  0.00    -0.271 OA
ATOM     47  N   LYS d   1      -4.295  -0.694   9.234  0.00  0.00    -0.344 N 
ATOM     48  H31 LYS d   1      -4.913  -1.454   9.035  0.00  0.00     0.163 HD
BRANCH  47  49
ATOM     49  CA  LYS d   1      -3.132  -0.988  10.059  0.00  0.00     0.114 C 
ATOM     50  H32 LYS d   1      -2.402  -0.168   9.987  0.00  0.00     0.091 H 
BRANCH  49  51
ATOM     51  C   LYS d   1      -2.499  -2.272   9.521  0.00  0.00     0.246 C 
ATOM     52  O   LYS d   1      -3.185  -3.035   8.828  0.00  0.00    -0.271 OA
ATOM     53  N   LYS d   1      -1.193  -2.537   9.750  0.00  0.00    -0.336 N 
ATOM     54  CA  LYS d   1      -0.741  -3.892   9.406  0.00  0.00     0.098 C 
ATOM     55  CD  LYS d   1      -0.064  -1.640  10.062  0.00  0.00    -0.001 C 
ATOM     56  CB  LYS d   1       0.790  -3.782   9.449  0.00  0.00    -0.035 C 
ATOM     57  H38 LYS d   1      -1.080  -4.162   8.395  0.00  0.00     0.089 H 
ATOM     58  CG  LYS d   1       1.084  -2.580  10.274  0.00  0.00    -0.048 C 
ATOM     59  H39 LYS d   1       1.194  -3.658   8.434  0.00  0.00     0.036 H 
ATOM     60  H40 LYS d   1       1.226  -4.680   9.911  0.00  0.00     0.036 H 
ATOM     61  H41 LYS d   1       2.025  -2.113   9.947  0.00  0.00     0.035 H 
ATOM     62  H42 LYS d   1       1.161  -2.855  11.336  0.00  0.00     0.035 H 
ATOM     63  H43 LYS d   1      -0.266  -1.056  10.972  0.00  0.00     0.064 H 
ATOM     64  H44 LYS d   1       0.138  -0.956   9.224  0.00  0.00     0.064 H 
BRANCH  54  65
ATOM     65  C   LYS d   1      -1.249  -4.939  10.391  0.00  0.00     0.196 C 
ATOM     66  O   LYS d   1      -1.027  -4.784  11.591  0.00  0.00    -0.646 OA
ATOM     67  OXT LYS d   1      -1.867  -5.911   9.960  0.00  0.00    -0.646 OA
ENDBRANCH  54  65
ENDBRANCH  49  51
BRANCH  49  68
ATOM     68  CB  LYS d   1      -3.595  -1.118  11.517  0.00  0.00     0.060 C 
ATOM     69  H33 LYS d   1      -4.367  -1.901  11.561  0.00  0.00     0.086 H 
BRANCH  68  70
ATOM     70  OG1 LYS d   1      -4.169   0.123  11.951  0.00  0.00    -0.393 OA
ATOM     71  H34 LYS d   1      -4.455   0.040  12.853  0.00  0.00     0.210 HD
ENDBRANCH  68  70
BRANCH  68  72
ATOM     72  CG2 LYS d   1      -2.474  -1.506  12.462  0.00  0.00    -0.050 C 
ATOM     73  H35 LYS d   1      -2.868  -1.583  13.486  0.00  0.00     0.031 H 
ATOM     74  H36 LYS d   1      -1.685  -0.740  12.429  0.00  0.00     0.031 H 
ATOM     75  H37 LYS d   1      -2.056  -2.477  12.156  0.00  0.00     0.031 H 
ENDBRANCH  68  72
ENDBRANCH  49  68
ENDBRANCH  47  49
ENDBRANCH  43  45
BRANCH  43  76
ATOM     76  CB  LYS d   1      -6.593   1.991   8.430  0.00  0.00     0.060 C 
ATOM     77  H26 LYS d   1      -6.090   2.769   7.837  0.00  0.00     0.086 H 
BRANCH  76  78
ATOM     78  OG1 LYS d   1      -6.404   2.264   9.823  0.00  0.00    -0.393 OA
ATOM     79  H27 LYS d   1      -6.830   1.589  10.338  0.00  0.00     0.210 HD
ENDBRANCH  76  78
BRANCH  76  80
ATOM     80  CG2 LYS d   1      -8.084   2.009   8.115  0.00  0.00    -0.050 C 
ATOM     81  H28 LYS d   1      -8.501   2.994   8.372  0.00  0.00     0.031 H 
ATOM     82  H29 LYS d   1      -8.592   1.231   8.703  0.00  0.00     0.031 H 
ATOM     83  H30 LYS d   1      -8.235   1.815   7.043  0.00  0.00     0.031 H 
ENDBRANCH  76  80
ENDBRANCH  43  76
ENDBRANCH  41  43
ENDBRANCH   1  39
BRANCH   1  84
ATOM     84  CB  LYS d   1      -7.224  -3.495   9.177  0.00  0.00     0.060 C 
ATOM     85  H19 LYS d   1      -7.890  -4.245   9.629  0.00  0.00     0.086 H 
BRANCH  84  86
ATOM     86  OG1 LYS d   1      -6.588  -2.743  10.218  0.00  0.00    -0.393 OA
ATOM     87  H20 LYS d   1      -7.250  -2.317  10.750  0.00  0.00     0.210 HD
ENDBRANCH  84  86
BRANCH  84  88
ATOM     88  CG2 LYS d   1      -6.162  -4.210   8.347  0.00  0.00    -0.050 C 
ATOM     89  H21 LYS d   1      -5.576  -4.877   8.997  0.00  0.00     0.031 H 
ATOM     90  H22 LYS d   1      -5.494  -3.467   7.887  0.00  0.00     0.031 H 
ATOM     91  H23 LYS d   1      -6.650  -4.802   7.559  0.00  0.00     0.031 H 
ENDBRANCH  84  88
ENDBRANCH   1  84
TORSDOF 26
