REMARK  20 active torsions:
REMARK  status: ('A' for Active; 'I' for Inactive)
REMARK    1  A    between atoms: N3_2  and  C19_27 
REMARK    2  A    between atoms: O_20  and  C6_5 
REMARK    3  A    between atoms: C8_7  and  C7_6 
REMARK    4  A    between atoms: C7_6  and  O_20 
REMARK    5  A    between atoms: C9_46  and  C8_7 
REMARK    6  A    between atoms: C15_10  and  C16_25 
REMARK    7  A    between atoms: O1_52  and  C15_10 
REMARK    8  A    between atoms: C16_25  and  C17_11 
REMARK    9  A    between atoms: C19_27  and  C20_12 
REMARK       I    between atoms: C20_12  and  N4_48 
REMARK   10  A    between atoms: C23_29  and  C24_15 
REMARK   11  A    between atoms: C24_15  and  C25_30 
REMARK   12  A    between atoms: C3_33  and  N_18 
REMARK   13  A    between atoms: C1_21  and  C_19 
REMARK   14  A    between atoms: C1_21  and  C2_28 
REMARK   15  A    between atoms: C14_24  and  O1_52 
REMARK   16  A    between atoms: C25_30  and  N5_49 
REMARK   17  A    between atoms: C35_39  and  O3_54 
REMARK   18  A    between atoms: C36_40  and  C37_41 
REMARK   19  A    between atoms: O3_54  and  C36_40 
REMARK   20  A    between atoms: C9_46  and  N2_47 
ROOT
ATOM      1  C10 H7T d   1      14.745  22.251  32.958  0.00  0.00     0.108 A 
ATOM      2  C13 H7T d   1      11.959  19.698  33.676  0.00  0.00    -0.050 A 
ATOM      3  C11 H7T d   1      13.838  21.197  33.522  0.00  0.00    -0.024 A 
ATOM      4  C12 H7T d   1      12.682  20.650  32.980  0.00  0.00    -0.072 A 
ATOM      5  C14 H7T d   1      12.396  19.286  34.927  0.00  0.00     0.069 A 
ATOM      6  C32 H7T d   1      13.546  19.829  35.481  0.00  0.00    -0.043 A 
ATOM      7  C33 H7T d   1      14.269  20.783  34.776  0.00  0.00    -0.022 A 
ATOM      8  C34 H7T d   1      15.539  21.482  35.162  0.00  0.00     0.108 A 
ATOM      9  N2  H7T d   1      15.825  22.393  33.975  0.00  0.00    -0.063 N 
ATOM     10  H7  H7T d   1      14.205  23.201  32.828  0.00  0.00     0.083 H 
ATOM     11  H8  H7T d   1      15.160  21.930  31.991  0.00  0.00     0.083 H 
ATOM     12  H9  H7T d   1      11.057  19.277  33.247  0.00  0.00     0.087 H 
ATOM     13  H27 H7T d   1      12.343  20.972  32.002  0.00  0.00     0.084 H 
ATOM     14  H47 H7T d   1      13.880  19.510  36.462  0.00  0.00     0.088 H 
ATOM     15  H48 H7T d   1      16.356  20.760  35.308  0.00  0.00     0.083 H 
ATOM     16  H49 H7T d   1      15.400  22.069  36.082  0.00  0.00     0.083 H 
ATOM     17  H60 H7T d   1      16.631  21.957  33.554  0.00  0.00     0.280 HD
ENDROOT
BRANCH   5  18
ATOM     18  O1  H7T d   1      11.620  18.319  35.514  0.00  0.00    -0.351 OA
BRANCH  18  19
ATOM     19  C15 H7T d   1      11.999  17.832  36.806  0.00  0.00     0.031 C 
ATOM     20  H10 H7T d   1      12.986  17.348  36.755  0.00  0.00     0.075 H 
ATOM     21  H11 H7T d   1      12.034  18.660  37.529  0.00  0.00     0.075 H 
BRANCH  19  22
ATOM     22  C16 H7T d   1      10.946  16.828  37.214  0.00  0.00    -0.001 C 
ATOM     23  H28 H7T d   1      10.738  16.169  36.358  0.00  0.00     0.045 H 
ATOM     24  H29 H7T d   1      10.030  17.371  37.490  0.00  0.00     0.045 H 
BRANCH  22  25
ATOM     25  C17 H7T d   1      11.371  15.988  38.372  0.00  0.00     0.077 A 
ATOM     26  C18 H7T d   1      12.598  15.497  38.708  0.00  0.00     0.026 A 
ATOM     27  N3  H7T d   1      12.399  14.802  39.836  0.00  0.00    -0.252 N 
ATOM     28  H30 H7T d   1      13.537  15.639  38.175  0.00  0.00     0.117 H 
ATOM     29  N6  H7T d   1      11.109  14.850  40.208  0.00  0.00    -0.066 NA
ATOM     30  N7  H7T d   1      10.483  15.575  39.312  0.00  0.00    -0.135 NA
BRANCH  27  31
ATOM     31  C19 H7T d   1      13.364  14.059  40.630  0.00  0.00     0.091 C 
ATOM     32  H31 H7T d   1      14.379  14.313  40.291  0.00  0.00     0.082 H 
ATOM     33  H32 H7T d   1      13.190  12.982  40.490  0.00  0.00     0.082 H 
BRANCH  31  34
ATOM     34  C20 H7T d   1      13.237  14.395  42.114  0.00  0.00     0.239 C 
ATOM     35  N4  H7T d   1      14.081  13.772  42.961  0.00  0.00    -0.351 N 
ATOM     36  C21 H7T d   1      14.018  14.010  44.405  0.00  0.00    -0.002 C 
ATOM     37  C31 H7T d   1      15.142  12.829  42.586  0.00  0.00    -0.002 C 
ATOM     38  C22 H7T d   1      15.349  14.509  44.934  0.00  0.00    -0.047 C 
ATOM     39  H12 H7T d   1      13.244  14.764  44.611  0.00  0.00     0.064 H 
ATOM     40  H13 H7T d   1      13.759  13.069  44.913  0.00  0.00     0.064 H 
ATOM     41  C23 H7T d   1      16.478  13.542  44.607  0.00  0.00    -0.050 C 
ATOM     42  H14 H7T d   1      15.280  14.621  46.026  0.00  0.00     0.035 H 
ATOM     43  H15 H7T d   1      15.571  15.485  44.478  0.00  0.00     0.035 H 
ATOM     44  C30 H7T d   1      16.500  13.292  43.104  0.00  0.00    -0.047 C 
ATOM     45  H36 H7T d   1      16.265  12.587  45.109  0.00  0.00     0.040 H 
ATOM     46  H43 H7T d   1      17.248  12.517  42.883  0.00  0.00     0.035 H 
ATOM     47  H44 H7T d   1      16.777  14.225  42.592  0.00  0.00     0.035 H 
ATOM     48  H45 H7T d   1      14.912  11.842  43.014  0.00  0.00     0.064 H 
ATOM     49  H46 H7T d   1      15.183  12.753  41.489  0.00  0.00     0.064 H 
ATOM     50  O2  H7T d   1      12.409  15.205  42.500  0.00  0.00    -0.271 OA
BRANCH  41  51
ATOM     51  C24 H7T d   1      17.830  14.040  45.121  0.00  0.00    -0.039 C 
ATOM     52  H16 H7T d   1      18.098  14.946  44.557  0.00  0.00     0.035 H 
ATOM     53  H17 H7T d   1      18.578  13.256  44.932  0.00  0.00     0.035 H 
BRANCH  51  54
ATOM     54  C25 H7T d   1      17.863  14.379  46.605  0.00  0.00     0.084 C 
ATOM     55  H37 H7T d   1      17.090  15.140  46.787  0.00  0.00     0.076 H 
ATOM     56  H38 H7T d   1      18.854  14.803  46.825  0.00  0.00     0.076 H 
BRANCH  54  57
ATOM     57  N5  H7T d   1      17.633  13.284  47.550  0.00  0.00    -0.071 N 
ATOM     58  C26 H7T d   1      18.620  12.217  47.347  0.00  0.00     0.084 C 
ATOM     59  C27 H7T d   1      18.927  11.728  48.735  0.00  0.00    -0.041 C 
ATOM     60  H18 H7T d   1      18.198  11.408  46.733  0.00  0.00     0.076 H 
ATOM     61  H19 H7T d   1      19.526  12.611  46.863  0.00  0.00     0.076 H 
ATOM     62  C28 H7T d   1      19.004  12.929  49.444  0.00  0.00    -0.041 C 
ATOM     63  H39 H7T d   1      19.881  11.181  48.766  0.00  0.00     0.035 H 
ATOM     64  H40 H7T d   1      18.123  11.085  49.121  0.00  0.00     0.035 H 
ATOM     65  C29 H7T d   1      17.780  13.681  48.961  0.00  0.00     0.084 C 
ATOM     66  H20 H7T d   1      19.927  13.475  49.200  0.00  0.00     0.035 H 
ATOM     67  H21 H7T d   1      18.959  12.753  50.529  0.00  0.00     0.035 H 
ATOM     68  H41 H7T d   1      17.933  14.767  49.045  0.00  0.00     0.076 H 
ATOM     69  H42 H7T d   1      16.892  13.390  49.541  0.00  0.00     0.076 H 
ATOM     70  H61 H7T d   1      16.703  12.926  47.400  0.00  0.00     0.279 HD
ENDBRANCH  54  57
ENDBRANCH  51  54
ENDBRANCH  41  51
ENDBRANCH  31  34
ENDBRANCH  27  31
ENDBRANCH  22  25
ENDBRANCH  19  22
ENDBRANCH  18  19
ENDBRANCH   5  18
BRANCH   9  71
ATOM     71  C9  H7T d   1      16.271  23.783  34.123  0.00  0.00     0.086 C 
ATOM     72  H58 H7T d   1      15.462  24.355  34.601  0.00  0.00     0.076 H 
ATOM     73  H59 H7T d   1      17.160  23.793  34.771  0.00  0.00     0.076 H 
BRANCH  71  74
ATOM     74  C8  H7T d   1      16.629  24.467  32.814  0.00  0.00    -0.022 C 
ATOM     75  H5  H7T d   1      15.794  24.340  32.109  0.00  0.00     0.038 H 
ATOM     76  H6  H7T d   1      16.786  25.538  33.007  0.00  0.00     0.038 H 
BRANCH  74  77
ATOM     77  C7  H7T d   1      17.875  23.901  32.192  0.00  0.00     0.028 C 
ATOM     78  H3  H7T d   1      18.717  23.995  32.893  0.00  0.00     0.075 H 
ATOM     79  H4  H7T d   1      18.108  24.444  31.264  0.00  0.00     0.075 H 
BRANCH  77  80
ATOM     80  O   H7T d   1      17.639  22.516  31.898  0.00  0.00    -0.348 OA
BRANCH  80  81
ATOM     81  C6  H7T d   1      18.733  21.736  31.651  0.00  0.00     0.104 A 
ATOM     82  C5  H7T d   1      19.943  22.244  31.215  0.00  0.00    -0.022 A 
ATOM     83  C4  H7T d   1      20.985  21.358  30.978  0.00  0.00     0.043 A 
ATOM     84  H2  H7T d   1      20.075  23.309  31.062  0.00  0.00     0.091 H 
ATOM     85  N1  H7T d   1      22.273  21.680  30.554  0.00  0.00    -0.345 N 
ATOM     86  C41 H7T d   1      20.821  19.989  31.163  0.00  0.00    -0.013 A 
ATOM     87  C3  H7T d   1      22.936  20.547  30.475  0.00  0.00     0.088 A 
ATOM     88  H1  H7T d   1      22.635  22.621  30.344  0.00  0.00     0.167 HD
ATOM     89  C1  H7T d   1      22.147  19.320  30.882  0.00  0.00     0.040 A 
ATOM     90  C40 H7T d   1      19.609  19.473  31.593  0.00  0.00    -0.038 A 
ATOM     91  C35 H7T d   1      18.566  20.347  31.856  0.00  0.00     0.102 A 
ATOM     92  H57 H7T d   1      19.479  18.404  31.721  0.00  0.00     0.088 H 
BRANCH  87  93
ATOM     93  N   H7T d   1      24.182  20.467  30.024  0.00  0.00    -0.388 N 
ATOM     94  H22 H7T d   1      24.657  19.554  29.982  0.00  0.00     0.157 HD
ATOM     95  H23 H7T d   1      24.674  21.318  29.716  0.00  0.00     0.157 HD
ENDBRANCH  87  93
BRANCH  89  96
ATOM     96  C   H7T d   1      22.009  18.295  29.742  0.00  0.00    -0.059 C 
ATOM     97  H24 H7T d   1      22.984  17.821  29.555  0.00  0.00     0.029 H 
ATOM     98  H25 H7T d   1      21.668  18.805  28.829  0.00  0.00     0.029 H 
ATOM     99  H26 H7T d   1      21.276  17.526  30.027  0.00  0.00     0.029 H 
ENDBRANCH  89  96
BRANCH  89 100
ATOM    100  C2  H7T d   1      22.699  18.656  32.157  0.00  0.00    -0.059 C 
ATOM    101  H33 H7T d   1      22.787  19.409  32.954  0.00  0.00     0.029 H 
ATOM    102  H34 H7T d   1      23.690  18.226  31.947  0.00  0.00     0.029 H 
ATOM    103  H35 H7T d   1      22.014  17.858  32.481  0.00  0.00     0.029 H 
ENDBRANCH  89 100
BRANCH  91 104
ATOM    104  O3  H7T d   1      17.351  19.991  32.390  0.00  0.00    -0.348 OA
BRANCH 104 105
ATOM    105  C36 H7T d   1      17.082  18.630  32.759  0.00  0.00     0.029 C 
ATOM    106  H50 H7T d   1      18.027  18.107  32.968  0.00  0.00     0.075 H 
ATOM    107  H51 H7T d   1      16.444  18.606  33.655  0.00  0.00     0.075 H 
BRANCH 105 108
ATOM    108  C37 H7T d   1      16.371  17.962  31.607  0.00  0.00    -0.033 A 
ATOM    109  C38 H7T d   1      15.138  17.175  31.902  0.00  0.00    -0.059 A 
ATOM    110  C39 H7T d   1      15.035  18.476  31.180  0.00  0.00    -0.059 A 
ATOM    111  H53 H7T d   1      14.774  17.090  32.937  0.00  0.00     0.033 H 
ATOM    112  H54 H7T d   1      14.946  16.233  31.367  0.00  0.00     0.033 H 
ATOM    113  H55 H7T d   1      14.768  18.493  30.113  0.00  0.00     0.033 H 
ATOM    114  H56 H7T d   1      14.596  19.351  31.682  0.00  0.00     0.033 H 
ATOM    115  H52 H7T d   1      17.099  17.611  30.861  0.00  0.00     0.043 H 
ENDBRANCH 105 108
ENDBRANCH 104 105
ENDBRANCH  91 104
ENDBRANCH  80  81
ENDBRANCH  77  80
ENDBRANCH  74  77
ENDBRANCH  71  74
ENDBRANCH   9  71
TORSDOF 20
