REMARK  8 active torsions:
REMARK  status: ('A' for Active; 'I' for Inactive)
REMARK    1  A    between atoms: O1_32  and  C8_6 
REMARK    2  A    between atoms: C12_21  and  C13_8 
REMARK    3  A    between atoms: C17_10  and  C16_23 
REMARK    4  A    between atoms: C18_24  and  C17_10 
REMARK    5  A    between atoms: O_18  and  C12_21 
REMARK    6  A    between atoms: C9_30  and  O_18 
REMARK    7  A    between atoms: C16_23  and  O1_32 
REMARK    8  A    between atoms: C18_24  and  N2_31 
ROOT
ATOM      1  N1  H7Q d   1      -6.200 -36.195  -7.624  0.00  0.00    -0.345 N 
ATOM      2  C4  H7Q d   1      -5.588 -39.205  -5.866  0.00  0.00    -0.047 C 
ATOM      3  C5  H7Q d   1      -5.471 -37.294  -7.626  0.00  0.00     0.088 A 
ATOM      4  C6  H7Q d   1      -7.467 -36.600  -7.195  0.00  0.00     0.043 A 
ATOM      5  C7  H7Q d   1      -8.564 -35.775  -6.973  0.00  0.00    -0.022 A 
ATOM      6  C8  H7Q d   1      -9.728 -36.338  -6.505  0.00  0.00     0.104 A 
ATOM      7  C10 H7Q d   1      -8.680 -38.545  -6.421  0.00  0.00    -0.038 A 
ATOM      8  N   H7Q d   1      -4.202 -37.326  -8.047  0.00  0.00    -0.388 N 
ATOM      9  C   H7Q d   1      -5.179 -40.614  -6.279  0.00  0.00    -0.064 C 
ATOM     10  C1  H7Q d   1      -6.001 -40.990  -7.387  0.00  0.00    -0.064 C 
ATOM     11  C11 H7Q d   1      -7.533 -37.971  -6.943  0.00  0.00    -0.012 A 
ATOM     12  C2  H7Q d   1      -6.177 -39.725  -8.184  0.00  0.00    -0.047 C 
ATOM     13  C3  H7Q d   1      -6.159 -38.540  -7.154  0.00  0.00     0.047 A 
ATOM     14  C9  H7Q d   1      -9.792 -37.719  -6.201  0.00  0.00     0.102 A 
ATOM     15  H1  H7Q d   1      -5.901 -35.244  -7.883  0.00  0.00     0.167 HD
ATOM     16  H2  H7Q d   1      -4.716 -38.644  -5.499  0.00  0.00     0.035 H 
ATOM     17  H3  H7Q d   1      -6.357 -39.243  -5.080  0.00  0.00     0.035 H 
ATOM     18  H4  H7Q d   1      -8.503 -34.710  -7.165  0.00  0.00     0.091 H 
ATOM     19  H5  H7Q d   1      -8.717 -39.603  -6.189  0.00  0.00     0.088 H 
ATOM     20  H16 H7Q d   1      -3.675 -38.211  -8.028  0.00  0.00     0.157 HD
ATOM     21  H17 H7Q d   1      -3.751 -36.466  -8.390  0.00  0.00     0.157 HD
ATOM     22  H18 H7Q d   1      -5.334 -41.311  -5.442  0.00  0.00     0.033 H 
ATOM     23  H19 H7Q d   1      -4.120 -40.627  -6.575  0.00  0.00     0.033 H 
ATOM     24  H20 H7Q d   1      -6.974 -41.366  -7.037  0.00  0.00     0.033 H 
ATOM     25  H21 H7Q d   1      -5.505 -41.763  -7.992  0.00  0.00     0.033 H 
ATOM     26  H32 H7Q d   1      -7.136 -39.746  -8.722  0.00  0.00     0.035 H 
ATOM     27  H33 H7Q d   1      -5.354 -39.613  -8.905  0.00  0.00     0.035 H 
ENDROOT
BRANCH   6  28
ATOM     28  O1  H7Q d   1     -10.869 -35.623  -6.258  0.00  0.00    -0.348 OA
BRANCH  28  29
ATOM     29  C16 H7Q d   1     -10.691 -34.214  -6.056  0.00  0.00     0.028 C 
ATOM     30  H26 H7Q d   1      -9.809 -34.019  -5.428  0.00  0.00     0.075 H 
ATOM     31  H27 H7Q d   1     -10.577 -33.694  -7.019  0.00  0.00     0.075 H 
BRANCH  29  32
ATOM     32  C17 H7Q d   1     -11.949 -33.773  -5.359  0.00  0.00    -0.022 C 
ATOM     33  H9  H7Q d   1     -12.783 -33.843  -6.072  0.00  0.00     0.038 H 
ATOM     34  H10 H7Q d   1     -11.822 -32.726  -5.045  0.00  0.00     0.038 H 
BRANCH  32  35
ATOM     35  C18 H7Q d   1     -12.299 -34.607  -4.125  0.00  0.00     0.086 C 
ATOM     36  H28 H7Q d   1     -13.115 -34.094  -3.595  0.00  0.00     0.076 H 
ATOM     37  H29 H7Q d   1     -11.408 -34.641  -3.481  0.00  0.00     0.076 H 
BRANCH  35  38
ATOM     38  N2  H7Q d   1     -12.725 -35.988  -4.370  0.00  0.00    -0.063 N 
ATOM     39  C26 H7Q d   1     -14.006 -35.977  -5.192  0.00  0.00     0.108 C 
ATOM     40  C25 H7Q d   1     -14.732 -37.176  -4.676  0.00  0.00    -0.025 A 
ATOM     41  H14 H7Q d   1     -14.583 -35.057  -5.016  0.00  0.00     0.083 H 
ATOM     42  H15 H7Q d   1     -13.790 -36.075  -6.266  0.00  0.00     0.083 H 
ATOM     43  C20 H7Q d   1     -14.178 -37.588  -3.472  0.00  0.00    -0.025 A 
ATOM     44  C24 H7Q d   1     -15.820 -37.858  -5.203  0.00  0.00    -0.075 A 
ATOM     45  C21 H7Q d   1     -14.704 -38.689  -2.810  0.00  0.00    -0.075 A 
ATOM     46  C19 H7Q d   1     -13.023 -36.710  -3.101  0.00  0.00     0.108 C 
ATOM     47  C22 H7Q d   1     -15.788 -39.366  -3.339  0.00  0.00    -0.082 A 
ATOM     48  H11 H7Q d   1     -14.264 -39.019  -1.876  0.00  0.00     0.084 H 
ATOM     49  C23 H7Q d   1     -16.345 -38.955  -4.529  0.00  0.00    -0.082 A 
ATOM     50  H12 H7Q d   1     -16.200 -40.221  -2.816  0.00  0.00     0.083 H 
ATOM     51  H34 H7Q d   1     -17.194 -39.488  -4.941  0.00  0.00     0.083 H 
ATOM     52  H30 H7Q d   1     -12.160 -37.309  -2.776  0.00  0.00     0.083 H 
ATOM     53  H31 H7Q d   1     -13.302 -36.007  -2.303  0.00  0.00     0.083 H 
ATOM     54  H13 H7Q d   1     -16.260 -37.535  -6.140  0.00  0.00     0.084 H 
ATOM     55  H35 H7Q d   1     -11.997 -36.474  -4.870  0.00  0.00     0.280 HD
ENDBRANCH  35  38
ENDBRANCH  32  35
ENDBRANCH  29  32
ENDBRANCH  28  29
ENDBRANCH   6  28
BRANCH  14  56
ATOM     56  O   H7Q d   1     -11.001 -38.162  -5.796  0.00  0.00    -0.348 OA
BRANCH  56  57
ATOM     57  C12 H7Q d   1     -11.181 -39.559  -5.489  0.00  0.00     0.029 C 
ATOM     58  H22 H7Q d   1     -10.199 -40.020  -5.305  0.00  0.00     0.075 H 
ATOM     59  H23 H7Q d   1     -11.806 -39.655  -4.589  0.00  0.00     0.075 H 
BRANCH  57  60
ATOM     60  C13 H7Q d   1     -11.852 -40.262  -6.636  0.00  0.00    -0.033 A 
ATOM     61  C15 H7Q d   1     -12.958 -41.193  -6.320  0.00  0.00    -0.059 A 
ATOM     62  C14 H7Q d   1     -13.235 -39.904  -6.996  0.00  0.00    -0.059 A 
ATOM     63  H7  H7Q d   1     -13.269 -41.345  -5.276  0.00  0.00     0.033 H 
ATOM     64  H8  H7Q d   1     -13.058 -42.138  -6.874  0.00  0.00     0.033 H 
ATOM     65  H24 H7Q d   1     -13.543 -39.892  -8.052  0.00  0.00     0.033 H 
ATOM     66  H25 H7Q d   1     -13.753 -39.099  -6.454  0.00  0.00     0.033 H 
ATOM     67  H6  H7Q d   1     -11.118 -40.501  -7.419  0.00  0.00     0.043 H 
ENDBRANCH  57  60
ENDBRANCH  56  57
ENDBRANCH  14  56
TORSDOF 8
