REMARK  10 active torsions:
REMARK  status: ('A' for Active; 'I' for Inactive)
REMARK    1  A    between atoms: C5_1  and  O13_20 
REMARK    2  A    between atoms: C6_2  and  C9_16 
REMARK    3  A    between atoms: O13_20  and  C15_4 
REMARK    4  A    between atoms: N22_25  and  C28_10 
REMARK    5  A    between atoms: N2_12  and  C3_13 
REMARK    6  A    between atoms: C33_33  and  N2_12 
REMARK    7  A    between atoms: N27_28  and  C25_27 
REMARK       I    between atoms: C37_37  and  N27_28 
REMARK    8  A    between atoms: C30_30  and  C37_37 
REMARK    9  A    between atoms: C32_32  and  O35_35 
REMARK   10  A    between atoms: O35_35  and  C36_36 
ROOT
ATOM      1  C29 H82 d   1       9.678  25.660  30.425  0.00  0.00    -0.065 A 
ATOM      2  C30 H82 d   1      10.227  25.999  31.662  0.00  0.00     0.034 A 
ATOM      3  C31 H82 d   1      10.011  25.170  32.761  0.00  0.00    -0.033 A 
ATOM      4  C32 H82 d   1       9.267  24.007  32.616  0.00  0.00     0.096 A 
ATOM      5  C33 H82 d   1       8.708  23.666  31.362  0.00  0.00     0.082 A 
ATOM      6  C34 H82 d   1       8.933  24.506  30.271  0.00  0.00    -0.053 A 
ATOM      7  H24 H82 d   1       9.838  26.311  29.573  0.00  0.00     0.085 H 
ATOM      8  H25 H82 d   1      10.424  25.433  33.728  0.00  0.00     0.089 H 
ATOM      9  H26 H82 d   1       8.523  24.253  29.300  0.00  0.00     0.087 H 
ENDROOT
BRANCH   5  10
ATOM     10  N2  H82 d   1       7.931  22.489  31.281  0.00  0.00    -0.185 N 
ATOM     11  H14 H82 d   1       8.262  21.716  31.876  0.00  0.00     0.184 HD
BRANCH  10  12
ATOM     12  C3  H82 d   1       6.816  22.202  30.548  0.00  0.00     0.729 A 
ATOM     13  N4  H82 d   1       6.405  23.113  29.647  0.00  0.00    -0.037 NA
ATOM     14  C5  H82 d   1       5.258  22.849  29.052  0.00  0.00     0.205 A 
ATOM     15  C6  H82 d   1       4.472  21.702  29.310  0.00  0.00     0.119 A 
ATOM     16  C7  H82 d   1       5.027  20.836  30.241  0.00  0.00     0.040 A 
ATOM     17  N8  H82 d   1       6.184  21.064  30.876  0.00  0.00    -0.074 NA
ATOM     18  H1  H82 d   1       4.493  19.921  30.468  0.00  0.00     0.117 H 
BRANCH  14  19
ATOM     19  O13 H82 d   1       4.832  23.621  28.005  0.00  0.00    -0.290 OA
BRANCH  19  20
ATOM     20  C15 H82 d   1       5.659  24.594  27.440  0.00  0.00     0.092 A 
ATOM     21  C20 H82 d   1       5.971  24.422  26.077  0.00  0.00     0.050 A 
ATOM     22  C19 H82 d   1       6.812  25.349  25.459  0.00  0.00    -0.041 A 
ATOM     23  C39 H82 d   1       5.569  23.388  25.096  0.00  0.00     0.163 A 
ATOM     24  C14 H82 d   1       7.030  25.017  24.004  0.00  0.00    -0.034 A 
ATOM     25  C18 H82 d   1       7.328  26.415  26.191  0.00  0.00    -0.076 A 
ATOM     26  C21 H82 d   1       6.198  23.746  23.767  0.00  0.00    -0.001 A 
ATOM     27  H15 H82 d   1       6.677  25.837  23.362  0.00  0.00     0.040 H 
ATOM     28  H16 H82 d   1       8.095  24.827  23.805  0.00  0.00     0.040 H 
ATOM     29  H3  H82 d   1       6.846  22.927  23.421  0.00  0.00     0.045 H 
ATOM     30  H4  H82 d   1       5.417  23.938  23.017  0.00  0.00     0.045 H 
ATOM     31  C17 H82 d   1       7.006  26.574  27.531  0.00  0.00    -0.080 A 
ATOM     32  H18 H82 d   1       7.988  27.128  25.709  0.00  0.00     0.084 H 
ATOM     33  C16 H82 d   1       6.160  25.672  28.161  0.00  0.00    -0.049 A 
ATOM     34  H2  H82 d   1       7.417  27.407  28.089  0.00  0.00     0.083 H 
ATOM     35  H17 H82 d   1       5.893  25.806  29.203  0.00  0.00     0.087 H 
ATOM     36  O40 H82 d   1       4.858  22.422  25.303  0.00  0.00    -0.292 OA
ENDBRANCH  19  20
ENDBRANCH  14  19
BRANCH  15  37
ATOM     37  C9  H82 d   1       3.159  21.387  28.652  0.00  0.00     0.423 C 
ATOM     38  F10 H82 d   1       2.572  20.324  29.161  0.00  0.00    -0.166 F 
ATOM     39  F11 H82 d   1       2.278  22.378  28.774  0.00  0.00    -0.166 F 
ATOM     40  F12 H82 d   1       3.290  21.148  27.344  0.00  0.00    -0.166 F 
ENDBRANCH  15  37
ENDBRANCH  10  12
ENDBRANCH   5  10
BRANCH   4  41
ATOM     41  O35 H82 d   1       9.037  23.090  33.606  0.00  0.00    -0.354 OA
BRANCH  41  42
ATOM     42  C36 H82 d   1       9.643  23.301  34.888  0.00  0.00     0.010 C 
ATOM     43  H27 H82 d   1       9.362  22.482  35.566  0.00  0.00     0.066 H 
ATOM     44  H28 H82 d   1       9.295  24.258  35.305  0.00  0.00     0.066 H 
ATOM     45  H29 H82 d   1      10.737  23.326  34.777  0.00  0.00     0.066 H 
ENDBRANCH  41  42
ENDBRANCH   4  41
BRANCH   2  46
ATOM     46  C37 H82 d   1      11.085  27.215  31.832  0.00  0.00     0.252 C 
ATOM     47  N27 H82 d   1      10.719  28.331  31.178  0.00  0.00    -0.352 N 
ATOM     48  H23 H82 d   1       9.917  28.298  30.582  0.00  0.00     0.163 HD
ATOM     49  O38 H82 d   1      12.072  27.182  32.564  0.00  0.00    -0.268 OA
BRANCH  47  50
ATOM     50  C25 H82 d   1      11.450  29.594  31.305  0.00  0.00     0.015 C 
ATOM     51  C24 H82 d   1      10.709  30.542  32.228  0.00  0.00    -0.023 C 
ATOM     52  C23 H82 d   1      11.442  31.878  32.336  0.00  0.00     0.085 C 
ATOM     53  H5  H82 d   1       9.698  30.716  31.830  0.00  0.00     0.038 H 
ATOM     54  H6  H82 d   1      10.636  30.089  33.228  0.00  0.00     0.038 H 
ATOM     55  N22 H82 d   1      11.593  32.487  30.980  0.00  0.00    -0.075 N 
ATOM     56  H20 H82 d   1      12.437  31.713  32.775  0.00  0.00     0.076 H 
ATOM     57  H21 H82 d   1      10.866  32.559  32.979  0.00  0.00     0.076 H 
ATOM     58  C1  H82 d   1      12.383  31.583  30.089  0.00  0.00     0.085 C 
ATOM     59  H19 H82 d   1      10.672  32.586  30.581  0.00  0.00     0.279 HD
ATOM     60  C26 H82 d   1      11.673  30.237  29.947  0.00  0.00    -0.023 C 
ATOM     61  H12 H82 d   1      12.485  32.047  29.097  0.00  0.00     0.076 H 
ATOM     62  H13 H82 d   1      13.381  31.424  30.524  0.00  0.00     0.076 H 
ATOM     63  H7  H82 d   1      12.290  29.568  29.329  0.00  0.00     0.038 H 
ATOM     64  H8  H82 d   1      10.700  30.393  29.459  0.00  0.00     0.038 H 
ATOM     65  H22 H82 d   1      12.434  29.379  31.748  0.00  0.00     0.072 H 
BRANCH  55  66
ATOM     66  C28 H82 d   1      12.199  33.846  31.057  0.00  0.00     0.066 C 
ATOM     67  H9  H82 d   1      12.295  34.263  30.044  0.00  0.00     0.068 H 
ATOM     68  H10 H82 d   1      13.194  33.778  31.521  0.00  0.00     0.068 H 
ATOM     69  H11 H82 d   1      11.556  34.501  31.663  0.00  0.00     0.068 H 
ENDBRANCH  55  66
ENDBRANCH  47  50
ENDBRANCH   2  46
TORSDOF 10
