REMARK  9 active torsions:
REMARK  status: ('A' for Active; 'I' for Inactive)
REMARK    1  A    between atoms: O11_1  and  N11_7 
REMARK    2  A    between atoms: FE_40  and  O11_1 
REMARK    3  A    between atoms: N11_7  and  C39_34 
REMARK    4  A    between atoms: C31_32  and  C32_33 
REMARK    5  A    between atoms: C39_34  and  C40_35 
REMARK    6  A    between atoms: C40_35  and  C41_36 
REMARK    7  A    between atoms: C41_36  and  C42_37 
REMARK    8  A    between atoms: C42_37  and  C43_38 
REMARK    9  A    between atoms: C43_38  and  N44_39 
ROOT
ATOM      1  O12 0UE d   1      -8.793  32.383   3.003  0.00  0.00    -0.241 OA
ATOM      2  O21 0UE d   1     -11.014  33.336   1.466  0.00  0.00    -0.004 OA
ATOM      3  O22 0UE d   1     -10.348  31.125   1.600  0.00  0.00    -0.206 OA
ATOM      4  O31 0UE d   1      -9.511  33.094  -0.729  0.00  0.00    -0.084 OA
ATOM      5  O32 0UE d   1      -8.020  31.286   0.713  0.00  0.00    -0.175 OA
ATOM      6  C11 0UE d   1      -7.895  33.273   3.627  0.00  0.00     0.053 C 
ATOM      7  C12 0UE d   1      -7.550  33.047   4.847  0.00  0.00    -0.035 C 
ATOM      8  C13 0UE d   1      -7.862  34.079   5.878  0.00  0.00     0.011 C 
ATOM      9  C14 0UE d   1      -9.203  34.796   5.927  0.00  0.00     0.217 C 
ATOM     10  O13 0UE d   1      -9.243  35.998   6.120  0.00  0.00    -0.274 OA
ATOM     11  N12 0UE d   1     -10.399  34.101   5.691  0.00  0.00    -0.361 N 
ATOM     12  C15 0UE d   1     -11.639  34.997   5.836  0.00  0.00    -0.005 C 
ATOM     13  C16 0UE d   1     -12.031  35.779   4.522  0.00  0.00    -0.050 C 
ATOM     14  C18 0UE d   1     -13.388  33.470   3.643  0.00  0.00    -0.040 C 
ATOM     15  C17 0UE d   1     -13.431  35.080   3.976  0.00  0.00    -0.062 C 
ATOM     16  C19 0UE d   1     -13.221  33.238   1.998  0.00  0.00     0.111 C 
ATOM     17  N21 0UE d   1     -12.375  32.790   1.578  0.00  0.00     0.067 N 
ATOM     18  C21 0UE d   1     -11.755  31.191   2.161  0.00  0.00     0.046 C 
ATOM     19  C22 0UE d   1     -12.675  30.356   2.565  0.00  0.00    -0.070 C 
ATOM     20  C23 0UE d   1     -12.223  28.915   2.153  0.00  0.00     0.026 C 
ATOM     21  C24 0UE d   1     -12.508  28.841   0.593  0.00  0.00     0.221 C 
ATOM     22  O23 0UE d   1     -13.590  29.301   0.093  0.00  0.00    -0.273 OA
ATOM     23  N22 0UE d   1     -11.438  28.215  -0.171  0.00  0.00    -0.361 N 
ATOM     24  C25 0UE d   1     -11.592  28.139  -1.650  0.00  0.00    -0.005 C 
ATOM     25  C26 0UE d   1     -10.425  29.068  -2.163  0.00  0.00    -0.050 C 
ATOM     26  C27 0UE d   1     -10.898  30.536  -2.530  0.00  0.00    -0.062 C 
ATOM     27  C28 0UE d   1      -9.602  30.962  -3.373  0.00  0.00    -0.048 C 
ATOM     28  C29 0UE d   1      -8.746  32.240  -3.103  0.00  0.00     0.026 C 
ATOM     29  N31 0UE d   1      -8.667  32.201  -1.649  0.00  0.00    -0.204 N 
ATOM     30  C31 0UE d   1      -7.572  31.266  -0.736  0.00  0.00     0.175 C 
ATOM     31 FE   0UE d   1      -9.287  32.685   1.198  0.00  0.00     0.000 Fe
ATOM     32  H3  0UE d   1      -8.357  34.271   3.600  0.00  0.00     0.079 H 
ATOM     33  H4  0UE d   1      -6.974  33.279   3.026  0.00  0.00     0.079 H 
ATOM     34  H5  0UE d   1      -6.460  32.900   4.854  0.00  0.00     0.036 H 
ATOM     35  H6  0UE d   1      -8.047  32.117   5.158  0.00  0.00     0.036 H 
ATOM     36  H7  0UE d   1      -7.098  34.863   5.768  0.00  0.00     0.047 H 
ATOM     37  H8  0UE d   1      -7.742  33.585   6.853  0.00  0.00     0.047 H 
ATOM     38  H9  0UE d   1     -10.440  33.130   5.455  0.00  0.00     0.162 HD
ATOM     39  H10 0UE d   1     -11.442  35.733   6.629  0.00  0.00     0.064 H 
ATOM     40  H11 0UE d   1     -12.490  34.364   6.127  0.00  0.00     0.064 H 
ATOM     41  H12 0UE d   1     -11.236  35.682   3.768  0.00  0.00     0.035 H 
ATOM     42  H13 0UE d   1     -12.197  36.843   4.745  0.00  0.00     0.035 H 
ATOM     43  H14 0UE d   1     -14.322  33.001   3.985  0.00  0.00     0.035 H 
ATOM     44  H15 0UE d   1     -12.535  33.012   4.165  0.00  0.00     0.035 H 
ATOM     45  H16 0UE d   1     -13.723  35.601   3.052  0.00  0.00     0.033 H 
ATOM     46  H17 0UE d   1     -14.201  35.238   4.745  0.00  0.00     0.033 H 
ATOM     47  H18 0UE d   1     -13.299  34.235   1.539  0.00  0.00     0.080 H 
ATOM     48  H19 0UE d   1     -14.079  32.623   1.687  0.00  0.00     0.080 H 
ATOM     49  H20 0UE d   1     -12.262  31.930   2.092  0.00  0.00     0.317 HD
ATOM     50  H21 0UE d   1     -12.643  32.581   0.629  0.00  0.00     0.317 HD
ATOM     51  H22 0UE d   1     -12.093  32.222   2.253  0.00  0.00     0.127 H 
ATOM     52  H23 0UE d   1     -13.591  30.616   3.093  0.00  0.00     0.080 H 
ATOM     53  H24 0UE d   1     -12.808  28.155   2.692  0.00  0.00     0.053 H 
ATOM     54  H25 0UE d   1     -11.153  28.769   2.360  0.00  0.00     0.053 H 
ATOM     55  H26 0UE d   1     -10.626  27.848   0.283  0.00  0.00     0.162 HD
ATOM     56  H27 0UE d   1     -12.573  28.521  -1.968  0.00  0.00     0.064 H 
ATOM     57  H28 0UE d   1     -11.466  27.107  -2.010  0.00  0.00     0.064 H 
ATOM     58  H29 0UE d   1      -9.985  28.610  -3.061  0.00  0.00     0.035 H 
ATOM     59  H30 0UE d   1      -9.662  29.136  -1.374  0.00  0.00     0.035 H 
ATOM     60  H31 0UE d   1     -11.045  31.165  -1.639  0.00  0.00     0.033 H 
ATOM     61  H32 0UE d   1     -11.815  30.542  -3.138  0.00  0.00     0.033 H 
ATOM     62  H33 0UE d   1      -9.944  31.051  -4.415  0.00  0.00     0.035 H 
ATOM     63  H34 0UE d   1      -8.904  30.116  -3.288  0.00  0.00     0.035 H 
ATOM     64  H35 0UE d   1      -9.251  33.150  -3.458  0.00  0.00     0.068 H 
ATOM     65  H36 0UE d   1      -7.751  32.168  -3.566  0.00  0.00     0.068 H 
ENDROOT
BRANCH  31  66
ATOM     66  O11 0UE d   1      -8.429  34.408   1.310  0.00  0.00    -0.004 OA
BRANCH  66  67
ATOM     67  N11 0UE d   1      -7.906  34.853   2.663  0.00  0.00     0.067 N 
ATOM     68  H1  0UE d   1      -6.974  34.472   2.719  0.00  0.00     0.317 HD
ATOM     69  H2  0UE d   1      -8.499  34.391   3.335  0.00  0.00     0.317 HD
BRANCH  67  70
ATOM     70  C39 0UE d   1      -7.819  35.806   3.004  0.00  0.00     0.111 C 
ATOM     71  H40 0UE d   1      -7.832  35.801   4.104  0.00  0.00     0.080 H 
ATOM     72  H41 0UE d   1      -8.663  36.405   2.630  0.00  0.00     0.080 H 
BRANCH  70  73
ATOM     73  C40 0UE d   1      -6.457  36.444   2.497  0.00  0.00    -0.040 C 
ATOM     74  H42 0UE d   1      -5.772  35.622   2.240  0.00  0.00     0.035 H 
ATOM     75  H43 0UE d   1      -6.030  37.032   3.322  0.00  0.00     0.035 H 
BRANCH  73  76
ATOM     76  C41 0UE d   1      -6.580  37.407   1.213  0.00  0.00    -0.062 C 
ATOM     77  H44 0UE d   1      -6.833  38.430   1.529  0.00  0.00     0.033 H 
ATOM     78  H45 0UE d   1      -7.356  37.031   0.530  0.00  0.00     0.033 H 
BRANCH  76  79
ATOM     79  C42 0UE d   1      -5.153  37.392   0.487  0.00  0.00    -0.043 C 
ATOM     80  H46 0UE d   1      -4.809  36.353   0.375  0.00  0.00     0.035 H 
ATOM     81  H47 0UE d   1      -4.427  37.956   1.092  0.00  0.00     0.035 H 
BRANCH  79  82
ATOM     82  C43 0UE d   1      -5.285  38.069  -0.957  0.00  0.00     0.080 C 
ATOM     83  H48 0UE d   1      -5.112  39.153  -0.893  0.00  0.00     0.075 H 
ATOM     84  H49 0UE d   1      -6.282  37.881  -1.383  0.00  0.00     0.075 H 
BRANCH  82  85
ATOM     85  N44 0UE d   1      -4.217  37.409  -1.793  0.00  0.00    -0.079 N 
ATOM     86  H50 0UE d   1      -4.239  37.788  -2.727  0.00  0.00     0.274 HD
ATOM     87  H51 0UE d   1      -4.385  36.416  -1.830  0.00  0.00     0.274 HD
ATOM     88  H52 0UE d   1      -3.313  37.582  -1.381  0.00  0.00     0.274 HD
ENDBRANCH  82  85
ENDBRANCH  79  82
ENDBRANCH  76  79
ENDBRANCH  73  76
ENDBRANCH  70  73
ENDBRANCH  67  70
ENDBRANCH  66  67
ENDBRANCH  31  66
BRANCH  30  89
ATOM     89  C32 0UE d   1      -6.730  30.347  -1.428  0.00  0.00    -0.013 C 
ATOM     90  H37 0UE d   1      -6.631  30.660  -2.478  0.00  0.00     0.038 H 
ATOM     91  H38 0UE d   1      -7.172  29.341  -1.385  0.00  0.00     0.038 H 
ATOM     92  H39 0UE d   1      -5.737  30.332  -0.955  0.00  0.00     0.038 H 
ENDBRANCH  30  89
TORSDOF 9
