REMARK  22 active torsions:
REMARK  status: ('A' for Active; 'I' for Inactive)
REMARK    1  A    between atoms: CBO_6  and  CBA_7 
REMARK    2  A    between atoms: CBA_7  and  NBE_8 
REMARK       I    between atoms: NBE_8  and  CBL_9 
REMARK    3  A    between atoms: CBL_9  and  CBN_11 
REMARK    4  A    between atoms: CBN_11  and  OAG_12 
REMARK    5  A    between atoms: CBN_11  and  CBS_13 
REMARK    6  A    between atoms: CBS_13  and  CBB_14 
REMARK    7  A    between atoms: CBS_13  and  NBG_19 
REMARK    8  A    between atoms: CBB_14  and  CAY_15 
REMARK    9  A    between atoms: CAY_15  and  CAX_16 
REMARK   10  A    between atoms: CAX_16  and  CAW_17 
REMARK   11  A    between atoms: CAW_17  and  NAB_18 
REMARK       I    between atoms: NBG_19  and  C_20 
REMARK   12  A    between atoms: C_20  and  CA_22 
REMARK   13  A    between atoms: CA_22  and  N_23 
REMARK   14  A    between atoms: CA_22  and  CB_34 
REMARK       I    between atoms: N_23  and  CBK_24 
REMARK   15  A    between atoms: CBK_24  and  OBI_26 
REMARK   16  A    between atoms: OBI_26  and  CBD_27 
REMARK   17  A    between atoms: CBD_27  and  CBP_28 
REMARK   18  A    between atoms: CB_34  and  CG_35 
REMARK   19  A    between atoms: CG_35  and  CD_36 
REMARK       I    between atoms: CD_36  and  NE2_38 
REMARK   20  A    between atoms: NE2_38  and  NBT_39 
REMARK   21  A    between atoms: NBT_39  and  CAA_40 
REMARK   22  A    between atoms: NBT_39  and  CBQ_41 
ROOT
ATOM      1  CA  H8E d   1       0.914 -13.096  10.596  0.00  0.00     0.092 C 
ATOM      2  H24 H8E d   1       0.470 -13.492   9.671  0.00  0.00     0.087 H 
ENDROOT
BRANCH   1   3
ATOM      3  C   H8E d   1       2.412 -13.369  10.565  0.00  0.00     0.240 C 
ATOM      4  NBG H8E d   1       2.937 -13.229   9.348  0.00  0.00    -0.352 N 
ATOM      5  H23 H8E d   1       2.300 -13.046   8.599  0.00  0.00     0.163 HD
ATOM      6  O   H8E d   1       3.042 -13.544  11.600  0.00  0.00    -0.271 OA
BRANCH   4   7
ATOM      7  CBS H8E d   1       4.361 -13.318   9.001  0.00  0.00     0.045 C 
ATOM      8  H11 H8E d   1       4.912 -13.461   9.942  0.00  0.00     0.077 H 
BRANCH   7   9
ATOM      9  CBN H8E d   1       4.921 -12.009   8.361  0.00  0.00     0.131 C 
ATOM     10  H9  H8E d   1       4.115 -11.651   7.704  0.00  0.00     0.101 H 
BRANCH   9  11
ATOM     11  CBL H8E d   1       5.110 -10.908   9.400  0.00  0.00     0.248 C 
ATOM     12  NBE H8E d   1       6.073  -9.985   9.125  0.00  0.00    -0.355 N 
ATOM     13  H8  H8E d   1       6.653 -10.123   8.322  0.00  0.00     0.162 HD
ATOM     14  OAE H8E d   1       4.440 -10.854  10.439  0.00  0.00    -0.271 OA
BRANCH  12  15
ATOM     15  CBA H8E d   1       6.297  -8.792   9.959  0.00  0.00     0.019 C 
ATOM     16  H6  H8E d   1       5.695  -7.965   9.556  0.00  0.00     0.071 H 
ATOM     17  H7  H8E d   1       5.971  -9.016  10.985  0.00  0.00     0.071 H 
BRANCH  15  18
ATOM     18  CBO H8E d   1       7.648  -8.388   9.995  0.00  0.00    -0.041 A 
ATOM     19  CAQ H8E d   1       8.153  -7.362   9.183  0.00  0.00    -0.075 A 
ATOM     20  CAK H8E d   1       9.499  -6.965   9.326  0.00  0.00    -0.082 A 
ATOM     21  H1  H8E d   1       7.515  -6.878   8.452  0.00  0.00     0.084 H 
ATOM     22  CAH H8E d   1      10.311  -7.585  10.277  0.00  0.00    -0.083 A 
ATOM     23  H2  H8E d   1       9.902  -6.179   8.698  0.00  0.00     0.083 H 
ATOM     24  CAL H8E d   1       9.814  -8.583  11.110  0.00  0.00    -0.082 A 
ATOM     25  H3  H8E d   1      11.348  -7.284  10.368  0.00  0.00     0.083 H 
ATOM     26  CAR H8E d   1       8.482  -8.938  10.958  0.00  0.00    -0.075 A 
ATOM     27  H4  H8E d   1      10.444  -9.064  11.849  0.00  0.00     0.083 H 
ATOM     28  H5  H8E d   1       8.070  -9.685  11.627  0.00  0.00     0.084 H 
ENDBRANCH  15  18
ENDBRANCH  12  15
ENDBRANCH   9  11
BRANCH   9  29
ATOM     29  OAG H8E d   1       5.918 -12.154   7.588  0.00  0.00    -0.384 OA
ATOM     30  H10 H8E d   1       5.738 -12.851   6.968  0.00  0.00     0.210 HD
ENDBRANCH   9  29
ENDBRANCH   7   9
BRANCH   7  31
ATOM     31  CBB H8E d   1       4.611 -14.564   8.143  0.00  0.00    -0.043 C 
ATOM     32  H12 H8E d   1       5.688 -14.632   7.928  0.00  0.00     0.036 H 
ATOM     33  H13 H8E d   1       4.054 -14.458   7.200  0.00  0.00     0.036 H 
BRANCH  31  34
ATOM     34  CAY H8E d   1       4.168 -15.859   8.829  0.00  0.00    -0.062 C 
ATOM     35  H14 H8E d   1       3.150 -15.710   9.217  0.00  0.00     0.033 H 
ATOM     36  H15 H8E d   1       4.854 -16.055   9.666  0.00  0.00     0.033 H 
BRANCH  34  37
ATOM     37  CAX H8E d   1       4.157 -17.094   7.922  0.00  0.00    -0.043 C 
ATOM     38  H16 H8E d   1       3.637 -16.841   6.986  0.00  0.00     0.035 H 
ATOM     39  H17 H8E d   1       3.617 -17.904   8.434  0.00  0.00     0.035 H 
BRANCH  37  40
ATOM     40  CAW H8E d   1       5.562 -17.577   7.587  0.00  0.00     0.080 C 
ATOM     41  H18 H8E d   1       6.100 -17.817   8.516  0.00  0.00     0.075 H 
ATOM     42  H19 H8E d   1       6.103 -16.788   7.043  0.00  0.00     0.075 H 
BRANCH  40  43
ATOM     43  NAB H8E d   1       5.468 -18.799   6.733  0.00  0.00    -0.079 N 
ATOM     44  H20 H8E d   1       6.395 -19.124   6.508  0.00  0.00     0.274 HD
ATOM     45  H21 H8E d   1       4.974 -18.578   5.883  0.00  0.00     0.274 HD
ATOM     46  H22 H8E d   1       4.971 -19.520   7.232  0.00  0.00     0.274 HD
ENDBRANCH  40  43
ENDBRANCH  37  40
ENDBRANCH  34  37
ENDBRANCH  31  34
ENDBRANCH   7  31
ENDBRANCH   4   7
ENDBRANCH   1   3
BRANCH   1  47
ATOM     47  N   H8E d   1       0.254 -13.729  11.734  0.00  0.00    -0.324 N 
ATOM     48  CBK H8E d   1       0.125 -15.075  11.845  0.00  0.00     0.361 C 
ATOM     49  OAD H8E d   1       0.689 -15.814  11.025  0.00  0.00    -0.238 OA
ATOM     50  H25 H8E d   1      -0.117 -13.149  12.459  0.00  0.00     0.165 HD
BRANCH  48  51
ATOM     51  OBI H8E d   1      -0.585 -15.480  12.829  0.00  0.00    -0.299 OA
BRANCH  51  52
ATOM     52  CBD H8E d   1      -0.703 -16.928  13.081  0.00  0.00     0.054 C 
ATOM     53  H26 H8E d   1       0.301 -17.376  13.077  0.00  0.00     0.082 H 
ATOM     54  H27 H8E d   1      -1.311 -17.383  12.285  0.00  0.00     0.082 H 
BRANCH  52  55
ATOM     55  CBP H8E d   1      -1.337 -17.188  14.373  0.00  0.00    -0.034 A 
ATOM     56  CAS H8E d   1      -2.693 -17.500  14.482  0.00  0.00    -0.075 A 
ATOM     57  CAM H8E d   1      -3.329 -17.778  15.730  0.00  0.00    -0.082 A 
ATOM     58  H28 H8E d   1      -3.291 -17.533  13.578  0.00  0.00     0.084 H 
ATOM     59  CAI H8E d   1      -2.519 -17.645  16.871  0.00  0.00    -0.083 A 
ATOM     60  H29 H8E d   1      -4.370 -18.073  15.793  0.00  0.00     0.083 H 
ATOM     61  CAN H8E d   1      -1.189 -17.268  16.763  0.00  0.00    -0.082 A 
ATOM     62  H30 H8E d   1      -2.941 -17.840  17.850  0.00  0.00     0.083 H 
ATOM     63  CAT H8E d   1      -0.584 -17.041  15.539  0.00  0.00    -0.075 A 
ATOM     64  H31 H8E d   1      -0.604 -17.147  17.667  0.00  0.00     0.083 H 
ATOM     65  H32 H8E d   1       0.460 -16.753  15.487  0.00  0.00     0.084 H 
ENDBRANCH  52  55
ENDBRANCH  51  52
ENDBRANCH  48  51
ENDBRANCH   1  47
BRANCH   1  66
ATOM     66  CB  H8E d   1       0.673 -11.579  10.662  0.00  0.00    -0.030 C 
ATOM     67  H33 H8E d   1      -0.412 -11.398  10.680  0.00  0.00     0.037 H 
ATOM     68  H34 H8E d   1       1.107 -11.117   9.763  0.00  0.00     0.037 H 
BRANCH  66  69
ATOM     69  CG  H8E d   1       1.304 -10.912  11.913  0.00  0.00     0.013 C 
ATOM     70  H35 H8E d   1       2.321 -11.305  12.055  0.00  0.00     0.047 H 
ATOM     71  H36 H8E d   1       0.692 -11.152  12.795  0.00  0.00     0.047 H 
BRANCH  69  72
ATOM     72  CD  H8E d   1       1.373  -9.422  11.755  0.00  0.00     0.236 C 
ATOM     73  OE1 H8E d   1       0.393  -8.719  12.006  0.00  0.00    -0.272 OA
ATOM     74  NE2 H8E d   1       2.575  -8.928  11.443  0.00  0.00    -0.268 N 
ATOM     75  H37 H8E d   1       3.280  -9.533  11.073  0.00  0.00     0.190 HD
BRANCH  74  76
ATOM     76  NBT H8E d   1       2.856  -7.550  11.634  0.00  0.00    -0.294 N 
BRANCH  76  77
ATOM     77  CAA H8E d   1       3.306  -7.231  13.016  0.00  0.00     0.001 C 
ATOM     78  H38 H8E d   1       3.506  -6.152  13.097  0.00  0.00     0.059 H 
ATOM     79  H39 H8E d   1       4.225  -7.792  13.241  0.00  0.00     0.059 H 
ATOM     80  H40 H8E d   1       2.520  -7.513  13.732  0.00  0.00     0.059 H 
ENDBRANCH  76  77
BRANCH  76  81
ATOM     81  CBQ H8E d   1       3.412  -6.879  10.513  0.00  0.00     0.050 A 
ATOM     82  CAU H8E d   1       4.223  -5.736  10.682  0.00  0.00    -0.056 A 
ATOM     83  CAO H8E d   1       4.734  -5.075   9.564  0.00  0.00    -0.081 A 
ATOM     84  H41 H8E d   1       4.448  -5.372  11.678  0.00  0.00     0.087 H 
ATOM     85  CAJ H8E d   1       4.506  -5.604   8.292  0.00  0.00    -0.083 A 
ATOM     86  H42 H8E d   1       5.303  -4.160   9.682  0.00  0.00     0.083 H 
ATOM     87  CAP H8E d   1       3.738  -6.765   8.127  0.00  0.00    -0.081 A 
ATOM     88  H43 H8E d   1       4.927  -5.112   7.423  0.00  0.00     0.083 H 
ATOM     89  CAV H8E d   1       3.176  -7.406   9.231  0.00  0.00    -0.056 A 
ATOM     90  H44 H8E d   1       3.580  -7.168   7.133  0.00  0.00     0.083 H 
ATOM     91  H45 H8E d   1       2.568  -8.294   9.103  0.00  0.00     0.087 H 
ENDBRANCH  76  81
ENDBRANCH  74  76
ENDBRANCH  69  72
ENDBRANCH  66  69
ENDBRANCH   1  66
TORSDOF 22
