REMARK  10 active torsions:
REMARK  status: ('A' for Active; 'I' for Inactive)
REMARK    1  A    between atoms: PG_1  and  O3B_5 
REMARK    2  A    between atoms: O3B_5  and  PB_6 
REMARK    3  A    between atoms: PB_6  and  O3A_9 
REMARK    4  A    between atoms: O3A_9  and  PA_10 
REMARK    5  A    between atoms: PA_10  and  O5'_13 
REMARK    6  A    between atoms: O5'_13  and  C5'_14 
REMARK    7  A    between atoms: C5'_14  and  C4'_15 
REMARK    8  A    between atoms: C3'_17  and  O3'_18 
REMARK    9  A    between atoms: C2'_19  and  O2'_20 
REMARK   10  A    between atoms: C1'_21  and  N9_22 
ROOT
ATOM      1  C4' GTP d   1     -25.656  -6.613 -14.073  0.00  0.00     0.089 A 
ATOM      2  O4' GTP d   1     -24.756  -5.636 -13.611  0.00  0.00    -0.353 OA
ATOM      3  C3' GTP d   1     -26.938  -5.931 -14.518  0.00  0.00     0.091 A 
ATOM      4  C2' GTP d   1     -26.719  -4.461 -14.267  0.00  0.00     0.105 A 
ATOM      5  C1' GTP d   1     -25.286  -4.340 -13.773  0.00  0.00     0.139 A 
ATOM      6  H3  GTP d   1     -25.883  -7.337 -13.277  0.00  0.00     0.090 H 
ATOM      7  H4  GTP d   1     -27.137  -6.129 -15.582  0.00  0.00     0.091 H 
ATOM      8  H6  GTP d   1     -26.851  -3.890 -15.198  0.00  0.00     0.093 H 
ATOM      9  H8  GTP d   1     -25.238  -3.776 -12.830  0.00  0.00     0.122 H 
ENDROOT
BRANCH   1  10
ATOM     10  C5' GTP d   1     -24.966  -7.312 -15.232  0.00  0.00     0.058 C 
ATOM     11  H1  GTP d   1     -25.489  -8.250 -15.470  0.00  0.00     0.079 H 
ATOM     12  H2  GTP d   1     -24.963  -6.659 -16.117  0.00  0.00     0.079 H 
BRANCH  10  13
ATOM     13  O5' GTP d   1     -23.645  -7.586 -14.833  0.00  0.00    -0.287 OA
BRANCH  13  14
ATOM     14  PA  GTP d   1     -23.052  -9.025 -15.222  0.00  0.00     0.417 P 
ATOM     15  O1A GTP d   1     -22.339  -8.932 -16.537  0.00  0.00    -0.624 OA
ATOM     16  O2A GTP d   1     -24.145 -10.071 -15.273  0.00  0.00    -0.624 OA
BRANCH  14  17
ATOM     17  O3A GTP d   1     -22.005  -9.377 -14.057  0.00  0.00    -0.180 OA
BRANCH  17  18
ATOM     18  PB  GTP d   1     -20.862 -10.494 -14.284  0.00  0.00     0.428 P 
ATOM     19  O1B GTP d   1     -21.114 -11.352 -15.503  0.00  0.00    -0.624 OA
ATOM     20  O2B GTP d   1     -19.540  -9.787 -14.406  0.00  0.00    -0.624 OA
BRANCH  18  21
ATOM     21  O3B GTP d   1     -20.765 -11.334 -12.910  0.00  0.00    -0.173 OA
BRANCH  21  22
ATOM     22  PG  GTP d   1     -21.402 -12.789 -12.671  0.00  0.00     0.431 P 
ATOM     23  O1G GTP d   1     -21.654 -13.462 -14.009  0.00  0.00    -0.616 OA
ATOM     24  O2G GTP d   1     -20.391 -13.575 -11.874  0.00  0.00    -0.616 OA
ATOM     25  O3G GTP d   1     -22.680 -12.666 -11.859  0.00  0.00    -0.616 OA
ENDBRANCH  21  22
ENDBRANCH  18  21
ENDBRANCH  17  18
ENDBRANCH  14  17
ENDBRANCH  13  14
ENDBRANCH  10  13
ENDBRANCH   1  10
BRANCH   3  26
ATOM     26  O3' GTP d   1     -28.026  -6.359 -13.731  0.00  0.00    -0.390 OA
ATOM     27  H5  GTP d   1     -27.861  -6.143 -12.821  0.00  0.00     0.210 HD
ENDBRANCH   3  26
BRANCH   5  28
ATOM     28  N9  GTP d   1     -24.530  -3.666 -14.834  0.00  0.00    -0.295 N 
ATOM     29  C8  GTP d   1     -23.450  -4.158 -15.518  0.00  0.00     0.071 A 
ATOM     30  N7  GTP d   1     -23.062  -3.219 -16.405  0.00  0.00    -0.234 NA
ATOM     31  H9  GTP d   1     -22.987  -5.133 -15.372  0.00  0.00     0.144 H 
ATOM     32  C5  GTP d   1     -23.864  -2.133 -16.286  0.00  0.00     0.171 A 
ATOM     33  C6  GTP d   1     -23.914  -0.901 -16.933  0.00  0.00     0.292 A 
ATOM     34  C4  GTP d   1     -24.797  -2.404 -15.302  0.00  0.00     0.161 A 
ATOM     35  O6  GTP d   1     -23.104  -0.622 -17.814  0.00  0.00    -0.265 OA
ATOM     36  N1  GTP d   1     -24.883   0.023 -16.588  0.00  0.00    -0.154 N 
ATOM     37  C2  GTP d   1     -25.800  -0.265 -15.602  0.00  0.00     0.680 A 
ATOM     38  H10 GTP d   1     -24.918   0.905 -17.057  0.00  0.00     0.187 HD
ATOM     39  N2  GTP d   1     -26.730   0.625 -15.266  0.00  0.00    -0.234 N 
ATOM     40  N3  GTP d   1     -25.742  -1.486 -14.968  0.00  0.00    -0.174 N 
ATOM     41  H11 GTP d   1     -27.413   0.403 -14.527  0.00  0.00     0.174 HD
ATOM     42  H12 GTP d   1     -26.767   1.536 -15.744  0.00  0.00     0.174 HD
ATOM     43  H13 GTP d   1     -26.425  -1.707 -14.229  0.00  0.00     0.186 HD
ENDBRANCH   5  28
BRANCH   4  44
ATOM     44  O2' GTP d   1     -27.622  -3.985 -13.296  0.00  0.00    -0.388 OA
ATOM     45  H7  GTP d   1     -28.512  -4.117 -13.601  0.00  0.00     0.210 HD
ENDBRANCH   4  44
TORSDOF 10
