REMARK  8 active torsions:
REMARK  status: ('A' for Active; 'I' for Inactive)
REMARK    1  A    between atoms: PB_2  and  O3A_5 
REMARK    2  A    between atoms: O3A_5  and  PA_6 
REMARK    3  A    between atoms: PA_6  and  O5'_9 
REMARK    4  A    between atoms: O5'_9  and  C5'_10 
REMARK    5  A    between atoms: C5'_10  and  C4'_11 
REMARK    6  A    between atoms: C3'_13  and  O3'_14 
REMARK    7  A    between atoms: C2'_15  and  O2'_16 
REMARK    8  A    between atoms: C1'_17  and  N9_18 
ROOT
ATOM      1  C4' GTP d   1       6.868 -24.893  13.841  0.00  0.00     0.089 C 
ATOM      2  O4' GTP d   1       7.977 -24.123  13.436  0.00  0.00    -0.353 OA
ATOM      3  C3' GTP d   1       7.220 -25.565  15.165  0.00  0.00     0.091 C 
ATOM      4  C2' GTP d   1       8.717 -25.419  15.303  0.00  0.00     0.105 C 
ATOM      5  C1' GTP d   1       9.057 -24.313  14.318  0.00  0.00     0.139 C 
ATOM      6  H3  GTP d   1       6.628 -25.656  13.085  0.00  0.00     0.090 H 
ATOM      7  H4  GTP d   1       6.706 -25.052  15.991  0.00  0.00     0.091 H 
ATOM      8  H6  GTP d   1       8.980 -25.110  16.325  0.00  0.00     0.093 H 
ATOM      9  H8  GTP d   1       9.989 -24.521  13.772  0.00  0.00     0.122 H 
ENDROOT
BRANCH   5  10
ATOM     10  N9  GTP d   1       9.152 -23.111  15.145  0.00  0.00    -0.295 N 
ATOM     11  C8  GTP d   1       8.123 -22.430  15.748  0.00  0.00     0.071 A 
ATOM     12  N7  GTP d   1       8.634 -21.391  16.435  0.00  0.00    -0.234 NA
ATOM     13  H9  GTP d   1       7.067 -22.688  15.681  0.00  0.00     0.144 H 
ATOM     14  C5  GTP d   1       9.974 -21.398  16.274  0.00  0.00     0.171 A 
ATOM     15  C6  GTP d   1      10.978 -20.567  16.743  0.00  0.00     0.292 A 
ATOM     16  C4  GTP d   1      10.313 -22.477  15.467  0.00  0.00     0.161 A 
ATOM     17  O6  GTP d   1      10.694 -19.605  17.457  0.00  0.00    -0.265 OA
ATOM     18  N1  GTP d   1      12.292 -20.834  16.397  0.00  0.00    -0.154 N 
ATOM     19  C2  GTP d   1      12.609 -21.915  15.592  0.00  0.00     0.680 A 
ATOM     20  H10 GTP d   1      13.021 -20.238  16.733  0.00  0.00     0.187 HD
ATOM     21  N2  GTP d   1      13.873 -22.172  15.261  0.00  0.00    -0.234 N 
ATOM     22  N3  GTP d   1      11.602 -22.734  15.130  0.00  0.00    -0.174 N 
ATOM     23  H11 GTP d   1      14.094 -22.980  14.661  0.00  0.00     0.174 HD
ATOM     24  H12 GTP d   1      14.629 -21.563  15.605  0.00  0.00     0.174 HD
ATOM     25  H13 GTP d   1      11.827 -23.540  14.530  0.00  0.00     0.186 HD
ENDBRANCH   5  10
BRANCH   4  26
ATOM     26  O2' GTP d   1       9.381 -26.631  15.013  0.00  0.00    -0.388 OA
ATOM     27  H7  GTP d   1       9.086 -27.304  15.615  0.00  0.00     0.210 HD
ENDBRANCH   4  26
BRANCH   1  28
ATOM     28  C5' GTP d   1       5.693 -23.939  14.012  0.00  0.00     0.058 C 
ATOM     29  H1  GTP d   1       5.885 -23.262  14.858  0.00  0.00     0.079 H 
ATOM     30  H2  GTP d   1       5.558 -23.349  13.094  0.00  0.00     0.079 H 
BRANCH  28  31
ATOM     31  O5' GTP d   1       4.537 -24.695  14.263  0.00  0.00    -0.287 OA
BRANCH  31  32
ATOM     32  PA  GTP d   1       3.331 -24.024  15.062  0.00  0.00     0.418 P 
ATOM     33  O1A GTP d   1       2.279 -25.026  15.463  0.00  0.00    -0.624 OA
ATOM     34  O2A GTP d   1       3.891 -23.351  16.279  0.00  0.00    -0.624 OA
BRANCH  32  35
ATOM     35  O3A GTP d   1       2.775 -22.987  13.992  0.00  0.00    -0.173 OA
BRANCH  35  36
ATOM     36  PB  GTP d   1       1.214 -22.934  13.685  0.00  0.00     0.431 P 
ATOM     37  O3B GTP d   1       0.769 -24.433  13.290  0.00  0.00    -0.616 OA
ATOM     38  O1B GTP d   1       0.933 -21.996  12.536  0.00  0.00    -0.616 OA
ATOM     39  O2B GTP d   1       0.548 -22.473  14.950  0.00  0.00    -0.616 OA
ENDBRANCH  35  36
ENDBRANCH  32  35
ENDBRANCH  31  32
ENDBRANCH  28  31
ENDBRANCH   1  28
BRANCH   3  40
ATOM     40  O3' GTP d   1       6.879 -26.929  15.189  0.00  0.00    -0.390 OA
ATOM     41  H5  GTP d   1       7.347 -27.383  14.498  0.00  0.00     0.210 HD
ENDBRANCH   3  40
TORSDOF 8
