REMARK WARNING: 32 MAX_TORS EXCEEDED!!!
REMARK  52 active torsions:
REMARK  status: ('A' for Active; 'I' for Inactive)
REMARK    1  A    between atoms: CA_2  and  N_1 
REMARK    2  A    between atoms: C_3  and  CA_2 
REMARK    3  A    between atoms: CA_2  and  CB_5 
REMARK       I    between atoms: N_7  and  C_3 
REMARK    4  A    between atoms: CB_5  and  OG_6 
REMARK    5  A    between atoms: CA_8  and  N_7 
REMARK    6  A    between atoms: C_9  and  CA_8 
REMARK    7  A    between atoms: CA_8  and  CB_11 
REMARK       I    between atoms: N_12  and  C_9 
REMARK    8  A    between atoms: CA_13  and  N_12 
REMARK    9  A    between atoms: C_14  and  CA_13 
REMARK   10  A    between atoms: CA_13  and  CB_16 
REMARK       I    between atoms: N_23  and  C_14 
REMARK   11  A    between atoms: CB_16  and  CG_17 
REMARK   12  A    between atoms: CG_17  and  CD_18 
REMARK   13  A    between atoms: CD_18  and  NE_19 
REMARK       I    between atoms: NE_19  and  CZ_20 
REMARK       I    between atoms: CZ_20  and  NH1_21 
REMARK       I    between atoms: CZ_20  and  NH2_22 
REMARK   14  A    between atoms: CA_24  and  N_23 
REMARK   15  A    between atoms: C_25  and  CA_24 
REMARK   16  A    between atoms: CA_24  and  CB_27 
REMARK       I    between atoms: NA2_48  and  C_25 
REMARK   17  A    between atoms: CA_28  and  C_29 
REMARK   18  A    between atoms: NB2_34  and  CA_28 
REMARK       I    between atoms: C_29  and  N_49 
REMARK   19  A    between atoms: CB3_35  and  NB2_34 
REMARK   20  A    between atoms: CA5_40  and  NA2_48 
REMARK   21  A    between atoms: N_49  and  CA_50 
REMARK   22  A    between atoms: CA_50  and  C_51 
REMARK   23  A    between atoms: CA_50  and  CB_53 
REMARK       I    between atoms: C_51  and  N_56 
REMARK   24  A    between atoms: CB_53  and  CG1_54 
REMARK   25  A    between atoms: CB_53  and  CG2_55 
REMARK   26  A    between atoms: N_56  and  CA_57 
REMARK   27  A    between atoms: CA_57  and  C_58 
REMARK   28  A    between atoms: CA_57  and  CB_60 
REMARK       I    between atoms: C_58  and  N_66 
REMARK   29  A    between atoms: CB_60  and  CG_61 
REMARK   30  A    between atoms: N_66  and  CA_67 
REMARK   31  A    between atoms: CA_67  and  C_68 
REMARK   32  A    between atoms: CA_67  and  CB_70 
REMARK       I    between atoms: C_68  and  N_74 
REMARK   33  A    between atoms: CB_70  and  CG_71 
REMARK   34  A    between atoms: CG_71  and  CD1_72 
REMARK   35  A    between atoms: CG_71  and  CD2_73 
REMARK   36  A    between atoms: N_74  and  CA_75 
REMARK   37  A    between atoms: CA_75  and  C_76 
REMARK   38  A    between atoms: CA_75  and  CB_78 
REMARK       I    between atoms: C_76  and  N_85 
REMARK   39  A    between atoms: CB_78  and  CG_79 
REMARK   40  A    between atoms: CG_79  and  CD_80 
REMARK   41  A    between atoms: CD_80  and  NE_81 
REMARK       I    between atoms: NE_81  and  CZ_82 
REMARK       I    between atoms: CZ_82  and  NH1_83 
REMARK   42  A    between atoms: N_85  and  CA_86 
REMARK   43  A    between atoms: CA_86  and  C_87 
REMARK   44  A    between atoms: CA_86  and  CB_89 
REMARK       I    between atoms: C_87  and  N_94 
REMARK   45  A    between atoms: CB_89  and  CG_90 
REMARK   46  A    between atoms: CG_90  and  CD_91 
REMARK   47  A    between atoms: CD_91  and  CE_92 
REMARK   48  A    between atoms: CE_92  and  NZ_93 
REMARK   49  A    between atoms: N_94  and  CA_95 
REMARK   50  A    between atoms: CA_95  and  C_96 
REMARK   51  A    between atoms: CA_95  and  CB_98 
REMARK       I    between atoms: C_96  and  N_100 
REMARK   52  A    between atoms: CB_98  and  OG_99 
ROOT
ATOM      1  CA  SER d   1     -21.750  12.275 -27.244  0.00  0.00     0.092 C 
ATOM      2  H48 SER d   1     -21.075  11.537 -26.785  0.00  0.00     0.088 H 
ENDROOT
BRANCH   1   3
ATOM      3  N   SER d   1     -21.377  13.387 -26.375  0.00  0.00    -0.346 N 
ATOM      4  C   SER d   1     -20.230  13.440 -25.821  0.00  0.00     0.235 C 
ATOM      5  O   SER d   1     -19.279  12.798 -26.215  0.00  0.00    -0.272 OA
ATOM      6  H47 SER d   1     -22.035  14.122 -26.211  0.00  0.00     0.163 HD
BRANCH   4   7
ATOM      7  CA  SER d   1     -19.963  14.604 -24.967  0.00  0.00     0.066 C 
ATOM      8  H31 SER d   1     -18.887  14.659 -24.746  0.00  0.00     0.078 H 
ATOM      9  H32 SER d   1     -20.526  14.508 -24.027  0.00  0.00     0.078 H 
BRANCH   7  10
ATOM     10  NB2 SER d   1     -20.395  15.856 -25.688  0.00  0.00    -0.381 N 
ATOM     11  H35 SER d   1     -21.077  16.452 -25.197  0.00  0.00     0.160 HD
BRANCH  10  12
ATOM     12  CB3 SER d   1     -19.947  16.332 -27.035  0.00  0.00     0.030 A 
ATOM     13  CB2 SER d   1     -19.245  15.533 -27.890  0.00  0.00    -0.030 A 
ATOM     14  CB1 SER d   1     -18.851  16.040 -29.172  0.00  0.00     0.056 A 
ATOM     15  H34 SER d   1     -18.987  14.521 -27.602  0.00  0.00     0.090 H 
ATOM     16  NB1 SER d   1     -18.119  15.198 -30.093  0.00  0.00    -0.300 N 
ATOM     17  CB6 SER d   1     -19.162  17.314 -29.589  0.00  0.00    -0.030 A 
ATOM     18  NA1 SER d   1     -16.727  15.429 -30.156  0.00  0.00    -0.300 N 
ATOM     19  H33 SER d   1     -18.582  14.478 -30.665  0.00  0.00     0.187 HD
ATOM     20  CA1 SER d   1     -16.134  16.606 -29.479  0.00  0.00     0.056 A 
ATOM     21  H45 SER d   1     -16.122  14.777 -30.675  0.00  0.00     0.187 HD
ATOM     22  CA2 SER d   1     -16.337  17.909 -29.893  0.00  0.00    -0.030 A 
ATOM     23  CA6 SER d   1     -15.302  16.337 -28.385  0.00  0.00    -0.030 A 
ATOM     24  CA3 SER d   1     -15.689  18.958 -29.181  0.00  0.00    -0.072 A 
ATOM     25  CA7 SER d   1     -17.232  18.224 -31.097  0.00  0.00    -0.035 C 
ATOM     26  CA4 SER d   1     -14.855  18.672 -28.075  0.00  0.00    -0.057 A 
ATOM     27  H36 SER d   1     -15.836  19.987 -29.490  0.00  0.00     0.084 H 
ATOM     28  CA5 SER d   1     -14.697  17.375 -27.651  0.00  0.00     0.037 A 
ATOM     29  H37 SER d   1     -14.341  19.476 -27.562  0.00  0.00     0.086 H 
ATOM     30  CB7 SER d   1     -18.727  17.858 -30.960  0.00  0.00    -0.035 C 
ATOM     31  H39 SER d   1     -16.832  17.676 -31.963  0.00  0.00     0.040 H 
ATOM     32  H40 SER d   1     -17.169  19.306 -31.286  0.00  0.00     0.040 H 
ATOM     33  H43 SER d   1     -18.957  17.092 -31.715  0.00  0.00     0.040 H 
ATOM     34  H44 SER d   1     -19.316  18.764 -31.166  0.00  0.00     0.040 H 
ATOM     35  H38 SER d   1     -15.120  15.308 -28.097  0.00  0.00     0.090 H 
ATOM     36  CB5 SER d   1     -19.871  18.132 -28.733  0.00  0.00    -0.072 A 
ATOM     37  CB4 SER d   1     -20.260  17.645 -27.476  0.00  0.00    -0.057 A 
ATOM     38  H42 SER d   1     -20.125  19.143 -29.030  0.00  0.00     0.084 H 
ATOM     39  H41 SER d   1     -20.821  18.296 -26.816  0.00  0.00     0.086 H 
BRANCH  28  40
ATOM     40  NA2 SER d   1     -13.777  17.009 -26.563  0.00  0.00    -0.325 N 
ATOM     41  C   SER d   1     -13.897  17.532 -25.368  0.00  0.00     0.244 C 
ATOM     42  O   SER d   1     -14.777  18.342 -25.078  0.00  0.00    -0.271 OA
ATOM     43  H46 SER d   1     -13.047  16.349 -26.739  0.00  0.00     0.169 HD
BRANCH  41  44
ATOM     44  CA  SER d   1     -12.887  17.080 -24.318  0.00  0.00     0.086 C 
ATOM     45  H27 SER d   1     -13.383  17.082 -23.336  0.00  0.00     0.086 H 
BRANCH  44  46
ATOM     46  N   SER d   1     -12.372  15.732 -24.576  0.00  0.00    -0.346 N 
ATOM     47  C   SER d   1     -12.971  14.645 -24.101  0.00  0.00     0.241 C 
ATOM     48  O   SER d   1     -14.063  14.699 -23.525  0.00  0.00    -0.271 OA
ATOM     49  H26 SER d   1     -11.544  15.627 -25.127  0.00  0.00     0.163 HD
BRANCH  47  50
ATOM     50  CA  SER d   1     -12.278  13.304 -24.320  0.00  0.00     0.089 C 
ATOM     51  H14 SER d   1     -13.034  12.510 -24.234  0.00  0.00     0.087 H 
BRANCH  50  52
ATOM     52  N   SER d   1     -11.685  13.222 -25.652  0.00  0.00    -0.346 N 
ATOM     53  C   SER d   1     -12.463  13.253 -26.741  0.00  0.00     0.240 C 
ATOM     54  O   SER d   1     -13.693  13.349 -26.669  0.00  0.00    -0.271 OA
ATOM     55  H13 SER d   1     -10.693  13.142 -25.751  0.00  0.00     0.163 HD
BRANCH  53  56
ATOM     56  CA  SER d   1     -11.775  13.149 -28.093  0.00  0.00     0.086 C 
ATOM     57  H9  SER d   1     -12.414  13.635 -28.845  0.00  0.00     0.086 H 
BRANCH  56  58
ATOM     58  N   SER d   1     -10.482  13.826 -28.082  0.00  0.00    -0.346 N 
ATOM     59  C   SER d   1     -10.399  15.128 -27.783  0.00  0.00     0.251 C 
ATOM     60  O   SER d   1     -11.381  15.825 -27.543  0.00  0.00    -0.271 OA
ATOM     61  H8  SER d   1      -9.652  13.313 -28.300  0.00  0.00     0.163 HD
BRANCH  59  62
ATOM     62  CA  SER d   1      -8.992  15.716 -27.692  0.00  0.00     0.195 C 
ATOM     63  H4  SER d   1      -8.270  14.901 -27.848  0.00  0.00     0.102 H 
BRANCH  62  64
ATOM     64  N   SER d   1      -8.735  16.761 -28.715  0.00  0.00    -0.064 N 
ATOM     65  H1  SER d   1      -7.796  17.112 -28.608  0.00  0.00     0.275 HD
ATOM     66  H2  SER d   1      -9.392  17.517 -28.596  0.00  0.00     0.275 HD
ATOM     67  H3  SER d   1      -8.843  16.364 -29.635  0.00  0.00     0.275 HD
ENDBRANCH  62  64
BRANCH  62  68
ATOM     68  CB  SER d   1      -8.777  16.303 -26.298  0.00  0.00     0.051 C 
ATOM     69  H5  SER d   1      -9.298  17.269 -26.230  0.00  0.00     0.077 H 
ATOM     70  H6  SER d   1      -7.700  16.454 -26.133  0.00  0.00     0.077 H 
BRANCH  68  71
ATOM     71  OG  SER d   1      -9.280  15.435 -25.303  0.00  0.00    -0.398 OA
ATOM     72  H7  SER d   1      -8.830  14.600 -25.356  0.00  0.00     0.209 HD
ENDBRANCH  68  71
ENDBRANCH  62  68
ENDBRANCH  59  62
ENDBRANCH  56  58
BRANCH  56  73
ATOM     73  CB  SER d   1     -11.598  11.680 -28.481  0.00  0.00    -0.049 C 
ATOM     74  H10 SER d   1     -12.579  11.181 -28.486  0.00  0.00     0.030 H 
ATOM     75  H11 SER d   1     -10.938  11.185 -27.753  0.00  0.00     0.030 H 
ATOM     76  H12 SER d   1     -11.150  11.617 -29.484  0.00  0.00     0.030 H 
ENDBRANCH  56  73
ENDBRANCH  53  56
ENDBRANCH  50  52
BRANCH  50  77
ATOM     77  CB  SER d   1     -11.214  13.075 -23.240  0.00  0.00    -0.036 C 
ATOM     78  H15 SER d   1     -10.485  13.898 -23.283  0.00  0.00     0.036 H 
ATOM     79  H16 SER d   1     -10.704  12.122 -23.444  0.00  0.00     0.036 H 
BRANCH  77  80
ATOM     80  CG  SER d   1     -11.813  13.021 -21.824  0.00  0.00    -0.048 C 
ATOM     81  H17 SER d   1     -12.430  12.115 -21.735  0.00  0.00     0.035 H 
ATOM     82  H18 SER d   1     -12.443  13.910 -21.672  0.00  0.00     0.035 H 
BRANCH  80  83
ATOM     83  CD  SER d   1     -10.742  12.991 -20.747  0.00  0.00     0.009 C 
ATOM     84  H19 SER d   1     -11.232  12.929 -19.764  0.00  0.00     0.064 H 
ATOM     85  H20 SER d   1     -10.156  13.920 -20.807  0.00  0.00     0.064 H 
BRANCH  83  86
ATOM     86  NE  SER d   1      -9.838  11.858 -20.890  0.00  0.00    -0.227 N 
ATOM     87  CZ  SER d   1      -9.992  10.684 -20.292  0.00  0.00     0.665 C 
ATOM     88  NH1 SER d   1     -11.039  10.455 -19.510  0.00  0.00    -0.235 N 
ATOM     89  NH2 SER d   1      -9.098   9.727 -20.485  0.00  0.00    -0.235 N 
ATOM     90  H22 SER d   1     -11.148   9.540 -19.051  0.00  0.00     0.174 HD
ATOM     91  H23 SER d   1     -11.742  11.193 -19.362  0.00  0.00     0.174 HD
ATOM     92  H24 SER d   1      -8.283   9.898 -21.091  0.00  0.00     0.174 HD
ATOM     93  H25 SER d   1      -9.217   8.811 -20.029  0.00  0.00     0.174 HD
ATOM     94  H21 SER d   1      -9.018  11.977 -21.501  0.00  0.00     0.177 HD
ENDBRANCH  83  86
ENDBRANCH  80  83
ENDBRANCH  77  80
ENDBRANCH  50  77
ENDBRANCH  47  50
ENDBRANCH  44  46
BRANCH  44  95
ATOM     95  CB  SER d   1     -11.723  18.050 -24.290  0.00  0.00    -0.049 C 
ATOM     96  H28 SER d   1     -12.097  19.066 -24.097  0.00  0.00     0.030 H 
ATOM     97  H29 SER d   1     -11.204  18.028 -25.260  0.00  0.00     0.030 H 
ATOM     98  H30 SER d   1     -11.023  17.760 -23.493  0.00  0.00     0.030 H 
ENDBRANCH  44  95
ENDBRANCH  41  44
ENDBRANCH  28  40
ENDBRANCH  10  12
ENDBRANCH   7  10
ENDBRANCH   4   7
ENDBRANCH   1   3
BRANCH   1  99
ATOM     99  C   SER d   1     -21.853  11.695 -28.457  0.00  0.00     0.241 C 
ATOM    100  O   SER d   1     -21.848  10.493 -28.730  0.00  0.00    -0.271 OA
ATOM    101  N   SER d   1     -21.476  12.719 -29.229  0.00  0.00    -0.346 N 
ATOM    102  H56 SER d   1     -21.113  13.531 -28.773  0.00  0.00     0.163 HD
BRANCH 101 103
ATOM    103  CA  SER d   1     -21.552  12.743 -30.672  0.00  0.00     0.094 C 
ATOM    104  H57 SER d   1     -22.465  12.207 -30.970  0.00  0.00     0.088 H 
BRANCH 103 105
ATOM    105  C   SER d   1     -20.365  12.031 -31.318  0.00  0.00     0.241 C 
ATOM    106  O   SER d   1     -20.561  11.290 -32.286  0.00  0.00    -0.271 OA
ATOM    107  N   SER d   1     -19.138  12.210 -30.806  0.00  0.00    -0.346 N 
ATOM    108  H63 SER d   1     -19.012  12.799 -30.008  0.00  0.00     0.163 HD
BRANCH 107 109
ATOM    109  CA  SER d   1     -17.982  11.546 -31.412  0.00  0.00     0.089 C 
ATOM    110  H64 SER d   1     -18.017  11.720 -32.498  0.00  0.00     0.087 H 
BRANCH 109 111
ATOM    111  C   SER d   1     -18.002  10.046 -31.161  0.00  0.00     0.241 C 
ATOM    112  O   SER d   1     -17.707   9.253 -32.065  0.00  0.00    -0.271 OA
ATOM    113  N   SER d   1     -18.306   9.636 -29.931  0.00  0.00    -0.346 N 
ATOM    114  H74 SER d   1     -18.564  10.298 -29.227  0.00  0.00     0.163 HD
BRANCH 113 115
ATOM    115  CA  SER d   1     -18.260   8.217 -29.621  0.00  0.00     0.089 C 
ATOM    116  H75 SER d   1     -17.310   7.816 -30.005  0.00  0.00     0.087 H 
BRANCH 115 117
ATOM    117  C   SER d   1     -19.389   7.459 -30.309  0.00  0.00     0.241 C 
ATOM    118  O   SER d   1     -19.270   6.244 -30.497  0.00  0.00    -0.271 OA
ATOM    119  N   SER d   1     -20.450   8.156 -30.739  0.00  0.00    -0.346 N 
ATOM    120  H87 SER d   1     -20.483   9.138 -30.554  0.00  0.00     0.163 HD
BRANCH 119 121
ATOM    121  CA  SER d   1     -21.560   7.545 -31.465  0.00  0.00     0.089 C 
ATOM    122  H88 SER d   1     -21.526   6.462 -31.274  0.00  0.00     0.087 H 
BRANCH 121 123
ATOM    123  C   SER d   1     -21.484   7.753 -32.981  0.00  0.00     0.241 C 
ATOM    124  O   SER d   1     -22.370   7.273 -33.698  0.00  0.00    -0.271 OA
ATOM    125  N   SER d   1     -20.452   8.439 -33.483  0.00  0.00    -0.344 N 
ATOM    126 0H10 SER d   1     -19.753   8.774 -32.852  0.00  0.00     0.163 HD
BRANCH 125 127
ATOM    127  CA  SER d   1     -20.293   8.727 -34.920  0.00  0.00     0.109 C 
ATOM    128 1H10 SER d   1     -21.300   8.844 -35.347  0.00  0.00     0.090 H 
BRANCH 127 129
ATOM    129  C   SER d   1     -19.576   7.616 -35.708  0.00  0.00     0.240 C 
ATOM    130  O   SER d   1     -19.396   7.722 -36.926  0.00  0.00    -0.271 OA
ATOM    131  N   SER d   1     -19.168   6.558 -35.012  0.00  0.00    -0.368 N 
ATOM    132 5H10 SER d   1     -18.697   5.807 -35.474  0.00  0.00     0.159 HD
ATOM    133 6H10 SER d   1     -19.333   6.514 -34.027  0.00  0.00     0.159 HD
ENDBRANCH 127 129
BRANCH 127 134
ATOM    134  CB  SER d   1     -19.522  10.052 -35.111  0.00  0.00     0.044 C 
ATOM    135 2H10 SER d   1     -19.904  10.793 -34.393  0.00  0.00     0.077 H 
ATOM    136 3H10 SER d   1     -19.688  10.415 -36.136  0.00  0.00     0.077 H 
BRANCH 134 137
ATOM    137  OG  SER d   1     -18.125   9.887 -34.902  0.00  0.00    -0.398 OA
ATOM    138 4H10 SER d   1     -17.973   9.578 -34.017  0.00  0.00     0.209 HD
ENDBRANCH 134 137
ENDBRANCH 127 134
ENDBRANCH 125 127
ENDBRANCH 121 123
BRANCH 121 139
ATOM    139  CB  SER d   1     -22.903   8.088 -30.939  0.00  0.00    -0.038 C 
ATOM    140  H89 SER d   1     -23.701   7.727 -31.604  0.00  0.00     0.036 H 
ATOM    141  H90 SER d   1     -22.864   9.187 -30.976  0.00  0.00     0.036 H 
BRANCH 139 142
ATOM    142  CG  SER d   1     -23.256   7.671 -29.501  0.00  0.00    -0.061 C 
ATOM    143  H91 SER d   1     -22.538   8.136 -28.809  0.00  0.00     0.033 H 
ATOM    144  H92 SER d   1     -23.186   6.576 -29.421  0.00  0.00     0.033 H 
BRANCH 142 145
ATOM    145  CD  SER d   1     -24.681   8.109 -29.109  0.00  0.00    -0.043 C 
ATOM    146  H93 SER d   1     -25.372   7.835 -29.920  0.00  0.00     0.035 H 
ATOM    147  H94 SER d   1     -24.691   9.200 -28.972  0.00  0.00     0.035 H 
BRANCH 145 148
ATOM    148  CE  SER d   1     -25.154   7.444 -27.812  0.00  0.00     0.080 C 
ATOM    149  H95 SER d   1     -24.618   7.906 -26.970  0.00  0.00     0.075 H 
ATOM    150  H96 SER d   1     -24.907   6.373 -27.861  0.00  0.00     0.075 H 
BRANCH 148 151
ATOM    151  NZ  SER d   1     -26.626   7.580 -27.568  0.00  0.00    -0.079 N 
ATOM    152  H97 SER d   1     -26.867   7.122 -26.703  0.00  0.00     0.274 HD
ATOM    153  H98 SER d   1     -27.133   7.152 -28.327  0.00  0.00     0.274 HD
ATOM    154  H99 SER d   1     -26.868   8.557 -27.510  0.00  0.00     0.274 HD
ENDBRANCH 148 151
ENDBRANCH 145 148
ENDBRANCH 142 145
ENDBRANCH 139 142
ENDBRANCH 121 139
ENDBRANCH 119 121
ENDBRANCH 115 117
BRANCH 115 155
ATOM    155  CB  SER d   1     -18.275   8.016 -28.102  0.00  0.00    -0.036 C 
ATOM    156  H76 SER d   1     -17.482   8.643 -27.669  0.00  0.00     0.036 H 
ATOM    157  H77 SER d   1     -18.058   6.957 -27.898  0.00  0.00     0.036 H 
BRANCH 155 158
ATOM    158  CG  SER d   1     -19.573   8.366 -27.412  0.00  0.00    -0.048 C 
ATOM    159  H78 SER d   1     -20.157   9.027 -28.069  0.00  0.00     0.035 H 
ATOM    160  H79 SER d   1     -19.346   8.890 -26.472  0.00  0.00     0.035 H 
BRANCH 158 161
ATOM    161  CD  SER d   1     -20.407   7.122 -27.095  0.00  0.00     0.009 C 
ATOM    162  H80 SER d   1     -19.749   6.333 -26.701  0.00  0.00     0.064 H 
ATOM    163  H81 SER d   1     -20.895   6.767 -28.015  0.00  0.00     0.064 H 
BRANCH 161 164
ATOM    164  NE  SER d   1     -21.428   7.441 -26.099  0.00  0.00    -0.227 N 
ATOM    165  CZ  SER d   1     -22.417   6.635 -25.727  0.00  0.00     0.665 C 
ATOM    166  NH1 SER d   1     -22.550   5.429 -26.267  0.00  0.00    -0.235 N 
ATOM    167  NH2 SER d   1     -23.282   7.050 -24.808  0.00  0.00    -0.235 N 
ATOM    168  H83 SER d   1     -23.321   4.814 -25.970  0.00  0.00     0.174 HD
ATOM    169  H84 SER d   1     -21.882   5.109 -26.983  0.00  0.00     0.174 HD
ATOM    170  H85 SER d   1     -23.179   7.985 -24.389  0.00  0.00     0.174 HD
ATOM    171  H86 SER d   1     -24.055   6.436 -24.515  0.00  0.00     0.174 HD
ATOM    172  H82 SER d   1     -21.377   8.366 -25.649  0.00  0.00     0.177 HD
ENDBRANCH 161 164
ENDBRANCH 158 161
ENDBRANCH 155 158
ENDBRANCH 115 155
ENDBRANCH 113 115
ENDBRANCH 109 111
BRANCH 109 173
ATOM    173  CB  SER d   1     -16.677  12.120 -30.865  0.00  0.00    -0.035 C 
ATOM    174  H65 SER d   1     -16.640  11.901 -29.788  0.00  0.00     0.037 H 
ATOM    175  H66 SER d   1     -16.700  13.209 -31.017  0.00  0.00     0.037 H 
BRANCH 173 176
ATOM    176  CG  SER d   1     -15.387  11.588 -31.494  0.00  0.00    -0.059 C 
ATOM    177  H67 SER d   1     -15.305  10.511 -31.288  0.00  0.00     0.038 H 
BRANCH 176 178
ATOM    178  CD1 SER d   1     -15.377  11.781 -32.999  0.00  0.00    -0.073 C 
ATOM    179  H68 SER d   1     -14.437  11.387 -33.413  0.00  0.00     0.028 H 
ATOM    180  H69 SER d   1     -15.460  12.853 -33.232  0.00  0.00     0.028 H 
ATOM    181  H70 SER d   1     -16.227  11.242 -33.443  0.00  0.00     0.028 H 
ENDBRANCH 176 178
BRANCH 176 182
ATOM    182  CD2 SER d   1     -14.226  12.312 -30.815  0.00  0.00    -0.073 C 
ATOM    183  H71 SER d   1     -14.274  12.144 -29.729  0.00  0.00     0.028 H 
ATOM    184  H72 SER d   1     -14.294  13.390 -31.023  0.00  0.00     0.028 H 
ATOM    185  H73 SER d   1     -13.274  11.923 -31.204  0.00  0.00     0.028 H 
ENDBRANCH 176 182
ENDBRANCH 173 176
ENDBRANCH 109 173
ENDBRANCH 107 109
ENDBRANCH 103 105
BRANCH 103 186
ATOM    186  CB  SER d   1     -21.667  14.200 -31.178  0.00  0.00     0.004 C 
ATOM    187  H58 SER d   1     -21.736  14.182 -32.276  0.00  0.00     0.046 H 
ATOM    188  H59 SER d   1     -20.761  14.745 -30.876  0.00  0.00     0.046 H 
BRANCH 186 189
ATOM    189  CG  SER d   1     -22.863  14.932 -30.639  0.00  0.00     0.053 A 
ATOM    190  ND1 SER d   1     -24.158  14.510 -30.857  0.00  0.00    -0.247 NA
ATOM    191  CE1 SER d   1     -24.997  15.335 -30.256  0.00  0.00     0.064 A 
ATOM    192  NE2 SER d   1     -24.295  16.282 -29.659  0.00  0.00    -0.359 N 
ATOM    193  H61 SER d   1     -26.083  15.249 -30.253  0.00  0.00     0.143 H 
ATOM    194  CD2 SER d   1     -22.958  16.052 -29.882  0.00  0.00     0.002 A 
ATOM    195  H62 SER d   1     -24.686  17.065 -29.115  0.00  0.00     0.166 HD
ATOM    196  H60 SER d   1     -22.129  16.657 -29.518  0.00  0.00     0.114 H 
ENDBRANCH 186 189
ENDBRANCH 103 186
ENDBRANCH 101 103
ENDBRANCH   1  99
BRANCH   1 197
ATOM    197  CB  SER d   1     -23.331  11.886 -26.787  0.00  0.00    -0.033 C 
ATOM    198  H49 SER d   1     -23.540  10.893 -27.211  0.00  0.00     0.042 H 
BRANCH 197 199
ATOM    199  CG1 SER d   1     -23.624  11.774 -25.258  0.00  0.00    -0.071 C 
ATOM    200  H50 SER d   1     -24.683  11.518 -25.105  0.00  0.00     0.028 H 
ATOM    201  H51 SER d   1     -23.406  12.736 -24.771  0.00  0.00     0.028 H 
ATOM    202  H52 SER d   1     -22.990  10.989 -24.820  0.00  0.00     0.028 H 
ENDBRANCH 197 199
BRANCH 197 203
ATOM    203  CG2 SER d   1     -24.296  12.885 -27.439  0.00  0.00    -0.071 C 
ATOM    204  H53 SER d   1     -24.079  12.955 -28.515  0.00  0.00     0.028 H 
ATOM    205  H54 SER d   1     -24.169  13.874 -26.974  0.00  0.00     0.028 H 
ATOM    206  H55 SER d   1     -25.331  12.542 -27.295  0.00  0.00     0.028 H 
ENDBRANCH 197 203
ENDBRANCH   1 197
TORSDOF 52
