REMARK  7 active torsions:
REMARK  status: ('A' for Active; 'I' for Inactive)
REMARK    1  A    between atoms: C2_2  and  C1_1 
REMARK    2  A    between atoms: C2_2  and  C3_3 
REMARK    3  A    between atoms: C4_19  and  C2_2 
REMARK    4  A    between atoms: C19_12  and  C18_24 
REMARK    5  A    between atoms: C25_26  and  C22_15 
REMARK    6  A    between atoms: C26_27  and  C27_17 
REMARK    7  A    between atoms: N5_20  and  C4_19 
ROOT
ATOM      1  C7  H8W d   1      -3.350 -30.305  38.931  0.00  0.00    -0.017 C 
ATOM      2  C8  H8W d   1      -2.255 -29.304  38.581  0.00  0.00    -0.034 A 
ATOM      3  C9  H8W d   1      -1.033 -29.649  38.036  0.00  0.00    -0.016 A 
ATOM      4  C10 H8W d   1      -0.073 -28.663  37.765  0.00  0.00    -0.072 A 
ATOM      5  C11 H8W d   1      -0.274 -27.304  37.955  0.00  0.00    -0.052 A 
ATOM      6  C12 H8W d   1      -1.473 -26.972  38.468  0.00  0.00     0.089 A 
ATOM      7  C13 H8W d   1      -2.435 -27.934  38.768  0.00  0.00     0.018 A 
ATOM      8  C14 H8W d   1      -3.446 -27.139  39.260  0.00  0.00     0.009 A 
ATOM      9  N5  H8W d   1      -1.732 -32.079  38.311  0.00  0.00    -0.058 N 
ATOM     10  C6  H8W d   1      -3.135 -31.606  38.126  0.00  0.00     0.088 C 
ATOM     11  N15 H8W d   1      -3.219 -25.798  39.306  0.00  0.00    -0.288 N 
ATOM     12  N16 H8W d   1      -1.978 -25.746  38.810  0.00  0.00    -0.175 NA
ATOM     13  C18 H8W d   1      -0.680 -31.102  37.795  0.00  0.00     0.155 C 
ATOM     14  H8  H8W d   1      -4.332 -29.877  38.681  0.00  0.00     0.042 H 
ATOM     15  H9  H8W d   1      -3.312 -30.529  40.007  0.00  0.00     0.042 H 
ATOM     16  H10 H8W d   1       0.889 -28.984  37.382  0.00  0.00     0.084 H 
ATOM     17  H11 H8W d   1       0.479 -26.564  37.709  0.00  0.00     0.087 H 
ATOM     18  H12 H8W d   1      -4.389 -27.566  39.599  0.00  0.00     0.115 H 
ATOM     19  H18 H8W d   1      -1.576 -32.221  39.297  0.00  0.00     0.281 HD
ATOM     20  H19 H8W d   1      -3.319 -31.412  37.059  0.00  0.00     0.076 H 
ATOM     21  H20 H8W d   1      -3.832 -32.378  38.483  0.00  0.00     0.076 H 
ATOM     22  H21 H8W d   1      -3.831 -25.037  39.632  0.00  0.00     0.188 HD
ATOM     23  H22 H8W d   1      -0.577 -31.259  36.711  0.00  0.00     0.100 H 
ENDROOT
BRANCH  13  24
ATOM     24  C19 H8W d   1       0.613 -31.359  38.441  0.00  0.00    -0.023 A 
ATOM     25  C20 H8W d   1       0.751 -31.128  39.810  0.00  0.00    -0.074 A 
ATOM     26  C21 H8W d   1       1.983 -31.363  40.430  0.00  0.00    -0.072 A 
ATOM     27  H13 H8W d   1      -0.091 -30.769  40.390  0.00  0.00     0.084 H 
ATOM     28  C22 H8W d   1       3.056 -31.833  39.681  0.00  0.00    -0.036 A 
ATOM     29  H14 H8W d   1       2.101 -31.179  41.492  0.00  0.00     0.084 H 
ATOM     30  C23 H8W d   1       2.899 -32.084  38.324  0.00  0.00    -0.072 A 
ATOM     31  C24 H8W d   1       1.683 -31.851  37.701  0.00  0.00    -0.074 A 
ATOM     32  H23 H8W d   1       3.734 -32.465  37.748  0.00  0.00     0.084 H 
ATOM     33  H15 H8W d   1       1.566 -32.051  36.642  0.00  0.00     0.084 H 
BRANCH  28  34
ATOM     34  C25 H8W d   1       4.364 -32.110  40.301  0.00  0.00    -0.067 C 
ATOM     35  C26 H8W d   1       4.842 -31.315  41.270  0.00  0.00    -0.009 C 
ATOM     36  H25 H8W d   1       4.346 -30.423  41.649  0.00  0.00     0.094 H 
ATOM     37  H24 H8W d   1       4.948 -32.968  39.970  0.00  0.00     0.085 H 
BRANCH  35  38
ATOM     38  C27 H8W d   1       6.190 -31.849  41.763  0.00  0.00     0.198 C 
ATOM     39  O28 H8W d   1       6.603 -32.887  41.154  0.00  0.00    -0.645 OA
ATOM     40  O29 H8W d   1       6.720 -31.258  42.762  0.00  0.00    -0.645 OA
ENDBRANCH  35  38
ENDBRANCH  28  34
ENDBRANCH  13  24
BRANCH   9  41
ATOM     41  C4  H8W d   1      -1.560 -33.364  37.598  0.00  0.00     0.087 C 
ATOM     42  H16 H8W d   1      -2.213 -33.377  36.713  0.00  0.00     0.076 H 
ATOM     43  H17 H8W d   1      -0.511 -33.465  37.281  0.00  0.00     0.076 H 
BRANCH  41  44
ATOM     44  C2  H8W d   1      -1.930 -34.553  38.523  0.00  0.00    -0.038 C 
ATOM     45  H4  H8W d   1      -3.022 -34.595  38.649  0.00  0.00     0.041 H 
BRANCH  44  46
ATOM     46  C1  H8W d   1      -1.398 -35.836  37.930  0.00  0.00    -0.072 C 
ATOM     47  H1  H8W d   1      -1.660 -36.679  38.586  0.00  0.00     0.028 H 
ATOM     48  H2  H8W d   1      -0.304 -35.771  37.836  0.00  0.00     0.028 H 
ATOM     49  H3  H8W d   1      -1.842 -35.992  36.936  0.00  0.00     0.028 H 
ENDBRANCH  44  46
BRANCH  44  50
ATOM     50  C3  H8W d   1      -1.235 -34.465  39.879  0.00  0.00    -0.072 C 
ATOM     51  H5  H8W d   1      -1.560 -33.551  40.399  0.00  0.00     0.028 H 
ATOM     52  H6  H8W d   1      -0.145 -34.435  39.731  0.00  0.00     0.028 H 
ATOM     53  H7  H8W d   1      -1.499 -35.345  40.484  0.00  0.00     0.028 H 
ENDBRANCH  44  50
ENDBRANCH  41  44
ENDBRANCH   9  41
TORSDOF 7
