REMARK  5 active torsions:
REMARK  status: ('A' for Active; 'I' for Inactive)
REMARK    1  A    between atoms: C6_4  and  NAG_18 
REMARK    2  A    between atoms: CAJ_6  and  CAK_7 
REMARK    3  A    between atoms: CAM_9  and  NAH_19 
REMARK    4  A    between atoms: CAS_14  and  CAU_15 
REMARK       I    between atoms: CAS_14  and  NAQ_21 
REMARK    5  A    between atoms: CAU_15  and  CAV_16 
ROOT
ATOM      1  CAK H8Z d   1     -25.034   5.634  -7.313  0.00  0.00    -0.055 C 
ATOM      2  CAL H8Z d   1     -25.269   4.773  -8.101  0.00  0.00    -0.147 C 
ATOM      3  H2  H8Z d   1     -25.477   4.009  -8.800  0.00  0.00     0.167 H 
ENDROOT
BRANCH   1   4
ATOM      4  CAJ H8Z d   1     -24.751   6.680  -6.359  0.00  0.00     0.147 A 
ATOM      5  C5  H8Z d   1     -24.013   6.581  -5.263  0.00  0.00     0.096 A 
ATOM      6  C6  H8Z d   1     -23.329   5.588  -4.690  0.00  0.00     0.139 A 
ATOM      7  C4  H8Z d   1     -24.032   7.810  -4.744  0.00  0.00     0.165 A 
ATOM      8  N1  H8Z d   1     -22.653   5.771  -3.550  0.00  0.00    -0.224 NA
ATOM      9  C2  H8Z d   1     -22.675   7.037  -2.960  0.00  0.00     0.091 A 
ATOM     10  N3  H8Z d   1     -23.402   8.058  -3.587  0.00  0.00    -0.222 NA
ATOM     11  H1  H8Z d   1     -22.141   7.226  -2.036  0.00  0.00     0.146 H 
ATOM     12  NAH H8Z d   1     -24.844   8.557  -5.503  0.00  0.00    -0.244 N 
ATOM     13  NAI H8Z d   1     -25.209   7.919  -6.458  0.00  0.00    -0.160 NA
BRANCH   6  14
ATOM     14  NAG H8Z d   1     -23.352   4.409  -5.306  0.00  0.00    -0.383 N 
ATOM     15  H17 H8Z d   1     -23.881   4.296  -6.183  0.00  0.00     0.157 HD
ATOM     16  H18 H8Z d   1     -22.841   3.609  -4.906  0.00  0.00     0.157 HD
ENDBRANCH   6  14
BRANCH  12  17
ATOM     17  CAM H8Z d   1     -25.252   9.994  -5.520  0.00  0.00     0.052 C 
ATOM     18  CAN H8Z d   1     -26.651  10.283  -6.072  0.00  0.00    -0.041 C 
ATOM     19  CAO H8Z d   1     -26.854  11.794  -5.981  0.00  0.00    -0.048 C 
ATOM     20  H4  H8Z d   1     -27.411   9.761  -5.472  0.00  0.00     0.036 H 
ATOM     21  H5  H8Z d   1     -26.721   9.953  -7.119  0.00  0.00     0.036 H 
ATOM     22  CAP H8Z d   1     -25.842  12.574  -6.769  0.00  0.00    -0.002 C 
ATOM     23  H6  H8Z d   1     -26.782  12.094  -4.925  0.00  0.00     0.035 H 
ATOM     24  H7  H8Z d   1     -27.857  12.036  -6.363  0.00  0.00     0.035 H 
ATOM     25  NAQ H8Z d   1     -24.482  12.283  -6.282  0.00  0.00    -0.350 N 
ATOM     26  H8  H8Z d   1     -26.045  13.649  -6.657  0.00  0.00     0.064 H 
ATOM     27  H9  H8Z d   1     -25.915  12.295  -7.831  0.00  0.00     0.064 H 
ATOM     28  CAR H8Z d   1     -24.143  10.840  -6.214  0.00  0.00     0.018 C 
ATOM     29  CAS H8Z d   1     -23.614  13.303  -6.290  0.00  0.00     0.219 C 
ATOM     30  H10 H8Z d   1     -24.002  10.463  -7.238  0.00  0.00     0.067 H 
ATOM     31  H11 H8Z d   1     -23.207  10.725  -5.648  0.00  0.00     0.067 H 
ATOM     32  OAT H8Z d   1     -23.984  14.469  -6.415  0.00  0.00    -0.273 OA
ATOM     33  H3  H8Z d   1     -25.281  10.314  -4.468  0.00  0.00     0.078 H 
BRANCH  29  34
ATOM     34  CAU H8Z d   1     -22.203  13.033  -5.800  0.00  0.00     0.006 C 
ATOM     35  H12 H8Z d   1     -21.837  12.078  -6.205  0.00  0.00     0.046 H 
ATOM     36  H13 H8Z d   1     -22.184  12.997  -4.701  0.00  0.00     0.046 H 
BRANCH  34  37
ATOM     37  CAV H8Z d   1     -21.334  14.187  -6.305  0.00  0.00    -0.068 C 
ATOM     38  H14 H8Z d   1     -20.296  14.036  -5.974  0.00  0.00     0.028 H 
ATOM     39  H15 H8Z d   1     -21.714  15.137  -5.900  0.00  0.00     0.028 H 
ATOM     40  H16 H8Z d   1     -21.367  14.217  -7.404  0.00  0.00     0.028 H 
ENDBRANCH  34  37
ENDBRANCH  29  34
ENDBRANCH  12  17
ENDBRANCH   1   4
TORSDOF 5
