REMARK  8 active torsions:
REMARK  status: ('A' for Active; 'I' for Inactive)
REMARK    1  A    between atoms: C10_5  and  C13_8 
REMARK    2  A    between atoms: C13_8  and  C14_9 
REMARK    3  A    between atoms: N2_27  and  C15_10 
REMARK    4  A    between atoms: C20_16  and  C21_17 
REMARK       I    between atoms: N8_33  and  C20_16 
REMARK    5  A    between atoms: C21_17  and  C22_18 
REMARK    6  A    between atoms: C3_19  and  N4_29 
REMARK    7  A    between atoms: C5_21  and  C4_20 
REMARK    8  A    between atoms: C7_23  and  N5_30 
ROOT
ATOM      1  N   MOL d   1     -23.077   6.560  -3.100  0.00  0.00    -0.224 NA
ATOM      2  C   MOL d   1     -22.988   7.781  -2.533  0.00  0.00     0.091 A 
ATOM      3  C1  MOL d   1     -24.137   8.872  -4.266  0.00  0.00     0.164 A 
ATOM      4  C2  MOL d   1     -24.270   7.569  -4.941  0.00  0.00     0.090 A 
ATOM      5  C3  MOL d   1     -23.695   6.372  -4.288  0.00  0.00     0.139 A 
ATOM      6  C4  MOL d   1     -25.007   7.920  -6.168  0.00  0.00     0.126 A 
ATOM      7  N1  MOL d   1     -23.490   8.907  -3.076  0.00  0.00    -0.222 NA
ATOM      8  N2  MOL d   1     -24.737   9.780  -5.062  0.00  0.00    -0.244 N 
ATOM      9  N3  MOL d   1     -25.289   9.234  -6.245  0.00  0.00    -0.167 NA
ATOM     10  H1  MOL d   1     -22.480   7.861  -1.579  0.00  0.00     0.146 H 
ENDROOT
BRANCH   8  11
ATOM     11  C15 MOL d   1     -24.932  11.245  -4.934  0.00  0.00     0.052 C 
ATOM     12  C16 MOL d   1     -26.412  11.550  -4.747  0.00  0.00    -0.041 C 
ATOM     13  C17 MOL d   1     -26.637  13.054  -4.678  0.00  0.00    -0.048 C 
ATOM     14  H8  MOL d   1     -26.763  11.088  -3.813  0.00  0.00     0.036 H 
ATOM     15  H9  MOL d   1     -26.978  11.137  -5.595  0.00  0.00     0.036 H 
ATOM     16  C18 MOL d   1     -26.078  13.749  -5.914  0.00  0.00    -0.002 C 
ATOM     17  H10 MOL d   1     -26.135  13.452  -3.784  0.00  0.00     0.035 H 
ATOM     18  H11 MOL d   1     -27.717  13.253  -4.611  0.00  0.00     0.035 H 
ATOM     19  N8  MOL d   1     -24.679  13.354  -5.978  0.00  0.00    -0.350 N 
ATOM     20  H12 MOL d   1     -26.166  14.841  -5.815  0.00  0.00     0.064 H 
ATOM     21  H13 MOL d   1     -26.613  13.419  -6.817  0.00  0.00     0.064 H 
ATOM     22  C19 MOL d   1     -24.438  11.935  -6.200  0.00  0.00     0.018 C 
ATOM     23  C20 MOL d   1     -23.688  14.232  -5.854  0.00  0.00     0.219 C 
ATOM     24  H14 MOL d   1     -25.000  11.581  -7.077  0.00  0.00     0.067 H 
ATOM     25  H15 MOL d   1     -23.365  11.745  -6.350  0.00  0.00     0.067 H 
ATOM     26  O1  MOL d   1     -23.684  15.120  -5.017  0.00  0.00    -0.273 OA
ATOM     27  H7  MOL d   1     -24.367  11.616  -4.066  0.00  0.00     0.078 H 
BRANCH  23  28
ATOM     28  C21 MOL d   1     -22.531  14.074  -6.812  0.00  0.00     0.006 C 
ATOM     29  H16 MOL d   1     -22.912  14.029  -7.843  0.00  0.00     0.046 H 
ATOM     30  H17 MOL d   1     -21.988  13.146  -6.581  0.00  0.00     0.046 H 
BRANCH  28  31
ATOM     31  C22 MOL d   1     -21.595  15.253  -6.673  0.00  0.00    -0.068 C 
ATOM     32  H18 MOL d   1     -20.753  15.137  -7.371  0.00  0.00     0.028 H 
ATOM     33  H19 MOL d   1     -21.213  15.299  -5.642  0.00  0.00     0.028 H 
ATOM     34  H20 MOL d   1     -22.138  16.181  -6.904  0.00  0.00     0.028 H 
ENDBRANCH  28  31
ENDBRANCH  23  28
ENDBRANCH   8  11
BRANCH   6  35
ATOM     35  C5  MOL d   1     -25.399   6.936  -7.214  0.00  0.00     0.123 A 
ATOM     36  C6  MOL d   1     -26.374   7.223  -8.151  0.00  0.00     0.032 A 
ATOM     37  N5  MOL d   1     -26.361   6.092  -8.853  0.00  0.00    -0.247 N 
ATOM     38  H21 MOL d   1     -26.980   8.119  -8.278  0.00  0.00     0.118 H 
ATOM     39  N6  MOL d   1     -25.450   5.119  -8.418  0.00  0.00     0.010 NA
ATOM     40  N7  MOL d   1     -24.812   5.722  -7.316  0.00  0.00    -0.156 NA
BRANCH  37  41
ATOM     41  C7  MOL d   1     -27.179   5.900  -9.890  0.00  0.00     0.054 A 
ATOM     42  C12 MOL d   1     -27.649   4.638 -10.251  0.00  0.00    -0.055 A 
ATOM     43  C11 MOL d   1     -28.502   4.426 -11.327  0.00  0.00    -0.067 A 
ATOM     44  H3  MOL d   1     -27.334   3.782  -9.665  0.00  0.00     0.087 H 
ATOM     45  C10 MOL d   1     -28.917   5.501 -12.094  0.00  0.00     0.009 A 
ATOM     46  H2  MOL d   1     -28.841   3.424 -11.565  0.00  0.00     0.085 H 
ATOM     47  C9  MOL d   1     -28.473   6.772 -11.771  0.00  0.00    -0.067 A 
ATOM     48  C8  MOL d   1     -27.620   6.953 -10.690  0.00  0.00    -0.055 A 
ATOM     49  H23 MOL d   1     -28.791   7.624 -12.361  0.00  0.00     0.085 H 
ATOM     50  H22 MOL d   1     -27.282   7.957 -10.458  0.00  0.00     0.087 H 
BRANCH  45  51
ATOM     51  C13 MOL d   1     -29.838   5.305 -13.259  0.00  0.00     0.155 C 
ATOM     52  O   MOL d   1     -30.165   4.175 -13.583  0.00  0.00    -0.293 OA
BRANCH  51  53
ATOM     53  C14 MOL d   1     -30.333   6.522 -13.982  0.00  0.00    -0.017 C 
ATOM     54  H4  MOL d   1     -29.908   7.423 -13.516  0.00  0.00     0.038 H 
ATOM     55  H5  MOL d   1     -31.431   6.562 -13.924  0.00  0.00     0.038 H 
ATOM     56  H6  MOL d   1     -30.023   6.473 -15.036  0.00  0.00     0.038 H 
ENDBRANCH  51  53
ENDBRANCH  45  51
ENDBRANCH  37  41
ENDBRANCH   6  35
BRANCH   5  57
ATOM     57  N4  MOL d   1     -23.785   5.145  -4.857  0.00  0.00    -0.383 N 
ATOM     58  H24 MOL d   1     -24.262   5.031  -5.763  0.00  0.00     0.157 HD
ATOM     59  H25 MOL d   1     -23.377   4.327  -4.383  0.00  0.00     0.157 HD
ENDBRANCH   5  57
TORSDOF 8
