REMARK  12 active torsions:
REMARK  status: ('A' for Active; 'I' for Inactive)
REMARK    1  A    between atoms: C1_1  and  C2_2 
REMARK    2  A    between atoms: C2_2  and  C3_3 
REMARK    3  A    between atoms: C2_2  and  N1_12 
REMARK    4  A    between atoms: C3_3  and  C4_4 
REMARK    5  A    between atoms: C7_7  and  O1_10 
REMARK    6  A    between atoms: O1_10  and  C10_11 
REMARK    7  A    between atoms: N1_12  and  C11_13 
REMARK    8  A    between atoms: C11_13  and  C12_14 
REMARK    9  A    between atoms: C12_14  and  C13_15 
REMARK   10  A    between atoms: C12_14  and  O4_25 
REMARK   11  A    between atoms: C15_17  and  N2_22 
REMARK   12  A    between atoms: C16_18  and  O2_21 
REMARK       I    between atoms: N2_22  and  C19_23 
ROOT
ATOM      1  N1  H98 d   1     -41.438  28.231 -11.118  0.00  0.00    -0.068 N 
ATOM      2  H14 H98 d   1     -41.170  27.278 -10.926  0.00  0.00     0.277 HD
ATOM      3  H15 H98 d   1     -40.796  28.859 -10.660  0.00  0.00     0.277 HD
ENDROOT
BRANCH   1   4
ATOM      4  C2  H98 d   1     -42.788  28.454 -10.548  0.00  0.00     0.102 C 
ATOM      5  H4  H98 d   1     -43.493  27.819 -11.104  0.00  0.00     0.084 H 
BRANCH   4   6
ATOM      6  C1  H98 d   1     -43.249  29.913 -10.728  0.00  0.00    -0.049 C 
ATOM      7  H1  H98 d   1     -44.252  30.037 -10.293  0.00  0.00     0.030 H 
ATOM      8  H2  H98 d   1     -43.281  30.158 -11.800  0.00  0.00     0.030 H 
ATOM      9  H3  H98 d   1     -42.543  30.586 -10.219  0.00  0.00     0.030 H 
ENDBRANCH   4   6
BRANCH   4  10
ATOM     10  C3  H98 d   1     -42.825  28.007  -9.071  0.00  0.00    -0.015 C 
ATOM     11  H5  H98 d   1     -42.703  28.897  -8.436  0.00  0.00     0.043 H 
ATOM     12  H6  H98 d   1     -41.988  27.315  -8.897  0.00  0.00     0.043 H 
BRANCH  10  13
ATOM     13  C4  H98 d   1     -44.110  27.310  -8.675  0.00  0.00    -0.056 A 
ATOM     14  C5  H98 d   1     -44.307  25.961  -8.961  0.00  0.00    -0.074 A 
ATOM     15  C6  H98 d   1     -45.476  25.306  -8.605  0.00  0.00    -0.050 A 
ATOM     16  H7  H98 d   1     -43.527  25.410  -9.474  0.00  0.00     0.084 H 
ATOM     17  C7  H98 d   1     -46.485  26.008  -7.948  0.00  0.00     0.068 A 
ATOM     18  H8  H98 d   1     -45.604  24.255  -8.836  0.00  0.00     0.087 H 
ATOM     19  C8  H98 d   1     -46.299  27.356  -7.643  0.00  0.00    -0.050 A 
ATOM     20  C9  H98 d   1     -45.122  27.994  -8.012  0.00  0.00    -0.074 A 
ATOM     21  H9  H98 d   1     -47.072  27.905  -7.118  0.00  0.00     0.087 H 
ATOM     22  H10 H98 d   1     -44.990  29.044  -7.779  0.00  0.00     0.084 H 
BRANCH  17  23
ATOM     23  O1  H98 d   1     -47.671  25.413  -7.591  0.00  0.00    -0.356 OA
BRANCH  23  24
ATOM     24  C10 H98 d   1     -48.353  24.563  -8.519  0.00  0.00     0.010 C 
ATOM     25  H11 H98 d   1     -49.276  24.182  -8.057  0.00  0.00     0.066 H 
ATOM     26  H12 H98 d   1     -47.702  23.718  -8.789  0.00  0.00     0.066 H 
ATOM     27  H13 H98 d   1     -48.605  25.136  -9.424  0.00  0.00     0.066 H 
ENDBRANCH  23  24
ENDBRANCH  17  23
ENDBRANCH  10  13
ENDBRANCH   4  10
ENDBRANCH   1   4
BRANCH   1  28
ATOM     28  C11 H98 d   1     -41.338  28.451 -12.565  0.00  0.00     0.109 C 
ATOM     29  H16 H98 d   1     -41.191  29.526 -12.745  0.00  0.00     0.080 H 
ATOM     30  H17 H98 d   1     -42.279  28.126 -13.033  0.00  0.00     0.080 H 
BRANCH  28  31
ATOM     31  C12 H98 d   1     -40.185  27.688 -13.214  0.00  0.00     0.084 C 
ATOM     32  H18 H98 d   1     -40.381  26.609 -13.133  0.00  0.00     0.093 H 
BRANCH  31  33
ATOM     33  C13 H98 d   1     -40.134  28.038 -14.698  0.00  0.00    -0.026 A 
ATOM     34  C14 H98 d   1     -41.177  27.658 -15.543  0.00  0.00    -0.046 A 
ATOM     35  C15 H98 d   1     -41.141  27.962 -16.902  0.00  0.00     0.068 A 
ATOM     36  H19 H98 d   1     -42.026  27.120 -15.137  0.00  0.00     0.088 H 
ATOM     37  C16 H98 d   1     -40.041  28.642 -17.438  0.00  0.00     0.092 A 
ATOM     38  C17 H98 d   1     -39.004  29.029 -16.592  0.00  0.00    -0.048 A 
ATOM     39  C18 H98 d   1     -39.059  28.729 -15.245  0.00  0.00    -0.072 A 
ATOM     40  H20 H98 d   1     -38.152  29.567 -16.992  0.00  0.00     0.087 H 
ATOM     41  H21 H98 d   1     -38.245  29.040 -14.600  0.00  0.00     0.084 H 
BRANCH  35  42
ATOM     42  N2  H98 d   1     -42.166  27.617 -17.811  0.00  0.00    -0.332 N 
ATOM     43  C19 H98 d   1     -43.233  26.846 -17.611  0.00  0.00     0.173 C 
ATOM     44  O3  H98 d   1     -44.289  26.945 -18.218  0.00  0.00    -0.283 OA
ATOM     45  H24 H98 d   1     -43.159  26.070 -16.851  0.00  0.00     0.180 H 
ATOM     46  H23 H98 d   1     -42.078  28.004 -18.729  0.00  0.00     0.168 HD
ENDBRANCH  35  42
BRANCH  37  47
ATOM     47  O2  H98 d   1     -40.039  28.915 -18.763  0.00  0.00    -0.358 OA
ATOM     48  H22 H98 d   1     -39.279  28.512 -19.167  0.00  0.00     0.217 HD
ENDBRANCH  37  47
ENDBRANCH  31  33
BRANCH  31  49
ATOM     49  O4  H98 d   1     -38.995  27.967 -12.487  0.00  0.00    -0.389 OA
ATOM     50  H25 H98 d   1     -38.803  28.896 -12.541  0.00  0.00     0.210 HD
ENDBRANCH  31  49
ENDBRANCH  28  31
ENDBRANCH   1  28
TORSDOF 12
