REMARK  5 active torsions:
REMARK  status: ('A' for Active; 'I' for Inactive)
REMARK    1  A    between atoms: C01_1  and  C14_10 
REMARK    2  A    between atoms: B06_12  and  O08_5 
REMARK    3  A    between atoms: B06_12  and  O09_6 
REMARK    4  A    between atoms: C05_11  and  B06_12 
REMARK    5  A    between atoms: B06_12  and  O07_13 
ROOT
ATOM      1  C01 H9E d   1      -7.517   0.171 -17.798  0.00  0.00    -0.047 A 
ATOM      2  C02 H9E d   1      -7.193   0.784 -16.446  0.00  0.00    -0.065 A 
ATOM      3  C03 H9E d   1      -8.091   1.898 -15.859  0.00  0.00    -0.019 A 
ATOM      4  C04 H9E d   1      -8.019   2.731 -14.485  0.00  0.00    -0.071 A 
ATOM      5  C11 H9E d   1      -9.259   2.370 -16.602  0.00  0.00     0.014 A 
ATOM      6  C12 H9E d   1      -9.596   1.750 -17.981  0.00  0.00    -0.065 A 
ATOM      7  C13 H9E d   1      -8.722   0.656 -18.568  0.00  0.00    -0.075 A 
ATOM      8  C05 H9E d   1      -9.133   3.672 -14.438  0.00  0.00    -0.078 A 
ATOM      9  S10 H9E d   1      -9.950   3.486 -15.752  0.00  0.00    -0.108 SA
ATOM     10  H1  H9E d   1      -6.329   0.439 -15.890  0.00  0.00     0.085 H 
ATOM     11  H2  H9E d   1      -7.260   2.612 -13.713  0.00  0.00     0.084 H 
ATOM     12  H7  H9E d   1     -10.462   2.100 -18.531  0.00  0.00     0.085 H 
ATOM     13  H8  H9E d   1      -8.961   0.226 -19.534  0.00  0.00     0.084 H 
ENDROOT
BRANCH   8  14
ATOM     14  B06 H9E d   1      -9.469   4.745 -13.208  0.00  0.00     0.144 B 
BRANCH  14  15
ATOM     15  O08 H9E d   1     -11.119   4.855 -13.002  0.00  0.00     0.000 OA
ATOM     16  H3  H9E d   1     -11.467   3.999 -12.780  0.00  0.00     0.000 HD
ATOM     17  H4  H9E d   1     -11.467   3.999 -12.780  0.00  0.00     0.000 HD
ENDBRANCH  14  15
BRANCH  14  18
ATOM     18  O09 H9E d   1      -8.768   4.208 -11.796  0.00  0.00     0.000 OA
ATOM     19  H5  H9E d   1      -9.118   3.353 -11.575  0.00  0.00     0.000 HD
ATOM     20  H6  H9E d   1      -9.118   3.353 -11.575  0.00  0.00     0.000 HD
ENDBRANCH  14  18
BRANCH  14  21
ATOM     21  O07 H9E d   1      -8.856   6.245 -13.597  0.00  0.00     0.000 OA
ATOM     22  H12 H9E d   1      -9.048   6.856 -12.895  0.00  0.00     0.000 HD
ATOM     23  H13 H9E d   1      -9.048   6.856 -12.895  0.00  0.00     0.000 HD
ENDBRANCH  14  21
ENDBRANCH   8  14
BRANCH   1  24
ATOM     24  C14 H9E d   1      -6.628  -0.929 -18.375  0.00  0.00     0.010 C 
ATOM     25 BR   H9E d   1      -6.215  -1.827 -17.311  0.00  0.00    -0.091 Br
ATOM     26  H9  H9E d   1      -5.739  -0.476 -18.838  0.00  0.00     0.057 H 
ATOM     27  H10 H9E d   1      -7.189  -1.494 -19.134  0.00  0.00     0.057 H 
ENDBRANCH   1  24
TORSDOF 5
