REMARK  7 active torsions:
REMARK  status: ('A' for Active; 'I' for Inactive)
REMARK    1  A    between atoms: NBG_4  and  CBK_5 
REMARK    2  A    between atoms: CBE_7  and  NBD_8 
REMARK       I    between atoms: NBD_8  and  CBB_9 
REMARK    3  A    between atoms: CBB_9  and  CAW_11 
REMARK    4  A    between atoms: CAV_16  and  NAQ_17 
REMARK    5  A    between atoms: NAQ_17  and  CAA_18 
REMARK    6  A    between atoms: CAC_27  and  CAG_28 
REMARK    7  A    between atoms: NAT_31  and  CAU_32 
ROOT
ATOM      1  NAQ H9Z d   1      90.124  47.763 265.956  0.00  0.00    -0.354 N 
ATOM      2  H18 H9Z d   1      89.403  48.106 266.607  0.00  0.00     0.166 HD
ENDROOT
BRANCH   1   3
ATOM      3  CAV H9Z d   1      89.735  47.124 264.832  0.00  0.00     0.066 A 
ATOM      4  CAW H9Z d   1      88.413  46.648 264.789  0.00  0.00     0.061 A 
ATOM      5  CAX H9Z d   1      87.982  46.026 263.621  0.00  0.00    -0.049 A 
ATOM      6  CAY H9Z d   1      88.810  45.862 262.520  0.00  0.00     0.003 A 
ATOM      7  H15 H9Z d   1      86.964  45.657 263.570  0.00  0.00     0.087 H 
ATOM      8  NAZ H9Z d   1      90.122  46.320 262.572  0.00  0.00    -0.271 NA
ATOM      9  H16 H9Z d   1      88.436  45.380 261.624  0.00  0.00     0.114 H 
ATOM     10  CBA H9Z d   1      90.569  46.952 263.730  0.00  0.00     0.028 A 
ATOM     11  H17 H9Z d   1      91.588  47.318 263.774  0.00  0.00     0.118 H 
BRANCH   4  12
ATOM     12  CBB H9Z d   1      87.554  46.751 265.903  0.00  0.00     0.254 C 
ATOM     13  NBD H9Z d   1      86.584  45.830 266.062  0.00  0.00    -0.351 N 
ATOM     14  H14 H9Z d   1      86.446  45.100 265.392  0.00  0.00     0.163 HD
ATOM     15  OBC H9Z d   1      87.795  47.540 266.810  0.00  0.00    -0.268 OA
BRANCH  13  16
ATOM     16  CBE H9Z d   1      85.732  45.940 267.264  0.00  0.00     0.036 C 
ATOM     17  CBJ H9Z d   1      84.429  46.621 266.937  0.00  0.00    -0.043 C 
ATOM     18  CBI H9Z d   1      83.495  45.705 266.157  0.00  0.00    -0.041 C 
ATOM     19  H1  H9Z d   1      83.936  46.917 267.875  0.00  0.00     0.036 H 
ATOM     20  H2  H9Z d   1      84.637  47.517 266.333  0.00  0.00     0.036 H 
ATOM     21  CBH H9Z d   1      83.276  44.437 266.919  0.00  0.00     0.083 C 
ATOM     22  H3  H9Z d   1      83.944  45.471 265.180  0.00  0.00     0.035 H 
ATOM     23  H4  H9Z d   1      82.530  46.211 266.005  0.00  0.00     0.035 H 
ATOM     24  NBG H9Z d   1      84.544  43.762 267.212  0.00  0.00    -0.073 N 
ATOM     25  H5  H9Z d   1      82.643  43.765 266.321  0.00  0.00     0.075 H 
ATOM     26  H6  H9Z d   1      82.769  44.672 267.866  0.00  0.00     0.075 H 
ATOM     27  CBF H9Z d   1      85.515  44.604 267.892  0.00  0.00     0.101 C 
ATOM     28  H7  H9Z d   1      84.936  43.445 266.339  0.00  0.00     0.279 HD
ATOM     29  H11 H9Z d   1      86.478  44.072 267.907  0.00  0.00     0.079 H 
ATOM     30  H12 H9Z d   1      85.168  44.763 268.923  0.00  0.00     0.079 H 
ATOM     31  H13 H9Z d   1      86.262  46.569 267.995  0.00  0.00     0.075 H 
BRANCH  24  32
ATOM     32  CBK H9Z d   1      84.339  42.618 268.106  0.00  0.00     0.066 C 
ATOM     33  H8  H9Z d   1      85.305  42.133 268.308  0.00  0.00     0.068 H 
ATOM     34  H9  H9Z d   1      83.659  41.897 267.629  0.00  0.00     0.068 H 
ATOM     35  H10 H9Z d   1      83.899  42.966 269.052  0.00  0.00     0.068 H 
ENDBRANCH  24  32
ENDBRANCH  13  16
ENDBRANCH   4  12
ENDBRANCH   1   3
BRANCH   1  36
ATOM     36  CAA H9Z d   1      91.425  47.969 266.257  0.00  0.00     0.035 A 
ATOM     37  CAB H9Z d   1      91.757  49.181 266.857  0.00  0.00    -0.044 A 
ATOM     38  CAC H9Z d   1      93.055  49.464 267.261  0.00  0.00     0.007 A 
ATOM     39  H19 H9Z d   1      90.982  49.923 267.013  0.00  0.00     0.088 H 
ATOM     40  CAD H9Z d   1      94.052  48.514 267.069  0.00  0.00     0.096 A 
ATOM     41  CAE H9Z d   1      93.725  47.272 266.511  0.00  0.00     0.088 A 
ATOM     42  NAP H9Z d   1      95.317  48.777 267.484  0.00  0.00    -0.256 NA
ATOM     43  CAF H9Z d   1      92.429  46.993 266.098  0.00  0.00    -0.027 A 
ATOM     44  NAM H9Z d   1      94.709  46.349 266.339  0.00  0.00    -0.257 NA
ATOM     45  H20 H9Z d   1      92.191  46.032 265.657  0.00  0.00     0.090 H 
ATOM     46  CAN H9Z d   1      96.028  46.627 266.728  0.00  0.00     0.020 A 
ATOM     47  CAO H9Z d   1      96.324  47.847 267.330  0.00  0.00     0.020 A 
ATOM     48  H21 H9Z d   1      96.811  45.897 266.561  0.00  0.00     0.117 H 
ATOM     49  H22 H9Z d   1      97.330  48.063 267.672  0.00  0.00     0.117 H 
BRANCH  38  50
ATOM     50  CAG H9Z d   1      93.320  50.704 267.883  0.00  0.00    -0.021 A 
ATOM     51  CAH H9Z d   1      92.585  51.093 268.995  0.00  0.00    -0.045 A 
ATOM     52  CAI H9Z d   1      92.799  52.269 269.584  0.00  0.00     0.045 A 
ATOM     53  H23 H9Z d   1      91.825  50.429 269.390  0.00  0.00     0.088 H 
ATOM     54  NAT H9Z d   1      92.212  52.851 270.623  0.00  0.00    -0.360 N 
ATOM     55  CAJ H9Z d   1      93.749  53.111 269.144  0.00  0.00    -0.008 A 
ATOM     56  CAS H9Z d   1      92.797  54.039 270.848  0.00  0.00    -0.020 A 
ATOM     57  CAR H9Z d   1      93.744  54.223 269.926  0.00  0.00    -0.056 A 
ATOM     58  H27 H9Z d   1      92.542  54.734 271.647  0.00  0.00     0.111 H 
ATOM     59  H28 H9Z d   1      94.388  55.095 269.820  0.00  0.00     0.086 H 
ATOM     60  CAK H9Z d   1      94.491  52.778 268.082  0.00  0.00    -0.070 A 
ATOM     61  CAL H9Z d   1      94.309  51.561 267.440  0.00  0.00    -0.071 A 
ATOM     62  H29 H9Z d   1      95.244  53.468 267.718  0.00  0.00     0.084 H 
ATOM     63  H30 H9Z d   1      94.936  51.286 266.600  0.00  0.00     0.084 H 
BRANCH  54  64
ATOM     64  CAU H9Z d   1      91.159  52.288 271.462  0.00  0.00    -0.014 C 
ATOM     65  H24 H9Z d   1      90.882  53.015 272.240  0.00  0.00     0.057 H 
ATOM     66  H25 H9Z d   1      91.522  51.364 271.936  0.00  0.00     0.057 H 
ATOM     67  H26 H9Z d   1      90.279  52.061 270.843  0.00  0.00     0.057 H 
ENDBRANCH  54  64
ENDBRANCH  38  50
ENDBRANCH   1  36
TORSDOF 7
