REMARK  7 active torsions:
REMARK  status: ('A' for Active; 'I' for Inactive)
REMARK    1  A    between atoms: NBH_3  and  CBJ_4 
REMARK    2  A    between atoms: CBE_6  and  NBD_7 
REMARK       I    between atoms: NBD_7  and  CBB_8 
REMARK    3  A    between atoms: CBB_8  and  CAW_10 
REMARK    4  A    between atoms: CAV_15  and  NAQ_16 
REMARK    5  A    between atoms: NAQ_16  and  CAA_17 
REMARK    6  A    between atoms: CAC_26  and  CAG_27 
REMARK    7  A    between atoms: NAT_30  and  CAU_31 
ROOT
ATOM      1  CAA HAT d   1     142.321 -40.995 265.487  0.00  0.00     0.035 A 
ATOM      2  CAB HAT d   1     142.594 -39.779 266.143  0.00  0.00    -0.044 A 
ATOM      3  CAF HAT d   1     143.374 -41.894 265.310  0.00  0.00    -0.027 A 
ATOM      4  CAE HAT d   1     144.657 -41.530 265.715  0.00  0.00     0.088 A 
ATOM      5  NAM HAT d   1     145.666 -42.394 265.505  0.00  0.00    -0.257 NA
ATOM      6  CAN HAT d   1     146.987 -42.126 265.858  0.00  0.00     0.020 A 
ATOM      7  CAO HAT d   1     147.252 -40.935 266.501  0.00  0.00     0.020 A 
ATOM      8  NAP HAT d   1     146.196 -40.046 266.729  0.00  0.00    -0.256 NA
ATOM      9  CAD HAT d   1     144.927 -40.319 266.341  0.00  0.00     0.096 A 
ATOM     10  CAC HAT d   1     143.886 -39.404 266.585  0.00  0.00     0.007 A 
ATOM     11  H17 HAT d   1     141.772 -39.094 266.319  0.00  0.00     0.088 H 
ATOM     12  H18 HAT d   1     143.196 -42.865 264.862  0.00  0.00     0.090 H 
ATOM     13  H19 HAT d   1     147.780 -42.830 265.635  0.00  0.00     0.117 H 
ATOM     14  H20 HAT d   1     148.258 -40.693 266.823  0.00  0.00     0.117 H 
ENDROOT
BRANCH   1  15
ATOM     15  NAQ HAT d   1     141.035 -41.286 265.185  0.00  0.00    -0.354 N 
ATOM     16  H16 HAT d   1     140.328 -41.114 265.914  0.00  0.00     0.166 HD
BRANCH  15  17
ATOM     17  CAV HAT d   1     140.601 -41.784 264.007  0.00  0.00     0.066 A 
ATOM     18  CAW HAT d   1     139.233 -42.060 263.922  0.00  0.00     0.061 A 
ATOM     19  CAX HAT d   1     138.788 -42.537 262.694  0.00  0.00    -0.049 A 
ATOM     20  CAY HAT d   1     139.626 -42.731 261.594  0.00  0.00     0.003 A 
ATOM     21  H13 HAT d   1     137.735 -42.771 262.585  0.00  0.00     0.087 H 
ATOM     22  NAZ HAT d   1     140.971 -42.451 261.697  0.00  0.00    -0.271 NA
ATOM     23  H14 HAT d   1     139.219 -43.102 260.660  0.00  0.00     0.114 H 
ATOM     24  CBA HAT d   1     141.434 -41.974 262.897  0.00  0.00     0.028 A 
ATOM     25  H15 HAT d   1     142.487 -41.734 262.990  0.00  0.00     0.118 H 
BRANCH  18  26
ATOM     26  CBB HAT d   1     138.324 -41.882 265.010  0.00  0.00     0.254 C 
ATOM     27  NBD HAT d   1     137.203 -42.618 265.033  0.00  0.00    -0.351 N 
ATOM     28  H12 HAT d   1     137.041 -43.260 264.283  0.00  0.00     0.163 HD
ATOM     29  OBC HAT d   1     138.580 -41.155 265.956  0.00  0.00    -0.268 OA
BRANCH  27  30
ATOM     30  CBE HAT d   1     136.216 -42.530 266.089  0.00  0.00     0.037 C 
ATOM     31  CBF HAT d   1     134.809 -42.650 265.488  0.00  0.00    -0.022 C 
ATOM     32  CBG HAT d   1     134.266 -43.993 265.960  0.00  0.00     0.085 C 
ATOM     33  H1  HAT d   1     134.169 -41.831 265.847  0.00  0.00     0.038 H 
ATOM     34  H2  HAT d   1     134.859 -42.622 264.389  0.00  0.00     0.038 H 
ATOM     35  NBH HAT d   1     135.479 -44.730 266.309  0.00  0.00    -0.073 N 
ATOM     36  H3  HAT d   1     133.712 -44.500 265.157  0.00  0.00     0.076 H 
ATOM     37  H4  HAT d   1     133.612 -43.870 266.836  0.00  0.00     0.076 H 
ATOM     38  CBI HAT d   1     136.344 -43.730 266.969  0.00  0.00     0.102 C 
ATOM     39  H5  HAT d   1     135.928 -45.024 265.456  0.00  0.00     0.279 HD
ATOM     40  H9  HAT d   1     137.387 -44.078 267.012  0.00  0.00     0.079 H 
ATOM     41  H10 HAT d   1     135.988 -43.512 267.987  0.00  0.00     0.079 H 
ATOM     42  H11 HAT d   1     136.336 -41.595 266.656  0.00  0.00     0.075 H 
BRANCH  35  43
ATOM     43  CBJ HAT d   1     135.244 -45.961 267.105  0.00  0.00     0.066 C 
ATOM     44  H6  HAT d   1     136.207 -46.448 267.320  0.00  0.00     0.068 H 
ATOM     45  H7  HAT d   1     134.604 -46.650 266.534  0.00  0.00     0.068 H 
ATOM     46  H8  HAT d   1     134.747 -45.697 268.050  0.00  0.00     0.068 H 
ENDBRANCH  35  43
ENDBRANCH  27  30
ENDBRANCH  18  26
ENDBRANCH  15  17
ENDBRANCH   1  15
BRANCH  10  47
ATOM     47  CAG HAT d   1     144.109 -38.121 267.203  0.00  0.00    -0.021 A 
ATOM     48  CAH HAT d   1     143.447 -37.687 268.356  0.00  0.00    -0.045 A 
ATOM     49  CAI HAT d   1     143.688 -36.477 268.859  0.00  0.00     0.045 A 
ATOM     50  H21 HAT d   1     142.732 -38.340 268.844  0.00  0.00     0.088 H 
ATOM     51  NAT HAT d   1     143.184 -35.844 269.907  0.00  0.00    -0.360 N 
ATOM     52  CAJ HAT d   1     144.578 -35.636 268.293  0.00  0.00    -0.008 A 
ATOM     53  CAS HAT d   1     143.728 -34.642 270.016  0.00  0.00    -0.020 A 
ATOM     54  CAR HAT d   1     144.614 -34.509 269.026  0.00  0.00    -0.056 A 
ATOM     55  H25 HAT d   1     143.495 -33.897 270.775  0.00  0.00     0.111 H 
ATOM     56  H26 HAT d   1     145.251 -33.644 268.845  0.00  0.00     0.086 H 
ATOM     57  CAK HAT d   1     145.269 -35.992 267.211  0.00  0.00    -0.070 A 
ATOM     58  CAL HAT d   1     145.030 -37.230 266.648  0.00  0.00    -0.071 A 
ATOM     59  H27 HAT d   1     146.005 -35.322 266.781  0.00  0.00     0.084 H 
ATOM     60  H28 HAT d   1     145.571 -37.517 265.753  0.00  0.00     0.084 H 
BRANCH  51  61
ATOM     61  CAU HAT d   1     142.166 -36.327 270.802  0.00  0.00    -0.014 C 
ATOM     62  H22 HAT d   1     141.964 -35.568 271.572  0.00  0.00     0.057 H 
ATOM     63  H23 HAT d   1     142.510 -37.254 271.283  0.00  0.00     0.057 H 
ATOM     64  H24 HAT d   1     141.245 -36.528 270.235  0.00  0.00     0.057 H 
ENDBRANCH  51  61
ENDBRANCH  10  47
TORSDOF 7
