REMARK  8 active torsions:
REMARK  status: ('A' for Active; 'I' for Inactive)
REMARK    1  A    between atoms: NAT_3  and  CAU_4 
REMARK    2  A    between atoms: CAG_10  and  CAC_11 
REMARK    3  A    between atoms: CAA_20  and  NAQ_21 
REMARK    4  A    between atoms: NAQ_21  and  CAV_22 
REMARK    5  A    between atoms: CAW_27  and  SBB_28 
REMARK    6  A    between atoms: SBB_28  and  NBE_31 
REMARK    7  A    between atoms: NBE_31  and  CBF_32 
REMARK    8  A    between atoms: CBF_32  and  CBG_33 
ROOT
ATOM      1  CAC HAW d   1      93.144  49.566 266.659  0.00  0.00     0.007 A 
ATOM      2  CAB HAW d   1      91.832  49.282 266.268  0.00  0.00    -0.044 A 
ATOM      3  CAD HAW d   1      94.133  48.622 266.454  0.00  0.00     0.096 A 
ATOM      4  NAP HAW d   1      95.401  48.888 266.848  0.00  0.00    -0.256 NA
ATOM      5  CAO HAW d   1      96.428  47.965 266.660  0.00  0.00     0.020 A 
ATOM      6  CAN HAW d   1      96.109  46.757 266.059  0.00  0.00     0.020 A 
ATOM      7  NAM HAW d   1      94.785  46.502 265.671  0.00  0.00    -0.257 NA
ATOM      8  CAE HAW d   1      93.803  47.402 265.865  0.00  0.00     0.088 A 
ATOM      9  CAF HAW d   1      92.486  47.117 265.457  0.00  0.00    -0.027 A 
ATOM     10  CAA HAW d   1      91.472  48.073 265.651  0.00  0.00     0.035 A 
ATOM     11  H9  HAW d   1      91.063  50.024 266.448  0.00  0.00     0.088 H 
ATOM     12  H10 HAW d   1      97.442  48.184 266.973  0.00  0.00     0.117 H 
ATOM     13  H11 HAW d   1      96.879  46.013 265.890  0.00  0.00     0.117 H 
ATOM     14  H12 HAW d   1      92.254  46.164 264.995  0.00  0.00     0.090 H 
ENDROOT
BRANCH  10  15
ATOM     15  NAQ HAW d   1      90.153  47.890 265.355  0.00  0.00    -0.355 N 
ATOM     16  H13 HAW d   1      89.452  48.306 265.985  0.00  0.00     0.166 HD
BRANCH  15  17
ATOM     17  CAV HAW d   1      89.718  47.203 264.297  0.00  0.00     0.056 A 
ATOM     18  CBA HAW d   1      90.432  47.171 263.103  0.00  0.00    -0.056 A 
ATOM     19  CAZ HAW d   1      89.952  46.471 262.005  0.00  0.00    -0.081 A 
ATOM     20  H14 HAW d   1      91.376  47.700 263.030  0.00  0.00     0.087 H 
ATOM     21  CAY HAW d   1      88.756  45.800 262.103  0.00  0.00    -0.081 A 
ATOM     22  H15 HAW d   1      90.515  46.453 261.079  0.00  0.00     0.083 H 
ATOM     23  CAX HAW d   1      88.046  45.837 263.289  0.00  0.00    -0.058 A 
ATOM     24  H16 HAW d   1      88.372  45.245 261.255  0.00  0.00     0.083 H 
ATOM     25  CAW HAW d   1      88.499  46.530 264.393  0.00  0.00     0.106 A 
ATOM     26  H17 HAW d   1      87.104  45.305 263.354  0.00  0.00     0.086 H 
BRANCH  25  27
ATOM     27  SBB HAW d   1      87.462  46.436 265.830  0.00  0.00     0.261 S 
ATOM     28  OBC HAW d   1      86.025  46.318 265.393  0.00  0.00    -0.200 OA
ATOM     29  OBD HAW d   1      87.553  47.725 266.620  0.00  0.00    -0.200 OA
BRANCH  27  30
ATOM     30  NBE HAW d   1      87.919  45.121 266.773  0.00  0.00    -0.311 N 
ATOM     31  H18 HAW d   1      87.299  44.379 267.028  0.00  0.00     0.172 HD
BRANCH  30  32
ATOM     32  CBF HAW d   1      89.347  45.184 267.186  0.00  0.00     0.029 C 
ATOM     33  H19 HAW d   1      89.547  46.193 267.577  0.00  0.00     0.072 H 
ATOM     34  H20 HAW d   1      89.969  45.005 266.297  0.00  0.00     0.072 H 
BRANCH  32  35
ATOM     35  CBG HAW d   1      89.719  44.236 268.188  0.00  0.00    -0.005 A 
ATOM     36  CBH HAW d   1      91.054  43.842 268.320  0.00  0.00     0.013 A 
ATOM     37  NBI HAW d   1      91.467  42.901 269.297  0.00  0.00    -0.254 NA
ATOM     38  H21 HAW d   1      91.796  44.269 267.655  0.00  0.00     0.115 H 
ATOM     39  CBJ HAW d   1      90.539  42.332 270.171  0.00  0.00     0.085 A 
ATOM     40  NBK HAW d   1      89.195  42.725 270.052  0.00  0.00    -0.254 NA
ATOM     41  H22 HAW d   1      90.846  41.609 270.918  0.00  0.00     0.146 H 
ATOM     42  CBL HAW d   1      88.791  43.667 269.074  0.00  0.00     0.013 A 
ATOM     43  H23 HAW d   1      87.748  43.953 269.009  0.00  0.00     0.115 H 
ENDBRANCH  32  35
ENDBRANCH  30  32
ENDBRANCH  27  30
ENDBRANCH  25  27
ENDBRANCH  15  17
ENDBRANCH  10  15
BRANCH   1  44
ATOM     44  CAG HAW d   1      93.446  50.803 267.266  0.00  0.00    -0.021 A 
ATOM     45  CAH HAW d   1      92.752  51.202 268.401  0.00  0.00    -0.045 A 
ATOM     46  CAI HAW d   1      93.026  52.370 268.976  0.00  0.00     0.045 A 
ATOM     47  H1  HAW d   1      91.985  50.560 268.819  0.00  0.00     0.088 H 
ATOM     48  NAT HAW d   1      92.515  52.952 270.057  0.00  0.00    -0.360 N 
ATOM     49  CAJ HAW d   1      93.962  53.190 268.493  0.00  0.00    -0.008 A 
ATOM     50  CAS HAW d   1      93.108  54.129 270.242  0.00  0.00    -0.020 A 
ATOM     51  CAR HAW d   1      94.005  54.271 269.284  0.00  0.00    -0.056 A 
ATOM     52  H5  HAW d   1      92.893  54.843 271.036  0.00  0.00     0.111 H 
ATOM     53  H6  HAW d   1      94.669  55.124 269.158  0.00  0.00     0.086 H 
ATOM     54  CAK HAW d   1      94.680  52.861 267.410  0.00  0.00    -0.070 A 
ATOM     55  CAL HAW d   1      94.436  51.659 266.770  0.00  0.00    -0.071 A 
ATOM     56  H7  HAW d   1      95.446  53.532 267.038  0.00  0.00     0.084 H 
ATOM     57  H8  HAW d   1      95.007  51.382 265.891  0.00  0.00     0.084 H 
BRANCH  48  58
ATOM     58  CAU HAW d   1      91.437  52.391 270.893  0.00  0.00    -0.014 C 
ATOM     59  H2  HAW d   1      91.215  53.084 271.718  0.00  0.00     0.057 H 
ATOM     60  H3  HAW d   1      91.758  51.422 271.304  0.00  0.00     0.057 H 
ATOM     61  H4  HAW d   1      90.534  52.249 270.281  0.00  0.00     0.057 H 
ENDBRANCH  48  58
ENDBRANCH   1  44
TORSDOF 8
