REMARK  24 active torsions:
REMARK  status: ('A' for Active; 'I' for Inactive)
REMARK    1  A    between atoms: C2_2  and  C1_1 
REMARK    2  A    between atoms: O3_28  and  C2_2 
REMARK    3  A    between atoms: C4_4  and  O4_15 
REMARK    4  A    between atoms: C5_5  and  N5_12 
REMARK    5  A    between atoms: C6_6  and  C7_7 
REMARK    6  A    between atoms: C7_7  and  C8_8 
REMARK    7  A    between atoms: C7_7  and  O7_17 
REMARK    8  A    between atoms: C8_8  and  C9_9 
REMARK    9  A    between atoms: C8_8  and  O8_18 
REMARK   10  A    between atoms: C9_9  and  O9_19 
REMARK   11  A    between atoms: C10_10  and  C11_11 
REMARK       I    between atoms: N5_12  and  C10_10 
REMARK   12  A    between atoms: O4_43  and  C1_21 
REMARK   13  A    between atoms: C2_22  and  O2_27 
REMARK   14  A    between atoms: C3_23  and  O3_28 
REMARK   15  A    between atoms: C4_24  and  O4_29 
REMARK   16  A    between atoms: C5_25  and  C6_26 
REMARK   17  A    between atoms: C6_26  and  O6_31 
REMARK   18  A    between atoms: C1_32  and  O1_41 
REMARK   19  A    between atoms: N2_40  and  C2_33 
REMARK   20  A    between atoms: C3_34  and  O3_42 
REMARK   21  A    between atoms: C4_35  and  O4_43 
REMARK   22  A    between atoms: C5_36  and  C6_37 
REMARK   23  A    between atoms: C6_37  and  O6_45 
REMARK   24  A    between atoms: C7_38  and  C8_39 
REMARK       I    between atoms: C7_38  and  N2_40 
ROOT
ATOM      1  C1  SIA d   1       8.074  25.159  12.414  0.00  0.00     0.159 C 
ATOM      2  C2  SIA d   1       9.282  24.642  11.642  0.00  0.00     0.110 C 
ATOM      3  C3  SIA d   1      10.478  24.448  12.566  0.00  0.00     0.099 C 
ATOM      4  C4  SIA d   1      10.712  25.687  13.421  0.00  0.00     0.090 C 
ATOM      5  C5  SIA d   1       9.420  26.139  14.090  0.00  0.00     0.089 C 
ATOM      6  O5  SIA d   1       8.423  26.363  13.095  0.00  0.00    -0.348 OA
ATOM      7  H18 SIA d   1       7.636  24.413  13.093  0.00  0.00     0.133 H 
ATOM      8  H19 SIA d   1       9.548  25.375  10.866  0.00  0.00     0.094 H 
ATOM      9  H20 SIA d   1      10.281  23.592  13.228  0.00  0.00     0.091 H 
ATOM     10  H21 SIA d   1      11.451  25.448  14.200  0.00  0.00     0.091 H 
ATOM     11  H22 SIA d   1       9.078  25.347  14.772  0.00  0.00     0.090 H 
ENDROOT
BRANCH   3  12
ATOM     12  O3  SIA d   1      11.648  24.178  11.785  0.00  0.00    -0.336 OA
BRANCH  12  13
ATOM     13  C2  SIA d   1      12.662  23.330  12.443  0.00  0.00     0.259 C 
ATOM     14  C3  SIA d   1      13.765  23.440  11.388  0.00  0.00     0.024 C 
ATOM     15  C4  SIA d   1      14.753  22.279  11.454  0.00  0.00     0.063 C 
ATOM     16  H1  SIA d   1      14.314  24.380  11.548  0.00  0.00     0.045 H 
ATOM     17  H2  SIA d   1      13.300  23.452  10.391  0.00  0.00     0.045 H 
ATOM     18  C5  SIA d   1      14.024  20.936  11.353  0.00  0.00     0.064 C 
ATOM     19  H3  SIA d   1      15.288  22.332  12.414  0.00  0.00     0.086 H 
ATOM     20  C6  SIA d   1      12.789  20.861  12.291  0.00  0.00     0.091 C 
ATOM     21  H4  SIA d   1      13.691  20.794  10.314  0.00  0.00     0.080 H 
ATOM     22  O6  SIA d   1      11.992  22.038  12.250  0.00  0.00    -0.336 OA
ATOM     23  H5  SIA d   1      13.143  20.688  13.318  0.00  0.00     0.090 H 
BRANCH  13  24
ATOM     24  C1  SIA d   1      13.143  23.470  13.947  0.00  0.00     0.239 C 
ATOM     25  O1A SIA d   1      14.094  24.290  14.069  0.00  0.00    -0.644 OA
ATOM     26  O1B SIA d   1      12.553  22.795  14.820  0.00  0.00    -0.644 OA
ENDBRANCH  13  24
BRANCH  15  27
ATOM     27  O4  SIA d   1      15.708  22.324  10.379  0.00  0.00    -0.393 OA
ATOM     28  H14 SIA d   1      16.320  21.603  10.470  0.00  0.00     0.210 HD
ENDBRANCH  15  27
BRANCH  18  29
ATOM     29  N5  SIA d   1      14.941  19.863  11.722  0.00  0.00    -0.352 N 
ATOM     30  C10 SIA d   1      15.028  18.649  11.125  0.00  0.00     0.214 C 
ATOM     31  O10 SIA d   1      14.334  18.286  10.177  0.00  0.00    -0.274 OA
ATOM     32  H13 SIA d   1      15.562  20.039  12.485  0.00  0.00     0.163 HD
BRANCH  30  33
ATOM     33  C11 SIA d   1      16.081  17.727  11.733  0.00  0.00    -0.003 C 
ATOM     34  H10 SIA d   1      16.085  16.769  11.193  0.00  0.00     0.040 H 
ATOM     35  H11 SIA d   1      15.845  17.549  12.793  0.00  0.00     0.040 H 
ATOM     36  H12 SIA d   1      17.072  18.198  11.652  0.00  0.00     0.040 H 
ENDBRANCH  30  33
ENDBRANCH  18  29
BRANCH  20  37
ATOM     37  C7  SIA d   1      11.824  19.726  11.864  0.00  0.00     0.089 C 
ATOM     38  H6  SIA d   1      12.356  18.770  11.977  0.00  0.00     0.091 H 
BRANCH  37  39
ATOM     39  C8  SIA d   1      10.568  19.668  12.765  0.00  0.00     0.083 C 
ATOM     40  H7  SIA d   1       9.782  20.277  12.294  0.00  0.00     0.090 H 
BRANCH  39  41
ATOM     41  C9  SIA d   1      10.044  18.240  12.877  0.00  0.00     0.043 C 
ATOM     42  H8  SIA d   1      10.530  17.737  13.726  0.00  0.00     0.078 H 
ATOM     43  H9  SIA d   1      10.270  17.694  11.949  0.00  0.00     0.078 H 
BRANCH  41  44
ATOM     44  O9  SIA d   1       8.630  18.262  13.084  0.00  0.00    -0.398 OA
ATOM     45  H17 SIA d   1       8.210  18.696  12.350  0.00  0.00     0.209 HD
ENDBRANCH  41  44
ENDBRANCH  39  41
BRANCH  39  46
ATOM     46  O8  SIA d   1      10.852  20.235  14.045  0.00  0.00    -0.391 OA
ATOM     47  H16 SIA d   1      11.175  21.121  13.933  0.00  0.00     0.210 HD
ENDBRANCH  39  46
ENDBRANCH  37  39
BRANCH  37  48
ATOM     48  O7  SIA d   1      11.482  19.876  10.492  0.00  0.00    -0.390 OA
ATOM     49  H15 SIA d   1      10.992  20.682  10.375  0.00  0.00     0.210 HD
ENDBRANCH  37  48
ENDBRANCH  20  37
ENDBRANCH  12  13
ENDBRANCH   3  12
BRANCH   2  50
ATOM     50  O2  SIA d   1       8.953  23.396  11.019  0.00  0.00    -0.388 OA
ATOM     51  H25 SIA d   1       8.207  23.518  10.443  0.00  0.00     0.210 HD
ENDBRANCH   2  50
BRANCH   4  52
ATOM     52  O4  SIA d   1      11.219  26.745  12.599  0.00  0.00    -0.390 OA
ATOM     53  H26 SIA d   1      12.025  26.462  12.182  0.00  0.00     0.210 HD
ENDBRANCH   4  52
BRANCH   1  54
ATOM     54  O4  SIA d   1       7.216  25.527  11.315  0.00  0.00    -0.348 OA
BRANCH  54  55
ATOM     55  C4  SIA d   1       5.869  25.636  11.787  0.00  0.00     0.095 C 
ATOM     56  C3  SIA d   1       5.645  27.028  12.363  0.00  0.00     0.087 C 
ATOM     57  C2  SIA d   1       4.168  27.267  12.656  0.00  0.00     0.086 C 
ATOM     58  H30 SIA d   1       5.988  27.775  11.631  0.00  0.00     0.090 H 
ATOM     59  C1  SIA d   1       3.307  26.893  11.455  0.00  0.00     0.151 C 
ATOM     60  H29 SIA d   1       3.874  26.636  13.508  0.00  0.00     0.084 H 
ATOM     61  O5  SIA d   1       3.564  25.539  11.091  0.00  0.00    -0.349 OA
ATOM     62  H28 SIA d   1       3.550  27.553  10.609  0.00  0.00     0.132 H 
ATOM     63  C5  SIA d   1       4.905  25.355  10.641  0.00  0.00     0.089 C 
ATOM     64  H32 SIA d   1       5.111  26.060   9.822  0.00  0.00     0.090 H 
ATOM     65  H31 SIA d   1       5.703  24.892  12.581  0.00  0.00     0.091 H 
BRANCH  56  66
ATOM     66  O3  SIA d   1       6.400  27.173  13.571  0.00  0.00    -0.391 OA
ATOM     67  H40 SIA d   1       7.323  27.053  13.382  0.00  0.00     0.210 HD
ENDBRANCH  56  66
BRANCH  57  68
ATOM     68  N2  SIA d   1       3.950  28.656  13.009  0.00  0.00    -0.349 N 
ATOM     69  C7  SIA d   1       3.617  29.015  14.246  0.00  0.00     0.214 C 
ATOM     70  O7  SIA d   1       2.595  28.621  14.782  0.00  0.00    -0.274 OA
ATOM     71  H38 SIA d   1       4.052  29.360  12.307  0.00  0.00     0.163 HD
BRANCH  69  72
ATOM     72  C8  SIA d   1       4.579  29.934  14.938  0.00  0.00    -0.003 C 
ATOM     73  H35 SIA d   1       4.206  30.163  15.947  0.00  0.00     0.040 H 
ATOM     74  H36 SIA d   1       4.675  30.866  14.362  0.00  0.00     0.040 H 
ATOM     75  H37 SIA d   1       5.562  29.447  15.013  0.00  0.00     0.040 H 
ENDBRANCH  69  72
ENDBRANCH  57  68
BRANCH  59  76
ATOM     76  O1  SIA d   1       1.924  27.042  11.794  0.00  0.00    -0.369 OA
ATOM     77  H39 SIA d   1       1.754  27.945  12.036  0.00  0.00     0.212 HD
ENDBRANCH  59  76
BRANCH  63  78
ATOM     78  C6  SIA d   1       5.077  23.932  10.122  0.00  0.00     0.043 C 
ATOM     79  H33 SIA d   1       5.228  23.248  10.970  0.00  0.00     0.078 H 
ATOM     80  H34 SIA d   1       5.951  23.888   9.456  0.00  0.00     0.078 H 
BRANCH  78  81
ATOM     81  O6  SIA d   1       3.905  23.542   9.397  0.00  0.00    -0.398 OA
ATOM     82  H41 SIA d   1       3.150  23.580   9.973  0.00  0.00     0.209 HD
ENDBRANCH  78  81
ENDBRANCH  63  78
ENDBRANCH  54  55
ENDBRANCH   1  54
BRANCH   5  83
ATOM     83  C6  SIA d   1       9.635  27.418  14.890  0.00  0.00     0.043 C 
ATOM     84  H23 SIA d   1      10.160  28.157  14.267  0.00  0.00     0.078 H 
ATOM     85  H24 SIA d   1      10.239  27.195  15.782  0.00  0.00     0.078 H 
BRANCH  83  86
ATOM     86  O6  SIA d   1       8.367  27.948  15.292  0.00  0.00    -0.398 OA
ATOM     87  H27 SIA d   1       7.846  28.140  14.521  0.00  0.00     0.209 HD
ENDBRANCH  83  86
ENDBRANCH   5  83
TORSDOF 24
