REMARK  7 active torsions:
REMARK  status: ('A' for Active; 'I' for Inactive)
REMARK    1  A    between atoms: C14_2  and  C15_14 
REMARK    2  A    between atoms: C2_16  and  C14_2 
REMARK    3  A    between atoms: C6_4  and  C5_3 
REMARK    4  A    between atoms: C7_6  and  C6_4 
REMARK    5  A    between atoms: N_19  and  C7_6 
REMARK    6  A    between atoms: S_20  and  C8_7 
REMARK    7  A    between atoms: N_19  and  S_20 
ROOT
ATOM      1  C6  A90 d   1      26.473 161.168 143.547  0.00  0.00    -0.026 C 
ATOM      2  H4  A90 d   1      27.445 161.164 143.032  0.00  0.00     0.042 H 
ATOM      3  H5  A90 d   1      25.668 161.313 142.811  0.00  0.00     0.042 H 
ENDROOT
BRANCH   1   4
ATOM      4  C5  A90 d   1      26.453 162.245 144.433  0.00  0.00    -0.057 A 
ATOM      5  C4  A90 d   1      26.269 163.518 143.884  0.00  0.00    -0.076 A 
ATOM      6  C3  A90 d   1      26.264 164.650 144.701  0.00  0.00    -0.076 A 
ATOM      7  H1  A90 d   1      26.129 163.627 142.815  0.00  0.00     0.084 H 
ATOM      8  C2  A90 d   1      26.426 164.521 146.077  0.00  0.00    -0.048 A 
ATOM      9  H12 A90 d   1      26.134 165.632 144.262  0.00  0.00     0.084 H 
ATOM     10  C1  A90 d   1      26.590 163.244 146.640  0.00  0.00    -0.076 A 
ATOM     11  C   A90 d   1      26.628 162.108 145.822  0.00  0.00    -0.076 A 
ATOM     12  H13 A90 d   1      26.688 163.138 147.714  0.00  0.00     0.084 H 
ATOM     13  H14 A90 d   1      26.791 161.129 146.257  0.00  0.00     0.084 H 
BRANCH   8  14
ATOM     14  C14 A90 d   1      26.390 165.672 146.860  0.00  0.00     0.039 C 
ATOM     15  H2  A90 d   1      26.189 166.537 146.212  0.00  0.00     0.056 H 
ATOM     16  H3  A90 d   1      25.583 165.573 147.601  0.00  0.00     0.056 H 
BRANCH  14  17
ATOM     17  C15 A90 d   1      27.721 165.902 147.600  0.00  0.00     0.176 C 
ATOM     18  O2  A90 d   1      27.866 165.328 148.698  0.00  0.00    -0.648 OA
ATOM     19  O3  A90 d   1      28.566 166.642 147.062  0.00  0.00    -0.648 OA
ENDBRANCH  14  17
ENDBRANCH   8  14
ENDBRANCH   1   4
BRANCH   1  20
ATOM     20  C7  A90 d   1      26.277 159.805 144.206  0.00  0.00     0.006 C 
ATOM     21  H6  A90 d   1      25.256 159.734 144.610  0.00  0.00     0.065 H 
ATOM     22  H7  A90 d   1      27.004 159.682 145.022  0.00  0.00     0.065 H 
BRANCH  20  23
ATOM     23  N   A90 d   1      26.482 158.756 143.203  0.00  0.00    -0.315 N 
ATOM     24  H15 A90 d   1      27.242 158.769 142.554  0.00  0.00     0.172 HD
BRANCH  23  25
ATOM     25  S   A90 d   1      25.365 157.565 143.234  0.00  0.00     0.258 S 
ATOM     26  O   A90 d   1      25.750 156.547 142.159  0.00  0.00    -0.201 OA
ATOM     27  O1  A90 d   1      25.383 156.903 144.611  0.00  0.00    -0.201 OA
BRANCH  25  28
ATOM     28  C8  A90 d   1      23.753 158.200 142.880  0.00  0.00     0.079 A 
ATOM     29  C9  A90 d   1      23.294 158.195 141.561  0.00  0.00    -0.059 A 
ATOM     30  C10 A90 d   1      22.035 158.714 141.274  0.00  0.00    -0.060 A 
ATOM     31  H8  A90 d   1      23.913 157.791 140.768  0.00  0.00     0.086 H 
ATOM     32  C11 A90 d   1      21.247 159.257 142.294  0.00  0.00     0.034 A 
ATOM     33  H9  A90 d   1      21.664 158.697 140.256  0.00  0.00     0.086 H 
ATOM     34  C12 A90 d   1      21.710 159.277 143.609  0.00  0.00    -0.060 A 
ATOM     35 CL   A90 d   1      19.687 159.927 141.911  0.00  0.00    -0.084 Cl
ATOM     36  C13 A90 d   1      22.956 158.723 143.904  0.00  0.00    -0.059 A 
ATOM     37  H10 A90 d   1      21.108 159.719 144.395  0.00  0.00     0.086 H 
ATOM     38  H11 A90 d   1      23.307 158.698 144.929  0.00  0.00     0.086 H 
ENDBRANCH  25  28
ENDBRANCH  23  25
ENDBRANCH  20  23
ENDBRANCH   1  20
TORSDOF 7
