REMARK  30 active torsions:
REMARK  status: ('A' for Active; 'I' for Inactive)
REMARK    1  A    between atoms: N_1  and  CA_2 
REMARK    2  A    between atoms: CA_2  and  C_3 
REMARK    3  A    between atoms: CA_2  and  CB_5 
REMARK       I    between atoms: C_3  and  N_8 
REMARK    4  A    between atoms: CB_5  and  CG1_6 
REMARK    5  A    between atoms: CB_5  and  CG2_7 
REMARK    6  A    between atoms: N_8  and  CA_9 
REMARK    7  A    between atoms: CA_9  and  C_10 
REMARK    8  A    between atoms: CA_9  and  CB_12 
REMARK       I    between atoms: C_10  and  N_19 
REMARK    9  A    between atoms: CB_12  and  CG_13 
REMARK   10  A    between atoms: CG_13  and  CD_14 
REMARK   11  A    between atoms: CD_14  and  NE_15 
REMARK       I    between atoms: NE_15  and  CZ_16 
REMARK       I    between atoms: CZ_16  and  NH1_17 
REMARK   12  A    between atoms: N_19  and  CA_20 
REMARK   13  A    between atoms: CA_20  and  C_21 
REMARK   14  A    between atoms: CA_20  and  CB_23 
REMARK       I    between atoms: C_21  and  N_26 
REMARK   15  A    between atoms: CB_23  and  OG1_24 
REMARK   16  A    between atoms: CB_23  and  CG2_25 
REMARK   17  A    between atoms: N_26  and  CA_27 
REMARK   18  A    between atoms: CA_27  and  C_28 
REMARK   19  A    between atoms: CA_27  and  CB_30 
REMARK       I    between atoms: C_28  and  N_35 
REMARK   20  A    between atoms: CB_30  and  CG_31 
REMARK   21  A    between atoms: CG_31  and  CD_32 
REMARK   22  A    between atoms: CD_32  and  CE_33 
REMARK   23  A    between atoms: CE_33  and  NZ_34 
REMARK   24  A    between atoms: N_35  and  CA_36 
REMARK   25  A    between atoms: CA_36  and  C_37 
REMARK   26  A    between atoms: CA_36  and  CB_39 
REMARK       I    between atoms: C_37  and  N_40 
REMARK   27  A    between atoms: N_40  and  CA_41 
REMARK   28  A    between atoms: CA_41  and  C_42 
REMARK   29  A    between atoms: CA_41  and  CB_44 
REMARK   30  A    between atoms: CB_44  and  CG_45 
ROOT
ATOM      1  CA  VAL d   1     -10.873  -9.376 -13.384  0.00  0.00     0.113 C 
ATOM      2  H26 VAL d   1     -10.110  -8.913 -12.741  0.00  0.00     0.091 H 
ENDROOT
BRANCH   1   3
ATOM      3  N   VAL d   1     -10.955 -10.791 -13.050  0.00  0.00    -0.344 N 
ATOM      4  C   VAL d   1     -10.200 -11.311 -12.085  0.00  0.00     0.241 C 
ATOM      5  O   VAL d   1      -9.286 -10.687 -11.546  0.00  0.00    -0.271 OA
ATOM      6  H25 VAL d   1     -11.587 -11.380 -13.553  0.00  0.00     0.163 HD
BRANCH   4   7
ATOM      7  CA  VAL d   1     -10.518 -12.737 -11.664  0.00  0.00     0.089 C 
ATOM      8  H13 VAL d   1     -11.082 -13.238 -12.465  0.00  0.00     0.087 H 
BRANCH   7   9
ATOM      9  N   VAL d   1      -9.274 -13.457 -11.434  0.00  0.00    -0.346 N 
ATOM     10  C   VAL d   1      -8.605 -14.025 -12.436  0.00  0.00     0.249 C 
ATOM     11  O   VAL d   1      -9.056 -14.122 -13.574  0.00  0.00    -0.271 OA
ATOM     12  H12 VAL d   1      -8.914 -13.527 -10.504  0.00  0.00     0.163 HD
BRANCH  10  13
ATOM     13  CA  VAL d   1      -7.256 -14.619 -12.071  0.00  0.00     0.178 C 
ATOM     14  H4  VAL d   1      -7.317 -15.019 -11.048  0.00  0.00     0.099 H 
BRANCH  13  15
ATOM     15  N   VAL d   1      -6.947 -15.722 -12.973  0.00  0.00    -0.066 N 
ATOM     16  H1  VAL d   1      -7.684 -16.409 -12.929  0.00  0.00     0.275 HD
ATOM     17  H2  VAL d   1      -6.075 -16.146 -12.698  0.00  0.00     0.275 HD
ATOM     18  H3  VAL d   1      -6.869 -15.373 -13.916  0.00  0.00     0.275 HD
ENDBRANCH  13  15
BRANCH  13  19
ATOM     19  CB  VAL d   1      -6.166 -13.536 -12.094  0.00  0.00    -0.025 C 
ATOM     20  H5  VAL d   1      -6.404 -12.789 -11.322  0.00  0.00     0.042 H 
BRANCH  19  21
ATOM     21  CG1 VAL d   1      -4.810 -14.136 -11.774  0.00  0.00    -0.071 C 
ATOM     22  H6  VAL d   1      -4.045 -13.346 -11.796  0.00  0.00     0.028 H 
ATOM     23  H7  VAL d   1      -4.564 -14.905 -12.521  0.00  0.00     0.028 H 
ATOM     24  H8  VAL d   1      -4.838 -14.592 -10.774  0.00  0.00     0.028 H 
ENDBRANCH  19  21
BRANCH  19  25
ATOM     25  CG2 VAL d   1      -6.138 -12.840 -13.437  0.00  0.00    -0.071 C 
ATOM     26  H9  VAL d   1      -7.129 -12.413 -13.649  0.00  0.00     0.028 H 
ATOM     27  H10 VAL d   1      -5.876 -13.566 -14.221  0.00  0.00     0.028 H 
ATOM     28  H11 VAL d   1      -5.388 -12.035 -13.417  0.00  0.00     0.028 H 
ENDBRANCH  19  25
ENDBRANCH  13  19
ENDBRANCH  10  13
ENDBRANCH   7   9
BRANCH   7  29
ATOM     29  CB  VAL d   1     -11.372 -12.708 -10.392  0.00  0.00    -0.036 C 
ATOM     30  H14 VAL d   1     -12.267 -12.100 -10.591  0.00  0.00     0.036 H 
ATOM     31  H15 VAL d   1     -10.782 -12.240  -9.591  0.00  0.00     0.036 H 
BRANCH  29  32
ATOM     32  CG  VAL d   1     -11.821 -14.073  -9.916  0.00  0.00    -0.048 C 
ATOM     33  H16 VAL d   1     -10.948 -14.740  -9.863  0.00  0.00     0.035 H 
ATOM     34  H17 VAL d   1     -12.550 -14.480 -10.632  0.00  0.00     0.035 H 
BRANCH  32  35
ATOM     35  CD  VAL d   1     -12.469 -13.991  -8.537  0.00  0.00     0.009 C 
ATOM     36  H18 VAL d   1     -12.714 -15.008  -8.198  0.00  0.00     0.064 H 
ATOM     37  H19 VAL d   1     -13.392 -13.397  -8.612  0.00  0.00     0.064 H 
BRANCH  35  38
ATOM     38  NE  VAL d   1     -11.584 -13.368  -7.560  0.00  0.00    -0.227 N 
ATOM     39  CZ  VAL d   1     -11.882 -12.275  -6.863  0.00  0.00     0.665 C 
ATOM     40  NH1 VAL d   1     -11.005 -11.787  -6.002  0.00  0.00    -0.235 N 
ATOM     41  NH2 VAL d   1     -13.055 -11.672  -7.021  0.00  0.00    -0.235 N 
ATOM     42  H21 VAL d   1     -11.231 -10.941  -5.460  0.00  0.00     0.174 HD
ATOM     43  H22 VAL d   1     -10.095 -12.253  -5.873  0.00  0.00     0.174 HD
ATOM     44  H23 VAL d   1     -13.742 -12.048  -7.690  0.00  0.00     0.174 HD
ATOM     45  H24 VAL d   1     -13.278 -10.828  -6.474  0.00  0.00     0.174 HD
ATOM     46  H20 VAL d   1     -10.665 -13.804  -7.399  0.00  0.00     0.177 HD
ENDBRANCH  35  38
ENDBRANCH  32  35
ENDBRANCH  29  32
ENDBRANCH   7  29
ENDBRANCH   4   7
ENDBRANCH   1   3
BRANCH   1  47
ATOM     47  C   VAL d   1     -12.215  -8.715 -13.111  0.00  0.00     0.243 C 
ATOM     48  O   VAL d   1     -13.233  -9.379 -12.912  0.00  0.00    -0.271 OA
ATOM     49  N   VAL d   1     -12.202  -7.383 -13.098  0.00  0.00    -0.346 N 
ATOM     50  H32 VAL d   1     -11.341  -6.889 -13.218  0.00  0.00     0.163 HD
BRANCH  49  51
ATOM     51  CA  VAL d   1     -13.445  -6.649 -12.909  0.00  0.00     0.089 C 
ATOM     52  H33 VAL d   1     -13.894  -6.969 -11.957  0.00  0.00     0.087 H 
BRANCH  51  53
ATOM     53  C   VAL d   1     -14.439  -6.943 -14.023  0.00  0.00     0.241 C 
ATOM     54  O   VAL d   1     -15.648  -6.814 -13.809  0.00  0.00    -0.271 OA
ATOM     55  N   VAL d   1     -13.958  -7.356 -15.198  0.00  0.00    -0.346 N 
ATOM     56  H45 VAL d   1     -12.969  -7.439 -15.321  0.00  0.00     0.163 HD
BRANCH  55  57
ATOM     57  CA  VAL d   1     -14.846  -7.688 -16.306  0.00  0.00     0.086 C 
ATOM     58  H46 VAL d   1     -15.547  -6.850 -16.435  0.00  0.00     0.086 H 
BRANCH  57  59
ATOM     59  C   VAL d   1     -15.665  -8.950 -16.065  0.00  0.00     0.240 C 
ATOM     60  O   VAL d   1     -16.625  -9.195 -16.807  0.00  0.00    -0.271 OA
ATOM     61  N   VAL d   1     -15.314  -9.754 -15.066  0.00  0.00    -0.344 N 
ATOM     62  H50 VAL d   1     -14.556  -9.488 -14.470  0.00  0.00     0.163 HD
BRANCH  61  63
ATOM     63  CA  VAL d   1     -16.006 -11.015 -14.817  0.00  0.00     0.105 C 
ATOM     64  H51 VAL d   1     -16.277 -11.450 -15.790  0.00  0.00     0.090 H 
BRANCH  63  65
ATOM     65  C   VAL d   1     -17.297 -10.824 -14.012  0.00  0.00     0.197 C 
ATOM     66  O   VAL d   1     -17.414  -9.905 -13.194  0.00  0.00    -0.646 OA
ATOM     67  OXT VAL d   1     -18.262 -11.583 -14.155  0.00  0.00    -0.646 OA
ENDBRANCH  63  65
BRANCH  63  68
ATOM     68  CB  VAL d   1     -15.071 -11.994 -14.095  0.00  0.00     0.044 C 
ATOM     69  H52 VAL d   1     -15.629 -12.916 -13.874  0.00  0.00     0.053 H 
ATOM     70  H53 VAL d   1     -14.738 -11.533 -13.154  0.00  0.00     0.053 H 
BRANCH  68  71
ATOM     71  CG  VAL d   1     -13.843 -12.354 -14.923  0.00  0.00     0.175 C 
ATOM     72  OD1 VAL d   1     -13.951 -12.432 -16.170  0.00  0.00    -0.648 OA
ATOM     73  OD2 VAL d   1     -12.771 -12.581 -14.327  0.00  0.00    -0.648 OA
ENDBRANCH  68  71
ENDBRANCH  63  68
ENDBRANCH  61  63
ENDBRANCH  57  59
BRANCH  57  74
ATOM     74  CB  VAL d   1     -14.039  -7.850 -17.599  0.00  0.00    -0.049 C 
ATOM     75  H47 VAL d   1     -14.719  -8.100 -18.427  0.00  0.00     0.030 H 
ATOM     76  H48 VAL d   1     -13.303  -8.657 -17.473  0.00  0.00     0.030 H 
ATOM     77  H49 VAL d   1     -13.516  -6.909 -17.825  0.00  0.00     0.030 H 
ENDBRANCH  57  74
ENDBRANCH  55  57
ENDBRANCH  51  53
BRANCH  51  78
ATOM     78  CB  VAL d   1     -13.153  -5.151 -12.827  0.00  0.00    -0.038 C 
ATOM     79  H34 VAL d   1     -12.704  -4.835 -13.780  0.00  0.00     0.036 H 
ATOM     80  H35 VAL d   1     -12.436  -4.984 -12.010  0.00  0.00     0.036 H 
BRANCH  78  81
ATOM     81  CG  VAL d   1     -14.377  -4.288 -12.569  0.00  0.00    -0.061 C 
ATOM     82  H36 VAL d   1     -15.145  -4.529 -13.319  0.00  0.00     0.033 H 
ATOM     83  H37 VAL d   1     -14.091  -3.230 -12.664  0.00  0.00     0.033 H 
BRANCH  81  84
ATOM     84  CD  VAL d   1     -14.960  -4.515 -11.181  0.00  0.00    -0.043 C 
ATOM     85  H38 VAL d   1     -15.019  -5.597 -10.992  0.00  0.00     0.035 H 
ATOM     86  H39 VAL d   1     -15.970  -4.081 -11.144  0.00  0.00     0.035 H 
BRANCH  84  87
ATOM     87  CE  VAL d   1     -14.113  -3.876 -10.104  0.00  0.00     0.080 C 
ATOM     88  H40 VAL d   1     -13.871  -2.845 -10.400  0.00  0.00     0.075 H 
ATOM     89  H41 VAL d   1     -13.183  -4.452  -9.988  0.00  0.00     0.075 H 
BRANCH  87  90
ATOM     90  NZ  VAL d   1     -14.836  -3.854  -8.811  0.00  0.00    -0.079 N 
ATOM     91  H42 VAL d   1     -14.255  -3.425  -8.108  0.00  0.00     0.274 HD
ATOM     92  H43 VAL d   1     -15.057  -4.798  -8.534  0.00  0.00     0.274 HD
ATOM     93  H44 VAL d   1     -15.688  -3.325  -8.911  0.00  0.00     0.274 HD
ENDBRANCH  87  90
ENDBRANCH  84  87
ENDBRANCH  81  84
ENDBRANCH  78  81
ENDBRANCH  51  78
ENDBRANCH  49  51
ENDBRANCH   1  47
BRANCH   1  94
ATOM     94  CB  VAL d   1     -10.476  -9.140 -14.852  0.00  0.00     0.060 C 
ATOM     95  H27 VAL d   1     -10.235  -8.076 -14.990  0.00  0.00     0.086 H 
BRANCH  94  96
ATOM     96  OG1 VAL d   1     -11.563  -9.498 -15.714  0.00  0.00    -0.393 OA
ATOM     97  H28 VAL d   1     -11.311  -9.350 -16.618  0.00  0.00     0.210 HD
ENDBRANCH  94  96
BRANCH  94  98
ATOM     98  CG2 VAL d   1      -9.269  -9.978 -15.225  0.00  0.00    -0.050 C 
ATOM     99  H29 VAL d   1      -9.005  -9.793 -16.277  0.00  0.00     0.031 H 
ATOM    100  H30 VAL d   1      -9.506 -11.043 -15.089  0.00  0.00     0.031 H 
ATOM    101  H31 VAL d   1      -8.420  -9.706 -14.580  0.00  0.00     0.031 H 
ENDBRANCH  94  98
ENDBRANCH   1  94
TORSDOF 30
