REMARK  4 active torsions:
REMARK  status: ('A' for Active; 'I' for Inactive)
REMARK    1  A    between atoms: N12_12  and  C16_16 
REMARK    2  A    between atoms: C16_16  and  C17_17 
REMARK    3  A    between atoms: C17_17  and  C18_18 
REMARK    4  A    between atoms: N19_19  and  C23_23 
ROOT
ATOM      1  C16 AEO d   1     -21.294 -14.891  38.175  0.00  0.00     0.012 C 
ATOM      2  H7  AEO d   1     -22.162 -14.252  38.397  0.00  0.00     0.065 H 
ATOM      3  H8  AEO d   1     -20.515 -14.727  38.934  0.00  0.00     0.065 H 
ENDROOT
BRANCH   1   4
ATOM      4  N12 AEO d   1     -20.744 -14.467  36.863  0.00  0.00    -0.280 N 
ATOM      5  C11 AEO d   1     -19.962 -13.304  36.885  0.00  0.00     0.261 A 
ATOM      6  C5  AEO d   1     -19.721 -12.630  35.589  0.00  0.00     0.044 A 
ATOM      7  O15 AEO d   1     -19.503 -12.891  37.934  0.00  0.00    -0.267 OA
ATOM      8  C4  AEO d   1     -19.042 -11.430  35.556  0.00  0.00    -0.067 A 
ATOM      9  C6  AEO d   1     -20.233 -13.189  34.396  0.00  0.00     0.005 A 
ATOM     10  C3  AEO d   1     -18.864 -10.758  34.356  0.00  0.00    -0.081 A 
ATOM     11  H3  AEO d   1     -18.645 -11.010  36.473  0.00  0.00     0.085 H 
ATOM     12  C2  AEO d   1     -19.351 -11.264  33.185  0.00  0.00    -0.072 A 
ATOM     13  H2  AEO d   1     -18.329  -9.815  34.347  0.00  0.00     0.083 H 
ATOM     14  C1  AEO d   1     -20.043 -12.501  33.164  0.00  0.00    -0.024 A 
ATOM     15  H1  AEO d   1     -19.207 -10.714  32.262  0.00  0.00     0.084 H 
ATOM     16  C10 AEO d   1     -20.578 -13.077  31.983  0.00  0.00    -0.072 A 
ATOM     17  C9  AEO d   1     -21.260 -14.260  32.033  0.00  0.00    -0.081 A 
ATOM     18  H6  AEO d   1     -20.445 -12.574  31.032  0.00  0.00     0.084 H 
ATOM     19  C8  AEO d   1     -21.456 -14.925  33.237  0.00  0.00    -0.067 A 
ATOM     20  H5  AEO d   1     -21.655 -14.687  31.118  0.00  0.00     0.083 H 
ATOM     21  C7  AEO d   1     -20.959 -14.403  34.413  0.00  0.00     0.044 A 
ATOM     22  H4  AEO d   1     -22.003 -15.861  33.252  0.00  0.00     0.085 H 
ATOM     23  C13 AEO d   1     -21.228 -15.087  35.699  0.00  0.00     0.261 A 
ATOM     24  O14 AEO d   1     -21.817 -16.148  35.761  0.00  0.00    -0.267 OA
ENDBRANCH   1   4
BRANCH   1  25
ATOM     25  C17 AEO d   1     -21.747 -16.342  38.282  0.00  0.00     0.008 C 
ATOM     26  H9  AEO d   1     -21.095 -16.962  37.650  0.00  0.00     0.047 H 
ATOM     27  H10 AEO d   1     -22.784 -16.415  37.922  0.00  0.00     0.047 H 
BRANCH  25  28
ATOM     28  C18 AEO d   1     -21.689 -16.860  39.682  0.00  0.00     0.135 A 
ATOM     29  N19 AEO d   1     -22.310 -16.272  40.789  0.00  0.00    -0.273 N 
ATOM     30  C20 AEO d   1     -22.017 -17.066  41.878  0.00  0.00     0.201 A 
ATOM     31  N21 AEO d   1     -21.278 -18.052  41.367  0.00  0.00    -0.251 N 
ATOM     32  S24 AEO d   1     -22.465 -16.830  43.476  0.00  0.00    -0.038 SA
ATOM     33  N22 AEO d   1     -21.062 -17.944  40.031  0.00  0.00    -0.158 NA
ATOM     34  H11 AEO d   1     -20.916 -18.803  41.919  0.00  0.00     0.191 HD
BRANCH  29  35
ATOM     35  C23 AEO d   1     -23.160 -15.104  40.857  0.00  0.00     0.043 A 
ATOM     36  C25 AEO d   1     -22.624 -13.829  40.685  0.00  0.00    -0.057 A 
ATOM     37  C26 AEO d   1     -23.461 -12.723  40.712  0.00  0.00    -0.081 A 
ATOM     38  H12 AEO d   1     -21.558 -13.702  40.531  0.00  0.00     0.086 H 
ATOM     39  C27 AEO d   1     -24.812 -12.874  40.956  0.00  0.00    -0.083 A 
ATOM     40  H13 AEO d   1     -23.052 -11.734  40.541  0.00  0.00     0.083 H 
ATOM     41  C28 AEO d   1     -25.335 -14.133  41.179  0.00  0.00    -0.081 A 
ATOM     42  H14 AEO d   1     -25.461 -12.006  40.972  0.00  0.00     0.083 H 
ATOM     43  C29 AEO d   1     -24.518 -15.251  41.132  0.00  0.00    -0.057 A 
ATOM     44  H15 AEO d   1     -26.392 -14.247  41.392  0.00  0.00     0.083 H 
ATOM     45  H16 AEO d   1     -24.934 -16.236  41.309  0.00  0.00     0.086 H 
ENDBRANCH  29  35
ENDBRANCH  25  28
ENDBRANCH   1  25
TORSDOF 4
