REMARK  5 active torsions:
REMARK  status: ('A' for Active; 'I' for Inactive)
REMARK    1  A    between atoms: C17_19  and  C18_4 
REMARK    2  A    between atoms: C16_18  and  N12_16 
REMARK    3  A    between atoms: C16_18  and  C17_19 
REMARK    4  A    between atoms: N19_20  and  C27_27 
REMARK    5  A    between atoms: C25_25  and  C33_33 
ROOT
ATOM      1  C17 AEL d   1      16.473  18.672 -15.517  0.00  0.00     0.006 C 
ATOM      2  H9  AEL d   1      17.329  18.641 -14.828  0.00  0.00     0.047 H 
ATOM      3  H10 AEL d   1      15.982  19.654 -15.448  0.00  0.00     0.047 H 
ENDROOT
BRANCH   1   4
ATOM      4  C18 AEL d   1      15.503  17.610 -15.144  0.00  0.00     0.113 A 
ATOM      5  N19 AEL d   1      15.880  16.492 -14.458  0.00  0.00    -0.297 N 
ATOM      6  C20 AEL d   1      14.742  15.731 -14.292  0.00  0.00     0.070 A 
ATOM      7  C21 AEL d   1      13.728  16.453 -14.894  0.00  0.00     0.086 A 
ATOM      8  C23 AEL d   1      14.504  14.558 -13.603  0.00  0.00    -0.054 A 
ATOM      9  N22 AEL d   1      14.225  17.630 -15.426  0.00  0.00    -0.233 NA
ATOM     10  C26 AEL d   1      12.433  15.976 -14.817  0.00  0.00    -0.047 A 
ATOM     11  C25 AEL d   1      12.153  14.802 -14.131  0.00  0.00    -0.060 A 
ATOM     12  H13 AEL d   1      11.629  16.523 -15.296  0.00  0.00     0.088 H 
ATOM     13  C24 AEL d   1      13.200  14.118 -13.518  0.00  0.00    -0.075 A 
ATOM     14  H12 AEL d   1      12.984  13.215 -12.959  0.00  0.00     0.084 H 
ATOM     15  H11 AEL d   1      15.314  14.002 -13.145  0.00  0.00     0.087 H 
BRANCH   5  16
ATOM     16  C27 AEL d   1      17.137  16.175 -13.853  0.00  0.00     0.044 A 
ATOM     17  C28 AEL d   1      17.283  16.230 -12.485  0.00  0.00    -0.040 A 
ATOM     18  C29 AEL d   1      18.477  15.853 -11.927  0.00  0.00     0.004 A 
ATOM     19  H14 AEL d   1      16.465  16.567 -11.858  0.00  0.00     0.089 H 
ATOM     20  N30 AEL d   1      19.512  15.436 -12.641  0.00  0.00    -0.273 NA
ATOM     21  H15 AEL d   1      18.579  15.898 -10.849  0.00  0.00     0.114 H 
ATOM     22  C31 AEL d   1      19.350  15.389 -13.968  0.00  0.00     0.004 A 
ATOM     23  C32 AEL d   1      18.189  15.745 -14.605  0.00  0.00    -0.040 A 
ATOM     24  H16 AEL d   1      20.183  15.051 -14.574  0.00  0.00     0.114 H 
ATOM     25  H17 AEL d   1      18.110  15.686 -15.684  0.00  0.00     0.089 H 
ENDBRANCH   5  16
BRANCH  11  26
ATOM     26  C33 AEL d   1      10.752  14.252 -14.093  0.00  0.00    -0.051 C 
ATOM     27  H18 AEL d   1      10.739  13.323 -13.504  0.00  0.00     0.033 H 
ATOM     28  H19 AEL d   1      10.413  14.041 -15.118  0.00  0.00     0.033 H 
ATOM     29  H20 AEL d   1      10.081  14.990 -13.629  0.00  0.00     0.033 H 
ENDBRANCH  11  26
ENDBRANCH   1   4
BRANCH   1  30
ATOM     30  C16 AEL d   1      16.960  18.455 -16.928  0.00  0.00     0.012 C 
ATOM     31  H7  AEL d   1      17.352  17.431 -17.013  0.00  0.00     0.065 H 
ATOM     32  H8  AEL d   1      16.112  18.582 -17.617  0.00  0.00     0.065 H 
BRANCH  30  33
ATOM     33  N12 AEL d   1      18.008  19.387 -17.302  0.00  0.00    -0.280 N 
ATOM     34  C11 AEL d   1      19.176  18.849 -17.826  0.00  0.00     0.261 A 
ATOM     35  O15 AEL d   1      19.314  17.655 -17.890  0.00  0.00    -0.267 OA
ATOM     36  C5  AEL d   1      20.196  19.800 -18.299  0.00  0.00     0.044 A 
ATOM     37  C4  AEL d   1      21.407  19.335 -18.740  0.00  0.00    -0.067 A 
ATOM     38  C6  AEL d   1      19.955  21.181 -18.230  0.00  0.00     0.005 A 
ATOM     39  C3  AEL d   1      22.392  20.223 -19.115  0.00  0.00    -0.081 A 
ATOM     40  H3  AEL d   1      21.590  18.268 -18.794  0.00  0.00     0.085 H 
ATOM     41  C2  AEL d   1      22.175  21.560 -19.092  0.00  0.00    -0.072 A 
ATOM     42  H2  AEL d   1      23.357  19.845 -19.434  0.00  0.00     0.083 H 
ATOM     43  C1  AEL d   1      20.948  22.078 -18.651  0.00  0.00    -0.024 A 
ATOM     44  H1  AEL d   1      22.957  22.236 -19.418  0.00  0.00     0.084 H 
ATOM     45  C10 AEL d   1      20.713  23.458 -18.510  0.00  0.00    -0.072 A 
ATOM     46  C9  AEL d   1      19.561  23.907 -17.959  0.00  0.00    -0.081 A 
ATOM     47  H6  AEL d   1      21.461  24.168 -18.845  0.00  0.00     0.084 H 
ATOM     48  C8  AEL d   1      18.585  23.029 -17.537  0.00  0.00    -0.067 A 
ATOM     49  H5  AEL d   1      19.403  24.974 -17.848  0.00  0.00     0.083 H 
ATOM     50  C7  AEL d   1      18.769  21.680 -17.670  0.00  0.00     0.044 A 
ATOM     51  H4  AEL d   1      17.669  23.409 -17.099  0.00  0.00     0.085 H 
ATOM     52  C13 AEL d   1      17.739  20.748 -17.177  0.00  0.00     0.261 A 
ATOM     53  O14 AEL d   1      16.707  21.122 -16.683  0.00  0.00    -0.267 OA
ENDBRANCH  30  33
ENDBRANCH   1  30
TORSDOF 5
