REMARK  9 active torsions:
REMARK  status: ('A' for Active; 'I' for Inactive)
REMARK    1  A    between atoms: CAA_1  and  CAT_15 
REMARK    2  A    between atoms: CAG_5  and  CAI_6 
REMARK       I    between atoms: NAE_30  and  CAG_5 
REMARK    3  A    between atoms: CAP_12  and  CBA_20 
REMARK       I    between atoms: CAU_16  and  NAB_29 
REMARK    4  A    between atoms: OAV_34  and  CAU_16 
REMARK    5  A    between atoms: CAX_17  and  CAY_18 
REMARK    6  A    between atoms: CAX_17  and  OAV_34 
REMARK    7  A    between atoms: CAY_18  and  CAZ_19 
REMARK    8  A    between atoms: CBD_23  and  CBG_26 
REMARK    9  A    between atoms: CBG_26  and  NBJ_32 
ROOT
ATOM      1  CAI A8U d   1      74.410 132.679 123.463  0.00  0.00     0.034 C 
ATOM      2  CAJ A8U d   1      73.516 133.682 123.684  0.00  0.00    -0.039 C 
ATOM      3  CAK A8U d   1      72.951 134.373 122.645  0.00  0.00     0.068 C 
ATOM      4  CAL A8U d   1      73.503 134.327 121.386  0.00  0.00    -0.007 C 
ATOM      5  CAM A8U d   1      74.591 133.484 121.154  0.00  0.00    -0.070 C 
ATOM      6  CAN A8U d   1      75.082 132.707 122.223  0.00  0.00    -0.067 C 
ATOM      7  CAP A8U d   1      71.398 135.975 122.077  0.00  0.00     0.067 C 
ATOM      8  CAQ A8U d   1      71.846 135.943 120.754  0.00  0.00    -0.053 C 
ATOM      9  CAR A8U d   1      72.930 135.137 120.415  0.00  0.00    -0.069 C 
ATOM     10  NAO A8U d   1      71.898 135.112 122.949  0.00  0.00    -0.248 NA
ATOM     11  H8  A8U d   1      73.246 133.939 124.702  0.00  0.00     0.088 H 
ATOM     12  H9  A8U d   1      75.049 133.428 120.173  0.00  0.00     0.084 H 
ATOM     13  H10 A8U d   1      75.986 132.124 122.091  0.00  0.00     0.085 H 
ATOM     14  H11 A8U d   1      71.353 136.542 119.996  0.00  0.00     0.087 H 
ATOM     15  H12 A8U d   1      73.322 135.142 119.404  0.00  0.00     0.085 H 
ENDROOT
BRANCH   1  16
ATOM     16  CAG A8U d   1      75.002 132.077 124.533  0.00  0.00     0.254 C 
ATOM     17  NAE A8U d   1      75.343 130.804 124.443  0.00  0.00    -0.344 N 
ATOM     18  CAD A8U d   1      75.984 130.062 125.529  0.00  0.00     0.013 C 
ATOM     19  CAF A8U d   1      74.338 129.917 123.811  0.00  0.00     0.017 C 
ATOM     20  CAC A8U d   1      76.709 128.855 124.917  0.00  0.00     0.015 C 
ATOM     21  H4  A8U d   1      76.708 130.709 126.046  0.00  0.00     0.066 H 
ATOM     22  H5  A8U d   1      75.223 129.717 126.245  0.00  0.00     0.066 H 
ATOM     23  NAB A8U d   1      75.667 127.996 124.194  0.00  0.00    -0.321 N 
ATOM     24  H2  A8U d   1      77.192 128.267 125.711  0.00  0.00     0.067 H 
ATOM     25  H3  A8U d   1      77.470 129.200 124.202  0.00  0.00     0.067 H 
ATOM     26  CAA A8U d   1      74.914 128.734 123.138  0.00  0.00     0.029 C 
ATOM     27  CAU A8U d   1      75.645 126.655 124.253  0.00  0.00     0.363 C 
ATOM     28  H1  A8U d   1      74.113 128.091 122.744  0.00  0.00     0.074 H 
ATOM     29  OAW A8U d   1      74.780 126.051 123.613  0.00  0.00    -0.238 OA
ATOM     30  H6  A8U d   1      73.647 129.567 124.592  0.00  0.00     0.067 H 
ATOM     31  H7  A8U d   1      73.782 130.502 123.064  0.00  0.00     0.067 H 
ATOM     32  OAH A8U d   1      75.784 132.819 125.148  0.00  0.00    -0.267 OA
BRANCH  26  33
ATOM     33  CAT A8U d   1      75.795 129.198 121.966  0.00  0.00    -0.056 C 
ATOM     34  H13 A8U d   1      76.226 128.321 121.462  0.00  0.00     0.030 H 
ATOM     35  H14 A8U d   1      76.605 129.837 122.347  0.00  0.00     0.030 H 
ATOM     36  H15 A8U d   1      75.184 129.768 121.251  0.00  0.00     0.030 H 
ENDBRANCH  26  33
BRANCH  27  37
ATOM     37  OAV A8U d   1      76.346 126.014 125.236  0.00  0.00    -0.304 OA
BRANCH  37  38
ATOM     38  CAX A8U d   1      76.101 124.592 125.220  0.00  0.00     0.030 C 
ATOM     39  H16 A8U d   1      76.382 124.162 126.193  0.00  0.00     0.075 H 
ATOM     40  H17 A8U d   1      75.033 124.408 125.033  0.00  0.00     0.075 H 
BRANCH  38  41
ATOM     41  CAY A8U d   1      76.926 123.937 124.121  0.00  0.00    -0.048 C 
ATOM     42  H18 A8U d   1      76.654 124.370 123.147  0.00  0.00     0.035 H 
ATOM     43  H19 A8U d   1      76.731 122.855 124.108  0.00  0.00     0.035 H 
BRANCH  41  44
ATOM     44  CAZ A8U d   1      78.401 124.187 124.397  0.00  0.00    -0.075 C 
ATOM     45  H20 A8U d   1      79.006 123.717 123.608  0.00  0.00     0.027 H 
ATOM     46  H21 A8U d   1      78.670 123.754 125.372  0.00  0.00     0.027 H 
ATOM     47  H22 A8U d   1      78.593 125.270 124.411  0.00  0.00     0.027 H 
ENDBRANCH  41  44
ENDBRANCH  38  41
ENDBRANCH  37  38
ENDBRANCH  27  37
ENDBRANCH   1  16
BRANCH   7  48
ATOM     48  CBA A8U d   1      70.261 136.646 122.496  0.00  0.00    -0.007 A 
ATOM     49  CBB A8U d   1      69.775 137.786 121.881  0.00  0.00    -0.070 A 
ATOM     50  CBC A8U d   1      68.641 138.416 122.388  0.00  0.00    -0.074 A 
ATOM     51  H23 A8U d   1      70.275 138.188 121.007  0.00  0.00     0.084 H 
ATOM     52  CBD A8U d   1      68.013 137.911 123.525  0.00  0.00    -0.023 A 
ATOM     53  H24 A8U d   1      68.247 139.299 121.898  0.00  0.00     0.084 H 
ATOM     54  CBE A8U d   1      68.513 136.784 124.160  0.00  0.00    -0.074 A 
ATOM     55  CBF A8U d   1      69.659 136.188 123.667  0.00  0.00    -0.070 A 
ATOM     56  H25 A8U d   1      68.012 136.376 125.031  0.00  0.00     0.084 H 
ATOM     57  H26 A8U d   1      70.096 135.351 124.200  0.00  0.00     0.084 H 
BRANCH  52  58
ATOM     58  CBG A8U d   1      66.888 138.530 124.040  0.00  0.00     0.150 A 
ATOM     59  CBH A8U d   1      66.080 137.782 125.095  0.00  0.00    -0.027 A 
ATOM     60  CBI A8U d   1      67.005 138.925 125.491  0.00  0.00    -0.027 A 
ATOM     61  H27 A8U d   1      66.340 136.746 125.357  0.00  0.00     0.037 H 
ATOM     62  H28 A8U d   1      64.989 137.911 125.149  0.00  0.00     0.037 H 
ATOM     63  H29 A8U d   1      66.581 139.880 125.836  0.00  0.00     0.037 H 
ATOM     64  H30 A8U d   1      67.932 138.714 126.044  0.00  0.00     0.037 H 
BRANCH  58  65
ATOM     65  NBJ A8U d   1      66.171 139.464 123.159  0.00  0.00    -0.066 N 
ATOM     66  H31 A8U d   1      66.157 139.097 122.220  0.00  0.00     0.275 HD
ATOM     67  H32 A8U d   1      66.639 140.357 123.163  0.00  0.00     0.275 HD
ATOM     68  H33 A8U d   1      65.226 139.579 123.489  0.00  0.00     0.275 HD
ENDBRANCH  58  65
ENDBRANCH  52  58
ENDBRANCH   7  48
TORSDOF 9
