REMARK  16 active torsions:
REMARK  status: ('A' for Active; 'I' for Inactive)
REMARK    1  A    between atoms: C09_17  and  C10_1 
REMARK    2  A    between atoms: C10_1  and  O12_36 
REMARK    3  A    between atoms: C13_2  and  C14_18 
REMARK    4  A    between atoms: O12_36  and  C13_2 
REMARK    5  A    between atoms: C22_6  and  C25_22 
REMARK    6  A    between atoms: C02_11  and  C01_10 
REMARK    7  A    between atoms: C03_12  and  C02_11 
REMARK    8  A    between atoms: C04_13  and  C03_12 
REMARK    9  A    between atoms: C05_14  and  C04_13 
REMARK   10  A    between atoms: C07_15  and  C37_28 
REMARK   11  A    between atoms: C08_16  and  C09_17 
REMARK   12  A    between atoms: C18_19  and  C19_20 
REMARK   13  A    between atoms: C18_19  and  N17_32 
REMARK   14  A    between atoms: C30_25  and  C31_26 
REMARK   15  A    between atoms: C37_28  and  C38_29 
REMARK   16  A    between atoms: C37_28  and  C39_30 
ROOT
ATOM      1  C15 AE0 d   1     -24.002 -17.719   7.917  0.00  0.00     0.254 A 
ATOM      2  C05 AE0 d   1     -24.331 -17.879  10.442  0.00  0.00     0.080 A 
ATOM      3  C07 AE0 d   1     -26.128 -18.792   8.903  0.00  0.00     0.022 A 
ATOM      4  C08 AE0 d   1     -25.311 -18.387   7.731  0.00  0.00     0.042 A 
ATOM      5  N06 AE0 d   1     -25.643 -18.547  10.257  0.00  0.00    -0.371 N 
ATOM      6  N17 AE0 d   1     -23.528 -17.462   9.257  0.00  0.00    -0.323 N 
ATOM      7  O16 AE0 d   1     -23.368 -17.398   6.972  0.00  0.00    -0.268 OA
ATOM      8  H17 AE0 d   1     -23.829 -18.858  10.437  0.00  0.00     0.107 H 
ATOM      9  H36 AE0 d   1     -26.203 -18.834  11.072  0.00  0.00     0.161 HD
ENDROOT
BRANCH   6  10
ATOM     10  C18 AE0 d   1     -22.231 -16.843   9.429  0.00  0.00     0.024 C 
ATOM     11  H23 AE0 d   1     -21.856 -17.113  10.427  0.00  0.00     0.071 H 
ATOM     12  H24 AE0 d   1     -21.556 -17.250   8.661  0.00  0.00     0.071 H 
BRANCH  10  13
ATOM     13  C19 AE0 d   1     -22.212 -15.328   9.315  0.00  0.00    -0.040 A 
ATOM     14  C20 AE0 d   1     -23.315 -14.615   8.888  0.00  0.00    -0.074 A 
ATOM     15  C21 AE0 d   1     -23.241 -13.233   8.812  0.00  0.00    -0.072 A 
ATOM     16  H3  AE0 d   1     -24.229 -15.131   8.615  0.00  0.00     0.084 H 
ATOM     17  C22 AE0 d   1     -22.062 -12.587   9.139  0.00  0.00    -0.025 A 
ATOM     18  H4  AE0 d   1     -24.105 -12.659   8.497  0.00  0.00     0.084 H 
ATOM     19  C23 AE0 d   1     -20.971 -13.313   9.570  0.00  0.00    -0.072 A 
ATOM     20  C24 AE0 d   1     -21.041 -14.684   9.652  0.00  0.00    -0.074 A 
ATOM     21  H25 AE0 d   1     -20.056 -12.801   9.845  0.00  0.00     0.084 H 
ATOM     22  H5  AE0 d   1     -20.180 -15.255   9.980  0.00  0.00     0.084 H 
BRANCH  17  23
ATOM     23  C25 AE0 d   1     -21.907 -11.075   9.072  0.00  0.00    -0.016 A 
ATOM     24  C26 AE0 d   1     -21.230 -10.491  10.128  0.00  0.00    -0.072 A 
ATOM     25  C27 AE0 d   1     -21.020  -9.128  10.166  0.00  0.00    -0.082 A 
ATOM     26  H6  AE0 d   1     -20.860 -11.112  10.936  0.00  0.00     0.084 H 
ATOM     27  C28 AE0 d   1     -21.498  -8.341   9.130  0.00  0.00    -0.082 A 
ATOM     28  H26 AE0 d   1     -20.488  -8.678  10.996  0.00  0.00     0.083 H 
ATOM     29  C29 AE0 d   1     -22.174  -8.921   8.067  0.00  0.00    -0.072 A 
ATOM     30  H7  AE0 d   1     -21.343  -7.268   9.151  0.00  0.00     0.083 H 
ATOM     31  C30 AE0 d   1     -22.394 -10.290   8.019  0.00  0.00     0.005 A 
ATOM     32  H27 AE0 d   1     -22.537  -8.294   7.260  0.00  0.00     0.084 H 
BRANCH  31  33
ATOM     33  C31 AE0 d   1     -23.108 -10.855   6.767  0.00  0.00     0.226 A 
ATOM     34  N32 AE0 d   1     -24.229 -10.302   6.045  0.00  0.00     0.073 N 
ATOM     35  O33 AE0 d   1     -24.510 -11.155   4.916  0.00  0.00    -0.101 OA
ATOM     36  H37 AE0 d   1     -24.002  -9.374   5.722  0.00  0.00     0.318 HD
ATOM     37  H38 AE0 d   1     -25.035 -10.260   6.649  0.00  0.00     0.318 HD
ATOM     38  C34 AE0 d   1     -23.571 -12.225   4.914  0.00  0.00     0.389 A 
ATOM     39  N36 AE0 d   1     -22.703 -12.025   6.052  0.00  0.00    -0.301 N 
ATOM     40  O35 AE0 d   1     -23.511 -13.122   4.137  0.00  0.00    -0.236 OA
ATOM     41  H39 AE0 d   1     -21.936 -12.615   6.301  0.00  0.00     0.167 HD
ATOM     42  H28 AE0 d   1     -23.769 -11.426   7.436  0.00  0.00     0.131 H 
ENDBRANCH  31  33
ENDBRANCH  17  23
ENDBRANCH  10  13
ENDBRANCH   6  10
BRANCH   2  43
ATOM     43  C04 AE0 d   1     -23.817 -17.618  11.849  0.00  0.00    -0.030 C 
ATOM     44  H15 AE0 d   1     -22.754 -17.340  11.800  0.00  0.00     0.038 H 
ATOM     45  H16 AE0 d   1     -24.391 -16.794  12.297  0.00  0.00     0.038 H 
BRANCH  43  46
ATOM     46  C03 AE0 d   1     -23.971 -18.864  12.713  0.00  0.00    -0.062 C 
ATOM     47  H13 AE0 d   1     -24.897 -18.775  13.300  0.00  0.00     0.033 H 
ATOM     48  H14 AE0 d   1     -24.037 -19.744  12.056  0.00  0.00     0.033 H 
BRANCH  46  49
ATOM     49  C02 AE0 d   1     -22.798 -19.054  13.672  0.00  0.00    -0.068 C 
ATOM     50  H11 AE0 d   1     -21.916 -18.544  13.256  0.00  0.00     0.032 H 
ATOM     51  H12 AE0 d   1     -23.059 -18.604  14.641  0.00  0.00     0.032 H 
BRANCH  49  52
ATOM     52  C01 AE0 d   1     -22.453 -20.528  13.893  0.00  0.00    -0.077 C 
ATOM     53  H8  AE0 d   1     -21.605 -20.606  14.589  0.00  0.00     0.027 H 
ATOM     54  H9  AE0 d   1     -22.182 -20.989  12.932  0.00  0.00     0.027 H 
ATOM     55  H10 AE0 d   1     -23.324 -21.049  14.317  0.00  0.00     0.027 H 
ENDBRANCH  49  52
ENDBRANCH  46  49
ENDBRANCH  43  46
ENDBRANCH   2  43
BRANCH   4  56
ATOM     56  C09 AE0 d   1     -25.821 -18.648   6.325  0.00  0.00     0.047 C 
ATOM     57  H18 AE0 d   1     -26.794 -19.157   6.396  0.00  0.00     0.055 H 
ATOM     58  H19 AE0 d   1     -25.949 -17.681   5.816  0.00  0.00     0.055 H 
BRANCH  56  59
ATOM     59  C10 AE0 d   1     -24.888 -19.509   5.493  0.00  0.00     0.263 C 
ATOM     60  O11 AE0 d   1     -23.933 -19.008   5.001  0.00  0.00    -0.265 OA
BRANCH  59  61
ATOM     61  O12 AE0 d   1     -25.164 -20.868   5.307  0.00  0.00    -0.322 OA
BRANCH  61  62
ATOM     62  C13 AE0 d   1     -24.995 -21.314   3.993  0.00  0.00     0.025 C 
ATOM     63  H1  AE0 d   1     -25.028 -20.459   3.302  0.00  0.00     0.074 H 
ATOM     64  H2  AE0 d   1     -24.027 -21.827   3.895  0.00  0.00     0.074 H 
BRANCH  62  65
ATOM     65  C14 AE0 d   1     -26.132 -22.285   3.672  0.00  0.00    -0.056 C 
ATOM     66  H20 AE0 d   1     -26.021 -22.651   2.641  0.00  0.00     0.030 H 
ATOM     67  H21 AE0 d   1     -27.097 -21.767   3.776  0.00  0.00     0.030 H 
ATOM     68  H22 AE0 d   1     -26.096 -23.135   4.369  0.00  0.00     0.030 H 
ENDBRANCH  62  65
ENDBRANCH  61  62
ENDBRANCH  59  61
ENDBRANCH  56  59
ENDBRANCH   4  56
BRANCH   3  69
ATOM     69  C37 AE0 d   1     -27.461 -19.478   8.640  0.00  0.00    -0.020 C 
ATOM     70  H29 AE0 d   1     -27.886 -19.085   7.704  0.00  0.00     0.048 H 
BRANCH  69  71
ATOM     71  C38 AE0 d   1     -28.439 -19.200   9.775  0.00  0.00    -0.068 C 
ATOM     72  H30 AE0 d   1     -29.395 -19.703   9.567  0.00  0.00     0.028 H 
ATOM     73  H31 AE0 d   1     -28.606 -18.116   9.858  0.00  0.00     0.028 H 
ATOM     74  H32 AE0 d   1     -28.022 -19.580  10.719  0.00  0.00     0.028 H 
ENDBRANCH  69  71
BRANCH  69  75
ATOM     75  C39 AE0 d   1     -27.235 -20.979   8.490  0.00  0.00    -0.068 C 
ATOM     76  H33 AE0 d   1     -26.528 -21.163   7.668  0.00  0.00     0.028 H 
ATOM     77  H34 AE0 d   1     -28.192 -21.474   8.268  0.00  0.00     0.028 H 
ATOM     78  H35 AE0 d   1     -26.822 -21.383   9.426  0.00  0.00     0.028 H 
ENDBRANCH  69  75
ENDBRANCH   3  69
TORSDOF 16
