REMARK  5 active torsions:
REMARK  status: ('A' for Active; 'I' for Inactive)
REMARK    1  A    between atoms: NAG_23  and  CAE_4 
REMARK    2  A    between atoms: CAI_7  and  CAH_6 
REMARK       I    between atoms: CAH_6  and  NAG_23 
REMARK    3  A    between atoms: CAK_8  and  NAP_25 
REMARK    4  A    between atoms: CAQ_12  and  CAN_10 
REMARK    5  A    between atoms: NAW_26  and  CAU_16 
ROOT
ATOM      1  CAQ AFU d   1      60.069   2.497  65.114  0.00  0.00    -0.022 C 
ATOM      2  CAR AFU d   1      59.279   2.431  66.254  0.00  0.00    -0.072 C 
ATOM      3  CAS AFU d   1      58.077   1.729  66.215  0.00  0.00    -0.080 C 
ATOM      4  CAT AFU d   1      57.702   1.045  65.062  0.00  0.00    -0.057 C 
ATOM      5  CAU AFU d   1      58.526   1.113  63.946  0.00  0.00     0.031 C 
ATOM      6  CAV AFU d   1      59.744   1.771  63.988  0.00  0.00    -0.047 C 
ATOM      7  H7  AFU d   1      59.596   2.922  67.167  0.00  0.00     0.084 H 
ATOM      8  H8  AFU d   1      57.431   1.715  67.085  0.00  0.00     0.083 H 
ATOM      9  H9  AFU d   1      56.784   0.470  65.036  0.00  0.00     0.086 H 
ATOM     10  H10 AFU d   1      60.430   1.716  63.150  0.00  0.00     0.088 H 
ENDROOT
BRANCH   1  11
ATOM     11  CAN AFU d   1      61.294   3.115  65.183  0.00  0.00    -0.007 C 
ATOM     12  CAM AFU d   1      61.588   3.983  66.229  0.00  0.00     0.015 C 
ATOM     13  NAL AFU d   1      62.861   4.555  66.315  0.00  0.00    -0.242 NA
ATOM     14  H5  AFU d   1      60.835   4.215  66.973  0.00  0.00     0.116 H 
ATOM     15  CAK AFU d   1      63.802   4.170  65.446  0.00  0.00     0.136 C 
ATOM     16  CAI AFU d   1      63.536   3.257  64.438  0.00  0.00     0.078 C 
ATOM     17  CAO AFU d   1      62.283   2.681  64.312  0.00  0.00    -0.052 C 
ATOM     18  H6  AFU d   1      62.083   1.923  63.564  0.00  0.00     0.086 H 
BRANCH  15  19
ATOM     19  NAP AFU d   1      65.041   4.653  65.484  0.00  0.00    -0.383 N 
ATOM     20  H20 AFU d   1      65.306   5.336  66.208  0.00  0.00     0.157 HD
ATOM     21  H21 AFU d   1      65.736   4.344  64.789  0.00  0.00     0.157 HD
ENDBRANCH  15  19
BRANCH  16  22
ATOM     22  CAH AFU d   1      64.559   2.869  63.607  0.00  0.00     0.260 C 
ATOM     23  NAG AFU d   1      64.166   1.947  62.705  0.00  0.00    -0.323 N 
ATOM     24  H19 AFU d   1      63.214   1.641  62.719  0.00  0.00     0.169 HD
ATOM     25  OAJ AFU d   1      65.657   3.421  63.714  0.00  0.00    -0.267 OA
BRANCH  23  26
ATOM     26  CAE AFU d   1      64.989   1.425  61.796  0.00  0.00     0.037 A 
ATOM     27  CAD AFU d   1      66.378   1.597  61.819  0.00  0.00    -0.040 A 
ATOM     28  CAC AFU d   1      67.196   0.948  60.900  0.00  0.00     0.004 A 
ATOM     29  H3  AFU d   1      66.823   2.246  62.565  0.00  0.00     0.089 H 
ATOM     30  NAB AFU d   1      66.632   0.060  59.969  0.00  0.00    -0.273 NA
ATOM     31  H2  AFU d   1      68.265   1.127  60.902  0.00  0.00     0.114 H 
ATOM     32  CAA AFU d   1      65.245  -0.157  59.986  0.00  0.00     0.004 A 
ATOM     33  CAF AFU d   1      64.445   0.491  60.923  0.00  0.00    -0.040 A 
ATOM     34  H1  AFU d   1      64.795  -0.832  59.267  0.00  0.00     0.114 H 
ATOM     35  H4  AFU d   1      63.386   0.264  60.972  0.00  0.00     0.089 H 
ENDBRANCH  23  26
ENDBRANCH  16  22
ENDBRANCH   1  11
BRANCH   5  36
ATOM     36  NAW AFU d   1      58.230   0.449  62.840  0.00  0.00    -0.378 N 
ATOM     37  CAX AFU d   1      59.096   0.520  61.658  0.00  0.00     0.018 C 
ATOM     38  CAY AFU d   1      58.242   0.388  60.409  0.00  0.00     0.096 C 
ATOM     39  H11 AFU d   1      59.622   1.486  61.644  0.00  0.00     0.066 H 
ATOM     40  H12 AFU d   1      59.831  -0.298  61.690  0.00  0.00     0.066 H 
ATOM     41  NAZ AFU d   1      57.490  -0.891  60.369  0.00  0.00    -0.072 N 
ATOM     42  H13 AFU d   1      58.897   0.440  59.526  0.00  0.00     0.078 H 
ATOM     43  H14 AFU d   1      57.524   1.221  60.383  0.00  0.00     0.078 H 
ATOM     44  CBA AFU d   1      56.626  -0.869  61.576  0.00  0.00     0.096 C 
ATOM     45  H22 AFU d   1      58.123  -1.675  60.401  0.00  0.00     0.277 HD
ATOM     46  H23 AFU d   1      56.929  -0.946  59.533  0.00  0.00     0.277 HD
ATOM     47  CBB AFU d   1      57.422  -0.774  62.858  0.00  0.00     0.018 C 
ATOM     48  H15 AFU d   1      55.954  -0.000  61.513  0.00  0.00     0.078 H 
ATOM     49  H16 AFU d   1      56.029  -1.793  61.599  0.00  0.00     0.078 H 
ATOM     50  H17 AFU d   1      58.083  -1.649  62.945  0.00  0.00     0.066 H 
ATOM     51  H18 AFU d   1      56.734  -0.747  63.716  0.00  0.00     0.066 H 
ENDBRANCH   5  36
TORSDOF 5
