REMARK  5 active torsions:
REMARK  status: ('A' for Active; 'I' for Inactive)
REMARK    1  A    between atoms: C11_4  and  C12_9 
REMARK    2  A    between atoms: O2_16  and  C11_4 
REMARK    3  A    between atoms: O1_15  and  C10_8 
REMARK       I    between atoms: N1_11  and  C13_10 
REMARK    4  A    between atoms: C3_12  and  O2_16 
REMARK    5  A    between atoms: C2_14  and  O1_15 
ROOT
ATOM      1  C4  AH3 d   1      81.674 158.416  24.236  0.00  0.00    -0.040 A 
ATOM      2  C5  AH3 d   1      81.966 158.257  25.595  0.00  0.00    -0.031 A 
ATOM      3  C6  AH3 d   1      82.782 157.211  26.016  0.00  0.00    -0.046 A 
ATOM      4  C7  AH3 d   1      81.363 159.237  26.570  0.00  0.00     0.021 C 
ATOM      5  C8  AH3 d   1      82.096 157.682  28.374  0.00  0.00     0.001 C 
ATOM      6  C9  AH3 d   1      83.110 157.005  27.475  0.00  0.00    -0.025 C 
ATOM      7  C13 AH3 d   1      82.221 160.131  28.681  0.00  0.00     0.171 C 
ATOM      8  N1  AH3 d   1      81.906 159.063  27.925  0.00  0.00    -0.355 N 
ATOM      9  C3  AH3 d   1      82.190 157.547  23.298  0.00  0.00     0.102 A 
ATOM     10  C1  AH3 d   1      83.305 156.341  25.058  0.00  0.00    -0.041 A 
ATOM     11  C2  AH3 d   1      83.018 156.490  23.719  0.00  0.00     0.102 A 
ATOM     12  O3  AH3 d   1      82.036 161.293  28.363  0.00  0.00    -0.284 OA
ATOM     13  H1  AH3 d   1      81.035 159.231  23.917  0.00  0.00     0.088 H 
ATOM     14  H4  AH3 d   1      80.274 159.085  26.601  0.00  0.00     0.071 H 
ATOM     15  H5  AH3 d   1      81.581 160.260  26.228  0.00  0.00     0.071 H 
ATOM     16  H6  AH3 d   1      82.463 157.679  29.411  0.00  0.00     0.064 H 
ATOM     17  H7  AH3 d   1      81.139 157.143  28.322  0.00  0.00     0.064 H 
ATOM     18  H8  AH3 d   1      84.106 157.425  27.680  0.00  0.00     0.042 H 
ATOM     19  H9  AH3 d   1      83.115 155.927  27.691  0.00  0.00     0.042 H 
ATOM     20  H16 AH3 d   1      82.676 159.942  29.652  0.00  0.00     0.180 H 
ATOM     21  H17 AH3 d   1      83.951 155.530  25.375  0.00  0.00     0.088 H 
ENDROOT
BRANCH   9  22
ATOM     22  O2  AH3 d   1      81.982 157.624  21.947  0.00  0.00    -0.349 OA
BRANCH  22  23
ATOM     23  C11 AH3 d   1      80.954 158.501  21.469  0.00  0.00     0.023 C 
ATOM     24  H2  AH3 d   1      79.987 158.229  21.918  0.00  0.00     0.074 H 
ATOM     25  H3  AH3 d   1      81.197 159.542  21.726  0.00  0.00     0.074 H 
BRANCH  23  26
ATOM     26  C12 AH3 d   1      80.893 158.340  19.981  0.00  0.00    -0.056 C 
ATOM     27  H13 AH3 d   1      80.113 158.999  19.573  0.00  0.00     0.030 H 
ATOM     28  H14 AH3 d   1      80.656 157.294  19.735  0.00  0.00     0.030 H 
ATOM     29  H15 AH3 d   1      81.866 158.608  19.543  0.00  0.00     0.030 H 
ENDBRANCH  23  26
ENDBRANCH  22  23
ENDBRANCH   9  22
BRANCH  11  30
ATOM     30  O1  AH3 d   1      83.490 155.678  22.721  0.00  0.00    -0.353 OA
BRANCH  30  31
ATOM     31  C10 AH3 d   1      84.691 154.966  23.001  0.00  0.00     0.010 C 
ATOM     32  H10 AH3 d   1      84.966 154.354  22.130  0.00  0.00     0.066 H 
ATOM     33  H11 AH3 d   1      84.536 154.314  23.873  0.00  0.00     0.066 H 
ATOM     34  H12 AH3 d   1      85.499 155.680  23.217  0.00  0.00     0.066 H 
ENDBRANCH  30  31
ENDBRANCH  11  30
TORSDOF 5
