REMARK  4 active torsions:
REMARK  status: ('A' for Active; 'I' for Inactive)
REMARK    1  A    between atoms: O2_15  and  C11_4 
REMARK    2  A    between atoms: O1_14  and  C10_8 
REMARK       I    between atoms: N1_10  and  C12_9 
REMARK    3  A    between atoms: C3_11  and  O2_15 
REMARK    4  A    between atoms: C2_13  and  O1_14 
ROOT
ATOM      1  C4  AH9 d   1      25.039  -3.777  24.745  0.00  0.00    -0.040 A 
ATOM      2  C5  AH9 d   1      24.326  -2.832  25.491  0.00  0.00    -0.031 A 
ATOM      3  C6  AH9 d   1      23.451  -1.960  24.853  0.00  0.00    -0.046 A 
ATOM      4  C7  AH9 d   1      24.533  -2.783  26.982  0.00  0.00     0.021 C 
ATOM      5  C8  AH9 d   1      22.665  -1.196  27.107  0.00  0.00     0.001 C 
ATOM      6  C9  AH9 d   1      22.652  -0.933  25.616  0.00  0.00    -0.025 C 
ATOM      7  C12 AH9 d   1      24.781  -0.669  28.249  0.00  0.00     0.171 C 
ATOM      8  N1  AH9 d   1      24.033  -1.510  27.508  0.00  0.00    -0.355 N 
ATOM      9  C3  AH9 d   1      24.883  -3.854  23.376  0.00  0.00     0.102 A 
ATOM     10  C1  AH9 d   1      23.302  -2.047  23.467  0.00  0.00    -0.041 A 
ATOM     11  C2  AH9 d   1      23.999  -2.973  22.727  0.00  0.00     0.102 A 
ATOM     12  O3  AH9 d   1      24.452   0.466  28.544  0.00  0.00    -0.284 OA
ATOM     13  H1  AH9 d   1      25.720  -4.455  25.247  0.00  0.00     0.088 H 
ATOM     14  H5  AH9 d   1      25.606  -2.875  27.206  0.00  0.00     0.071 H 
ATOM     15  H6  AH9 d   1      23.988  -3.613  27.454  0.00  0.00     0.071 H 
ATOM     16  H7  AH9 d   1      22.006  -2.045  27.340  0.00  0.00     0.064 H 
ATOM     17  H8  AH9 d   1      22.316  -0.302  27.645  0.00  0.00     0.064 H 
ATOM     18  H9  AH9 d   1      21.611  -0.957  25.260  0.00  0.00     0.042 H 
ATOM     19  H10 AH9 d   1      23.081   0.062  25.427  0.00  0.00     0.042 H 
ATOM     20  H14 AH9 d   1      25.744  -1.028  28.608  0.00  0.00     0.180 H 
ATOM     21  H15 AH9 d   1      22.622  -1.369  22.963  0.00  0.00     0.088 H 
ENDROOT
BRANCH   9  22
ATOM     22  O2  AH9 d   1      25.531  -4.731  22.551  0.00  0.00    -0.353 OA
BRANCH  22  23
ATOM     23  C11 AH9 d   1      26.430  -5.649  23.165  0.00  0.00     0.010 C 
ATOM     24  H2  AH9 d   1      26.880  -6.292  22.395  0.00  0.00     0.066 H 
ATOM     25  H3  AH9 d   1      25.882  -6.271  23.887  0.00  0.00     0.066 H 
ATOM     26  H4  AH9 d   1      27.222  -5.093  23.687  0.00  0.00     0.066 H 
ENDBRANCH  22  23
ENDBRANCH   9  22
BRANCH  11  27
ATOM     27  O1  AH9 d   1      23.902  -3.120  21.369  0.00  0.00    -0.353 OA
BRANCH  27  28
ATOM     28  C10 AH9 d   1      23.015  -2.235  20.684  0.00  0.00     0.010 C 
ATOM     29  H11 AH9 d   1      23.032  -2.459  19.607  0.00  0.00     0.066 H 
ATOM     30  H12 AH9 d   1      23.336  -1.196  20.847  0.00  0.00     0.066 H 
ATOM     31  H13 AH9 d   1      21.994  -2.368  21.070  0.00  0.00     0.066 H 
ENDBRANCH  27  28
ENDBRANCH  11  27
TORSDOF 4
