REMARK  4 active torsions:
REMARK  status: ('A' for Active; 'I' for Inactive)
REMARK    1  A    between atoms: O2_15  and  C11_4 
REMARK    2  A    between atoms: O1_14  and  C10_8 
REMARK       I    between atoms: N1_10  and  C12_9 
REMARK    3  A    between atoms: C3_11  and  O2_15 
REMARK    4  A    between atoms: C2_13  and  O1_14 
ROOT
ATOM      1  C4  AH9 d   1      23.309  -2.084  23.630  0.00  0.00    -0.040 A 
ATOM      2  C5  AH9 d   1      23.510  -2.105  25.015  0.00  0.00    -0.031 A 
ATOM      3  C6  AH9 d   1      24.391  -3.024  25.578  0.00  0.00    -0.046 A 
ATOM      4  C7  AH9 d   1      22.751  -1.116  25.862  0.00  0.00     0.021 C 
ATOM      5  C8  AH9 d   1      23.592  -2.294  27.844  0.00  0.00     0.001 C 
ATOM      6  C9  AH9 d   1      24.632  -3.076  27.067  0.00  0.00    -0.025 C 
ATOM      7  C12 AH9 d   1      23.775   0.162  27.716  0.00  0.00     0.171 C 
ATOM      8  N1  AH9 d   1      23.377  -1.011  27.180  0.00  0.00    -0.355 N 
ATOM      9  C3  AH9 d   1      23.975  -2.967  22.803  0.00  0.00     0.102 A 
ATOM     10  C1  AH9 d   1      25.060  -3.919  24.734  0.00  0.00    -0.041 A 
ATOM     11  C2  AH9 d   1      24.864  -3.900  23.372  0.00  0.00     0.102 A 
ATOM     12  O3  AH9 d   1      24.545   0.268  28.652  0.00  0.00    -0.284 OA
ATOM     13  H1  AH9 d   1      22.621  -1.365  23.201  0.00  0.00     0.088 H 
ATOM     14  H5  AH9 d   1      21.711  -1.456  25.977  0.00  0.00     0.071 H 
ATOM     15  H6  AH9 d   1      22.763  -0.131  25.372  0.00  0.00     0.071 H 
ATOM     16  H7  AH9 d   1      23.948  -2.124  28.871  0.00  0.00     0.064 H 
ATOM     17  H8  AH9 d   1      22.649  -2.859  27.872  0.00  0.00     0.064 H 
ATOM     18  H9  AH9 d   1      25.625  -2.653  27.280  0.00  0.00     0.042 H 
ATOM     19  H10 AH9 d   1      24.603  -4.126  27.394  0.00  0.00     0.042 H 
ATOM     20  H14 AH9 d   1      23.379   1.078  27.280  0.00  0.00     0.180 H 
ATOM     21  H15 AH9 d   1      25.746  -4.641  25.162  0.00  0.00     0.088 H 
ENDROOT
BRANCH   9  22
ATOM     22  O2  AH9 d   1      23.836  -3.035  21.439  0.00  0.00    -0.353 OA
BRANCH  22  23
ATOM     23  C11 AH9 d   1      22.891  -2.154  20.824  0.00  0.00     0.010 C 
ATOM     24  H2  AH9 d   1      22.889  -2.320  19.737  0.00  0.00     0.066 H 
ATOM     25  H3  AH9 d   1      23.171  -1.111  21.035  0.00  0.00     0.066 H 
ATOM     26  H4  AH9 d   1      21.887  -2.353  21.228  0.00  0.00     0.066 H 
ENDBRANCH  22  23
ENDBRANCH   9  22
BRANCH  11  27
ATOM     27  O1  AH9 d   1      25.478  -4.739  22.489  0.00  0.00    -0.353 OA
BRANCH  27  28
ATOM     28  C10 AH9 d   1      26.334  -5.726  23.052  0.00  0.00     0.010 C 
ATOM     29  H11 AH9 d   1      26.768  -6.337  22.247  0.00  0.00     0.066 H 
ATOM     30  H12 AH9 d   1      25.755  -6.370  23.730  0.00  0.00     0.066 H 
ATOM     31  H13 AH9 d   1      27.141  -5.234  23.614  0.00  0.00     0.066 H 
ENDBRANCH  27  28
ENDBRANCH  11  27
TORSDOF 4
