REMARK  5 active torsions:
REMARK  status: ('A' for Active; 'I' for Inactive)
REMARK    1  A    between atoms: C10_8  and  C11_4 
REMARK    2  A    between atoms: O1_15  and  C10_8 
REMARK    3  A    between atoms: O2_16  and  C12_9 
REMARK       I    between atoms: N1_11  and  C13_10 
REMARK    4  A    between atoms: C3_12  and  O2_16 
REMARK    5  A    between atoms: C2_14  and  O1_15 
ROOT
ATOM      1  C4  AH6 d   1      25.013  -3.991  25.193  0.00  0.00    -0.040 A 
ATOM      2  C5  AH6 d   1      24.491  -2.978  26.004  0.00  0.00    -0.031 A 
ATOM      3  C6  AH6 d   1      23.735  -1.957  25.442  0.00  0.00    -0.046 A 
ATOM      4  C7  AH6 d   1      24.774  -3.034  27.484  0.00  0.00     0.021 C 
ATOM      5  C8  AH6 d   1      23.097  -1.244  27.752  0.00  0.00     0.001 C 
ATOM      6  C9  AH6 d   1      23.156  -0.853  26.290  0.00  0.00    -0.025 C 
ATOM      7  C13 AH6 d   1      25.185  -1.172  29.057  0.00  0.00     0.171 C 
ATOM      8  N1  AH6 d   1      24.391  -1.785  28.157  0.00  0.00    -0.355 N 
ATOM      9  C3  AH6 d   1      24.791  -3.991  23.831  0.00  0.00     0.102 A 
ATOM     10  C1  AH6 d   1      23.513  -1.964  24.062  0.00  0.00    -0.041 A 
ATOM     11  C2  AH6 d   1      24.027  -2.957  23.261  0.00  0.00     0.102 A 
ATOM     12  O3  AH6 d   1      26.293  -1.557  29.385  0.00  0.00    -0.284 OA
ATOM     13  H1  AH6 d   1      25.599  -4.786  25.640  0.00  0.00     0.088 H 
ATOM     14  H5  AH6 d   1      25.850  -3.205  27.635  0.00  0.00     0.071 H 
ATOM     15  H6  AH6 d   1      24.205  -3.866  27.925  0.00  0.00     0.071 H 
ATOM     16  H7  AH6 d   1      22.318  -2.006  27.898  0.00  0.00     0.064 H 
ATOM     17  H8  AH6 d   1      22.862  -0.358  28.360  0.00  0.00     0.064 H 
ATOM     18  H9  AH6 d   1      22.138  -0.630  25.939  0.00  0.00     0.042 H 
ATOM     19  H10 AH6 d   1      23.784   0.044  26.186  0.00  0.00     0.042 H 
ATOM     20  H16 AH6 d   1      24.808  -0.265  29.526  0.00  0.00     0.180 H 
ATOM     21  H17 AH6 d   1      22.924  -1.171  23.614  0.00  0.00     0.088 H 
ENDROOT
BRANCH  11  22
ATOM     22  O1  AH6 d   1      23.826  -3.018  21.916  0.00  0.00    -0.349 OA
BRANCH  22  23
ATOM     23  C10 AH6 d   1      23.006  -1.977  21.358  0.00  0.00     0.023 C 
ATOM     24  H11 AH6 d   1      22.067  -1.896  21.926  0.00  0.00     0.074 H 
ATOM     25  H12 AH6 d   1      23.542  -1.018  21.398  0.00  0.00     0.074 H 
BRANCH  23  26
ATOM     26  C11 AH6 d   1      22.709  -2.335  19.932  0.00  0.00    -0.056 C 
ATOM     27  H2  AH6 d   1      22.081  -1.553  19.481  0.00  0.00     0.030 H 
ATOM     28  H3  AH6 d   1      22.176  -3.297  19.899  0.00  0.00     0.030 H 
ATOM     29  H4  AH6 d   1      23.651  -2.418  19.371  0.00  0.00     0.030 H 
ENDBRANCH  23  26
ENDBRANCH  22  23
ENDBRANCH  11  22
BRANCH   9  30
ATOM     30  O2  AH6 d   1      25.253  -4.930  22.950  0.00  0.00    -0.353 OA
BRANCH  30  31
ATOM     31  C12 AH6 d   1      26.177  -5.888  23.453  0.00  0.00     0.010 C 
ATOM     32  H13 AH6 d   1      26.465  -6.578  22.646  0.00  0.00     0.066 H 
ATOM     33  H14 AH6 d   1      25.709  -6.455  24.271  0.00  0.00     0.066 H 
ATOM     34  H15 AH6 d   1      27.072  -5.371  23.831  0.00  0.00     0.066 H 
ENDBRANCH  30  31
ENDBRANCH   9  30
TORSDOF 5
