REMARK  6 active torsions:
REMARK  status: ('A' for Active; 'I' for Inactive)
REMARK    1  A    between atoms: C13_11  and  C14_2 
REMARK    2  A    between atoms: O2_25  and  C11_5 
REMARK    3  A    between atoms: C7_6  and  C13_11 
REMARK    4  A    between atoms: O1_24  and  C10_9 
REMARK       I    between atoms: N1_12  and  C12_10 
REMARK    5  A    between atoms: C3_14  and  O2_25 
REMARK    6  A    between atoms: C2_21  and  O1_24 
ROOT
ATOM      1  C4  AJL d   1      25.061 157.315  24.874  0.00  0.00    -0.039 A 
ATOM      2  C5  AJL d   1      24.372 158.311  25.585  0.00  0.00    -0.026 A 
ATOM      3  C6  AJL d   1      23.505 159.160  24.906  0.00  0.00    -0.045 A 
ATOM      4  C7  AJL d   1      24.589 158.442  27.085  0.00  0.00     0.044 C 
ATOM      5  C8  AJL d   1      22.689 159.998  27.111  0.00  0.00     0.002 C 
ATOM      6  C9  AJL d   1      22.737 160.241  25.621  0.00  0.00    -0.025 C 
ATOM      7  C12 AJL d   1      24.736 160.553  28.384  0.00  0.00     0.171 C 
ATOM      8  N1  AJL d   1      24.042 159.714  27.582  0.00  0.00    -0.350 N 
ATOM      9  C3  AJL d   1      24.893 157.170  23.515  0.00  0.00     0.102 A 
ATOM     10  C1  AJL d   1      23.340 159.003  23.527  0.00  0.00    -0.041 A 
ATOM     11  C2  AJL d   1      24.024 158.036  22.829  0.00  0.00     0.102 A 
ATOM     12  O3  AJL d   1      25.822 160.301  28.877  0.00  0.00    -0.284 OA
ATOM     13  H1  AJL d   1      25.735 156.651  25.403  0.00  0.00     0.088 H 
ATOM     14  H5  AJL d   1      25.672 158.434  27.278  0.00  0.00     0.081 H 
ATOM     15  H6  AJL d   1      22.035 159.140  27.326  0.00  0.00     0.064 H 
ATOM     16  H7  AJL d   1      22.300 160.892  27.620  0.00  0.00     0.064 H 
ATOM     17  H8  AJL d   1      21.709 160.266  25.230  0.00  0.00     0.042 H 
ATOM     18  H9  AJL d   1      23.225 161.209  25.433  0.00  0.00     0.042 H 
ATOM     19  H13 AJL d   1      24.293 161.523  28.605  0.00  0.00     0.180 H 
ATOM     20  H17 AJL d   1      22.658 159.658  22.997  0.00  0.00     0.088 H 
ENDROOT
BRANCH   4  21
ATOM     21  C13 AJL d   1      23.955 157.248  27.834  0.00  0.00    -0.016 C 
ATOM     22  H14 AJL d   1      23.037 157.586  28.337  0.00  0.00     0.043 H 
ATOM     23  H15 AJL d   1      23.706 156.460  27.108  0.00  0.00     0.043 H 
BRANCH  21  24
ATOM     24  C14 AJL d   1      24.898 156.689  28.859  0.00  0.00    -0.028 A 
ATOM     25  C15 AJL d   1      25.147 157.224  30.091  0.00  0.00    -0.015 A 
ATOM     26  N2  AJL d   1      26.068 156.459  30.757  0.00  0.00    -0.365 N 
ATOM     27  H18 AJL d   1      24.682 158.126  30.486  0.00  0.00     0.112 H 
ATOM     28  C16 AJL d   1      26.441 155.403  29.965  0.00  0.00     0.042 A 
ATOM     29  H16 AJL d   1      26.425 156.648  31.705  0.00  0.00     0.165 HD
ATOM     30  C17 AJL d   1      25.726 155.510  28.753  0.00  0.00    -0.002 A 
ATOM     31  C18 AJL d   1      27.341 154.365  30.206  0.00  0.00    -0.056 A 
ATOM     32  C21 AJL d   1      25.927 154.543  27.761  0.00  0.00    -0.070 A 
ATOM     33  C20 AJL d   1      26.814 153.517  28.002  0.00  0.00    -0.082 A 
ATOM     34  H22 AJL d   1      25.394 154.601  26.819  0.00  0.00     0.084 H 
ATOM     35  C19 AJL d   1      27.513 153.434  29.207  0.00  0.00    -0.081 A 
ATOM     36  H21 AJL d   1      26.972 152.760  27.242  0.00  0.00     0.083 H 
ATOM     37  H20 AJL d   1      28.208 152.617  29.360  0.00  0.00     0.083 H 
ATOM     38  H19 AJL d   1      27.883 154.294  31.142  0.00  0.00     0.086 H 
ENDBRANCH  21  24
ENDBRANCH   4  21
BRANCH   9  39
ATOM     39  O2  AJL d   1      25.512 156.240  22.726  0.00  0.00    -0.353 OA
BRANCH  39  40
ATOM     40  C11 AJL d   1      26.347 155.285  23.374  0.00  0.00     0.010 C 
ATOM     41  H2  AJL d   1      26.776 154.605  22.624  0.00  0.00     0.066 H 
ATOM     42  H3  AJL d   1      25.751 154.707  24.095  0.00  0.00     0.066 H 
ATOM     43  H4  AJL d   1      27.158 155.806  23.903  0.00  0.00     0.066 H 
ENDBRANCH  39  40
ENDBRANCH   9  39
BRANCH  11  44
ATOM     44  O1  AJL d   1      23.914 157.818  21.482  0.00  0.00    -0.353 OA
BRANCH  44  45
ATOM     45  C10 AJL d   1      23.088 158.728  20.751  0.00  0.00     0.010 C 
ATOM     46  H10 AJL d   1      23.083 158.446  19.688  0.00  0.00     0.066 H 
ATOM     47  H11 AJL d   1      23.483 159.749  20.858  0.00  0.00     0.066 H 
ATOM     48  H12 AJL d   1      22.062 158.689  21.145  0.00  0.00     0.066 H 
ENDBRANCH  44  45
ENDBRANCH  11  44
TORSDOF 6
