REMARK  8 active torsions:
REMARK  status: ('A' for Active; 'I' for Inactive)
REMARK    1  A    between atoms: C13_11  and  C14_2 
REMARK    2  A    between atoms: C14_2  and  C15_16 
REMARK    3  A    between atoms: O2_27  and  C11_5 
REMARK    4  A    between atoms: C7_6  and  C13_11 
REMARK    5  A    between atoms: O1_26  and  C10_9 
REMARK       I    between atoms: N1_12  and  C12_10 
REMARK    6  A    between atoms: C3_14  and  O2_27 
REMARK    7  A    between atoms: C15_16  and  C16_17 
REMARK    8  A    between atoms: C2_21  and  O1_26 
ROOT
ATOM      1  C4  AJX d   1      82.884  77.103  24.648  0.00  0.00    -0.039 A 
ATOM      2  C5  AJX d   1      82.285  78.139  25.343  0.00  0.00    -0.026 A 
ATOM      3  C6  AJX d   1      81.462  79.039  24.683  0.00  0.00    -0.045 A 
ATOM      4  C7  AJX d   1      82.690  78.266  26.767  0.00  0.00     0.040 C 
ATOM      5  C8  AJX d   1      80.636  79.655  26.901  0.00  0.00     0.002 C 
ATOM      6  C9  AJX d   1      80.843  80.147  25.483  0.00  0.00    -0.025 C 
ATOM      7  C12 AJX d   1      82.410  79.864  28.612  0.00  0.00     0.171 C 
ATOM      8  N1  AJX d   1      81.916  79.274  27.502  0.00  0.00    -0.350 N 
ATOM      9  C3  AJX d   1      82.644  76.932  23.319  0.00  0.00     0.102 A 
ATOM     10  C1  AJX d   1      81.212  78.865  23.308  0.00  0.00    -0.041 A 
ATOM     11  C2  AJX d   1      81.807  77.819  22.625  0.00  0.00     0.102 A 
ATOM     12  O3  AJX d   1      82.038  80.945  29.033  0.00  0.00    -0.284 OA
ATOM     13  H1  AJX d   1      83.550  76.422  25.166  0.00  0.00     0.088 H 
ATOM     14  H7  AJX d   1      83.705  78.689  26.741  0.00  0.00     0.080 H 
ATOM     15  H8  AJX d   1      79.968  78.781  26.887  0.00  0.00     0.064 H 
ATOM     16  H9  AJX d   1      80.179  80.457  27.500  0.00  0.00     0.064 H 
ATOM     17  H10 AJX d   1      79.875  80.428  25.042  0.00  0.00     0.042 H 
ATOM     18  H11 AJX d   1      81.511  81.021  25.487  0.00  0.00     0.042 H 
ATOM     19  H15 AJX d   1      83.189  79.341  29.165  0.00  0.00     0.180 H 
ATOM     20  H19 AJX d   1      80.554  79.550  22.785  0.00  0.00     0.088 H 
ENDROOT
BRANCH   4  21
ATOM     21  C13 AJX d   1      82.879  76.876  27.399  0.00  0.00    -0.042 C 
ATOM     22  H16 AJX d   1      82.030  76.694  28.075  0.00  0.00     0.036 H 
ATOM     23  H17 AJX d   1      82.869  76.132  26.589  0.00  0.00     0.036 H 
BRANCH  21  24
ATOM     24  C14 AJX d   1      84.170  76.681  28.201  0.00  0.00    -0.059 C 
ATOM     25  H2  AJX d   1      84.535  77.658  28.550  0.00  0.00     0.033 H 
ATOM     26  H3  AJX d   1      84.931  76.213  27.560  0.00  0.00     0.033 H 
BRANCH  24  27
ATOM     27  C15 AJX d   1      83.897  75.783  29.403  0.00  0.00    -0.039 C 
ATOM     28  H20 AJX d   1      84.653  75.975  30.179  0.00  0.00     0.040 H 
ATOM     29  H21 AJX d   1      83.951  74.730  29.090  0.00  0.00     0.040 H 
BRANCH  27  30
ATOM     30  C16 AJX d   1      82.535  76.064  29.959  0.00  0.00    -0.030 A 
ATOM     31  C17 AJX d   1      81.969  77.286  30.177  0.00  0.00    -0.016 A 
ATOM     32  N2  AJX d   1      80.693  77.153  30.634  0.00  0.00    -0.365 N 
ATOM     33  H22 AJX d   1      82.469  78.238  30.009  0.00  0.00     0.112 H 
ATOM     34  C18 AJX d   1      80.400  75.821  30.746  0.00  0.00     0.042 A 
ATOM     35  H18 AJX d   1      80.053  77.928  30.859  0.00  0.00     0.165 HD
ATOM     36  C19 AJX d   1      81.536  75.094  30.324  0.00  0.00    -0.002 A 
ATOM     37  C20 AJX d   1      79.235  75.202  31.190  0.00  0.00    -0.056 A 
ATOM     38  C23 AJX d   1      81.488  73.697  30.346  0.00  0.00    -0.070 A 
ATOM     39  C22 AJX d   1      80.337  73.086  30.791  0.00  0.00    -0.082 A 
ATOM     40  H26 AJX d   1      82.338  73.108  30.020  0.00  0.00     0.084 H 
ATOM     41  C21 AJX d   1      79.228  73.828  31.198  0.00  0.00    -0.081 A 
ATOM     42  H25 AJX d   1      80.292  72.004  30.826  0.00  0.00     0.083 H 
ATOM     43  H24 AJX d   1      78.337  73.307  31.529  0.00  0.00     0.083 H 
ATOM     44  H23 AJX d   1      78.375  75.776  31.514  0.00  0.00     0.086 H 
ENDBRANCH  27  30
ENDBRANCH  24  27
ENDBRANCH  21  24
ENDBRANCH   4  21
BRANCH   9  45
ATOM     45  O2  AJX d   1      83.203  75.926  22.598  0.00  0.00    -0.353 OA
BRANCH  45  46
ATOM     46  C11 AJX d   1      84.017  75.022  23.340  0.00  0.00     0.010 C 
ATOM     47  H4  AJX d   1      84.418  74.251  22.665  0.00  0.00     0.066 H 
ATOM     48  H5  AJX d   1      83.412  74.544  24.125  0.00  0.00     0.066 H 
ATOM     49  H6  AJX d   1      84.849  75.573  23.803  0.00  0.00     0.066 H 
ENDBRANCH  45  46
ENDBRANCH   9  45
BRANCH  11  50
ATOM     50  O1  AJX d   1      81.698  77.520  21.292  0.00  0.00    -0.353 OA
BRANCH  50  51
ATOM     51  C10 AJX d   1      81.086  78.469  20.419  0.00  0.00     0.010 C 
ATOM     52  H12 AJX d   1      81.081  78.073  19.393  0.00  0.00     0.066 H 
ATOM     53  H13 AJX d   1      81.654  79.411  20.445  0.00  0.00     0.066 H 
ATOM     54  H14 AJX d   1      80.052  78.655  20.746  0.00  0.00     0.066 H 
ENDBRANCH  50  51
ENDBRANCH  11  50
TORSDOF 8
