REMARK  7 active torsions:
REMARK  status: ('A' for Active; 'I' for Inactive)
REMARK    1  A    between atoms: C13_11  and  C14_2 
REMARK    2  A    between atoms: C14_2  and  C15_16 
REMARK    3  A    between atoms: O2_27  and  C11_5 
REMARK    4  A    between atoms: C7_6  and  C13_11 
REMARK    5  A    between atoms: O1_26  and  C10_9 
REMARK       I    between atoms: N1_12  and  C12_10 
REMARK    6  A    between atoms: C3_14  and  O2_27 
REMARK    7  A    between atoms: C2_21  and  O1_26 
ROOT
ATOM      1  C4  AK0 d   1      83.128  76.919  24.700  0.00  0.00    -0.039 A 
ATOM      2  C5  AK0 d   1      82.376  77.859  25.425  0.00  0.00    -0.026 A 
ATOM      3  C6  AK0 d   1      81.436  78.634  24.756  0.00  0.00    -0.045 A 
ATOM      4  C7  AK0 d   1      82.630  78.019  26.903  0.00  0.00     0.040 C 
ATOM      5  C8  AK0 d   1      80.617  79.404  26.974  0.00  0.00     0.002 C 
ATOM      6  C9  AK0 d   1      80.620  79.666  25.487  0.00  0.00    -0.025 C 
ATOM      7  C12 AK0 d   1      82.661  80.200  28.123  0.00  0.00     0.171 C 
ATOM      8  N1  AK0 d   1      81.994  79.233  27.449  0.00  0.00    -0.350 N 
ATOM      9  C3  AK0 d   1      82.933  76.756  23.348  0.00  0.00     0.102 A 
ATOM     10  C1  AK0 d   1      81.262  78.476  23.378  0.00  0.00    -0.041 A 
ATOM     11  C2  AK0 d   1      82.004  77.560  22.668  0.00  0.00     0.102 A 
ATOM     12  O3  AK0 d   1      83.848  80.127  28.375  0.00  0.00    -0.284 OA
ATOM     13  H1  AK0 d   1      83.870  76.316  25.212  0.00  0.00     0.088 H 
ATOM     14  H7  AK0 d   1      83.716  78.127  27.044  0.00  0.00     0.080 H 
ATOM     15  H8  AK0 d   1      80.042  78.490  27.183  0.00  0.00     0.064 H 
ATOM     16  H9  AK0 d   1      80.154  80.255  27.494  0.00  0.00     0.064 H 
ATOM     17  H10 AK0 d   1      79.585  79.635  25.115  0.00  0.00     0.042 H 
ATOM     18  H11 AK0 d   1      81.048  80.662  25.299  0.00  0.00     0.042 H 
ATOM     19  H15 AK0 d   1      82.111  81.080  28.453  0.00  0.00     0.180 H 
ATOM     20  H19 AK0 d   1      80.530  79.085  22.860  0.00  0.00     0.088 H 
ENDROOT
BRANCH   4  21
ATOM     21  C13 AK0 d   1      82.184  76.753  27.659  0.00  0.00    -0.038 C 
ATOM     22  H16 AK0 d   1      81.115  76.849  27.899  0.00  0.00     0.036 H 
ATOM     23  H17 AK0 d   1      82.335  75.883  27.003  0.00  0.00     0.036 H 
BRANCH  21  24
ATOM     24  C14 AK0 d   1      82.952  76.519  28.956  0.00  0.00    -0.037 C 
ATOM     25  H2  AK0 d   1      82.391  76.984  29.780  0.00  0.00     0.040 H 
ATOM     26  H3  AK0 d   1      83.938  76.998  28.867  0.00  0.00     0.040 H 
BRANCH  24  27
ATOM     27  C15 AK0 d   1      83.158  75.071  29.283  0.00  0.00    -0.030 A 
ATOM     28  C16 AK0 d   1      83.070  74.482  30.511  0.00  0.00    -0.016 A 
ATOM     29  N2  AK0 d   1      83.327  73.141  30.418  0.00  0.00    -0.365 N 
ATOM     30  H20 AK0 d   1      82.829  75.005  31.435  0.00  0.00     0.112 H 
ATOM     31  C17 AK0 d   1      83.600  72.828  29.110  0.00  0.00     0.045 A 
ATOM     32  H18 AK0 d   1      83.317  72.474  31.203  0.00  0.00     0.165 HD
ATOM     33  C18 AK0 d   1      83.506  74.020  28.359  0.00  0.00    -0.002 A 
ATOM     34  C19 AK0 d   1      83.922  71.619  28.506  0.00  0.00    -0.019 A 
ATOM     35  C22 AK0 d   1      83.745  73.966  26.977  0.00  0.00    -0.067 A 
ATOM     36  C21 AK0 d   1      84.062  72.769  26.380  0.00  0.00    -0.045 A 
ATOM     37  H23 AK0 d   1      83.680  74.868  26.380  0.00  0.00     0.085 H 
ATOM     38  C20 AK0 d   1      84.146  71.621  27.153  0.00  0.00     0.118 A 
ATOM     39  H22 AK0 d   1      84.245  72.723  25.312  0.00  0.00     0.088 H 
ATOM     40  F1  AK0 d   1      84.464  70.448  26.533  0.00  0.00    -0.206 F 
ATOM     41  H21 AK0 d   1      83.994  70.705  29.084  0.00  0.00     0.091 H 
ENDBRANCH  24  27
ENDBRANCH  21  24
ENDBRANCH   4  21
BRANCH   9  42
ATOM     42  O2  AK0 d   1      83.601  75.878  22.541  0.00  0.00    -0.353 OA
BRANCH  42  43
ATOM     43  C11 AK0 d   1      84.473  74.941  23.169  0.00  0.00     0.010 C 
ATOM     44  H4  AK0 d   1      84.939  74.303  22.403  0.00  0.00     0.066 H 
ATOM     45  H5  AK0 d   1      83.897  74.315  23.867  0.00  0.00     0.066 H 
ATOM     46  H6  AK0 d   1      85.255  75.482  23.722  0.00  0.00     0.066 H 
ENDBRANCH  42  43
ENDBRANCH   9  42
BRANCH  11  47
ATOM     47  O1  AK0 d   1      81.899  77.316  21.327  0.00  0.00    -0.353 OA
BRANCH  47  48
ATOM     48  C10 AK0 d   1      81.083  78.202  20.561  0.00  0.00     0.010 C 
ATOM     49  H12 AK0 d   1      81.091  77.888  19.507  0.00  0.00     0.066 H 
ATOM     50  H13 AK0 d   1      81.477  79.226  20.642  0.00  0.00     0.066 H 
ATOM     51  H14 AK0 d   1      80.052  78.175  20.944  0.00  0.00     0.066 H 
ENDBRANCH  47  48
ENDBRANCH  11  47
TORSDOF 7
