REMARK  8 active torsions:
REMARK  status: ('A' for Active; 'I' for Inactive)
REMARK    1  A    between atoms: C13_11  and  C14_2 
REMARK    2  A    between atoms: C14_2  and  C15_16 
REMARK    3  A    between atoms: O2_27  and  C11_5 
REMARK    4  A    between atoms: C7_6  and  C13_11 
REMARK    5  A    between atoms: O1_26  and  C10_9 
REMARK       I    between atoms: N1_12  and  C12_10 
REMARK    6  A    between atoms: C3_14  and  O2_27 
REMARK    7  A    between atoms: C2_21  and  O1_26 
REMARK    8  A    between atoms: C20_22  and  C23_25 
ROOT
ATOM      1  C4  AKO d   1      83.021 156.627  24.724  0.00  0.00    -0.039 A 
ATOM      2  C5  AKO d   1      82.298 157.534  25.509  0.00  0.00    -0.026 A 
ATOM      3  C6  AKO d   1      81.304 158.309  24.919  0.00  0.00    -0.045 A 
ATOM      4  C7  AKO d   1      82.660 157.661  26.960  0.00  0.00     0.040 C 
ATOM      5  C8  AKO d   1      80.649 159.059  27.214  0.00  0.00     0.002 C 
ATOM      6  C9  AKO d   1      80.508 159.300  25.729  0.00  0.00    -0.025 C 
ATOM      7  C12 AKO d   1      82.779 159.694  28.332  0.00  0.00     0.171 C 
ATOM      8  N1  AKO d   1      82.058 158.859  27.553  0.00  0.00    -0.350 N 
ATOM      9  C3  AKO d   1      82.755 156.484  23.383  0.00  0.00     0.102 A 
ATOM     10  C1  AKO d   1      81.045 158.160  23.547  0.00  0.00    -0.041 A 
ATOM     11  C2  AKO d   1      81.742 157.254  22.780  0.00  0.00     0.102 A 
ATOM     12  O3  AKO d   1      82.389 160.764  28.761  0.00  0.00    -0.284 OA
ATOM     13  H1  AKO d   1      83.802 156.029  25.180  0.00  0.00     0.088 H 
ATOM     14  H7  AKO d   1      83.751 157.790  27.009  0.00  0.00     0.080 H 
ATOM     15  H8  AKO d   1      80.076 158.163  27.494  0.00  0.00     0.064 H 
ATOM     16  H9  AKO d   1      80.261 159.929  27.764  0.00  0.00     0.064 H 
ATOM     17  H10 AKO d   1      79.447 159.213  25.454  0.00  0.00     0.042 H 
ATOM     18  H11 AKO d   1      80.864 160.315  25.498  0.00  0.00     0.042 H 
ATOM     19  H15 AKO d   1      83.789 159.386  28.597  0.00  0.00     0.180 H 
ATOM     20  H19 AKO d   1      80.280 158.771  23.082  0.00  0.00     0.088 H 
ENDROOT
BRANCH   4  21
ATOM     21  C13 AKO d   1      82.325 156.390  27.761  0.00  0.00    -0.038 C 
ATOM     22  H16 AKO d   1      81.431 156.567  28.378  0.00  0.00     0.036 H 
ATOM     23  H17 AKO d   1      82.133 155.557  27.069  0.00  0.00     0.036 H 
BRANCH  21  24
ATOM     24  C14 AKO d   1      83.506 156.047  28.659  0.00  0.00    -0.037 C 
ATOM     25  H2  AKO d   1      83.624 156.856  29.395  0.00  0.00     0.040 H 
ATOM     26  H3  AKO d   1      84.408 155.987  28.032  0.00  0.00     0.040 H 
BRANCH  24  27
ATOM     27  C15 AKO d   1      83.367 154.755  29.403  0.00  0.00    -0.030 A 
ATOM     28  C16 AKO d   1      83.046 154.587  30.720  0.00  0.00    -0.016 A 
ATOM     29  N2  AKO d   1      83.018 153.256  31.042  0.00  0.00    -0.365 N 
ATOM     30  H20 AKO d   1      82.841 155.398  31.417  0.00  0.00     0.112 H 
ATOM     31  C17 AKO d   1      83.324 152.522  29.921  0.00  0.00     0.043 A 
ATOM     32  H18 AKO d   1      82.803 152.869  31.972  0.00  0.00     0.165 HD
ATOM     33  C18 AKO d   1      83.551 153.432  28.865  0.00  0.00    -0.002 A 
ATOM     34  C19 AKO d   1      83.421 151.145  29.751  0.00  0.00    -0.051 A 
ATOM     35  C22 AKO d   1      83.882 152.917  27.604  0.00  0.00    -0.070 A 
ATOM     36  C21 AKO d   1      83.976 151.554  27.441  0.00  0.00    -0.076 A 
ATOM     37  H23 AKO d   1      84.061 153.584  26.768  0.00  0.00     0.085 H 
ATOM     38  C20 AKO d   1      83.754 150.664  28.494  0.00  0.00    -0.060 A 
ATOM     39  H22 AKO d   1      84.230 151.159  26.464  0.00  0.00     0.084 H 
ATOM     40  H21 AKO d   1      83.241 150.467  30.578  0.00  0.00     0.087 H 
BRANCH  38  41
ATOM     41  C23 AKO d   1      83.868 149.185  28.250  0.00  0.00    -0.051 C 
ATOM     42  H24 AKO d   1      83.662 148.642  29.184  0.00  0.00     0.033 H 
ATOM     43  H25 AKO d   1      84.885 148.948  27.905  0.00  0.00     0.033 H 
ATOM     44  H26 AKO d   1      83.140 148.883  27.482  0.00  0.00     0.033 H 
ENDBRANCH  38  41
ENDBRANCH  24  27
ENDBRANCH  21  24
ENDBRANCH   4  21
BRANCH   9  45
ATOM     45  O2  AKO d   1      83.410 155.611  22.561  0.00  0.00    -0.353 OA
BRANCH  45  46
ATOM     46  C11 AKO d   1      84.482 154.882  23.156  0.00  0.00     0.010 C 
ATOM     47  H4  AKO d   1      84.933 154.215  22.406  0.00  0.00     0.066 H 
ATOM     48  H5  AKO d   1      84.097 154.284  23.995  0.00  0.00     0.066 H 
ATOM     49  H6  AKO d   1      85.243 155.585  23.526  0.00  0.00     0.066 H 
ENDBRANCH  45  46
ENDBRANCH   9  45
BRANCH  11  50
ATOM     50  O1  AKO d   1      81.558 157.028  21.439  0.00  0.00    -0.353 OA
BRANCH  50  51
ATOM     51  C10 AKO d   1      80.769 157.962  20.706  0.00  0.00     0.010 C 
ATOM     52  H12 AKO d   1      80.713 157.648  19.653  0.00  0.00     0.066 H 
ATOM     53  H13 AKO d   1      81.230 158.959  20.768  0.00  0.00     0.066 H 
ATOM     54  H14 AKO d   1      79.755 157.999  21.132  0.00  0.00     0.066 H 
ENDBRANCH  50  51
ENDBRANCH  11  50
TORSDOF 8
