REMARK  7 active torsions:
REMARK  status: ('A' for Active; 'I' for Inactive)
REMARK    1  A    between atoms: C13_11  and  C14_2 
REMARK    2  A    between atoms: C14_2  and  C15_16 
REMARK    3  A    between atoms: O2_26  and  C11_5 
REMARK    4  A    between atoms: C7_6  and  C13_11 
REMARK    5  A    between atoms: O1_25  and  C10_9 
REMARK       I    between atoms: N1_12  and  C12_10 
REMARK    6  A    between atoms: C3_14  and  O2_26 
REMARK    7  A    between atoms: C2_21  and  O1_25 
ROOT
ATOM      1  C4  AKU d   1      25.285  76.492  24.778  0.00  0.00    -0.039 A 
ATOM      2  C5  AKU d   1      24.566  77.429  25.533  0.00  0.00    -0.026 A 
ATOM      3  C6  AKU d   1      23.646  78.259  24.897  0.00  0.00    -0.045 A 
ATOM      4  C7  AKU d   1      24.887  77.551  26.994  0.00  0.00     0.040 C 
ATOM      5  C8  AKU d   1      22.971  79.077  27.160  0.00  0.00     0.002 C 
ATOM      6  C9  AKU d   1      22.889  79.310  25.668  0.00  0.00    -0.025 C 
ATOM      7  C12 AKU d   1      25.116  79.608  28.322  0.00  0.00     0.171 C 
ATOM      8  N1  AKU d   1      24.355  78.799  27.546  0.00  0.00    -0.350 N 
ATOM      9  C3  AKU d   1      25.076  76.362  23.431  0.00  0.00     0.102 A 
ATOM     10  C1  AKU d   1      23.443  78.127  23.513  0.00  0.00    -0.041 A 
ATOM     11  C2  AKU d   1      24.136  77.189  22.780  0.00  0.00     0.102 A 
ATOM     12  O3  AKU d   1      24.717  80.606  28.896  0.00  0.00    -0.284 OA
ATOM     13  H1  AKU d   1      26.017  75.861  25.268  0.00  0.00     0.088 H 
ATOM     14  H7  AKU d   1      25.983  77.615  27.067  0.00  0.00     0.080 H 
ATOM     15  H8  AKU d   1      22.338  78.219  27.430  0.00  0.00     0.064 H 
ATOM     16  H9  AKU d   1      22.618  79.975  27.689  0.00  0.00     0.064 H 
ATOM     17  H10 AKU d   1      21.833  79.286  25.361  0.00  0.00     0.042 H 
ATOM     18  H11 AKU d   1      23.315  80.297  25.438  0.00  0.00     0.042 H 
ATOM     19  H15 AKU d   1      26.166  79.346  28.442  0.00  0.00     0.180 H 
ATOM     20  H19 AKU d   1      22.730  78.773  23.014  0.00  0.00     0.088 H 
ENDROOT
BRANCH   4  21
ATOM     21  C13 AKU d   1      24.472  76.322  27.824  0.00  0.00    -0.038 C 
ATOM     22  H16 AKU d   1      23.401  76.385  28.066  0.00  0.00     0.036 H 
ATOM     23  H17 AKU d   1      24.664  75.406  27.247  0.00  0.00     0.036 H 
BRANCH  21  24
ATOM     24  C14 AKU d   1      25.288  76.294  29.117  0.00  0.00    -0.037 C 
ATOM     25  H2  AKU d   1      24.764  76.909  29.863  0.00  0.00     0.040 H 
ATOM     26  H3  AKU d   1      26.274  76.734  28.906  0.00  0.00     0.040 H 
BRANCH  24  27
ATOM     27  C15 AKU d   1      25.506  74.934  29.710  0.00  0.00    -0.030 A 
ATOM     28  C16 AKU d   1      25.493  74.608  31.036  0.00  0.00    -0.016 A 
ATOM     29  N2  AKU d   1      25.732  73.271  31.206  0.00  0.00    -0.365 N 
ATOM     30  H20 AKU d   1      25.317  75.314  31.846  0.00  0.00     0.112 H 
ATOM     31  C17 AKU d   1      25.922  72.694  29.978  0.00  0.00     0.042 A 
ATOM     32  H18 AKU d   1      25.764  72.779  32.110  0.00  0.00     0.165 HD
ATOM     33  C18 AKU d   1      25.791  73.710  29.005  0.00  0.00    -0.002 A 
ATOM     34  C19 AKU d   1      26.199  71.369  29.642  0.00  0.00    -0.056 A 
ATOM     35  C22 AKU d   1      25.945  73.365  27.657  0.00  0.00    -0.070 A 
ATOM     36  C21 AKU d   1      26.219  72.056  27.326  0.00  0.00    -0.082 A 
ATOM     37  H24 AKU d   1      25.850  74.118  26.883  0.00  0.00     0.084 H 
ATOM     38  C20 AKU d   1      26.343  71.073  28.306  0.00  0.00    -0.081 A 
ATOM     39  H23 AKU d   1      26.340  71.785  26.283  0.00  0.00     0.083 H 
ATOM     40  H22 AKU d   1      26.558  70.053  28.009  0.00  0.00     0.083 H 
ATOM     41  H21 AKU d   1      26.297  70.603  30.403  0.00  0.00     0.086 H 
ENDBRANCH  24  27
ENDBRANCH  21  24
ENDBRANCH   4  21
BRANCH   9  42
ATOM     42  O2  AKU d   1      25.727  75.453  22.644  0.00  0.00    -0.353 OA
BRANCH  42  43
ATOM     43  C11 AKU d   1      26.636  74.577  23.310  0.00  0.00     0.010 C 
ATOM     44  H4  AKU d   1      27.094  73.897  22.576  0.00  0.00     0.066 H 
ATOM     45  H5  AKU d   1      26.093  73.990  24.065  0.00  0.00     0.066 H 
ATOM     46  H6  AKU d   1      27.422  75.169  23.802  0.00  0.00     0.066 H 
ENDBRANCH  42  43
ENDBRANCH   9  42
BRANCH  11  47
ATOM     47  O1  AKU d   1      24.001  76.986  21.434  0.00  0.00    -0.353 OA
BRANCH  47  48
ATOM     48  C10 AKU d   1      23.139  77.865  20.710  0.00  0.00     0.010 C 
ATOM     49  H12 AKU d   1      23.133  77.579  19.648  0.00  0.00     0.066 H 
ATOM     50  H13 AKU d   1      23.502  78.899  20.810  0.00  0.00     0.066 H 
ATOM     51  H14 AKU d   1      22.119  77.794  21.115  0.00  0.00     0.066 H 
ENDBRANCH  47  48
ENDBRANCH  11  47
TORSDOF 7
