REMARK  7 active torsions:
REMARK  status: ('A' for Active; 'I' for Inactive)
REMARK    1  A    between atoms: C13_11  and  C14_2 
REMARK    2  A    between atoms: C14_2  and  C15_16 
REMARK    3  A    between atoms: O2_26  and  C11_5 
REMARK    4  A    between atoms: C7_6  and  C13_11 
REMARK    5  A    between atoms: O1_25  and  C10_9 
REMARK       I    between atoms: N1_12  and  C12_10 
REMARK    6  A    between atoms: C3_14  and  O2_26 
REMARK    7  A    between atoms: C2_21  and  O1_25 
ROOT
ATOM      1  C4  AKU d   1      25.193  76.347  24.745  0.00  0.00    -0.039 A 
ATOM      2  C5  AKU d   1      24.467  77.242  25.540  0.00  0.00    -0.026 A 
ATOM      3  C6  AKU d   1      23.453  78.000  24.962  0.00  0.00    -0.045 A 
ATOM      4  C7  AKU d   1      24.828  77.368  27.000  0.00  0.00     0.040 C 
ATOM      5  C8  AKU d   1      22.770  78.686  27.256  0.00  0.00     0.002 C 
ATOM      6  C9  AKU d   1      22.643  78.972  25.779  0.00  0.00    -0.025 C 
ATOM      7  C12 AKU d   1      24.852  79.446  28.341  0.00  0.00     0.171 C 
ATOM      8  N1  AKU d   1      24.185  78.546  27.592  0.00  0.00    -0.350 N 
ATOM      9  C3  AKU d   1      24.919  76.198  23.407  0.00  0.00     0.102 A 
ATOM     10  C1  AKU d   1      23.179  77.845  23.596  0.00  0.00    -0.041 A 
ATOM     11  C2  AKU d   1      23.891  76.961  22.817  0.00  0.00     0.102 A 
ATOM     12  O3  AKU d   1      24.358  80.463  28.793  0.00  0.00    -0.284 OA
ATOM     13  H1  AKU d   1      25.986  75.760  25.194  0.00  0.00     0.088 H 
ATOM     14  H7  AKU d   1      25.916  77.515  27.067  0.00  0.00     0.080 H 
ATOM     15  H8  AKU d   1      22.239  77.754  27.498  0.00  0.00     0.064 H 
ATOM     16  H9  AKU d   1      22.334  79.516  27.831  0.00  0.00     0.064 H 
ATOM     17  H10 AKU d   1      21.585  78.891  25.488  0.00  0.00     0.042 H 
ATOM     18  H11 AKU d   1      23.001  79.993  25.580  0.00  0.00     0.042 H 
ATOM     19  H15 AKU d   1      25.902  79.251  28.556  0.00  0.00     0.180 H 
ATOM     20  H19 AKU d   1      22.390  78.434  23.143  0.00  0.00     0.088 H 
ENDROOT
BRANCH   4  21
ATOM     21  C13 AKU d   1      24.486  76.073  27.764  0.00  0.00    -0.038 C 
ATOM     22  H16 AKU d   1      23.462  76.155  28.156  0.00  0.00     0.036 H 
ATOM     23  H17 AKU d   1      24.545  75.225  27.065  0.00  0.00     0.036 H 
BRANCH  21  24
ATOM     24  C14 AKU d   1      25.436  75.813  28.929  0.00  0.00    -0.037 C 
ATOM     25  H2  AKU d   1      25.183  76.507  29.744  0.00  0.00     0.040 H 
ATOM     26  H3  AKU d   1      26.464  76.007  28.588  0.00  0.00     0.040 H 
BRANCH  24  27
ATOM     27  C15 AKU d   1      25.372  74.414  29.463  0.00  0.00    -0.030 A 
ATOM     28  C16 AKU d   1      25.036  74.025  30.728  0.00  0.00    -0.016 A 
ATOM     29  N2  AKU d   1      25.091  72.661  30.839  0.00  0.00    -0.365 N 
ATOM     30  H20 AKU d   1      24.763  74.704  31.535  0.00  0.00     0.112 H 
ATOM     31  C17 AKU d   1      25.472  72.129  29.634  0.00  0.00     0.042 A 
ATOM     32  H18 AKU d   1      24.880  72.122  31.691  0.00  0.00     0.165 HD
ATOM     33  C18 AKU d   1      25.660  73.203  28.737  0.00  0.00    -0.002 A 
ATOM     34  C19 AKU d   1      25.667  70.800  29.256  0.00  0.00    -0.056 A 
ATOM     35  C22 AKU d   1      26.055  72.919  27.425  0.00  0.00    -0.070 A 
ATOM     36  C21 AKU d   1      26.247  71.606  27.053  0.00  0.00    -0.082 A 
ATOM     37  H24 AKU d   1      26.208  73.721  26.711  0.00  0.00     0.084 H 
ATOM     38  C20 AKU d   1      26.056  70.561  27.958  0.00  0.00    -0.081 A 
ATOM     39  H23 AKU d   1      26.552  71.380  26.038  0.00  0.00     0.083 H 
ATOM     40  H22 AKU d   1      26.217  69.540  27.632  0.00  0.00     0.083 H 
ATOM     41  H21 AKU d   1      25.518  69.987  29.958  0.00  0.00     0.086 H 
ENDBRANCH  24  27
ENDBRANCH  21  24
ENDBRANCH   4  21
BRANCH   9  42
ATOM     42  O2  AKU d   1      25.587  75.342  22.578  0.00  0.00    -0.353 OA
BRANCH  42  43
ATOM     43  C11 AKU d   1      26.608  74.549  23.173  0.00  0.00     0.010 C 
ATOM     44  H4  AKU d   1      27.067  73.907  22.407  0.00  0.00     0.066 H 
ATOM     45  H5  AKU d   1      26.171  73.921  23.964  0.00  0.00     0.066 H 
ATOM     46  H6  AKU d   1      27.376  75.206  23.608  0.00  0.00     0.066 H 
ENDBRANCH  42  43
ENDBRANCH   9  42
BRANCH  11  47
ATOM     47  O1  AKU d   1      23.686  76.758  21.477  0.00  0.00    -0.353 OA
BRANCH  47  48
ATOM     48  C10 AKU d   1      22.715  77.577  20.834  0.00  0.00     0.010 C 
ATOM     49  H12 AKU d   1      22.655  77.308  19.769  0.00  0.00     0.066 H 
ATOM     50  H13 AKU d   1      23.006  78.634  20.929  0.00  0.00     0.066 H 
ATOM     51  H14 AKU d   1      21.734  77.423  21.307  0.00  0.00     0.066 H 
ENDBRANCH  47  48
ENDBRANCH  11  47
TORSDOF 7
