REMARK  11 active torsions:
REMARK  status: ('A' for Active; 'I' for Inactive)
REMARK    1  A    between atoms: O3_22  and  C1_1 
REMARK    2  A    between atoms: C2_2  and  O2_7 
REMARK    3  A    between atoms: C3_3  and  O3_8 
REMARK    4  A    between atoms: C5_5  and  C6_6 
REMARK    5  A    between atoms: C1_12  and  O1_21 
REMARK    6  A    between atoms: N2_20  and  C2_13 
REMARK    7  A    between atoms: C3_14  and  O3_22 
REMARK    8  A    between atoms: C4_15  and  O4_23 
REMARK    9  A    between atoms: C5_16  and  C6_17 
REMARK   10  A    between atoms: C6_17  and  O6_25 
REMARK   11  A    between atoms: C7_18  and  C8_19 
REMARK       I    between atoms: C7_18  and  N2_20 
ROOT
ATOM      1  C1  GCD d   1       2.633  -9.808 -18.479  0.00  0.00     0.151 C 
ATOM      2  C2  GCD d   1       2.013  -8.406 -18.720  0.00  0.00     0.087 C 
ATOM      3  C3  GCD d   1       1.509  -8.364 -20.154  0.00  0.00     0.093 C 
ATOM      4  C4  GCD d   1       2.725  -8.649 -21.093  0.00  0.00     0.089 C 
ATOM      5  C5  GCD d   1       3.482  -9.943 -20.705  0.00  0.00     0.089 C 
ATOM      6  O5  GCD d   1       3.796 -10.028 -19.288  0.00  0.00    -0.349 OA
ATOM      7  H7  GCD d   1       1.892 -10.615 -18.576  0.00  0.00     0.132 H 
ATOM      8  H8  GCD d   1       2.760  -7.617 -18.550  0.00  0.00     0.084 H 
ATOM      9  H9  GCD d   1       0.770  -9.168 -20.291  0.00  0.00     0.091 H 
ATOM     10  H10 GCD d   1       3.423  -7.803 -21.007  0.00  0.00     0.091 H 
ATOM     11  H11 GCD d   1       2.782 -10.763 -20.923  0.00  0.00     0.090 H 
ENDROOT
BRANCH   3  12
ATOM     12  O3  GCD d   1       0.841  -7.092 -20.451  0.00  0.00    -0.348 OA
BRANCH  12  13
ATOM     13  C1  GCD d   1      -0.278  -7.189 -21.316  0.00  0.00     0.165 C 
ATOM     14  C2  GCD d   1      -1.172  -6.070 -20.905  0.00  0.00     0.111 C 
ATOM     15  C3  GCD d   1      -2.459  -6.185 -21.738  0.00  0.00     0.084 C 
ATOM     16  H2  GCD d   1      -0.699  -5.091 -21.069  0.00  0.00     0.095 H 
ATOM     17  C4  GCD d   1      -2.125  -6.266 -23.212  0.00  0.00    -0.034 C 
ATOM     18  H3  GCD d   1      -3.057  -7.051 -21.417  0.00  0.00     0.093 H 
ATOM     19  C5  GCD d   1      -0.932  -6.746 -23.603  0.00  0.00     0.147 C 
ATOM     20  H4  GCD d   1      -2.850  -5.936 -23.954  0.00  0.00     0.085 H 
ATOM     21  O5  GCD d   1       0.113  -6.994 -22.661  0.00  0.00    -0.311 OA
ATOM     22  H1  GCD d   1      -0.778  -8.162 -21.205  0.00  0.00     0.134 H 
BRANCH  14  23
ATOM     23  O2  GCD d   1      -1.417  -6.286 -19.517  0.00  0.00    -0.388 OA
ATOM     24  H5  GCD d   1      -0.601  -6.207 -19.037  0.00  0.00     0.210 HD
ENDBRANCH  14  23
BRANCH  15  25
ATOM     25  O3  GCD d   1      -3.177  -4.951 -21.582  0.00  0.00    -0.389 OA
ATOM     26  H6  GCD d   1      -2.625  -4.228 -21.856  0.00  0.00     0.210 HD
ENDBRANCH  15  25
BRANCH  19  27
ATOM     27  C6  GCD d   1      -0.520  -7.032 -24.987  0.00  0.00     0.233 C 
ATOM     28  O6A GCD d   1      -1.316  -7.031 -25.985  0.00  0.00    -0.642 OA
ATOM     29  O6B GCD d   1       0.677  -7.303 -25.094  0.00  0.00    -0.642 OA
ENDBRANCH  19  27
ENDBRANCH  12  13
ENDBRANCH   3  12
BRANCH   2  30
ATOM     30  N2  GCD d   1       0.905  -8.240 -17.836  0.00  0.00    -0.349 N 
ATOM     31  C7  GCD d   1       0.899  -7.236 -16.960  0.00  0.00     0.214 C 
ATOM     32  O7  GCD d   1       1.779  -6.362 -17.038  0.00  0.00    -0.274 OA
ATOM     33  H17 GCD d   1       0.134  -8.876 -17.874  0.00  0.00     0.163 HD
BRANCH  31  34
ATOM     34  C8  GCD d   1      -0.213  -7.237 -15.938  0.00  0.00    -0.003 C 
ATOM     35  H14 GCD d   1      -0.106  -6.363 -15.279  0.00  0.00     0.040 H 
ATOM     36  H15 GCD d   1      -0.159  -8.158 -15.338  0.00  0.00     0.040 H 
ATOM     37  H16 GCD d   1      -1.184  -7.191 -16.453  0.00  0.00     0.040 H 
ENDBRANCH  31  34
ENDBRANCH   2  30
BRANCH   4  38
ATOM     38  O4  GCD d   1       2.296  -8.756 -22.480  0.00  0.00    -0.390 OA
ATOM     39  H19 GCD d   1       1.830  -7.966 -22.728  0.00  0.00     0.210 HD
ENDBRANCH   4  38
BRANCH   1  40
ATOM     40  O1  GCD d   1       3.205  -9.685 -17.184  0.00  0.00    -0.369 OA
ATOM     41  H18 GCD d   1       3.668 -10.486 -16.966  0.00  0.00     0.212 HD
ENDBRANCH   1  40
BRANCH   5  42
ATOM     42  C6  GCD d   1       4.743 -10.241 -21.498  0.00  0.00     0.043 C 
ATOM     43  H12 GCD d   1       5.466  -9.416 -21.422  0.00  0.00     0.078 H 
ATOM     44  H13 GCD d   1       4.513 -10.430 -22.557  0.00  0.00     0.078 H 
BRANCH  42  45
ATOM     45  O6  GCD d   1       5.225 -11.400 -20.867  0.00  0.00    -0.398 OA
ATOM     46  H20 GCD d   1       4.574 -12.089 -20.933  0.00  0.00     0.209 HD
ENDBRANCH  42  45
ENDBRANCH   5  42
TORSDOF 11
