REMARK  6 active torsions:
REMARK  status: ('A' for Active; 'I' for Inactive)
REMARK    1  A    between atoms: N_1  and  CA_2 
REMARK    2  A    between atoms: CA_2  and  C_3 
REMARK    3  A    between atoms: CA_2  and  CB_5 
REMARK    4  A    between atoms: CB_5  and  CG_6 
REMARK    5  A    between atoms: CG_6  and  CD_7 
REMARK    6  A    between atoms: CD_7  and  NE_8 
REMARK       I    between atoms: NE_8  and  CZ_9 
REMARK       I    between atoms: CZ_9  and  NH1_10 
ROOT
ATOM      1  CG  ARG d   1      18.840  10.201  90.730  0.00  0.00    -0.047 C 
ATOM      2  H7  ARG d   1      18.167  10.236  89.861  0.00  0.00     0.035 H 
ATOM      3  H8  ARG d   1      18.803   9.199  91.182  0.00  0.00     0.035 H 
ENDROOT
BRANCH   1   4
ATOM      4  CB  ARG d   1      18.388  11.226  91.752  0.00  0.00    -0.028 C 
ATOM      5  H5  ARG d   1      17.326  11.045  91.976  0.00  0.00     0.036 H 
ATOM      6  H6  ARG d   1      18.985  11.089  92.666  0.00  0.00     0.036 H 
BRANCH   4   7
ATOM      7  CA  ARG d   1      18.541  12.677  91.292  0.00  0.00     0.182 C 
ATOM      8  H4  ARG d   1      19.490  12.772  90.744  0.00  0.00     0.101 H 
BRANCH   7   9
ATOM      9  N   ARG d   1      18.583  13.576  92.439  0.00  0.00    -0.065 N 
ATOM     10  H1  ARG d   1      19.344  13.312  93.045  0.00  0.00     0.275 HD
ATOM     11  H2  ARG d   1      17.713  13.516  92.945  0.00  0.00     0.275 HD
ATOM     12  H3  ARG d   1      18.721  14.522  92.120  0.00  0.00     0.275 HD
ENDBRANCH   7   9
BRANCH   7  13
ATOM     13  C   ARG d   1      17.402  13.045  90.350  0.00  0.00     0.204 C 
ATOM     14  O   ARG d   1      17.620  13.347  89.177  0.00  0.00    -0.646 OA
ATOM     15  OXT ARG d   1      16.236  13.050  90.744  0.00  0.00    -0.646 OA
ENDBRANCH   7  13
ENDBRANCH   4   7
ENDBRANCH   1   4
BRANCH   1  16
ATOM     16  CD  ARG d   1      20.258  10.490  90.275  0.00  0.00     0.009 C 
ATOM     17  H9  ARG d   1      20.271  11.454  89.746  0.00  0.00     0.064 H 
ATOM     18  H10 ARG d   1      20.580   9.692  89.590  0.00  0.00     0.064 H 
BRANCH  16  19
ATOM     19  NE  ARG d   1      21.193  10.555  91.394  0.00  0.00    -0.227 N 
ATOM     20  CZ  ARG d   1      21.907   9.525  91.834  0.00  0.00     0.665 C 
ATOM     21  NH1 ARG d   1      22.733   9.679  92.859  0.00  0.00    -0.235 N 
ATOM     22  NH2 ARG d   1      21.798   8.341  91.248  0.00  0.00    -0.235 N 
ATOM     23  H12 ARG d   1      23.286   8.880  93.199  0.00  0.00     0.174 HD
ATOM     24  H13 ARG d   1      22.822  10.598  93.315  0.00  0.00     0.174 HD
ATOM     25  H14 ARG d   1      21.157   8.218  90.451  0.00  0.00     0.174 HD
ATOM     26  H15 ARG d   1      22.354   7.544  91.590  0.00  0.00     0.174 HD
ATOM     27  H11 ARG d   1      21.307  11.459  91.874  0.00  0.00     0.177 HD
ENDBRANCH  16  19
ENDBRANCH   1  16
TORSDOF 6
