REMARK  9 active torsions:
REMARK  status: ('A' for Active; 'I' for Inactive)
REMARK    1  A    between atoms: O3B_8  and  PG_1 
REMARK    2  A    between atoms: PB_5  and  O3B_8 
REMARK    3  A    between atoms: O3A_12  and  PB_5 
REMARK    4  A    between atoms: PA_9  and  O3A_12 
REMARK    5  A    between atoms: PA_9  and  O5'_13 
REMARK    6  A    between atoms: O5'_13  and  C5'_14 
REMARK    7  A    between atoms: C5'_14  and  C4'_15 
REMARK    8  A    between atoms: C3'_17  and  O3'_18 
REMARK    9  A    between atoms: C1'_20  and  N9_21 
ROOT
ATOM      1  C4' DTP d   1      -0.076 -32.529  -0.944  0.00  0.00     0.087 C 
ATOM      2  O4' DTP d   1      -1.493 -32.505  -0.795  0.00  0.00    -0.356 OA
ATOM      3  C3' DTP d   1       0.533 -31.983   0.339  0.00  0.00     0.066 C 
ATOM      4  C2' DTP d   1      -0.607 -31.992   1.347  0.00  0.00     0.002 C 
ATOM      5  C1' DTP d   1      -1.867 -32.394   0.581  0.00  0.00     0.115 C 
ATOM      6  H3  DTP d   1       0.220 -31.891  -1.790  0.00  0.00     0.090 H 
ATOM      7  H4  DTP d   1       1.340 -32.645   0.687  0.00  0.00     0.087 H 
ATOM      8  H6  DTP d   1      -0.733 -30.991   1.786  0.00  0.00     0.043 H 
ATOM      9  H7  DTP d   1      -0.401 -32.719   2.146  0.00  0.00     0.043 H 
ATOM     10  H8  DTP d   1      -2.619 -31.599   0.693  0.00  0.00     0.118 H 
ENDROOT
BRANCH   1  11
ATOM     11  C5' DTP d   1       0.384 -33.950  -1.211  0.00  0.00     0.058 C 
ATOM     12  H1  DTP d   1      -0.150 -34.335  -2.092  0.00  0.00     0.079 H 
ATOM     13  H2  DTP d   1       1.465 -33.940  -1.413  0.00  0.00     0.079 H 
BRANCH  11  14
ATOM     14  O5' DTP d   1       0.130 -34.820  -0.101  0.00  0.00    -0.287 OA
BRANCH  14  15
ATOM     15  PA  DTP d   1       0.419 -36.410  -0.162  0.00  0.00     0.417 P 
ATOM     16  O1A DTP d   1      -0.688 -37.143  -0.899  0.00  0.00    -0.624 OA
ATOM     17  O2A DTP d   1       0.682 -36.895   1.230  0.00  0.00    -0.624 OA
BRANCH  15  18
ATOM     18  O3A DTP d   1       1.851 -36.487  -0.922  0.00  0.00    -0.180 OA
BRANCH  18  19
ATOM     19  PB  DTP d   1       2.148 -36.462  -2.513  0.00  0.00     0.428 P 
ATOM     20  O1B DTP d   1       0.860 -36.728  -3.247  0.00  0.00    -0.624 OA
ATOM     21  O2B DTP d   1       2.953 -35.226  -2.820  0.00  0.00    -0.624 OA
BRANCH  19  22
ATOM     22  O3B DTP d   1       3.135 -37.734  -2.635  0.00  0.00    -0.173 OA
BRANCH  22  23
ATOM     23  PG  DTP d   1       2.620 -39.263  -2.778  0.00  0.00     0.431 P 
ATOM     24  O1G DTP d   1       2.742 -39.530  -4.256  0.00  0.00    -0.616 OA
ATOM     25  O2G DTP d   1       3.543 -40.113  -1.945  0.00  0.00    -0.616 OA
ATOM     26  O3G DTP d   1       1.203 -39.263  -2.243  0.00  0.00    -0.616 OA
ENDBRANCH  22  23
ENDBRANCH  19  22
ENDBRANCH  18  19
ENDBRANCH  15  18
ENDBRANCH  14  15
ENDBRANCH  11  14
ENDBRANCH   1  11
BRANCH   3  27
ATOM     27  O3' DTP d   1       1.078 -30.676   0.124  0.00  0.00    -0.393 OA
ATOM     28  H5  DTP d   1       1.453 -30.353   0.935  0.00  0.00     0.210 HD
ENDBRANCH   3  27
BRANCH   5  29
ATOM     29  N9  DTP d   1      -2.473 -33.677   1.062  0.00  0.00    -0.296 N 
ATOM     30  C8  DTP d   1      -2.598 -34.835   0.362  0.00  0.00     0.070 A 
ATOM     31  N7  DTP d   1      -3.196 -35.807   1.101  0.00  0.00    -0.236 NA
ATOM     32  H9  DTP d   1      -2.261 -34.968  -0.665  0.00  0.00     0.144 H 
ATOM     33  C5  DTP d   1      -3.475 -35.270   2.302  0.00  0.00     0.149 A 
ATOM     34  C6  DTP d   1      -4.116 -35.746   3.551  0.00  0.00     0.155 A 
ATOM     35  C4  DTP d   1      -3.000 -33.871   2.277  0.00  0.00     0.167 A 
ATOM     36  N6  DTP d   1      -4.578 -37.017   3.642  0.00  0.00    -0.382 N 
ATOM     37  N1  DTP d   1      -4.212 -34.871   4.587  0.00  0.00    -0.222 NA
ATOM     38  H10 DTP d   1      -5.022 -37.342   4.512  0.00  0.00     0.157 HD
ATOM     39  H11 DTP d   1      -4.485 -37.657   2.841  0.00  0.00     0.157 HD
ATOM     40  C2  DTP d   1      -3.754 -33.599   4.503  0.00  0.00     0.091 A 
ATOM     41  N3  DTP d   1      -3.165 -33.101   3.391  0.00  0.00    -0.222 NA
ATOM     42  H12 DTP d   1      -3.864 -32.951   5.365  0.00  0.00     0.146 H 
ENDBRANCH   5  29
TORSDOF 9
