REMARK  10 active torsions:
REMARK  status: ('A' for Active; 'I' for Inactive)
REMARK    1  A    between atoms: PG_1  and  O3B_5 
REMARK    2  A    between atoms: O3B_5  and  PB_6 
REMARK    3  A    between atoms: PB_6  and  O3A_9 
REMARK    4  A    between atoms: O3A_9  and  PA_10 
REMARK    5  A    between atoms: PA_10  and  O5'_13 
REMARK    6  A    between atoms: O5'_13  and  C5'_14 
REMARK    7  A    between atoms: C5'_14  and  C4'_15 
REMARK    8  A    between atoms: C3'_17  and  O3'_18 
REMARK    9  A    between atoms: C1'_20  and  N9_21 
REMARK   10  A    between atoms: C2_28  and  N2_29 
ROOT
ATOM      1  C4' MOL d   1       0.454 -31.945  -1.113  0.00  0.00     0.087 C 
ATOM      2  O4' MOL d   1      -0.849 -31.968  -0.521  0.00  0.00    -0.356 OA
ATOM      3  C3' MOL d   1       1.397 -31.245  -0.137  0.00  0.00     0.066 C 
ATOM      4  C2' MOL d   1       0.635 -31.174   1.153  0.00  0.00     0.003 C 
ATOM      5  C1' MOL d   1      -0.797 -31.180   0.661  0.00  0.00     0.119 C 
ATOM      6  H3  MOL d   1       0.424 -31.372  -2.051  0.00  0.00     0.090 H 
ATOM      7  H4  MOL d   1       2.335 -31.809  -0.026  0.00  0.00     0.087 H 
ATOM      8  H6  MOL d   1       0.866 -30.251   1.705  0.00  0.00     0.043 H 
ATOM      9  H7  MOL d   1       0.844 -32.045   1.791  0.00  0.00     0.043 H 
ATOM     10  H8  MOL d   1      -1.106 -30.154   0.411  0.00  0.00     0.119 H 
ENDROOT
BRANCH   1  11
ATOM     11  C5' MOL d   1       0.881 -33.370  -1.429  0.00  0.00     0.058 C 
ATOM     12  H1  MOL d   1       0.574 -33.620  -2.455  0.00  0.00     0.079 H 
ATOM     13  H2  MOL d   1       1.975 -33.446  -1.345  0.00  0.00     0.079 H 
BRANCH  11  14
ATOM     14  O5' MOL d   1       0.278 -34.286  -0.525  0.00  0.00    -0.287 OA
BRANCH  14  15
ATOM     15  PA  MOL d   1       0.644 -35.843  -0.382  0.00  0.00     0.417 P 
ATOM     16  O1A MOL d   1      -0.349 -36.691  -1.146  0.00  0.00    -0.624 OA
ATOM     17  O2A MOL d   1       0.745 -36.110   1.103  0.00  0.00    -0.624 OA
BRANCH  15  18
ATOM     18  O3A MOL d   1       2.134 -35.949  -1.010  0.00  0.00    -0.180 OA
BRANCH  18  19
ATOM     19  PB  MOL d   1       2.476 -35.954  -2.596  0.00  0.00     0.428 P 
ATOM     20  O1B MOL d   1       1.191 -36.155  -3.381  0.00  0.00    -0.624 OA
ATOM     21  O2B MOL d   1       3.312 -34.727  -2.860  0.00  0.00    -0.624 OA
BRANCH  19  22
ATOM     22  O3B MOL d   1       3.448 -37.203  -2.795  0.00  0.00    -0.173 OA
BRANCH  22  23
ATOM     23  PG  MOL d   1       3.057 -38.753  -2.714  0.00  0.00     0.431 P 
ATOM     24  O1G MOL d   1       3.580 -39.303  -3.999  0.00  0.00    -0.616 OA
ATOM     25  O2G MOL d   1       3.818 -39.205  -1.487  0.00  0.00    -0.616 OA
ATOM     26  O3G MOL d   1       1.564 -38.889  -2.570  0.00  0.00    -0.616 OA
ENDBRANCH  22  23
ENDBRANCH  19  22
ENDBRANCH  18  19
ENDBRANCH  15  18
ENDBRANCH  14  15
ENDBRANCH  11  14
ENDBRANCH   1  11
BRANCH   3  27
ATOM     27  O3' MOL d   1       1.667 -29.909  -0.541  0.00  0.00    -0.393 OA
ATOM     28  H5  MOL d   1       0.854 -29.420  -0.577  0.00  0.00     0.210 HD
ENDBRANCH   3  27
BRANCH   5  29
ATOM     29  N9  MOL d   1      -1.664 -31.676   1.748  0.00  0.00    -0.253 N 
ATOM     30  C8  MOL d   1      -1.785 -32.887   2.318  0.00  0.00     0.352 A 
ATOM     31  N7  MOL d   1      -2.673 -32.972   3.315  0.00  0.00    -0.184 NA
ATOM     32  O8  MOL d   1      -1.104 -33.908   1.955  0.00  0.00    -0.244 OA
ATOM     33  C5  MOL d   1      -3.173 -31.730   3.419  0.00  0.00     0.175 A 
ATOM     34  C6  MOL d   1      -4.182 -31.049   4.262  0.00  0.00     0.292 A 
ATOM     35  C4  MOL d   1      -2.506 -30.888   2.397  0.00  0.00     0.164 A 
ATOM     36  O6  MOL d   1      -4.789 -31.695   5.144  0.00  0.00    -0.265 OA
ATOM     37  N1  MOL d   1      -4.417 -29.735   4.047  0.00  0.00    -0.154 N 
ATOM     38  C2  MOL d   1      -3.767 -29.027   3.084  0.00  0.00     0.680 A 
ATOM     39  H9  MOL d   1      -5.093 -29.267   4.616  0.00  0.00     0.187 HD
ATOM     40  N3  MOL d   1      -2.828 -29.578   2.271  0.00  0.00    -0.174 N 
ATOM     41  H12 MOL d   1      -2.361 -28.999   1.558  0.00  0.00     0.186 HD
BRANCH  38  42
ATOM     42  N2  MOL d   1      -4.040 -27.715   2.911  0.00  0.00    -0.234 N 
ATOM     43  H10 MOL d   1      -3.548 -27.178   2.182  0.00  0.00     0.174 HD
ATOM     44  H11 MOL d   1      -4.740 -27.252   3.508  0.00  0.00     0.174 HD
ENDBRANCH  38  42
ENDBRANCH   5  29
TORSDOF 10
