REMARK  9 active torsions:
REMARK  status: ('A' for Active; 'I' for Inactive)
REMARK    1  A    between atoms: O3B_8  and  PG_1 
REMARK    2  A    between atoms: PB_5  and  O3B_8 
REMARK    3  A    between atoms: O3A_12  and  PB_5 
REMARK    4  A    between atoms: PA_9  and  O3A_12 
REMARK    5  A    between atoms: PA_9  and  O5'_13 
REMARK    6  A    between atoms: O5'_13  and  C5'_14 
REMARK    7  A    between atoms: C5'_14  and  C4'_15 
REMARK    8  A    between atoms: C3'_17  and  O3'_18 
REMARK    9  A    between atoms: C1'_20  and  N9_21 
ROOT
ATOM      1  C4' DTP d   1     373.974 341.553 100.075  0.00  0.00     0.087 C 
ATOM      2  O4' DTP d   1     373.491 342.226 101.242  0.00  0.00    -0.356 OA
ATOM      3  C3' DTP d   1     375.476 341.780 100.044  0.00  0.00     0.066 C 
ATOM      4  C2' DTP d   1     375.602 343.165 100.647  0.00  0.00     0.002 C 
ATOM      5  C1' DTP d   1     374.454 343.207 101.644  0.00  0.00     0.115 C 
ATOM      6  H3  DTP d   1     373.528 342.018  99.184  0.00  0.00     0.090 H 
ATOM      7  H4  DTP d   1     375.994 341.039 100.671  0.00  0.00     0.087 H 
ATOM      8  H6  DTP d   1     375.487 343.943  99.878  0.00  0.00     0.043 H 
ATOM      9  H7  DTP d   1     376.571 343.290 101.153  0.00  0.00     0.043 H 
ATOM     10  H8  DTP d   1     373.994 344.205 101.687  0.00  0.00     0.118 H 
ENDROOT
BRANCH   1  11
ATOM     11  C5' DTP d   1     373.594 340.088 100.066  0.00  0.00     0.058 C 
ATOM     12  H1  DTP d   1     372.509 339.982 100.213  0.00  0.00     0.079 H 
ATOM     13  H2  DTP d   1     373.880 339.633  99.106  0.00  0.00     0.079 H 
BRANCH  11  14
ATOM     14  O5' DTP d   1     374.291 339.451 101.129  0.00  0.00    -0.287 OA
BRANCH  14  15
ATOM     15  PA  DTP d   1     374.959 338.016 100.860  0.00  0.00     0.417 P 
ATOM     16  O1A DTP d   1     374.044 337.239  99.939  0.00  0.00    -0.624 OA
ATOM     17  O2A DTP d   1     375.336 337.460 102.212  0.00  0.00    -0.624 OA
BRANCH  15  18
ATOM     18  O3A DTP d   1     376.320 338.370 100.059  0.00  0.00    -0.180 OA
BRANCH  18  19
ATOM     19  PB  DTP d   1     376.636 338.054  98.496  0.00  0.00     0.428 P 
ATOM     20  O1B DTP d   1     375.426 337.509  97.804  0.00  0.00    -0.624 OA
ATOM     21  O2B DTP d   1     377.313 339.301  97.968  0.00  0.00    -0.624 OA
BRANCH  19  22
ATOM     22  O3B DTP d   1     377.750 336.883  98.573  0.00  0.00    -0.173 OA
BRANCH  22  23
ATOM     23  PG  DTP d   1     377.444 335.300  98.506  0.00  0.00     0.431 P 
ATOM     24  O1G DTP d   1     378.111 334.838  97.243  0.00  0.00    -0.616 OA
ATOM     25  O2G DTP d   1     375.943 335.142  98.498  0.00  0.00    -0.616 OA
ATOM     26  O3G DTP d   1     378.092 334.791  99.774  0.00  0.00    -0.616 OA
ENDBRANCH  22  23
ENDBRANCH  19  22
ENDBRANCH  18  19
ENDBRANCH  15  18
ENDBRANCH  14  15
ENDBRANCH  11  14
ENDBRANCH   1  11
BRANCH   3  27
ATOM     27  O3' DTP d   1     376.002 341.699  98.715  0.00  0.00    -0.393 OA
ATOM     28  H5  DTP d   1     375.824 340.837  98.357  0.00  0.00     0.210 HD
ENDBRANCH   3  27
BRANCH   5  29
ATOM     29  N9  DTP d   1     375.041 342.839 102.946  0.00  0.00    -0.296 N 
ATOM     30  C8  DTP d   1     374.936 341.642 103.554  0.00  0.00     0.070 A 
ATOM     31  N7  DTP d   1     375.614 341.649 104.730  0.00  0.00    -0.236 NA
ATOM     32  H9  DTP d   1     374.385 340.790 103.159  0.00  0.00     0.144 H 
ATOM     33  C5  DTP d   1     376.171 342.869 104.873  0.00  0.00     0.149 A 
ATOM     34  C6  DTP d   1     377.013 343.554 105.878  0.00  0.00     0.155 A 
ATOM     35  C4  DTP d   1     375.793 343.650 103.689  0.00  0.00     0.167 A 
ATOM     36  N6  DTP d   1     377.415 342.910 107.001  0.00  0.00    -0.382 N 
ATOM     37  N1  DTP d   1     377.375 344.836 105.628  0.00  0.00    -0.222 NA
ATOM     38  H10 DTP d   1     378.001 343.398 107.693  0.00  0.00     0.157 HD
ATOM     39  H11 DTP d   1     377.134 341.932 107.162  0.00  0.00     0.157 HD
ATOM     40  C2  DTP d   1     376.992 345.493 104.515  0.00  0.00     0.091 A 
ATOM     41  N3  DTP d   1     376.224 344.929 103.567  0.00  0.00    -0.222 NA
ATOM     42  H12 DTP d   1     377.317 346.518 104.379  0.00  0.00     0.146 H 
ENDBRANCH   5  29
TORSDOF 9
