REMARK WARNING: 32 MAX_TORS EXCEEDED!!!
REMARK  33 active torsions:
REMARK  status: ('A' for Active; 'I' for Inactive)
REMARK    1  A    between atoms: N_1  and  CA_2 
REMARK    2  A    between atoms: CA_2  and  C_3 
REMARK    3  A    between atoms: CA_2  and  CB_5 
REMARK       I    between atoms: C_3  and  N_9 
REMARK    4  A    between atoms: CB_5  and  CG_6 
REMARK    5  A    between atoms: N_9  and  CA_10 
REMARK    6  A    between atoms: CA_16  and  CB_19 
REMARK    7  A    between atoms: CA_21  and  CB_24 
REMARK    8  A    between atoms: CB_24  and  CG_25 
REMARK    9  A    between atoms: CZ_30  and  OH_31 
REMARK   10  A    between atoms: CA_33  and  CB_36 
REMARK   11  A    between atoms: CB_36  and  CG_37 
REMARK   12  A    between atoms: CA_43  and  CB_46 
REMARK   13  A    between atoms: CB_46  and  CG_47 
REMARK   14  A    between atoms: CG_47  and  CD_48 
REMARK   15  A    between atoms: CD_48  and  NE_49 
REMARK       I    between atoms: NE_49  and  CZ_50 
REMARK       I    between atoms: CZ_50  and  NH1_51 
REMARK   16  A    between atoms: CA_58  and  CB_61 
REMARK   17  A    between atoms: CB_61  and  CG_62 
REMARK   18  A    between atoms: CG_62  and  CD_63 
REMARK   19  A    between atoms: CA_67  and  CB_70 
REMARK   20  A    between atoms: CB_70  and  CG_71 
REMARK   21  A    between atoms: CG_71  and  CD1_72 
REMARK   22  A    between atoms: CG_71  and  CD2_73 
REMARK   23  A    between atoms: CA_75  and  CB_78 
REMARK   24  A    between atoms: CB_78  and  CG1_79 
REMARK   25  A    between atoms: CB_78  and  CG2_80 
REMARK   26  A    between atoms: CA_82  and  CB_85 
REMARK   27  A    between atoms: CB_85  and  CG_86 
REMARK   28  A    between atoms: CA_96  and  C_97 
REMARK       I    between atoms: C_97  and  N_101 
REMARK   29  A    between atoms: N_101  and  CA_102 
REMARK   30  A    between atoms: CA_102  and  C_103 
REMARK   31  A    between atoms: CA_102  and  CB_105 
REMARK   32  A    between atoms: CB_105  and  OG1_106 
REMARK   33  A    between atoms: CB_105  and  CG2_107 
ROOT
ATOM      1  CA  ASP d   1       2.253 -14.224  24.057  0.00  0.00     0.098 C 
ATOM      2  C   ASP d   1       2.340 -12.733  24.280  0.00  0.00     0.241 C 
ATOM      3  O   ASP d   1       2.388 -12.279  25.430  0.00  0.00    -0.271 OA
ATOM      4  CB  ASP d   1       0.873 -14.576  23.540  0.00  0.00     0.013 C 
ATOM      5  SG  ASP d   1       0.947 -16.121  22.703  0.00  0.00    -0.095 SA
ATOM      6  N   ASP d   1       2.372 -11.983  23.166  0.00  0.00    -0.346 N 
ATOM      7  CA  ASP d   1       2.369 -10.517  23.172  0.00  0.00     0.086 C 
ATOM      8  C   ASP d   1       1.221  -9.896  22.350  0.00  0.00     0.240 C 
ATOM      9  O   ASP d   1       0.801 -10.430  21.307  0.00  0.00    -0.271 OA
ATOM     10  N   ASP d   1       0.728  -8.753  22.835  0.00  0.00    -0.346 N 
ATOM     11  CA  ASP d   1      -0.336  -8.005  22.153  0.00  0.00     0.093 C 
ATOM     12  C   ASP d   1      -0.127  -6.490  22.003  0.00  0.00     0.241 C 
ATOM     13  O   ASP d   1       0.745  -5.899  22.613  0.00  0.00    -0.271 OA
ATOM     14  N   ASP d   1      -0.986  -5.857  21.230  0.00  0.00    -0.346 N 
ATOM     15  CA  ASP d   1      -0.817  -4.454  20.965  0.00  0.00     0.094 C 
ATOM     16  C   ASP d   1      -2.126  -3.887  20.478  0.00  0.00     0.241 C 
ATOM     17  O   ASP d   1      -2.587  -4.262  19.385  0.00  0.00    -0.271 OA
ATOM     18  N   ASP d   1      -2.713  -3.002  21.307  0.00  0.00    -0.346 N 
ATOM     19  CA  ASP d   1      -4.049  -2.432  21.100  0.00  0.00     0.089 C 
ATOM     20  C   ASP d   1      -5.098  -3.531  20.863  0.00  0.00     0.240 C 
ATOM     21  O   ASP d   1      -6.025  -3.336  20.072  0.00  0.00    -0.271 OA
ATOM     22  N   ASP d   1      -4.958  -4.675  21.550  0.00  0.00    -0.351 N 
ATOM     23  CA  ASP d   1      -5.655  -5.882  21.144  0.00  0.00     0.069 C 
ATOM     24  C   ASP d   1      -4.751  -6.499  20.105  0.00  0.00     0.236 C 
ATOM     25  O   ASP d   1      -3.557  -6.618  20.359  0.00  0.00    -0.272 OA
ATOM     26  N   ASP d   1      -5.270  -6.829  18.926  0.00  0.00    -0.346 N 
ATOM     27  CA  ASP d   1      -4.507  -7.567  17.902  0.00  0.00     0.090 C 
ATOM     28  C   ASP d   1      -3.322  -8.433  18.464  0.00  0.00     0.241 C 
ATOM     29  O   ASP d   1      -2.515  -7.978  19.275  0.00  0.00    -0.271 OA
ATOM     30  N   ASP d   1      -3.226  -9.693  18.048  0.00  0.00    -0.346 N 
ATOM     31  CA  ASP d   1      -2.129 -10.532  18.499  0.00  0.00     0.089 C 
ATOM     32  C   ASP d   1      -0.871 -10.142  17.726  0.00  0.00     0.241 C 
ATOM     33  O   ASP d   1      -0.900  -9.937  16.514  0.00  0.00    -0.271 OA
ATOM     34  N   ASP d   1       0.235 -10.038  18.444  0.00  0.00    -0.346 N 
ATOM     35  CA  ASP d   1       1.507  -9.815  17.804  0.00  0.00     0.092 C 
ATOM     36  C   ASP d   1       2.179 -11.128  17.459  0.00  0.00     0.241 C 
ATOM     37  O   ASP d   1       2.338 -11.467  16.276  0.00  0.00    -0.271 OA
ATOM     38  N   ASP d   1       2.560 -11.862  18.510  0.00  0.00    -0.346 N 
ATOM     39  CA  ASP d   1       3.385 -13.079  18.382  0.00  0.00     0.093 C 
ATOM     40  C   ASP d   1       3.450 -13.938  19.664  0.00  0.00     0.241 C 
ATOM     41  O   ASP d   1       3.248 -13.429  20.780  0.00  0.00    -0.271 OA
ATOM     42  N   ASP d   1       3.767 -15.228  19.512  0.00  0.00    -0.345 N 
ATOM     43  CA  ASP d   1       4.014 -16.098  20.671  0.00  0.00     0.098 C 
ATOM     44  CB  ASP d   1       2.804 -17.007  20.919  0.00  0.00     0.013 C 
ATOM     45  SG  ASP d   1       1.155 -16.239  20.681  0.00  0.00    -0.095 SA
ATOM     46  H8  ASP d   1       2.992 -14.488  23.287  0.00  0.00     0.088 H 
ATOM     47  H9  ASP d   1       0.531 -13.796  22.844  0.00  0.00     0.053 H 
ATOM     48  H10 ASP d   1       0.171 -14.648  24.384  0.00  0.00     0.053 H 
ATOM     49  H11 ASP d   1       2.399 -12.451  22.283  0.00  0.00     0.163 HD
ATOM     50  H12 ASP d   1       2.243 -10.190  24.214  0.00  0.00     0.086 H 
ATOM     51  H16 ASP d   1       1.096  -8.394  23.693  0.00  0.00     0.163 HD
ATOM     52  H17 ASP d   1      -0.436  -8.433  21.145  0.00  0.00     0.088 H 
ATOM     53  H25 ASP d   1      -1.756  -6.353  20.828  0.00  0.00     0.163 HD
ATOM     54  H26 ASP d   1      -0.533  -3.945  21.898  0.00  0.00     0.088 H 
ATOM     55  H32 ASP d   1      -2.204  -2.714  22.118  0.00  0.00     0.163 HD
ATOM     56  H33 ASP d   1      -4.328  -1.887  22.014  0.00  0.00     0.087 H 
ATOM     57  H45 ASP d   1      -4.364  -4.697  22.354  0.00  0.00     0.163 HD
ATOM     58  H46 ASP d   1      -6.637  -5.639  20.712  0.00  0.00     0.078 H 
ATOM     59  H47 ASP d   1      -5.788  -6.562  21.998  0.00  0.00     0.078 H 
ATOM     60  H48 ASP d   1      -6.214  -6.567  18.726  0.00  0.00     0.163 HD
ATOM     61  H49 ASP d   1      -5.207  -8.264  17.418  0.00  0.00     0.087 H 
ATOM     62  H54 ASP d   1      -3.912 -10.064  17.422  0.00  0.00     0.163 HD
ATOM     63  H55 ASP d   1      -1.960 -10.348  19.570  0.00  0.00     0.087 H 
ATOM     64  H65 ASP d   1       0.188 -10.115  19.440  0.00  0.00     0.163 HD
ATOM     65  H66 ASP d   1       1.334  -9.248  16.878  0.00  0.00     0.088 H 
ATOM     66  H74 ASP d   1       2.273 -11.573  19.423  0.00  0.00     0.163 HD
ATOM     67  H75 ASP d   1       2.961 -13.697  17.577  0.00  0.00     0.088 H 
ATOM     68  H84 ASP d   1       3.838 -15.609  18.590  0.00  0.00     0.163 HD
ATOM     69  H85 ASP d   1       4.143 -15.451  21.551  0.00  0.00     0.088 H 
ATOM     70  H86 ASP d   1       2.861 -17.366  21.957  0.00  0.00     0.053 H 
ATOM     71  H87 ASP d   1       2.879 -17.862  20.231  0.00  0.00     0.053 H 
ENDROOT
BRANCH  19  72
ATOM     72  CB  ASP d   1      -4.049  -1.428  19.922  0.00  0.00    -0.036 C 
ATOM     73  H34 ASP d   1      -5.094  -1.182  19.682  0.00  0.00     0.036 H 
ATOM     74  H35 ASP d   1      -3.579  -1.917  19.056  0.00  0.00     0.036 H 
BRANCH  72  75
ATOM     75  CG  ASP d   1      -3.294  -0.104  20.194  0.00  0.00    -0.048 C 
ATOM     76  H36 ASP d   1      -3.672   0.341  21.126  0.00  0.00     0.035 H 
ATOM     77  H37 ASP d   1      -3.471   0.589  19.359  0.00  0.00     0.035 H 
BRANCH  75  78
ATOM     78  CD  ASP d   1      -1.818  -0.345  20.328  0.00  0.00     0.009 C 
ATOM     79  H38 ASP d   1      -1.426  -0.525  19.316  0.00  0.00     0.064 H 
ATOM     80  H39 ASP d   1      -1.692  -1.252  20.938  0.00  0.00     0.064 H 
BRANCH  78  81
ATOM     81  NE  ASP d   1      -0.986   0.703  20.934  0.00  0.00    -0.227 N 
ATOM     82  CZ  ASP d   1      -0.666   1.872  20.371  0.00  0.00     0.665 C 
ATOM     83  NH1 ASP d   1      -1.184   2.237  19.201  0.00  0.00    -0.235 N 
ATOM     84  NH2 ASP d   1       0.143   2.700  21.024  0.00  0.00    -0.235 N 
ATOM     85  H41 ASP d   1      -0.925   3.142  18.783  0.00  0.00     0.174 HD
ATOM     86  H42 ASP d   1      -1.844   1.615  18.713  0.00  0.00     0.174 HD
ATOM     87  H43 ASP d   1       0.545   2.419  21.930  0.00  0.00     0.174 HD
ATOM     88  H44 ASP d   1       0.368   3.622  20.624  0.00  0.00     0.174 HD
ATOM     89  H40 ASP d   1      -0.616   0.520  21.878  0.00  0.00     0.177 HD
ENDBRANCH  78  81
ENDBRANCH  75  78
ENDBRANCH  72  75
ENDBRANCH  19  72
BRANCH  15  90
ATOM     90  CB  ASP d   1       0.283  -4.237  19.939  0.00  0.00     0.004 C 
ATOM     91  H27 ASP d   1      -0.023  -4.720  18.999  0.00  0.00     0.046 H 
ATOM     92  H28 ASP d   1       1.201  -4.713  20.314  0.00  0.00     0.046 H 
BRANCH  90  93
ATOM     93  CG  ASP d   1       0.587  -2.797  19.648  0.00  0.00     0.053 A 
ATOM     94  ND1 ASP d   1       1.219  -1.974  20.559  0.00  0.00    -0.247 NA
ATOM     95  CE1 ASP d   1       1.376  -0.777  20.021  0.00  0.00     0.064 A 
ATOM     96  NE2 ASP d   1       0.862  -0.789  18.800  0.00  0.00    -0.359 N 
ATOM     97  H30 ASP d   1       1.849   0.078  20.502  0.00  0.00     0.143 H 
ATOM     98  CD2 ASP d   1       0.376  -2.046  18.534  0.00  0.00     0.002 A 
ATOM     99  H31 ASP d   1       0.832   0.014  18.155  0.00  0.00     0.166 HD
ATOM    100  H29 ASP d   1      -0.090  -2.378  17.607  0.00  0.00     0.114 H 
ENDBRANCH  90  93
ENDBRANCH  15  90
BRANCH  11 101
ATOM    101  CB  ASP d   1      -1.623  -8.168  22.885  0.00  0.00    -0.014 C 
ATOM    102  H18 ASP d   1      -2.389  -7.585  22.352  0.00  0.00     0.043 H 
ATOM    103  H19 ASP d   1      -1.488  -7.758  23.897  0.00  0.00     0.043 H 
BRANCH 101 104
ATOM    104  CG  ASP d   1      -2.118  -9.537  23.021  0.00  0.00    -0.056 A 
ATOM    105  CD1 ASP d   1      -1.571 -10.412  23.960  0.00  0.00    -0.074 A 
ATOM    106  CE1 ASP d   1      -2.054 -11.691  24.103  0.00  0.00    -0.051 A 
ATOM    107  H20 ASP d   1      -0.752 -10.078  24.587  0.00  0.00     0.084 H 
ATOM    108  CZ  ASP d   1      -3.123 -12.084  23.325  0.00  0.00     0.065 A 
ATOM    109  H22 ASP d   1      -1.604 -12.376  24.812  0.00  0.00     0.087 H 
ATOM    110  CE2 ASP d   1      -3.682 -11.227  22.400  0.00  0.00    -0.051 A 
ATOM    111  CD2 ASP d   1      -3.183  -9.954  22.263  0.00  0.00    -0.074 A 
ATOM    112  H23 ASP d   1      -4.511 -11.556  21.784  0.00  0.00     0.087 H 
ATOM    113  H21 ASP d   1      -3.635  -9.274  21.550  0.00  0.00     0.084 H 
BRANCH 108 114
ATOM    114  OH  ASP d   1      -3.664 -13.320  23.432  0.00  0.00    -0.361 OA
ATOM    115  H24 ASP d   1      -3.197 -13.812  24.096  0.00  0.00     0.217 HD
ENDBRANCH 108 114
ENDBRANCH 101 104
ENDBRANCH  11 101
BRANCH  27 116
ATOM    116  CB  ASP d   1      -4.012  -6.582  16.832  0.00  0.00    -0.029 C 
ATOM    117  H50 ASP d   1      -3.433  -7.144  16.085  0.00  0.00     0.037 H 
ATOM    118  H51 ASP d   1      -3.361  -5.841  17.318  0.00  0.00     0.037 H 
BRANCH 116 119
ATOM    119  CG  ASP d   1      -5.148  -5.827  16.101  0.00  0.00     0.018 C 
ATOM    120  H52 ASP d   1      -5.748  -5.297  16.855  0.00  0.00     0.049 H 
ATOM    121  H53 ASP d   1      -5.777  -6.569  15.587  0.00  0.00     0.049 H 
BRANCH 119 122
ATOM    122  CD  ASP d   1      -4.664  -4.784  15.045  0.00  0.00     0.172 C 
ATOM    123  OE1 ASP d   1      -3.628  -5.003  14.348  0.00  0.00    -0.648 OA
ATOM    124  OE2 ASP d   1      -5.349  -3.738  14.909  0.00  0.00    -0.648 OA
ENDBRANCH 119 122
ENDBRANCH 116 119
ENDBRANCH  27 116
BRANCH   7 125
ATOM    125  CB  ASP d   1       3.681 -10.016  22.682  0.00  0.00    -0.049 C 
ATOM    126  H13 ASP d   1       3.678  -8.916  22.687  0.00  0.00     0.030 H 
ATOM    127  H14 ASP d   1       3.852 -10.378  21.657  0.00  0.00     0.030 H 
ATOM    128  H15 ASP d   1       4.483 -10.383  23.340  0.00  0.00     0.030 H 
ENDBRANCH   7 125
BRANCH  31 129
ATOM    129  CB  ASP d   1      -2.448 -12.036  18.307  0.00  0.00    -0.035 C 
ATOM    130  H56 ASP d   1      -2.623 -12.182  17.231  0.00  0.00     0.037 H 
ATOM    131  H57 ASP d   1      -3.379 -12.230  18.860  0.00  0.00     0.037 H 
BRANCH 129 132
ATOM    132  CG  ASP d   1      -1.444 -13.133  18.741  0.00  0.00    -0.059 C 
ATOM    133  H58 ASP d   1      -0.468 -12.849  18.322  0.00  0.00     0.038 H 
BRANCH 132 134
ATOM    134  CD1 ASP d   1      -1.276 -13.207  20.261  0.00  0.00    -0.073 C 
ATOM    135  H59 ASP d   1      -0.555 -13.999  20.512  0.00  0.00     0.028 H 
ATOM    136  H60 ASP d   1      -2.247 -13.433  20.727  0.00  0.00     0.028 H 
ATOM    137  H61 ASP d   1      -0.905 -12.242  20.636  0.00  0.00     0.028 H 
ENDBRANCH 132 134
BRANCH 132 138
ATOM    138  CD2 ASP d   1      -1.786 -14.491  18.183  0.00  0.00    -0.073 C 
ATOM    139  H62 ASP d   1      -1.903 -14.420  17.091  0.00  0.00     0.028 H 
ATOM    140  H63 ASP d   1      -2.727 -14.845  18.630  0.00  0.00     0.028 H 
ATOM    141  H64 ASP d   1      -0.978 -15.199  18.420  0.00  0.00     0.028 H 
ENDBRANCH 132 138
ENDBRANCH 129 132
ENDBRANCH  31 129
BRANCH   1 142
ATOM    142  N   ASP d   1       2.545 -15.018  25.234  0.00  0.00    -0.345 N 
ATOM    143  C   ASP d   1       3.433 -16.013  25.213  0.00  0.00     0.249 C 
ATOM    144  O   ASP d   1       4.253 -16.154  24.297  0.00  0.00    -0.271 OA
ATOM    145  H7  ASP d   1       2.066 -14.814  26.088  0.00  0.00     0.163 HD
BRANCH 143 146
ATOM    146  CA  ASP d   1       3.396 -16.969  26.456  0.00  0.00     0.185 C 
ATOM    147  H4  ASP d   1       2.368 -16.927  26.844  0.00  0.00     0.100 H 
BRANCH 146 148
ATOM    148  N   ASP d   1       3.700 -18.410  26.251  0.00  0.00    -0.066 N 
ATOM    149  H1  ASP d   1       3.638 -18.895  27.132  0.00  0.00     0.275 HD
ATOM    150  H2  ASP d   1       4.632 -18.507  25.879  0.00  0.00     0.275 HD
ATOM    151  H3  ASP d   1       3.037 -18.805  25.603  0.00  0.00     0.275 HD
ENDBRANCH 146 148
BRANCH 146 152
ATOM    152  CB  ASP d   1       4.330 -16.406  27.529  0.00  0.00     0.050 C 
ATOM    153  H5  ASP d   1       4.416 -17.142  28.342  0.00  0.00     0.052 H 
ATOM    154  H6  ASP d   1       3.895 -15.475  27.922  0.00  0.00     0.052 H 
BRANCH 152 155
ATOM    155  CG  ASP d   1       5.712 -16.107  26.999  0.00  0.00     0.175 C 
ATOM    156  OD1 ASP d   1       6.509 -17.039  26.793  0.00  0.00    -0.648 OA
ATOM    157  OD2 ASP d   1       6.013 -14.935  26.795  0.00  0.00    -0.648 OA
ENDBRANCH 152 155
ENDBRANCH 146 152
ENDBRANCH 143 146
ENDBRANCH   1 142
BRANCH  35 158
ATOM    158  CB  ASP d   1       2.443  -9.022  18.699  0.00  0.00    -0.033 C 
ATOM    159  H67 ASP d   1       2.655  -9.608  19.605  0.00  0.00     0.042 H 
BRANCH 158 160
ATOM    160  CG1 ASP d   1       3.732  -8.766  17.969  0.00  0.00    -0.071 C 
ATOM    161  H68 ASP d   1       4.412  -8.192  18.616  0.00  0.00     0.028 H 
ATOM    162  H69 ASP d   1       3.527  -8.194  17.052  0.00  0.00     0.028 H 
ATOM    163  H70 ASP d   1       4.201  -9.726  17.705  0.00  0.00     0.028 H 
ENDBRANCH 158 160
BRANCH 158 164
ATOM    164  CG2 ASP d   1       1.794  -7.706  19.105  0.00  0.00    -0.071 C 
ATOM    165  H71 ASP d   1       0.853  -7.910  19.637  0.00  0.00     0.028 H 
ATOM    166  H72 ASP d   1       1.584  -7.108  18.206  0.00  0.00     0.028 H 
ATOM    167  H73 ASP d   1       2.475  -7.149  19.765  0.00  0.00     0.028 H 
ENDBRANCH 158 164
ENDBRANCH  35 158
BRANCH  39 168
ATOM    168  CB  ASP d   1       4.788 -12.667  18.008  0.00  0.00    -0.012 C 
ATOM    169  H76 ASP d   1       5.303 -12.368  18.933  0.00  0.00     0.044 H 
ATOM    170  H77 ASP d   1       4.710 -11.800  17.335  0.00  0.00     0.044 H 
BRANCH 168 171
ATOM    171  CG  ASP d   1       5.624 -13.667  17.342  0.00  0.00    -0.028 A 
ATOM    172  CD1 ASP d   1       6.611 -14.427  17.905  0.00  0.00    -0.015 A 
ATOM    173  NE1 ASP d   1       7.210 -15.202  16.953  0.00  0.00    -0.365 N 
ATOM    174  H78 ASP d   1       6.881 -14.416  18.960  0.00  0.00     0.112 H 
ATOM    175  CE2 ASP d   1       6.629 -14.930  15.740  0.00  0.00     0.042 A 
ATOM    176  H79 ASP d   1       7.970 -15.877  17.118  0.00  0.00     0.165 HD
ATOM    177  CD2 ASP d   1       5.630 -13.961  15.956  0.00  0.00    -0.002 A 
ATOM    178  CZ2 ASP d   1       6.899 -15.452  14.473  0.00  0.00    -0.056 A 
ATOM    179  CE3 ASP d   1       4.884 -13.503  14.866  0.00  0.00    -0.070 A 
ATOM    180  CZ3 ASP d   1       5.159 -14.019  13.614  0.00  0.00    -0.082 A 
ATOM    181  H80 ASP d   1       4.107 -12.759  15.000  0.00  0.00     0.084 H 
ATOM    182  CH2 ASP d   1       6.159 -14.986  13.429  0.00  0.00    -0.081 A 
ATOM    183  H82 ASP d   1       4.592 -13.670  12.759  0.00  0.00     0.083 H 
ATOM    184  H83 ASP d   1       6.347 -15.371  12.433  0.00  0.00     0.083 H 
ATOM    185  H81 ASP d   1       7.669 -16.201  14.326  0.00  0.00     0.086 H 
ENDBRANCH 168 171
ENDBRANCH  39 168
BRANCH  43 186
ATOM    186  C   ASP d   1       5.291 -16.947  20.525  0.00  0.00     0.242 C 
ATOM    187  O   ASP d   1       5.848 -17.073  19.418  0.00  0.00    -0.271 OA
ATOM    188  N   ASP d   1       5.737 -17.525  21.650  0.00  0.00    -0.343 N 
ATOM    189  H88 ASP d   1       5.336 -17.236  22.519  0.00  0.00     0.163 HD
BRANCH 188 190
ATOM    190  CA  ASP d   1       6.790 -18.568  21.680  0.00  0.00     0.120 C 
ATOM    191  H89 ASP d   1       6.731 -19.126  20.734  0.00  0.00     0.093 H 
BRANCH 190 192
ATOM    192  C   ASP d   1       6.629 -19.590  22.842  0.00  0.00     0.199 C 
ATOM    193  O   ASP d   1       6.453 -20.820  22.646  0.00  0.00    -0.646 OA
ATOM    194  OXT ASP d   1       6.664 -19.253  24.053  0.00  0.00    -0.646 OA
ENDBRANCH 190 192
BRANCH 190 195
ATOM    195  CB  ASP d   1       8.163 -17.916  21.771  0.00  0.00     0.061 C 
ATOM    196  H90 ASP d   1       8.867 -18.606  22.259  0.00  0.00     0.086 H 
BRANCH 195 197
ATOM    197  OG1 ASP d   1       8.035 -16.722  22.541  0.00  0.00    -0.393 OA
ATOM    198  H91 ASP d   1       7.421 -16.136  22.115  0.00  0.00     0.210 HD
ENDBRANCH 195 197
BRANCH 195 199
ATOM    199  CG2 ASP d   1       8.684 -17.555  20.393  0.00  0.00    -0.050 C 
ATOM    200  H92 ASP d   1       9.675 -17.087  20.487  0.00  0.00     0.031 H 
ATOM    201  H93 ASP d   1       7.990 -16.851  19.911  0.00  0.00     0.031 H 
ATOM    202  H94 ASP d   1       8.765 -18.466  19.782  0.00  0.00     0.031 H 
ENDBRANCH 195 199
ENDBRANCH 190 195
ENDBRANCH 188 190
ENDBRANCH  43 186
TORSDOF 33
