REMARK  3 active torsions:
REMARK  status: ('A' for Active; 'I' for Inactive)
REMARK    1  A    between atoms: N4_22  and  C13_5 
REMARK    2  A    between atoms: C8_17  and  C7_16 
REMARK    3  A    between atoms: C8_17  and  N3_21 
ROOT
ATOM      1  C10 L74 d   1      22.227  13.882  26.673  0.00  0.00     0.006 C 
ATOM      2  C11 L74 d   1      23.530  13.804  24.672  0.00  0.00     0.006 C 
ATOM      3  C12 L74 d   1      22.176  14.087  24.006  0.00  0.00     0.095 C 
ATOM      4  C9  L74 d   1      21.673  15.153  26.024  0.00  0.00     0.095 C 
ATOM      5  N3  L74 d   1      21.415  15.011  24.666  0.00  0.00    -0.065 N 
ATOM      6  N4  L74 d   1      23.456  13.380  26.077  0.00  0.00    -0.280 NA
ATOM      7  H2  L74 d   1      21.462  13.096  26.594  0.00  0.00     0.058 H 
ATOM      8  H3  L74 d   1      22.424  14.097  27.734  0.00  0.00     0.058 H 
ATOM      9  H4  L74 d   1      24.132  14.723  24.625  0.00  0.00     0.058 H 
ATOM     10  H5  L74 d   1      24.031  13.008  24.102  0.00  0.00     0.058 H 
ATOM     11  H6  L74 d   1      21.611  13.145  23.957  0.00  0.00     0.077 H 
ATOM     12  H7  L74 d   1      22.362  14.456  22.987  0.00  0.00     0.077 H 
ATOM     13  H17 L74 d   1      22.407  15.961  26.157  0.00  0.00     0.077 H 
ATOM     14  H18 L74 d   1      20.735  15.423  26.531  0.00  0.00     0.077 H 
ATOM     15  H20 L74 d   1      21.671  15.898  24.262  0.00  0.00     0.280 HD
ENDROOT
BRANCH   5  16
ATOM     16  C8  L74 d   1      20.150  14.857  24.405  0.00  0.00     0.109 C 
ATOM     17  H15 L74 d   1      19.965  13.841  24.027  0.00  0.00     0.083 H 
ATOM     18  H16 L74 d   1      19.555  15.024  25.315  0.00  0.00     0.083 H 
BRANCH  16  19
ATOM     19  C7  L74 d   1      19.768  15.910  23.316  0.00  0.00    -0.003 A 
ATOM     20  C4  L74 d   1      18.456  16.151  22.718  0.00  0.00     0.019 A 
ATOM     21  C3  L74 d   1      17.166  15.575  22.889  0.00  0.00    -0.067 A 
ATOM     22  C5  L74 d   1      18.637  17.161  21.830  0.00  0.00     0.138 A 
ATOM     23  C1  L74 d   1      16.117  16.100  22.104  0.00  0.00    -0.065 A 
ATOM     24  H13 L74 d   1      16.996  14.768  23.592  0.00  0.00     0.085 H 
ATOM     25  C2  L74 d   1      16.345  17.133  21.207  0.00  0.00     0.004 A 
ATOM     26  H1  L74 d   1      15.119  15.690  22.204  0.00  0.00     0.085 H 
ATOM     27  N1  L74 d   1      17.566  17.625  21.095  0.00  0.00    -0.242 NA
ATOM     28  H12 L74 d   1      15.534  17.530  20.607  0.00  0.00     0.114 H 
ATOM     29  N2  L74 d   1      19.950  17.534  21.861  0.00  0.00    -0.350 N 
ATOM     30  C6  L74 d   1      20.638  16.789  22.742  0.00  0.00    -0.013 A 
ATOM     31  H19 L74 d   1      20.358  18.285  21.286  0.00  0.00     0.166 HD
ATOM     32  H14 L74 d   1      21.702  16.872  22.959  0.00  0.00     0.112 H 
ENDBRANCH  16  19
ENDBRANCH   5  16
BRANCH   6  33
ATOM     33  C13 L74 d   1      23.798  12.010  26.345  0.00  0.00     0.010 A 
ATOM     34  C14 L74 d   1      24.424  11.646  27.530  0.00  0.00    -0.061 A 
ATOM     35  C15 L74 d   1      24.741  10.301  27.759  0.00  0.00    -0.060 A 
ATOM     36  H8  L74 d   1      24.666  12.398  28.273  0.00  0.00     0.086 H 
ATOM     37  C16 L74 d   1      24.428   9.332  26.797  0.00  0.00     0.034 A 
ATOM     38  H9  L74 d   1      25.229  10.009  28.682  0.00  0.00     0.086 H 
ATOM     39  C17 L74 d   1      23.800   9.702  25.608  0.00  0.00    -0.060 A 
ATOM     40 CL1  L74 d   1      24.828   7.620  27.078  0.00  0.00    -0.084 Cl
ATOM     41  C18 L74 d   1      23.484  11.040  25.381  0.00  0.00    -0.061 A 
ATOM     42  H10 L74 d   1      23.559   8.952  24.864  0.00  0.00     0.086 H 
ATOM     43  H11 L74 d   1      22.995  11.332  24.459  0.00  0.00     0.086 H 
ENDBRANCH   6  33
TORSDOF 3
