REMARK  2 active torsions:
REMARK  status: ('A' for Active; 'I' for Inactive)
REMARK    1  A    between atoms: C10_1  and  C05_3 
REMARK    2  A    between atoms: C05_3  and  N03_9 
ROOT
ATOM      1  C04 AUU d   1     147.164 142.570 135.502  0.00  0.00     0.005 C 
ATOM      2  C05 AUU d   1     146.795 142.609 134.146  0.00  0.00     0.217 C 
ATOM      3  C06 AUU d   1     144.953 141.712 135.198  0.00  0.00    -0.035 C 
ATOM      4  C07 AUU d   1     145.434 142.130 133.985  0.00  0.00    -0.017 C 
ATOM      5  C08 AUU d   1     146.441 141.046 135.705  0.00  0.00    -0.049 C 
ATOM      6  C09 AUU d   1     146.329 143.154 136.405  0.00  0.00    -0.099 C 
ATOM      7  C11 AUU d   1     144.968 142.667 136.198  0.00  0.00    -0.102 C 
ATOM      8  H1  AUU d   1     148.236 142.720 135.698  0.00  0.00     0.050 H 
ATOM      9  H2  AUU d   1     144.049 141.086 135.153  0.00  0.00     0.046 H 
ATOM     10  H3  AUU d   1     145.422 141.289 133.276  0.00  0.00     0.038 H 
ATOM     11  H4  AUU d   1     144.802 142.944 133.600  0.00  0.00     0.038 H 
ATOM     12  H5  AUU d   1     146.442 140.679 136.742  0.00  0.00     0.035 H 
ATOM     13  H6  AUU d   1     146.837 140.265 135.039  0.00  0.00     0.035 H 
ATOM     14  H7  AUU d   1     146.630 143.874 137.165  0.00  0.00     0.077 H 
ATOM     15  H8  AUU d   1     144.093 143.006 136.750  0.00  0.00     0.076 H 
ENDROOT
BRANCH   2  16
ATOM     16  C10 AUU d   1     146.912 144.157 133.525  0.00  0.00     0.211 C 
ATOM     17  O01 AUU d   1     146.889 144.315 132.275  0.00  0.00    -0.646 OA
ATOM     18  O02 AUU d   1     147.024 145.164 134.274  0.00  0.00    -0.646 OA
ENDBRANCH   2  16
BRANCH   2  19
ATOM     19  N03 AUU d   1     147.695 141.735 133.393  0.00  0.00    -0.059 N 
ATOM     20  H9  AUU d   1     148.644 142.059 133.498  0.00  0.00     0.275 HD
ATOM     21  H10 AUU d   1     147.441 141.751 132.418  0.00  0.00     0.275 HD
ATOM     22  H11 AUU d   1     147.621 140.793 133.744  0.00  0.00     0.275 HD
ENDBRANCH   2  19
TORSDOF 2
