REMARK  6 active torsions:
REMARK  status: ('A' for Active; 'I' for Inactive)
REMARK    1  A    between atoms: OAB_1  and  CAN_2 
REMARK    2  A    between atoms: CAT_8  and  CAP_9 
REMARK    3  A    between atoms: CAP_9  and  OAD_10 
REMARK    4  A    between atoms: CAP_9  and  CAS_11 
REMARK    5  A    between atoms: CAR_15  and  SAU_16 
REMARK    6  A    between atoms: SAU_16  and  CAA_19 
ROOT
ATOM      1  CAP MOL d   1     -22.502  -7.191 -20.262  0.00  0.00     0.075 C 
ATOM      2  H10 MOL d   1     -22.033  -6.804 -21.178  0.00  0.00     0.092 H 
ENDROOT
BRANCH   1   3
ATOM      3  CAT MOL d   1     -23.506  -8.249 -20.653  0.00  0.00     0.057 C 
ATOM      4  CAN MOL d   1     -22.791  -9.583 -21.024  0.00  0.00     0.048 C 
ATOM      5  CAL MOL d   1     -22.831  -9.847 -22.479  0.00  0.00    -0.040 C 
ATOM      6  H2  MOL d   1     -23.323 -10.394 -20.505  0.00  0.00     0.084 H 
ATOM      7  CAK MOL d   1     -24.208  -9.907 -23.035  0.00  0.00    -0.057 C 
ATOM      8  H3  MOL d   1     -22.336 -10.810 -22.671  0.00  0.00     0.036 H 
ATOM      9  H4  MOL d   1     -22.283  -9.044 -22.993  0.00  0.00     0.036 H 
ATOM     10  CAM MOL d   1     -24.833  -8.519 -22.963  0.00  0.00    -0.009 C 
ATOM     11  H5  MOL d   1     -24.812 -10.614 -22.448  0.00  0.00     0.033 H 
ATOM     12  H6  MOL d   1     -24.169 -10.240 -24.083  0.00  0.00     0.033 H 
ATOM     13  CAO MOL d   1     -24.402  -7.559 -21.763  0.00  0.00     0.136 C 
ATOM     14  H7  MOL d   1     -25.922  -8.655 -22.897  0.00  0.00     0.044 H 
ATOM     15  H8  MOL d   1     -24.585  -8.000 -23.901  0.00  0.00     0.044 H 
ATOM     16  OAC MOL d   1     -24.739  -6.429 -21.717  0.00  0.00    -0.297 OA
ATOM     17  H9  MOL d   1     -24.152  -8.469 -19.790  0.00  0.00     0.060 H 
BRANCH   4  18
ATOM     18  OAB MOL d   1     -21.417  -9.626 -20.635  0.00  0.00    -0.395 OA
ATOM     19  H1  MOL d   1     -21.348  -9.460 -19.702  0.00  0.00     0.210 HD
ENDBRANCH   4  18
ENDBRANCH   1   3
BRANCH   1  20
ATOM     20  OAD MOL d   1     -21.526  -7.811 -19.459  0.00  0.00    -0.390 OA
ATOM     21  H11 MOL d   1     -21.104  -8.504 -19.954  0.00  0.00     0.210 HD
ENDBRANCH   1  20
BRANCH   1  22
ATOM     22  CAS MOL d   1     -23.100  -5.988 -19.481  0.00  0.00    -0.007 A 
ATOM     23  CAQ MOL d   1     -22.558  -4.727 -19.692  0.00  0.00     0.044 A 
ATOM     24 CLA  MOL d   1     -21.251  -4.513 -20.848  0.00  0.00    -0.084 Cl
ATOM     25  CAJ MOL d   1     -23.005  -3.634 -19.033  0.00  0.00    -0.041 A 
ATOM     26  CAR MOL d   1     -24.022  -3.794 -18.119  0.00  0.00     0.060 A 
ATOM     27  H12 MOL d   1     -22.574  -2.657 -19.220  0.00  0.00     0.088 H 
ATOM     28  CAH MOL d   1     -24.593  -5.041 -17.887  0.00  0.00    -0.061 A 
ATOM     29  CAI MOL d   1     -24.131  -6.147 -18.581  0.00  0.00    -0.071 A 
ATOM     30  H16 MOL d   1     -25.396  -5.147 -17.166  0.00  0.00     0.085 H 
ATOM     31  H17 MOL d   1     -24.574  -7.123 -18.419  0.00  0.00     0.084 H 
BRANCH  26  32
ATOM     32  SAU MOL d   1     -24.552  -2.295 -17.261  0.00  0.00     0.171 S 
ATOM     33  OAE MOL d   1     -25.759  -2.511 -16.469  0.00  0.00    -0.223 OA
ATOM     34  OAF MOL d   1     -23.608  -1.879 -16.218  0.00  0.00    -0.223 OA
BRANCH  32  35
ATOM     35  CAA MOL d   1     -24.755  -0.970 -18.478  0.00  0.00     0.020 C 
ATOM     36  H13 MOL d   1     -25.078  -0.050 -17.968  0.00  0.00     0.049 H 
ATOM     37  H14 MOL d   1     -25.514  -1.265 -19.218  0.00  0.00     0.049 H 
ATOM     38  H15 MOL d   1     -23.797  -0.790 -18.987  0.00  0.00     0.049 H 
ENDBRANCH  32  35
ENDBRANCH  26  32
ENDBRANCH   1  22
TORSDOF 6
