REMARK WARNING: 32 MAX_TORS EXCEEDED!!!
REMARK  37 active torsions:
REMARK  status: ('A' for Active; 'I' for Inactive)
REMARK    1  A    between atoms: N_1  and  CA_2 
REMARK    2  A    between atoms: CA_2  and  C_3 
REMARK    3  A    between atoms: CA_2  and  CB_5 
REMARK       I    between atoms: C_3  and  N_12 
REMARK    4  A    between atoms: CB_5  and  CG_6 
REMARK    5  A    between atoms: CG_6  and  CD_7 
REMARK    6  A    between atoms: CD_7  and  NE_8 
REMARK       I    between atoms: NE_8  and  CZ_9 
REMARK       I    between atoms: CZ_9  and  NH1_10 
REMARK       I    between atoms: CZ_9  and  NH2_11 
REMARK    7  A    between atoms: N_12  and  CA_13 
REMARK    8  A    between atoms: CA_13  and  C_14 
REMARK    9  A    between atoms: CA_13  and  CB_16 
REMARK       I    between atoms: C_14  and  N_19 
REMARK   10  A    between atoms: CB_16  and  OG1_17 
REMARK   11  A    between atoms: CB_16  and  CG2_18 
REMARK   12  A    between atoms: N_19  and  CA_20 
REMARK   13  A    between atoms: CA_20  and  C_21 
REMARK   14  A    between atoms: CA_20  and  CB_23 
REMARK       I    between atoms: C_21  and  N_28 
REMARK   15  A    between atoms: CB_23  and  CG_24 
REMARK   16  A    between atoms: CG_24  and  CD_25 
REMARK   17  A    between atoms: CD_25  and  CE_26 
REMARK   18  A    between atoms: CE_26  and  NZ_27 
REMARK   19  A    between atoms: N_28  and  CA_29 
REMARK   20  A    between atoms: CA_29  and  C_30 
REMARK   21  A    between atoms: CA_29  and  CB_32 
REMARK       I    between atoms: C_30  and  N_37 
REMARK   22  A    between atoms: CB_32  and  CG_33 
REMARK   23  A    between atoms: CG_33  and  CD_34 
REMARK       I    between atoms: CD_34  and  NE2_36 
REMARK   24  A    between atoms: N_37  and  CA_38 
REMARK   25  A    between atoms: CA_38  and  C_39 
REMARK   26  A    between atoms: CA_38  and  CB_41 
REMARK       I    between atoms: C_39  and  N_44 
REMARK   27  A    between atoms: CB_41  and  OG1_42 
REMARK   28  A    between atoms: CB_41  and  CG2_43 
REMARK   29  A    between atoms: N_44  and  CA_45 
REMARK   30  A    between atoms: CA_45  and  C_46 
REMARK   31  A    between atoms: CA_45  and  CB_48 
REMARK       I    between atoms: C_46  and  N_49 
REMARK   32  A    between atoms: N_49  and  CA_50 
REMARK   33  A    between atoms: CA_50  and  C_51 
REMARK   34  A    between atoms: CA_50  and  CB_53 
REMARK   35  A    between atoms: CB_53  and  CG_54 
REMARK   36  A    between atoms: CG_54  and  CD_55 
REMARK   37  A    between atoms: CD_55  and  NE_56 
REMARK       I    between atoms: NE_56  and  CZ_57 
REMARK       I    between atoms: CZ_57  and  NH1_58 
ROOT
ATOM      1  C   ARG d   1     -17.414 -19.229 -31.214  0.00  0.00     0.241 C 
ATOM      2  O   ARG d   1     -16.248 -19.085 -31.626  0.00  0.00    -0.271 OA
ATOM      3  N   ARG d   1     -17.724 -20.039 -30.214  0.00  0.00    -0.346 N 
ATOM      4  H36 ARG d   1     -18.677 -20.079 -29.914  0.00  0.00     0.163 HD
ENDROOT
BRANCH   3   5
ATOM      5  CA  ARG d   1     -16.729 -20.890 -29.516  0.00  0.00     0.090 C 
ATOM      6  H37 ARG d   1     -15.857 -21.047 -30.168  0.00  0.00     0.087 H 
BRANCH   5   7
ATOM      7  C   ARG d   1     -17.377 -22.232 -29.194  0.00  0.00     0.241 C 
ATOM      8  O   ARG d   1     -18.607 -22.285 -29.119  0.00  0.00    -0.271 OA
ATOM      9  N   ARG d   1     -16.561 -23.260 -28.984  0.00  0.00    -0.344 N 
ATOM     10  H44 ARG d   1     -15.584 -23.107 -29.130  0.00  0.00     0.163 HD
BRANCH   9  11
ATOM     11  CA  ARG d   1     -16.983 -24.624 -28.549  0.00  0.00     0.113 C 
ATOM     12  H45 ARG d   1     -17.771 -24.993 -29.222  0.00  0.00     0.091 H 
BRANCH  11  13
ATOM     13  C   ARG d   1     -17.557 -24.550 -27.131  0.00  0.00     0.243 C 
ATOM     14  O   ARG d   1     -17.167 -23.646 -26.401  0.00  0.00    -0.271 OA
ATOM     15  N   ARG d   1     -18.466 -25.424 -26.721  0.00  0.00    -0.346 N 
ATOM     16  H51 ARG d   1     -18.785 -26.128 -27.356  0.00  0.00     0.163 HD
BRANCH  15  17
ATOM     17  CA  ARG d   1     -19.025 -25.386 -25.343  0.00  0.00     0.086 C 
ATOM     18  H52 ARG d   1     -19.065 -24.339 -25.009  0.00  0.00     0.086 H 
BRANCH  17  19
ATOM     19  C   ARG d   1     -18.104 -26.161 -24.394  0.00  0.00     0.240 C 
ATOM     20  O   ARG d   1     -17.453 -27.101 -24.871  0.00  0.00    -0.271 OA
ATOM     21  N   ARG d   1     -18.030 -25.747 -23.117  0.00  0.00    -0.345 N 
ATOM     22  H56 ARG d   1     -18.499 -24.891 -22.901  0.00  0.00     0.163 HD
BRANCH  21  23
ATOM     23  CA  ARG d   1     -17.323 -26.424 -21.977  0.00  0.00     0.096 C 
ATOM     24  H57 ARG d   1     -16.976 -25.649 -21.278  0.00  0.00     0.089 H 
BRANCH  23  25
ATOM     25  C   ARG d   1     -16.114 -27.243 -22.454  0.00  0.00     0.196 C 
ATOM     26  O   ARG d   1     -15.113 -26.695 -22.881  0.00  0.00    -0.646 OA
ATOM     27  OXT ARG d   1     -16.126 -28.461 -22.417  0.00  0.00    -0.646 OA
ENDBRANCH  23  25
BRANCH  23  28
ATOM     28  CB  ARG d   1     -18.265 -27.383 -21.239  0.00  0.00    -0.035 C 
ATOM     29  H58 ARG d   1     -17.701 -27.863 -20.426  0.00  0.00     0.036 H 
ATOM     30  H59 ARG d   1     -18.605 -28.149 -21.951  0.00  0.00     0.036 H 
BRANCH  28  31
ATOM     31  CG  ARG d   1     -19.493 -26.712 -20.637  0.00  0.00    -0.047 C 
ATOM     32  H60 ARG d   1     -20.260 -27.483 -20.472  0.00  0.00     0.035 H 
ATOM     33  H61 ARG d   1     -19.868 -25.971 -21.358  0.00  0.00     0.035 H 
BRANCH  31  34
ATOM     34  CD  ARG d   1     -19.237 -25.999 -19.307  0.00  0.00     0.009 C 
ATOM     35  H62 ARG d   1     -19.973 -25.188 -19.204  0.00  0.00     0.064 H 
ATOM     36  H63 ARG d   1     -18.223 -25.573 -19.334  0.00  0.00     0.064 H 
BRANCH  34  37
ATOM     37  NE  ARG d   1     -19.339 -26.863 -18.129  0.00  0.00    -0.227 N 
ATOM     38  CZ  ARG d   1     -20.460 -27.139 -17.447  0.00  0.00     0.665 C 
ATOM     39  NH1 ARG d   1     -21.629 -26.622 -17.794  0.00  0.00    -0.235 N 
ATOM     40  NH2 ARG d   1     -20.411 -27.949 -16.402  0.00  0.00    -0.235 N 
ATOM     41  H65 ARG d   1     -22.475 -26.851 -17.252  0.00  0.00     0.174 HD
ATOM     42  H66 ARG d   1     -21.692 -25.991 -18.606  0.00  0.00     0.174 HD
ATOM     43  H67 ARG d   1     -19.513 -28.363 -16.113  0.00  0.00     0.174 HD
ATOM     44  H68 ARG d   1     -21.271 -28.165 -15.877  0.00  0.00     0.174 HD
ATOM     45  H64 ARG d   1     -18.469 -27.299 -17.793  0.00  0.00     0.177 HD
ENDBRANCH  34  37
ENDBRANCH  31  34
ENDBRANCH  28  31
ENDBRANCH  23  28
ENDBRANCH  21  23
ENDBRANCH  17  19
BRANCH  17  46
ATOM     46  CB  ARG d   1     -20.425 -25.938 -25.331  0.00  0.00    -0.049 C 
ATOM     47  H53 ARG d   1     -20.824 -25.903 -24.306  0.00  0.00     0.030 H 
ATOM     48  H54 ARG d   1     -20.412 -26.980 -25.684  0.00  0.00     0.030 H 
ATOM     49  H55 ARG d   1     -21.063 -25.334 -25.994  0.00  0.00     0.030 H 
ENDBRANCH  17  46
ENDBRANCH  15  17
ENDBRANCH  11  13
BRANCH  11  50
ATOM     50  CB  ARG d   1     -15.772 -25.554 -28.662  0.00  0.00     0.060 C 
ATOM     51  H46 ARG d   1     -16.029 -26.539 -28.244  0.00  0.00     0.086 H 
BRANCH  50  52
ATOM     52  OG1 ARG d   1     -14.742 -24.938 -27.889  0.00  0.00    -0.393 OA
ATOM     53  H47 ARG d   1     -15.031 -24.853 -26.988  0.00  0.00     0.210 HD
ENDBRANCH  50  52
BRANCH  50  54
ATOM     54  CG2 ARG d   1     -15.263 -25.744 -30.082  0.00  0.00    -0.050 C 
ATOM     55  H48 ARG d   1     -14.397 -26.422 -30.073  0.00  0.00     0.031 H 
ATOM     56  H49 ARG d   1     -14.962 -24.771 -30.497  0.00  0.00     0.031 H 
ATOM     57  H50 ARG d   1     -16.061 -26.177 -30.703  0.00  0.00     0.031 H 
ENDBRANCH  50  54
ENDBRANCH  11  50
ENDBRANCH   9  11
ENDBRANCH   5   7
BRANCH   5  58
ATOM     58  CB  ARG d   1     -16.277 -20.218 -28.218  0.00  0.00    -0.030 C 
ATOM     59  H38 ARG d   1     -15.472 -20.826 -27.778  0.00  0.00     0.037 H 
ATOM     60  H39 ARG d   1     -17.134 -20.190 -27.529  0.00  0.00     0.037 H 
BRANCH  58  61
ATOM     61  CG  ARG d   1     -15.758 -18.793 -28.391  0.00  0.00     0.011 C 
ATOM     62  H40 ARG d   1     -15.541 -18.376 -27.396  0.00  0.00     0.047 H 
ATOM     63  H41 ARG d   1     -16.540 -18.192 -28.878  0.00  0.00     0.047 H 
BRANCH  61  64
ATOM     64  CD  ARG d   1     -14.501 -18.718 -29.230  0.00  0.00     0.215 C 
ATOM     65  OE1 ARG d   1     -13.753 -19.697 -29.382  0.00  0.00    -0.274 OA
ATOM     66  NE2 ARG d   1     -14.268 -17.535 -29.781  0.00  0.00    -0.370 N 
ATOM     67  H42 ARG d   1     -13.458 -17.400 -30.351  0.00  0.00     0.159 HD
ATOM     68  H43 ARG d   1     -14.903 -16.778 -29.626  0.00  0.00     0.159 HD
ENDBRANCH  61  64
ENDBRANCH  58  61
ENDBRANCH   5  58
ENDBRANCH   3   5
BRANCH   1  69
ATOM     69  CA  ARG d   1     -18.579 -18.484 -31.884  0.00  0.00     0.089 C 
ATOM     70  H24 ARG d   1     -19.506 -18.786 -31.375  0.00  0.00     0.087 H 
BRANCH  69  71
ATOM     71  N   ARG d   1     -18.416 -17.021 -31.721  0.00  0.00    -0.346 N 
ATOM     72  C   ARG d   1     -18.652 -16.373 -30.583  0.00  0.00     0.243 C 
ATOM     73  O   ARG d   1     -18.972 -16.918 -29.537  0.00  0.00    -0.271 OA
ATOM     74  H23 ARG d   1     -18.111 -16.490 -32.511  0.00  0.00     0.163 HD
BRANCH  72  75
ATOM     75  CA  ARG d   1     -18.481 -14.855 -30.583  0.00  0.00     0.113 C 
ATOM     76  H17 ARG d   1     -19.087 -14.427 -31.395  0.00  0.00     0.091 H 
BRANCH  75  77
ATOM     77  N   ARG d   1     -18.938 -14.271 -29.297  0.00  0.00    -0.344 N 
ATOM     78  C   ARG d   1     -20.120 -13.682 -29.085  0.00  0.00     0.249 C 
ATOM     79  O   ARG d   1     -21.094 -13.750 -29.845  0.00  0.00    -0.271 OA
ATOM     80  H16 ARG d   1     -18.308 -14.322 -28.522  0.00  0.00     0.163 HD
BRANCH  78  81
ATOM     81  CA  ARG d   1     -20.289 -12.890 -27.783  0.00  0.00     0.176 C 
ATOM     82  H4  ARG d   1     -19.477 -13.167 -27.095  0.00  0.00     0.099 H 
BRANCH  81  83
ATOM     83  N   ARG d   1     -20.175 -11.399 -28.071  0.00  0.00    -0.067 N 
ATOM     84  H1  ARG d   1     -20.287 -10.882 -27.213  0.00  0.00     0.275 HD
ATOM     85  H2  ARG d   1     -20.894 -11.127 -28.723  0.00  0.00     0.275 HD
ATOM     86  H3  ARG d   1     -19.269 -11.201 -28.467  0.00  0.00     0.275 HD
ENDBRANCH  81  83
BRANCH  81  87
ATOM     87  CB  ARG d   1     -21.623 -13.264 -27.121  0.00  0.00    -0.029 C 
ATOM     88  H5  ARG d   1     -22.426 -13.166 -27.866  0.00  0.00     0.036 H 
ATOM     89  H6  ARG d   1     -21.810 -12.571 -26.288  0.00  0.00     0.036 H 
BRANCH  87  90
ATOM     90  CG  ARG d   1     -21.629 -14.684 -26.583  0.00  0.00    -0.047 C 
ATOM     91  H7  ARG d   1     -20.584 -14.982 -26.410  0.00  0.00     0.035 H 
ATOM     92  H8  ARG d   1     -22.072 -15.332 -27.353  0.00  0.00     0.035 H 
BRANCH  90  93
ATOM     93  CD  ARG d   1     -22.399 -14.911 -25.283  0.00  0.00     0.009 C 
ATOM     94  H9  ARG d   1     -23.479 -14.904 -25.491  0.00  0.00     0.064 H 
ATOM     95  H10 ARG d   1     -22.158 -14.109 -24.570  0.00  0.00     0.064 H 
BRANCH  93  96
ATOM     96  NE  ARG d   1     -22.020 -16.209 -24.706  0.00  0.00    -0.227 N 
ATOM     97  CZ  ARG d   1     -22.820 -17.277 -24.530  0.00  0.00     0.665 C 
ATOM     98  NH1 ARG d   1     -24.108 -17.243 -24.843  0.00  0.00    -0.235 N 
ATOM     99  NH2 ARG d   1     -22.319 -18.386 -24.017  0.00  0.00    -0.235 N 
ATOM    100  H12 ARG d   1     -24.696 -18.076 -24.697  0.00  0.00     0.174 HD
ATOM    101  H13 ARG d   1     -24.521 -16.383 -25.232  0.00  0.00     0.174 HD
ATOM    102  H14 ARG d   1     -21.321 -18.433 -23.767  0.00  0.00     0.174 HD
ATOM    103  H15 ARG d   1     -22.926 -19.204 -23.867  0.00  0.00     0.174 HD
ATOM    104  H11 ARG d   1     -21.040 -16.312 -24.405  0.00  0.00     0.177 HD
ENDBRANCH  93  96
ENDBRANCH  90  93
ENDBRANCH  87  90
ENDBRANCH  81  87
ENDBRANCH  78  81
ENDBRANCH  75  77
BRANCH  75 105
ATOM    105  CB  ARG d   1     -17.003 -14.533 -30.840  0.00  0.00     0.060 C 
ATOM    106  H18 ARG d   1     -16.715 -14.981 -31.803  0.00  0.00     0.086 H 
BRANCH 105 107
ATOM    107  OG1 ARG d   1     -16.209 -15.125 -29.809  0.00  0.00    -0.393 OA
ATOM    108  H19 ARG d   1     -15.293 -14.928 -29.964  0.00  0.00     0.210 HD
ENDBRANCH 105 107
BRANCH 105 109
ATOM    109  CG2 ARG d   1     -16.752 -13.048 -30.926  0.00  0.00    -0.050 C 
ATOM    110  H20 ARG d   1     -15.683 -12.867 -31.110  0.00  0.00     0.031 H 
ATOM    111  H21 ARG d   1     -17.047 -12.571 -29.980  0.00  0.00     0.031 H 
ATOM    112  H22 ARG d   1     -17.343 -12.623 -31.751  0.00  0.00     0.031 H 
ENDBRANCH 105 109
ENDBRANCH  75 105
ENDBRANCH  72  75
ENDBRANCH  69  71
BRANCH  69 113
ATOM    113  CB  ARG d   1     -18.725 -18.832 -33.364  0.00  0.00    -0.038 C 
ATOM    114  H25 ARG d   1     -17.889 -18.371 -33.911  0.00  0.00     0.036 H 
ATOM    115  H26 ARG d   1     -19.675 -18.412 -33.725  0.00  0.00     0.036 H 
BRANCH 113 116
ATOM    116  CG  ARG d   1     -18.721 -20.325 -33.658  0.00  0.00    -0.061 C 
ATOM    117  H27 ARG d   1     -19.334 -20.826 -32.894  0.00  0.00     0.033 H 
ATOM    118  H28 ARG d   1     -17.684 -20.685 -33.590  0.00  0.00     0.033 H 
BRANCH 116 119
ATOM    119  CD  ARG d   1     -19.268 -20.706 -35.032  0.00  0.00    -0.043 C 
ATOM    120  H29 ARG d   1     -19.152 -19.844 -35.706  0.00  0.00     0.035 H 
ATOM    121  H30 ARG d   1     -20.336 -20.950 -34.928  0.00  0.00     0.035 H 
BRANCH 119 122
ATOM    122  CE  ARG d   1     -18.558 -21.898 -35.646  0.00  0.00     0.080 C 
ATOM    123  H31 ARG d   1     -18.543 -22.721 -34.916  0.00  0.00     0.075 H 
ATOM    124  H32 ARG d   1     -17.526 -21.611 -35.896  0.00  0.00     0.075 H 
BRANCH 122 125
ATOM    125  NZ  ARG d   1     -19.241 -22.355 -36.873  0.00  0.00    -0.079 N 
ATOM    126  H33 ARG d   1     -18.748 -23.146 -37.257  0.00  0.00     0.274 HD
ATOM    127  H34 ARG d   1     -19.255 -21.607 -37.548  0.00  0.00     0.274 HD
ATOM    128  H35 ARG d   1     -20.187 -22.624 -36.651  0.00  0.00     0.274 HD
ENDBRANCH 122 125
ENDBRANCH 119 122
ENDBRANCH 116 119
ENDBRANCH 113 116
ENDBRANCH  69 113
ENDBRANCH   1  69
TORSDOF 37
