REMARK  4 active torsions:
REMARK  status: ('A' for Active; 'I' for Inactive)
REMARK    1  A    between atoms: C10_1  and  N11_23 
REMARK    2  A    between atoms: C25_21  and  C26_7 
REMARK    3  A    between atoms: C02_10  and  C01_9 
REMARK    4  A    between atoms: C19_19  and  N18_26 
ROOT
ATOM      1  C10 AXU d   1     405.729   0.223  83.589  0.00  0.00     0.129 A 
ATOM      2  N12 AXU d   1     405.971  -0.705  84.539  0.00  0.00    -0.282 N 
ATOM      3  C28 AXU d   1     403.863   3.375  78.484  0.00  0.00    -0.064 A 
ATOM      4  C02 AXU d   1     402.485   3.646  78.395  0.00  0.00    -0.061 A 
ATOM      5  C03 AXU d   1     401.679   3.685  79.530  0.00  0.00    -0.075 A 
ATOM      6  C04 AXU d   1     402.245   3.452  80.776  0.00  0.00    -0.049 A 
ATOM      7  C05 AXU d   1     403.628   3.185  80.872  0.00  0.00     0.087 A 
ATOM      8  C07 AXU d   1     405.693   2.713  81.607  0.00  0.00     0.112 A 
ATOM      9  C08 AXU d   1     406.638   2.443  82.594  0.00  0.00     0.110 A 
ATOM     10  C09 AXU d   1     406.581   1.341  83.470  0.00  0.00     0.076 A 
ATOM     11  C14 AXU d   1     407.863   0.479  85.300  0.00  0.00     0.291 A 
ATOM     12  C16 AXU d   1     407.649   1.464  84.317  0.00  0.00     0.163 A 
ATOM     13  C25 AXU d   1     405.772   2.834  80.215  0.00  0.00    -0.013 A 
ATOM     14  C27 AXU d   1     404.449   3.137  79.761  0.00  0.00     0.007 A 
ATOM     15  N13 AXU d   1     407.031  -0.579  85.371  0.00  0.00    -0.263 N 
ATOM     16  N17 AXU d   1     408.311   2.614  83.994  0.00  0.00    -0.160 NA
ATOM     17  N18 AXU d   1     407.666   3.210  82.974  0.00  0.00    -0.230 N 
ATOM     18  O06 AXU d   1     404.402   2.919  81.972  0.00  0.00    -0.307 OA
ATOM     19  O15 AXU d   1     408.821   0.583  86.049  0.00  0.00    -0.264 OA
ATOM     20  H1  AXU d   1     405.343  -1.516  84.632  0.00  0.00     0.188 HD
ATOM     21  H9  AXU d   1     404.474   3.348  77.589  0.00  0.00     0.085 H 
ATOM     22  H13 AXU d   1     400.619   3.895  79.441  0.00  0.00     0.084 H 
ATOM     23  H14 AXU d   1     401.630   3.475  81.668  0.00  0.00     0.087 H 
ATOM     24  H18 AXU d   1     407.201  -1.288  86.055  0.00  0.00     0.190 HD
ENDROOT
BRANCH  17  25
ATOM     25  C19 AXU d   1     408.066   4.329  82.368  0.00  0.00     0.059 A 
ATOM     26  C20 AXU d   1     407.328   5.499  82.387  0.00  0.00    -0.055 A 
ATOM     27  C21 AXU d   1     407.824   6.602  81.717  0.00  0.00    -0.081 A 
ATOM     28  H2  AXU d   1     406.383   5.550  82.915  0.00  0.00     0.087 H 
ATOM     29  C22 AXU d   1     409.029   6.533  81.030  0.00  0.00    -0.083 A 
ATOM     30  H3  AXU d   1     407.266   7.531  81.728  0.00  0.00     0.083 H 
ATOM     31  C23 AXU d   1     409.760   5.351  81.004  0.00  0.00    -0.081 A 
ATOM     32  H4  AXU d   1     409.402   7.408  80.510  0.00  0.00     0.083 H 
ATOM     33  C24 AXU d   1     409.268   4.250  81.676  0.00  0.00    -0.055 A 
ATOM     34  H15 AXU d   1     410.699   5.295  80.466  0.00  0.00     0.083 H 
ATOM     35  H5  AXU d   1     409.823   3.319  81.664  0.00  0.00     0.087 H 
ENDBRANCH  17  25
BRANCH  13  36
ATOM     36  C26 AXU d   1     407.018   2.689  79.360  0.00  0.00    -0.048 C 
ATOM     37  H6  AXU d   1     407.879   2.454  80.003  0.00  0.00     0.033 H 
ATOM     38  H7  AXU d   1     407.207   3.631  78.825  0.00  0.00     0.033 H 
ATOM     39  H8  AXU d   1     406.871   1.877  78.633  0.00  0.00     0.033 H 
ENDBRANCH  13  36
BRANCH   1  40
ATOM     40  N11 AXU d   1     404.637   0.073  82.700  0.00  0.00    -0.384 N 
ATOM     41  H16 AXU d   1     404.459   0.786  81.978  0.00  0.00     0.157 HD
ATOM     42  H17 AXU d   1     404.021  -0.749  82.775  0.00  0.00     0.157 HD
ENDBRANCH   1  40
BRANCH   4  43
ATOM     43  C01 AXU d   1     401.809   3.897  77.064  0.00  0.00    -0.051 C 
ATOM     44  H10 AXU d   1     400.738   4.086  77.227  0.00  0.00     0.033 H 
ATOM     45  H11 AXU d   1     401.931   3.015  76.418  0.00  0.00     0.033 H 
ATOM     46  H12 AXU d   1     402.267   4.772  76.580  0.00  0.00     0.033 H 
ENDBRANCH   4  43
TORSDOF 4
