REMARK  7 active torsions:
REMARK  status: ('A' for Active; 'I' for Inactive)
REMARK    1  A    between atoms: C10_10  and  C19_19 
REMARK    2  A    between atoms: C11_12  and  O2_23 
REMARK    3  A    between atoms: C13_13  and  C18_18 
REMARK    4  A    between atoms: C17_17  and  C20_20 
REMARK    5  A    between atoms: C17_17  and  O3_24 
REMARK    6  A    between atoms: C20_20  and  C21_21 
REMARK    7  A    between atoms: C21_21  and  O5_26 
ROOT
ATOM      1  C1  HCY d   1       6.107  -9.699  19.616  0.00  0.00    -0.051 C 
ATOM      2  C2  HCY d   1       5.780  -8.605  20.684  0.00  0.00    -0.009 C 
ATOM      3  C3  HCY d   1       4.965  -7.438  20.071  0.00  0.00     0.127 C 
ATOM      4  C4  HCY d   1       3.965  -7.747  18.978  0.00  0.00    -0.006 C 
ATOM      5  C5  HCY d   1       3.808  -9.174  18.593  0.00  0.00    -0.040 C 
ATOM      6  C6  HCY d   1       2.570  -9.633  17.767  0.00  0.00    -0.060 C 
ATOM      7  C7  HCY d   1       2.982 -10.431  16.455  0.00  0.00    -0.060 C 
ATOM      8  C8  HCY d   1       4.026 -11.498  16.733  0.00  0.00    -0.043 C 
ATOM      9  C9  HCY d   1       5.281 -10.931  17.610  0.00  0.00    -0.018 C 
ATOM     10  C10 HCY d   1       4.861 -10.255  18.940  0.00  0.00    -0.033 C 
ATOM     11  C12 HCY d   1       6.856 -12.528  16.301  0.00  0.00    -0.030 C 
ATOM     12  C11 HCY d   1       6.397 -11.888  17.758  0.00  0.00     0.041 C 
ATOM     13  C13 HCY d   1       5.693 -13.058  15.512  0.00  0.00     0.001 C 
ATOM     14  C14 HCY d   1       4.536 -12.030  15.416  0.00  0.00    -0.040 C 
ATOM     15  C15 HCY d   1       3.476 -12.634  14.388  0.00  0.00    -0.058 C 
ATOM     16  C16 HCY d   1       4.345 -13.405  13.312  0.00  0.00    -0.028 C 
ATOM     17  C17 HCY d   1       5.892 -13.414  13.919  0.00  0.00     0.128 C 
ATOM     18  O1  HCY d   1       5.071  -6.295  20.413  0.00  0.00    -0.298 OA
ATOM     19  H1  HCY d   1       6.637 -10.526  20.111  0.00  0.00     0.034 H 
ATOM     20  H2  HCY d   1       6.756  -9.256  18.846  0.00  0.00     0.034 H 
ATOM     21  H3  HCY d   1       6.723  -8.208  21.090  0.00  0.00     0.044 H 
ATOM     22  H4  HCY d   1       5.195  -9.062  21.496  0.00  0.00     0.044 H 
ATOM     23  H5  HCY d   1       4.273  -7.192  18.079  0.00  0.00     0.044 H 
ATOM     24  H6  HCY d   1       2.983  -7.384  19.314  0.00  0.00     0.044 H 
ATOM     25  H7  HCY d   1       3.278  -9.370  19.537  0.00  0.00     0.041 H 
ATOM     26  H8  HCY d   1       1.991  -8.745  17.474  0.00  0.00     0.033 H 
ATOM     27  H9  HCY d   1       1.947 -10.285  18.396  0.00  0.00     0.033 H 
ATOM     28  H10 HCY d   1       3.390  -9.720  15.722  0.00  0.00     0.033 H 
ATOM     29  H11 HCY d   1       2.086 -10.913  16.038  0.00  0.00     0.033 H 
ATOM     30  H12 HCY d   1       3.550 -12.316  17.294  0.00  0.00     0.041 H 
ATOM     31  H13 HCY d   1       5.696 -10.114  17.002  0.00  0.00     0.045 H 
ATOM     32  H14 HCY d   1       7.562 -13.351  16.484  0.00  0.00     0.038 H 
ATOM     33  H15 HCY d   1       7.353 -11.743  15.712  0.00  0.00     0.038 H 
ATOM     34  H16 HCY d   1       7.250 -11.329  18.170  0.00  0.00     0.083 H 
ATOM     35  H17 HCY d   1       4.957 -11.143  14.919  0.00  0.00     0.042 H 
ATOM     36  H18 HCY d   1       2.896 -11.829  13.912  0.00  0.00     0.033 H 
ATOM     37  H19 HCY d   1       2.791 -13.326  14.900  0.00  0.00     0.033 H 
ATOM     38  H20 HCY d   1       4.314 -12.881  12.345  0.00  0.00     0.038 H 
ATOM     39  H21 HCY d   1       3.976 -14.433  13.184  0.00  0.00     0.038 H 
ENDROOT
BRANCH  17  40
ATOM     40  C20 HCY d   1       6.583 -14.563  13.689  0.00  0.00     0.184 C 
ATOM     41  O4  HCY d   1       6.057 -15.594  13.421  0.00  0.00    -0.292 OA
BRANCH  40  42
ATOM     42  C21 HCY d   1       8.126 -14.525  13.761  0.00  0.00     0.074 C 
ATOM     43  H28 HCY d   1       8.434 -14.203  14.767  0.00  0.00     0.086 H 
ATOM     44  H29 HCY d   1       8.506 -13.812  13.015  0.00  0.00     0.086 H 
BRANCH  42  45
ATOM     45  O5  HCY d   1       8.661 -15.803  13.498  0.00  0.00    -0.393 OA
ATOM     46  H32 HCY d   1       8.335 -16.420  14.143  0.00  0.00     0.209 HD
ENDBRANCH  42  45
ENDBRANCH  40  42
ENDBRANCH  17  40
BRANCH  17  47
ATOM     47  O3  HCY d   1       6.590 -12.259  13.444  0.00  0.00    -0.381 OA
ATOM     48  H31 HCY d   1       6.619 -12.276  12.495  0.00  0.00     0.211 HD
ENDBRANCH  17  47
BRANCH  13  49
ATOM     49  C18 HCY d   1       5.170 -14.353  16.187  0.00  0.00    -0.065 C 
ATOM     50  H22 HCY d   1       5.018 -14.171  17.261  0.00  0.00     0.028 H 
ATOM     51  H23 HCY d   1       5.906 -15.160  16.052  0.00  0.00     0.028 H 
ATOM     52  H24 HCY d   1       4.215 -14.647  15.726  0.00  0.00     0.028 H 
ENDBRANCH  13  49
BRANCH  12  53
ATOM     53  O2  HCY d   1       6.122 -12.923  18.615  0.00  0.00    -0.395 OA
ATOM     54  H30 HCY d   1       6.900 -13.458  18.724  0.00  0.00     0.210 HD
ENDBRANCH  12  53
BRANCH  10  55
ATOM     55  C19 HCY d   1       4.166 -11.213  19.898  0.00  0.00    -0.068 C 
ATOM     56  H25 HCY d   1       3.894 -10.677  20.819  0.00  0.00     0.028 H 
ATOM     57  H26 HCY d   1       4.845 -12.043  20.144  0.00  0.00     0.028 H 
ATOM     58  H27 HCY d   1       3.257 -11.611  19.423  0.00  0.00     0.028 H 
ENDBRANCH  10  55
TORSDOF 7
