REMARK  7 active torsions:
REMARK  status: ('A' for Active; 'I' for Inactive)
REMARK    1  A    between atoms: C10_10  and  C19_19 
REMARK    2  A    between atoms: C11_12  and  O2_23 
REMARK    3  A    between atoms: C13_13  and  C18_18 
REMARK    4  A    between atoms: C17_17  and  C20_20 
REMARK    5  A    between atoms: C17_17  and  O3_24 
REMARK    6  A    between atoms: C20_20  and  C21_21 
REMARK    7  A    between atoms: C21_21  and  O5_26 
ROOT
ATOM      1  C1  HCY d   1      14.779   1.436  14.492  0.00  0.00    -0.051 C 
ATOM      2  C2  HCY d   1      13.295   1.670  14.034  0.00  0.00    -0.009 C 
ATOM      3  C3  HCY d   1      12.369   2.048  15.212  0.00  0.00     0.127 C 
ATOM      4  C4  HCY d   1      12.995   2.813  16.389  0.00  0.00    -0.006 C 
ATOM      5  C5  HCY d   1      14.411   3.307  16.196  0.00  0.00    -0.040 C 
ATOM      6  C6  HCY d   1      15.039   4.469  17.080  0.00  0.00    -0.060 C 
ATOM      7  C7  HCY d   1      16.451   4.015  17.723  0.00  0.00    -0.060 C 
ATOM      8  C8  HCY d   1      17.432   3.328  16.773  0.00  0.00    -0.043 C 
ATOM      9  C9  HCY d   1      16.668   2.145  15.938  0.00  0.00    -0.018 C 
ATOM     10  C10 HCY d   1      15.402   2.642  15.181  0.00  0.00    -0.033 C 
ATOM     11  C12 HCY d   1      18.932   0.792  15.942  0.00  0.00    -0.030 C 
ATOM     12  C11 HCY d   1      17.588   1.301  15.107  0.00  0.00     0.041 C 
ATOM     13  C13 HCY d   1      19.550   1.852  16.806  0.00  0.00     0.001 C 
ATOM     14  C14 HCY d   1      18.540   2.708  17.606  0.00  0.00    -0.040 C 
ATOM     15  C15 HCY d   1      19.446   3.601  18.601  0.00  0.00    -0.058 C 
ATOM     16  C16 HCY d   1      20.722   2.734  18.954  0.00  0.00    -0.028 C 
ATOM     17  C17 HCY d   1      20.590   1.364  17.991  0.00  0.00     0.128 C 
ATOM     18  O1  HCY d   1      11.205   1.790  15.219  0.00  0.00    -0.298 OA
ATOM     19  H1  HCY d   1      15.382   1.192  13.605  0.00  0.00     0.034 H 
ATOM     20  H2  HCY d   1      14.797   0.588  15.192  0.00  0.00     0.034 H 
ATOM     21  H3  HCY d   1      12.918   0.746  13.571  0.00  0.00     0.044 H 
ATOM     22  H4  HCY d   1      13.277   2.485  13.295  0.00  0.00     0.044 H 
ATOM     23  H5  HCY d   1      12.991   2.144  17.262  0.00  0.00     0.044 H 
ATOM     24  H6  HCY d   1      12.361   3.688  16.594  0.00  0.00     0.044 H 
ATOM     25  H7  HCY d   1      14.063   4.025  15.439  0.00  0.00     0.041 H 
ATOM     26  H8  HCY d   1      14.340   4.721  17.891  0.00  0.00     0.033 H 
ATOM     27  H9  HCY d   1      15.201   5.354  16.447  0.00  0.00     0.033 H 
ATOM     28  H10 HCY d   1      16.237   3.318  18.547  0.00  0.00     0.033 H 
ATOM     29  H11 HCY d   1      16.943   4.914  18.122  0.00  0.00     0.033 H 
ATOM     30  H12 HCY d   1      17.853   4.064  16.073  0.00  0.00     0.041 H 
ATOM     31  H13 HCY d   1      16.283   1.461  16.708  0.00  0.00     0.045 H 
ATOM     32  H14 HCY d   1      19.685   0.456  15.214  0.00  0.00     0.038 H 
ATOM     33  H15 HCY d   1      18.641  -0.052  16.584  0.00  0.00     0.038 H 
ATOM     34  H16 HCY d   1      17.013   0.417  14.793  0.00  0.00     0.083 H 
ATOM     35  H17 HCY d   1      17.998   2.012  18.264  0.00  0.00     0.042 H 
ATOM     36  H18 HCY d   1      18.884   3.838  19.516  0.00  0.00     0.033 H 
ATOM     37  H19 HCY d   1      19.748   4.535  18.104  0.00  0.00     0.033 H 
ATOM     38  H20 HCY d   1      20.722   2.460  20.019  0.00  0.00     0.038 H 
ATOM     39  H21 HCY d   1      21.643   3.286  18.718  0.00  0.00     0.038 H 
ENDROOT
BRANCH  17  40
ATOM     40  C20 HCY d   1      21.759   0.892  17.518  0.00  0.00     0.184 C 
ATOM     41  O4  HCY d   1      22.693   1.585  17.346  0.00  0.00    -0.292 OA
BRANCH  40  42
ATOM     42  C21 HCY d   1      21.891  -0.622  17.208  0.00  0.00     0.074 C 
ATOM     43  H28 HCY d   1      21.318  -0.859  16.299  0.00  0.00     0.086 H 
ATOM     44  H29 HCY d   1      21.494  -1.203  18.054  0.00  0.00     0.086 H 
BRANCH  42  45
ATOM     45  O5  HCY d   1      23.242  -0.958  17.007  0.00  0.00    -0.393 OA
ATOM     46  H32 HCY d   1      23.586  -0.458  16.276  0.00  0.00     0.209 HD
ENDBRANCH  42  45
ENDBRANCH  40  42
ENDBRANCH  17  40
BRANCH  17  47
ATOM     47  O3  HCY d   1      19.933   0.333  18.748  0.00  0.00    -0.381 OA
ATOM     48  H31 HCY d   1      20.445   0.136  19.523  0.00  0.00     0.211 HD
ENDBRANCH  17  47
BRANCH  13  49
ATOM     49  C18 HCY d   1      20.308   2.850  15.861  0.00  0.00    -0.065 C 
ATOM     50  H22 HCY d   1      19.630   3.187  15.063  0.00  0.00     0.028 H 
ATOM     51  H23 HCY d   1      21.177   2.344  15.414  0.00  0.00     0.028 H 
ATOM     52  H24 HCY d   1      20.649   3.719  16.443  0.00  0.00     0.028 H 
ENDBRANCH  13  49
BRANCH  12  53
ATOM     53  O2  HCY d   1      18.071   1.915  13.994  0.00  0.00    -0.395 OA
ATOM     54  H30 HCY d   1      18.583   1.295  13.488  0.00  0.00     0.210 HD
ENDBRANCH  12  53
BRANCH  10  55
ATOM     55  C19 HCY d   1      15.736   3.715  14.117  0.00  0.00    -0.068 C 
ATOM     56  H25 HCY d   1      14.811   4.032  13.613  0.00  0.00     0.028 H 
ATOM     57  H26 HCY d   1      16.431   3.293  13.376  0.00  0.00     0.028 H 
ATOM     58  H27 HCY d   1      16.203   4.583  14.605  0.00  0.00     0.028 H 
ENDBRANCH  10  55
TORSDOF 7
