REMARK  8 active torsions:
REMARK  status: ('A' for Active; 'I' for Inactive)
REMARK    1  A    between atoms: C1_1  and  C2_2 
REMARK    2  A    between atoms: C2_2  and  C3_3 
REMARK       I    between atoms: C3_3  and  N5_5 
REMARK    3  A    between atoms: N5_5  and  C6_6 
REMARK    4  A    between atoms: C6_6  and  C7_7 
REMARK    5  A    between atoms: C10_10  and  N13_13 
REMARK    6  A    between atoms: C21_21  and  N23_23 
REMARK    7  A    between atoms: C25_25  and  C29_29 
REMARK    8  A    between atoms: C31_31  and  C34_34 
ROOT
ATOM      1  N13 AWX d   1     -26.171   5.035  16.855  0.00  0.00    -0.230 N 
ATOM      2  C14 AWX d   1     -25.066   5.755  16.809  0.00  0.00     0.110 C 
ATOM      3  C15 AWX d   1     -25.384   7.126  16.528  0.00  0.00     0.076 A 
ATOM      4  C16 AWX d   1     -26.828   7.041  16.312  0.00  0.00     0.163 A 
ATOM      5  N17 AWX d   1     -27.281   5.790  16.447  0.00  0.00    -0.160 NA
ATOM      6  C18 AWX d   1     -27.448   8.280  15.992  0.00  0.00     0.291 A 
ATOM      7  N19 AWX d   1     -26.773   9.419  15.873  0.00  0.00    -0.263 N 
ATOM      8  N20 AWX d   1     -25.383   9.522  16.063  0.00  0.00    -0.282 N 
ATOM      9  C21 AWX d   1     -24.729   8.402  16.392  0.00  0.00     0.129 A 
ATOM     10  O22 AWX d   1     -28.627   8.238  15.770  0.00  0.00    -0.264 OA
ATOM     11  C24 AWX d   1     -23.733   5.342  17.167  0.00  0.00     0.112 A 
ATOM     12  C25 AWX d   1     -22.744   4.640  16.314  0.00  0.00    -0.013 A 
ATOM     13  C26 AWX d   1     -21.569   4.479  17.227  0.00  0.00     0.007 A 
ATOM     14  C27 AWX d   1     -22.043   5.148  18.469  0.00  0.00     0.087 A 
ATOM     15  O28 AWX d   1     -23.285   5.643  18.409  0.00  0.00    -0.307 OA
ATOM     16  C30 AWX d   1     -20.288   3.940  17.175  0.00  0.00    -0.064 A 
ATOM     17  C31 AWX d   1     -19.496   4.047  18.325  0.00  0.00    -0.061 A 
ATOM     18  C32 AWX d   1     -19.947   4.652  19.483  0.00  0.00    -0.075 A 
ATOM     19  C33 AWX d   1     -21.207   5.204  19.563  0.00  0.00    -0.049 A 
ATOM     20  H13 AWX d   1     -27.281  10.247  15.636  0.00  0.00     0.190 HD
ATOM     21  H14 AWX d   1     -24.890  10.420  15.954  0.00  0.00     0.188 HD
ATOM     22  H20 AWX d   1     -19.917   3.456  16.279  0.00  0.00     0.085 H 
ATOM     23  H21 AWX d   1     -19.295   4.693  20.348  0.00  0.00     0.084 H 
ATOM     24  H22 AWX d   1     -21.538   5.679  20.480  0.00  0.00     0.087 H 
ENDROOT
BRANCH   1  25
ATOM     25  C10 AWX d   1     -26.273   3.720  16.983  0.00  0.00     0.059 A 
ATOM     26  C9  AWX d   1     -26.472   3.023  18.143  0.00  0.00    -0.055 A 
ATOM     27  C8  AWX d   1     -26.599   1.660  18.173  0.00  0.00    -0.073 A 
ATOM     28  H10 AWX d   1     -26.532   3.572  19.076  0.00  0.00     0.087 H 
ATOM     29  C7  AWX d   1     -26.576   0.912  16.993  0.00  0.00    -0.040 A 
ATOM     30  H9  AWX d   1     -26.719   1.155  19.125  0.00  0.00     0.084 H 
ATOM     31  C12 AWX d   1     -26.403   1.583  15.779  0.00  0.00    -0.073 A 
ATOM     32  C11 AWX d   1     -26.249   2.967  15.795  0.00  0.00    -0.055 A 
ATOM     33  H12 AWX d   1     -26.389   1.036  14.843  0.00  0.00     0.084 H 
ATOM     34  H11 AWX d   1     -26.105   3.485  14.854  0.00  0.00     0.087 H 
BRANCH  29  35
ATOM     35  C6  AWX d   1     -26.722  -0.607  16.969  0.00  0.00     0.019 C 
ATOM     36  H7  AWX d   1     -27.302  -0.884  16.076  0.00  0.00     0.071 H 
ATOM     37  H8  AWX d   1     -25.717  -1.049  16.905  0.00  0.00     0.071 H 
BRANCH  35  38
ATOM     38  N5  AWX d   1     -27.392  -1.161  18.140  0.00  0.00    -0.357 N 
ATOM     39  C3  AWX d   1     -26.727  -1.518  19.245  0.00  0.00     0.217 C 
ATOM     40  O4  AWX d   1     -25.514  -1.384  19.390  0.00  0.00    -0.274 OA
ATOM     41  H6  AWX d   1     -28.385  -1.278  18.116  0.00  0.00     0.162 HD
BRANCH  39  42
ATOM     42  C2  AWX d   1     -27.557  -2.097  20.374  0.00  0.00     0.006 C 
ATOM     43  H4  AWX d   1     -28.562  -2.343  20.001  0.00  0.00     0.046 H 
ATOM     44  H5  AWX d   1     -27.073  -3.009  20.754  0.00  0.00     0.046 H 
BRANCH  42  45
ATOM     45  C1  AWX d   1     -27.668  -1.087  21.487  0.00  0.00    -0.068 C 
ATOM     46  H1  AWX d   1     -28.270  -1.508  22.305  0.00  0.00     0.028 H 
ATOM     47  H2  AWX d   1     -28.152  -0.175  21.108  0.00  0.00     0.028 H 
ATOM     48  H3  AWX d   1     -26.663  -0.841  21.860  0.00  0.00     0.028 H 
ENDBRANCH  42  45
ENDBRANCH  39  42
ENDBRANCH  35  38
ENDBRANCH  29  35
ENDBRANCH   1  25
BRANCH   9  49
ATOM     49  N23 AWX d   1     -23.336   8.471  16.568  0.00  0.00    -0.384 N 
ATOM     50  H15 AWX d   1     -22.806   7.625  16.821  0.00  0.00     0.157 HD
ATOM     51  H16 AWX d   1     -22.845   9.368  16.444  0.00  0.00     0.157 HD
ENDBRANCH   9  49
BRANCH  12  52
ATOM     52  C29 AWX d   1     -22.749   4.140  14.905  0.00  0.00    -0.048 C 
ATOM     53  H17 AWX d   1     -23.716   4.373  14.437  0.00  0.00     0.033 H 
ATOM     54  H18 AWX d   1     -22.593   3.051  14.902  0.00  0.00     0.033 H 
ATOM     55  H19 AWX d   1     -21.941   4.628  14.340  0.00  0.00     0.033 H 
ENDBRANCH  12  52
BRANCH  17  56
ATOM     56  C34 AWX d   1     -18.115   3.502  18.372  0.00  0.00    -0.051 C 
ATOM     57  H23 AWX d   1     -17.867   3.048  17.401  0.00  0.00     0.033 H 
ATOM     58  H24 AWX d   1     -18.049   2.739  19.162  0.00  0.00     0.033 H 
ATOM     59  H25 AWX d   1     -17.407   4.316  18.588  0.00  0.00     0.033 H 
ENDBRANCH  17  56
TORSDOF 8
