REMARK  7 active torsions:
REMARK  status: ('A' for Active; 'I' for Inactive)
REMARK    1  A    between atoms: C17_2  and  N18_30 
REMARK    2  A    between atoms: C21_4  and  C20_3 
REMARK    3  A    between atoms: C26_6  and  C27_19 
REMARK    4  A    between atoms: C03_10  and  C02_9 
REMARK       I    between atoms: N05_25  and  C03_10 
REMARK    5  A    between atoms: C06_11  and  N05_25 
REMARK    6  A    between atoms: N10_26  and  C09_14 
REMARK    7  A    between atoms: C30_21  and  C31_22 
ROOT
ATOM      1  C13 AX0 d   1      33.520   2.016 144.513  0.00  0.00     0.291 A 
ATOM      2  C17 AX0 d   1      36.075   1.244 143.769  0.00  0.00     0.129 A 
ATOM      3  C20 AX0 d   1      34.774  -0.542 142.270  0.00  0.00     0.110 A 
ATOM      4  C12 AX0 d   1      33.690   0.950 143.598  0.00  0.00     0.163 A 
ATOM      5  C19 AX0 d   1      34.930   0.542 143.216  0.00  0.00     0.076 A 
ATOM      6  N10 AX0 d   1      33.445  -0.761 142.150  0.00  0.00    -0.230 N 
ATOM      7  N11 AX0 d   1      32.774   0.131 142.935  0.00  0.00    -0.160 NA
ATOM      8  N15 AX0 d   1      34.629   2.653 145.017  0.00  0.00    -0.263 N 
ATOM      9  N16 AX0 d   1      35.892   2.249 144.628  0.00  0.00    -0.282 N 
ATOM     10  O14 AX0 d   1      32.394   2.379 144.843  0.00  0.00    -0.264 OA
ATOM     11  H18 AX0 d   1      34.522   3.408 145.664  0.00  0.00     0.190 HD
ATOM     12  H19 AX0 d   1      36.714   2.737 145.011  0.00  0.00     0.188 HD
ENDROOT
BRANCH   3  13
ATOM     13  C21 AX0 d   1      35.844  -1.258 141.669  0.00  0.00     0.112 A 
ATOM     14  C30 AX0 d   1      36.227  -1.373 140.333  0.00  0.00    -0.013 A 
ATOM     15  C29 AX0 d   1      37.415  -2.226 140.301  0.00  0.00     0.007 A 
ATOM     16  C28 AX0 d   1      38.272  -2.721 139.222  0.00  0.00    -0.064 A 
ATOM     17  C23 AX0 d   1      37.683  -2.591 141.591  0.00  0.00     0.087 A 
ATOM     18  C26 AX0 d   1      39.347  -3.542 139.528  0.00  0.00    -0.061 A 
ATOM     19  H2  AX0 d   1      38.068  -2.448 138.193  0.00  0.00     0.085 H 
ATOM     20  C25 AX0 d   1      39.610  -3.906 140.851  0.00  0.00    -0.075 A 
ATOM     21  C24 AX0 d   1      38.771  -3.444 141.896  0.00  0.00    -0.049 A 
ATOM     22  H8  AX0 d   1      40.457  -4.543 141.079  0.00  0.00     0.084 H 
ATOM     23  H1  AX0 d   1      38.961  -3.742 142.921  0.00  0.00     0.087 H 
ATOM     24  O22 AX0 d   1      36.717  -2.001 142.408  0.00  0.00    -0.307 OA
BRANCH  14  25
ATOM     25  C31 AX0 d   1      35.575  -0.746 139.136  0.00  0.00    -0.048 C 
ATOM     26  H12 AX0 d   1      34.703  -0.159 139.459  0.00  0.00     0.033 H 
ATOM     27  H13 AX0 d   1      35.249  -1.534 138.441  0.00  0.00     0.033 H 
ATOM     28  H14 AX0 d   1      36.295  -0.085 138.630  0.00  0.00     0.033 H 
ENDBRANCH  14  25
BRANCH  18  29
ATOM     29  C27 AX0 d   1      40.235  -4.052 138.469  0.00  0.00    -0.051 C 
ATOM     30  H9  AX0 d   1      39.895  -3.677 137.493  0.00  0.00     0.033 H 
ATOM     31  H10 AX0 d   1      40.210  -5.152 138.468  0.00  0.00     0.033 H 
ATOM     32  H11 AX0 d   1      41.263  -3.708 138.656  0.00  0.00     0.033 H 
ENDBRANCH  18  29
ENDBRANCH   3  13
BRANCH   6  33
ATOM     33  C09 AX0 d   1      32.767  -1.678 141.372  0.00  0.00     0.059 A 
ATOM     34  C08 AX0 d   1      32.987  -3.062 141.436  0.00  0.00    -0.053 A 
ATOM     35  C07 AX0 d   1      32.233  -3.894 140.640  0.00  0.00    -0.055 A 
ATOM     36  H7  AX0 d   1      33.739  -3.470 142.102  0.00  0.00     0.087 H 
ATOM     37  C06 AX0 d   1      31.248  -3.362 139.779  0.00  0.00     0.035 A 
ATOM     38  H6  AX0 d   1      32.396  -4.965 140.674  0.00  0.00     0.087 H 
ATOM     39  C33 AX0 d   1      31.047  -1.977 139.735  0.00  0.00    -0.055 A 
ATOM     40  C32 AX0 d   1      31.788  -1.146 140.530  0.00  0.00    -0.053 A 
ATOM     41  H16 AX0 d   1      30.301  -1.561 139.068  0.00  0.00     0.087 H 
ATOM     42  H15 AX0 d   1      31.616  -0.076 140.506  0.00  0.00     0.087 H 
BRANCH  37  43
ATOM     43  N05 AX0 d   1      30.399  -4.199 138.880  0.00  0.00    -0.324 N 
ATOM     44  C03 AX0 d   1      30.675  -5.609 138.455  0.00  0.00     0.244 C 
ATOM     45  O04 AX0 d   1      31.630  -6.202 138.851  0.00  0.00    -0.268 OA
ATOM     46  H17 AX0 d   1      29.564  -3.777 138.527  0.00  0.00     0.169 HD
BRANCH  44  47
ATOM     47  C02 AX0 d   1      29.710  -6.294 137.531  0.00  0.00    -0.026 C 
ATOM     48  C01 AX0 d   1      29.542  -7.614 137.573  0.00  0.00    -0.116 C 
ATOM     49  H3  AX0 d   1      28.838  -8.095 136.896  0.00  0.00     0.067 H 
ATOM     50  H4  AX0 d   1      30.109  -8.213 138.285  0.00  0.00     0.067 H 
ATOM     51  H5  AX0 d   1      29.139  -5.703 136.816  0.00  0.00     0.090 H 
ENDBRANCH  44  47
ENDBRANCH  37  43
ENDBRANCH   6  33
BRANCH   2  52
ATOM     52  N18 AX0 d   1      37.403   0.849 143.373  0.00  0.00    -0.384 N 
ATOM     53  H20 AX0 d   1      37.533   0.072 142.709  0.00  0.00     0.157 HD
ATOM     54  H21 AX0 d   1      38.222   1.344 143.754  0.00  0.00     0.157 HD
ENDBRANCH   2  52
TORSDOF 7
