REMARK  12 active torsions:
REMARK  status: ('A' for Active; 'I' for Inactive)
REMARK    1  A    between atoms: CA_4  and  C_1 
REMARK       I    between atoms: C_1  and  NAX_24 
REMARK    2  A    between atoms: SAK_18  and  CG_7 
REMARK    3  A    between atoms: CAB_9  and  CAA_8 
REMARK    4  A    between atoms: CAD_11  and  CAB_9 
REMARK    5  A    between atoms: CAB_9  and  CAE_12 
REMARK    6  A    between atoms: CAE_12  and  CAF_13 
REMARK    7  A    between atoms: CAE_12  and  OAG_14 
REMARK    8  A    between atoms: CAH_15  and  CAS_21 
REMARK    9  A    between atoms: CAI_16  and  SAK_18 
REMARK   10  A    between atoms: CAL_19  and  CAM_20 
REMARK   11  A    between atoms: NAX_24  and  CAY_25 
REMARK   12  A    between atoms: CBA_27  and  CBE_31 
ROOT
ATOM      1  N   MOL d   1       6.377   5.003  -5.061  0.00  0.00    -0.061 N 
ATOM      2  CA  MOL d   1       6.440   6.148  -4.131  0.00  0.00     0.179 C 
ATOM      3  CB  MOL d   1       5.012   6.441  -3.651  0.00  0.00    -0.017 C 
ATOM      4  CD  MOL d   1       4.996   4.928  -5.545  0.00  0.00     0.094 C 
ATOM      5  CG  MOL d   1       4.286   6.132  -4.950  0.00  0.00     0.017 C 
ATOM      6  H1  MOL d   1       6.623   4.152  -4.581  0.00  0.00     0.278 HD
ATOM      7  H2  MOL d   1       7.008   5.148  -5.833  0.00  0.00     0.278 HD
ATOM      8  H3  MOL d   1       6.814   7.026  -4.678  0.00  0.00     0.099 H 
ATOM      9  H4  MOL d   1       4.883   7.488  -3.341  0.00  0.00     0.038 H 
ATOM     10  H5  MOL d   1       4.703   5.775  -2.832  0.00  0.00     0.038 H 
ATOM     11  H6  MOL d   1       4.521   3.996  -5.205  0.00  0.00     0.077 H 
ATOM     12  H7  MOL d   1       4.972   4.973  -6.644  0.00  0.00     0.077 H 
ATOM     13  H8  MOL d   1       4.390   6.987  -5.634  0.00  0.00     0.059 H 
ENDROOT
BRANCH   5  14
ATOM     14  SAK MOL d   1       2.493   5.828  -4.698  0.00  0.00    -0.151 SA
BRANCH  14  15
ATOM     15  CAI MOL d   1       1.603   7.283  -5.385  0.00  0.00     0.045 C 
ATOM     16  CAH MOL d   1       0.186   6.925  -5.796  0.00  0.00    -0.018 C 
ATOM     17  CAD MOL d   1      -0.595   7.382  -4.529  0.00  0.00     0.049 C 
ATOM     18  H17 MOL d   1       0.074   5.840  -5.938  0.00  0.00     0.045 H 
ATOM     19  NAJ MOL d   1       0.234   8.449  -4.009  0.00  0.00    -0.280 NA
ATOM     20  H11 MOL d   1      -0.576   6.556  -3.803  0.00  0.00     0.077 H 
ATOM     21  CAL MOL d   1       1.371   8.296  -4.343  0.00  0.00     0.119 C 
ATOM     22  H18 MOL d   1       2.172   7.698  -6.230  0.00  0.00     0.067 H 
BRANCH  16  23
ATOM     23  CAS MOL d   1      -0.185   7.605  -7.084  0.00  0.00    -0.070 C 
ATOM     24  H19 MOL d   1      -1.214   7.331  -7.360  0.00  0.00     0.028 H 
ATOM     25  H20 MOL d   1       0.505   7.287  -7.879  0.00  0.00     0.028 H 
ATOM     26  H21 MOL d   1      -0.118   8.695  -6.955  0.00  0.00     0.028 H 
ENDBRANCH  16  23
BRANCH  17  27
ATOM     27  CAB MOL d   1      -2.066   7.706  -4.731  0.00  0.00     0.043 C 
ATOM     28  H10 MOL d   1      -2.500   6.822  -5.222  0.00  0.00     0.058 H 
BRANCH  27  29
ATOM     29  CAA MOL d   1      -2.398   8.909  -5.650  0.00  0.00     0.096 C 
ATOM     30  OAC MOL d   1      -1.780   9.931  -5.646  0.00  0.00    -0.306 OA
ATOM     31  H9  MOL d   1      -3.239   8.818  -6.336  0.00  0.00     0.144 H 
ENDBRANCH  27  29
BRANCH  27  32
ATOM     32  CAE MOL d   1      -2.793   7.875  -3.373  0.00  0.00     0.043 C 
ATOM     33  H12 MOL d   1      -3.871   7.988  -3.559  0.00  0.00     0.083 H 
BRANCH  32  34
ATOM     34  CAF MOL d   1      -2.573   6.619  -2.537  0.00  0.00    -0.052 C 
ATOM     35  H13 MOL d   1      -3.085   6.728  -1.570  0.00  0.00     0.030 H 
ATOM     36  H14 MOL d   1      -1.496   6.476  -2.367  0.00  0.00     0.030 H 
ATOM     37  H15 MOL d   1      -2.979   5.747  -3.071  0.00  0.00     0.030 H 
ENDBRANCH  32  34
BRANCH  32  38
ATOM     38  OAG MOL d   1      -2.340   9.020  -2.715  0.00  0.00    -0.395 OA
ATOM     39  H16 MOL d   1      -1.410   8.936  -2.540  0.00  0.00     0.210 HD
ENDBRANCH  32  38
ENDBRANCH  27  32
ENDBRANCH  17  27
BRANCH  21  40
ATOM     40  CAM MOL d   1       2.505   9.161  -3.795  0.00  0.00     0.225 C 
ATOM     41  OAT MOL d   1       2.314   9.883  -2.774  0.00  0.00    -0.643 OA
ATOM     42  OAU MOL d   1       3.617   9.169  -4.376  0.00  0.00    -0.643 OA
ENDBRANCH  21  40
ENDBRANCH  14  15
ENDBRANCH   5  14
BRANCH   2  43
ATOM     43  C   MOL d   1       7.385   5.882  -2.980  0.00  0.00     0.253 C 
ATOM     44  O   MOL d   1       7.463   4.785  -2.518  0.00  0.00    -0.271 OA
ATOM     45  NAX MOL d   1       8.164   7.020  -2.515  0.00  0.00    -0.325 N 
ATOM     46  H22 MOL d   1       8.014   7.890  -2.985  0.00  0.00     0.169 HD
BRANCH  45  47
ATOM     47  CAY MOL d   1       9.140   7.020  -1.434  0.00  0.00     0.035 A 
ATOM     48  CAZ MOL d   1       9.502   5.842  -0.808  0.00  0.00    -0.041 A 
ATOM     49  CBA MOL d   1      10.432   5.870   0.220  0.00  0.00     0.043 A 
ATOM     50  H23 MOL d   1       9.061   4.902  -1.119  0.00  0.00     0.088 H 
ATOM     51  CBB MOL d   1      10.994   7.071   0.612  0.00  0.00    -0.066 A 
ATOM     52  CBC MOL d   1      10.635   8.251  -0.013  0.00  0.00    -0.080 A 
ATOM     53  H24 MOL d   1      11.722   7.088   1.415  0.00  0.00     0.085 H 
ATOM     54  CBD MOL d   1       9.702   8.225  -1.040  0.00  0.00    -0.057 A 
ATOM     55  H25 MOL d   1      11.079   9.190   0.297  0.00  0.00     0.083 H 
ATOM     56  H26 MOL d   1       9.413   9.146  -1.534  0.00  0.00     0.086 H 
BRANCH  49  57
ATOM     57  CBE MOL d   1      10.837   4.567   0.902  0.00  0.00     0.209 C 
ATOM     58  OBF MOL d   1      10.343   3.475   0.517  0.00  0.00    -0.644 OA
ATOM     59  OBG MOL d   1      11.675   4.585   1.844  0.00  0.00    -0.644 OA
ENDBRANCH  49  57
ENDBRANCH  45  47
ENDBRANCH   2  43
TORSDOF 12
