REMARK  8 active torsions:
REMARK  status: ('A' for Active; 'I' for Inactive)
REMARK    1  A    between atoms: C6_3  and  C7_1 
REMARK    2  A    between atoms: C2_2  and  S21_14 
REMARK    3  A    between atoms: C5_4  and  C6_3 
REMARK    4  A    between atoms: C6_3  and  C61_7 
REMARK    5  A    between atoms: C3_5  and  C31_11 
REMARK    6  A    between atoms: C61_7  and  O62_8 
REMARK    7  A    between atoms: C61_7  and  C62_9 
REMARK    8  A    between atoms: S21_14  and  C22_15 
ROOT
ATOM      1  C2  IM2 d   1     139.834 103.499  15.763  0.00  0.00     0.041 C 
ATOM      2  C5  IM2 d   1     138.317 103.656  17.570  0.00  0.00     0.046 C 
ATOM      3  C3  IM2 d   1     139.515 102.149  16.337  0.00  0.00     0.119 C 
ATOM      4  N4  IM2 d   1     138.660 102.133  17.356  0.00  0.00    -0.280 NA
ATOM      5  C1  IM2 d   1     139.355 104.436  16.668  0.00  0.00    -0.026 C 
ATOM      6  H2  IM2 d   1     140.929 103.588  15.811  0.00  0.00     0.067 H 
ATOM      7  H4  IM2 d   1     137.291 103.871  17.236  0.00  0.00     0.077 H 
ATOM      8  H13 IM2 d   1     138.860 105.264  16.139  0.00  0.00     0.038 H 
ATOM      9  H14 IM2 d   1     140.177 104.833  17.282  0.00  0.00     0.038 H 
ENDROOT
BRANCH   2  10
ATOM     10  C6  IM2 d   1     138.436 103.991  18.948  0.00  0.00     0.043 C 
ATOM     11  H3  IM2 d   1     139.470 103.795  19.268  0.00  0.00     0.058 H 
BRANCH  10  12
ATOM     12  C7  IM2 d   1     137.452 103.084  19.797  0.00  0.00     0.096 C 
ATOM     13  O7  IM2 d   1     136.319 102.868  19.481  0.00  0.00    -0.306 OA
ATOM     14  H1  IM2 d   1     137.827 102.634  20.715  0.00  0.00     0.144 H 
ENDBRANCH  10  12
BRANCH  10  15
ATOM     15  C61 IM2 d   1     138.110 105.500  19.212  0.00  0.00     0.043 C 
ATOM     16  H5  IM2 d   1     138.847 106.130  18.692  0.00  0.00     0.083 H 
BRANCH  15  17
ATOM     17  O62 IM2 d   1     138.157 105.744  20.580  0.00  0.00    -0.395 OA
ATOM     18  H6  IM2 d   1     137.517 105.197  21.020  0.00  0.00     0.210 HD
ENDBRANCH  15  17
BRANCH  15  19
ATOM     19  C62 IM2 d   1     136.714 105.839  18.725  0.00  0.00    -0.052 C 
ATOM     20  H7  IM2 d   1     136.506 106.901  18.920  0.00  0.00     0.030 H 
ATOM     21  H8  IM2 d   1     135.979 105.218  19.258  0.00  0.00     0.030 H 
ATOM     22  H9  IM2 d   1     136.645 105.644  17.645  0.00  0.00     0.030 H 
ENDBRANCH  15  19
ENDBRANCH  10  15
ENDBRANCH   2  10
BRANCH   3  23
ATOM     23  C31 IM2 d   1     140.131 100.867  15.764  0.00  0.00     0.225 C 
ATOM     24  O31 IM2 d   1     141.354 100.824  15.470  0.00  0.00    -0.643 OA
ATOM     25  O32 IM2 d   1     139.414  99.849  15.579  0.00  0.00    -0.643 OA
ENDBRANCH   3  23
BRANCH   1  26
ATOM     26  S21 IM2 d   1     139.474 103.739  13.994  0.00  0.00    -0.162 SA
BRANCH  26  27
ATOM     27  C22 IM2 d   1     137.675 103.703  13.725  0.00  0.00    -0.034 C 
ATOM     28  H10 IM2 d   1     137.461 103.848  12.656  0.00  0.00     0.041 H 
ATOM     29  H11 IM2 d   1     137.201 104.508  14.306  0.00  0.00     0.041 H 
ATOM     30  H12 IM2 d   1     137.275 102.731  14.050  0.00  0.00     0.041 H 
ENDBRANCH  26  27
ENDBRANCH   1  26
TORSDOF 8
