REMARK  6 active torsions:
REMARK  status: ('A' for Active; 'I' for Inactive)
REMARK    1  A    between atoms: C2_1  and  C3_2 
REMARK    2  A    between atoms: C6_4  and  C2_1 
REMARK    3  A    between atoms: C2_1  and  O01_17 
REMARK    4  A    between atoms: C3_2  and  N4_15 
REMARK    5  A    between atoms: N4_15  and  C5_3 
REMARK    6  A    between atoms: N7_16  and  C6_4 
ROOT
ATOM      1  C8  XJ2 d   1      12.662  20.782  76.733  0.00  0.00     0.108 C 
ATOM      2  C9  XJ2 d   1      11.816  21.437  75.578  0.00  0.00    -0.026 A 
ATOM      3  C10 XJ2 d   1      11.150  20.595  74.634  0.00  0.00    -0.075 A 
ATOM      4  C11 XJ2 d   1      10.354  21.146  73.569  0.00  0.00    -0.082 A 
ATOM      5  C12 XJ2 d   1      10.239  22.547  73.455  0.00  0.00    -0.082 A 
ATOM      6  C13 XJ2 d   1      10.893  23.385  74.385  0.00  0.00    -0.076 A 
ATOM      7  C14 XJ2 d   1      11.697  22.834  75.465  0.00  0.00    -0.050 A 
ATOM      8  C15 XJ2 d   1      12.394  23.827  76.470  0.00  0.00    -0.039 C 
ATOM      9  C16 XJ2 d   1      13.561  23.255  77.286  0.00  0.00    -0.039 C 
ATOM     10  C17 XJ2 d   1      14.420  22.241  76.509  0.00  0.00     0.084 C 
ATOM     11  N7  XJ2 d   1      14.027  20.925  76.663  0.00  0.00    -0.065 N 
ATOM     12  H9  XJ2 d   1      12.441  19.704  76.737  0.00  0.00     0.083 H 
ATOM     13  H10 XJ2 d   1      12.330  21.228  77.682  0.00  0.00     0.083 H 
ATOM     14  H11 XJ2 d   1      11.246  19.519  74.722  0.00  0.00     0.084 H 
ATOM     15  H12 XJ2 d   1       9.850  20.494  72.865  0.00  0.00     0.083 H 
ATOM     16  H13 XJ2 d   1       9.650  22.980  72.655  0.00  0.00     0.083 H 
ATOM     17  H14 XJ2 d   1      10.794  24.460  74.292  0.00  0.00     0.084 H 
ATOM     18  H15 XJ2 d   1      11.630  24.179  77.178  0.00  0.00     0.040 H 
ATOM     19  H16 XJ2 d   1      12.776  24.679  75.889  0.00  0.00     0.040 H 
ATOM     20  H17 XJ2 d   1      13.151  22.754  78.175  0.00  0.00     0.035 H 
ATOM     21  H18 XJ2 d   1      14.207  24.088  77.600  0.00  0.00     0.035 H 
ATOM     22  H19 XJ2 d   1      15.460  22.333  76.856  0.00  0.00     0.076 H 
ATOM     23  H20 XJ2 d   1      14.367  22.493  75.440  0.00  0.00     0.076 H 
ATOM     24  H23 XJ2 d   1      14.391  20.625  77.554  0.00  0.00     0.280 HD
ENDROOT
BRANCH  11  25
ATOM     25  C6  XJ2 d   1      14.564  20.111  75.738  0.00  0.00     0.109 C 
ATOM     26  H7  XJ2 d   1      13.889  20.071  74.871  0.00  0.00     0.080 H 
ATOM     27  H8  XJ2 d   1      15.535  20.524  75.428  0.00  0.00     0.080 H 
BRANCH  25  28
ATOM     28  C2  XJ2 d   1      14.787  18.647  76.269  0.00  0.00     0.082 C 
ATOM     29  H1  XJ2 d   1      13.852  18.276  76.713  0.00  0.00     0.088 H 
BRANCH  28  30
ATOM     30  C3  XJ2 d   1      15.239  17.714  75.154  0.00  0.00     0.106 C 
ATOM     31  H2  XJ2 d   1      16.274  17.971  74.886  0.00  0.00     0.079 H 
ATOM     32  H3  XJ2 d   1      14.585  17.872  74.284  0.00  0.00     0.079 H 
BRANCH  30  33
ATOM     33  N4  XJ2 d   1      15.195  16.305  75.510  0.00  0.00    -0.077 N 
ATOM     34  H21 XJ2 d   1      14.393  16.133  76.096  0.00  0.00     0.276 HD
ATOM     35  H22 XJ2 d   1      16.035  16.060  76.010  0.00  0.00     0.276 HD
BRANCH  33  36
ATOM     36  C5  XJ2 d   1      15.098  15.516  74.337  0.00  0.00     0.065 C 
ATOM     37  H4  XJ2 d   1      15.065  14.452  74.613  0.00  0.00     0.067 H 
ATOM     38  H5  XJ2 d   1      15.973  15.702  73.697  0.00  0.00     0.067 H 
ATOM     39  H6  XJ2 d   1      14.181  15.782  73.791  0.00  0.00     0.067 H 
ENDBRANCH  33  36
ENDBRANCH  30  33
ENDBRANCH  28  30
BRANCH  28  40
ATOM     40  O01 XJ2 d   1      15.799  18.642  77.209  0.00  0.00    -0.392 OA
ATOM     41  H24 XJ2 d   1      16.601  18.959  76.811  0.00  0.00     0.210 HD
ENDBRANCH  28  40
ENDBRANCH  25  28
ENDBRANCH  11  25
TORSDOF 6
