REMARK  10 active torsions:
REMARK  status: ('A' for Active; 'I' for Inactive)
REMARK    1  A    between atoms: O1_1  and  C1_2 
REMARK    2  A    between atoms: C1_2  and  C2_3 
REMARK    3  A    between atoms: C2_3  and  C4_5 
REMARK    4  A    between atoms: C3_4  and  C12_13 
REMARK    5  A    between atoms: C4_5  and  C5_6 
REMARK    6  A    between atoms: C8_9  and  C11_12 
REMARK    7  A    between atoms: C12_13  and  O2_14 
REMARK    8  A    between atoms: O2_14  and  P1_15 
REMARK    9  A    between atoms: P1_15  and  O3_16 
REMARK   10  A    between atoms: O3_16  and  P2_19 
ROOT
ATOM      1  C2  MOL d   1      29.486 230.745  30.424  0.00  0.00    -0.054 C 
ATOM      2  C3  MOL d   1      29.857 229.481  30.318  0.00  0.00    -0.075 C 
ATOM      3  H4  MOL d   1      30.710 229.254  29.681  0.00  0.00     0.080 H 
ENDROOT
BRANCH   1   4
ATOM      4  C1  MOL d   1      30.307 231.839  29.759  0.00  0.00     0.037 C 
ATOM      5  H2  MOL d   1      29.621 232.613  29.384  0.00  0.00     0.081 H 
ATOM      6  H3  MOL d   1      30.980 232.278  30.511  0.00  0.00     0.081 H 
BRANCH   4   7
ATOM      7  O1  MOL d   1      31.071 231.376  28.700  0.00  0.00    -0.397 OA
ATOM      8  H1  MOL d   1      30.500 231.001  28.039  0.00  0.00     0.209 HD
ENDBRANCH   4   7
ENDBRANCH   1   4
BRANCH   1   9
ATOM      9  C4  MOL d   1      28.295 231.195  31.270  0.00  0.00    -0.019 C 
ATOM     10  H5  MOL d   1      27.641 230.341  31.498  0.00  0.00     0.046 H 
ATOM     11  H6  MOL d   1      27.718 231.968  30.741  0.00  0.00     0.046 H 
BRANCH   9  12
ATOM     12  C5  MOL d   1      28.893 231.757  32.539  0.00  0.00    -0.054 A 
ATOM     13  C6  MOL d   1      28.918 230.997  33.695  0.00  0.00    -0.076 A 
ATOM     14  C7  MOL d   1      29.553 231.491  34.832  0.00  0.00    -0.077 A 
ATOM     15  H7  MOL d   1      28.445 230.022  33.716  0.00  0.00     0.084 H 
ATOM     16  C8  MOL d   1      30.088 232.777  34.812  0.00  0.00    -0.062 A 
ATOM     17  H8  MOL d   1      29.630 230.880  35.724  0.00  0.00     0.084 H 
ATOM     18  C9  MOL d   1      30.004 233.557  33.672  0.00  0.00    -0.077 A 
ATOM     19  C10 MOL d   1      29.408 233.040  32.529  0.00  0.00    -0.076 A 
ATOM     20  H9  MOL d   1      30.401 234.566  33.671  0.00  0.00     0.084 H 
ATOM     21  H10 MOL d   1      29.347 233.642  31.630  0.00  0.00     0.084 H 
BRANCH  16  22
ATOM     22  C11 MOL d   1      30.727 233.360  36.075  0.00  0.00    -0.051 C 
ATOM     23  H11 MOL d   1      30.709 232.607  36.876  0.00  0.00     0.033 H 
ATOM     24  H12 MOL d   1      30.163 234.249  36.394  0.00  0.00     0.033 H 
ATOM     25  H13 MOL d   1      31.768 233.643  35.862  0.00  0.00     0.033 H 
ENDBRANCH  16  22
ENDBRANCH   9  12
ENDBRANCH   1   9
BRANCH   2  26
ATOM     26  C12 MOL d   1      29.164 228.310  31.034  0.00  0.00     0.047 C 
ATOM     27  H14 MOL d   1      28.515 228.712  31.826  0.00  0.00     0.081 H 
ATOM     28  H15 MOL d   1      29.932 227.662  31.482  0.00  0.00     0.081 H 
BRANCH  26  29
ATOM     29  O2  MOL d   1      28.390 227.552  30.160  0.00  0.00    -0.286 OA
BRANCH  29  30
ATOM     30  P1  MOL d   1      27.578 226.246  30.759  0.00  0.00     0.418 P 
ATOM     31  O4  MOL d   1      26.523 226.657  31.737  0.00  0.00    -0.624 OA
ATOM     32  O5  MOL d   1      27.090 225.296  29.682  0.00  0.00    -0.624 OA
BRANCH  30  33
ATOM     33  O3  MOL d   1      28.694 225.449  31.611  0.00  0.00    -0.173 OA
BRANCH  33  34
ATOM     34  P2  MOL d   1      29.904 224.622  30.894  0.00  0.00     0.431 P 
ATOM     35  O6  MOL d   1      29.506 223.223  31.023  0.00  0.00    -0.616 OA
ATOM     36  O7  MOL d   1      31.091 224.867  31.705  0.00  0.00    -0.616 OA
ATOM     37  O8  MOL d   1      30.167 224.953  29.316  0.00  0.00    -0.616 OA
ENDBRANCH  33  34
ENDBRANCH  30  33
ENDBRANCH  29  30
ENDBRANCH  26  29
ENDBRANCH   2  26
TORSDOF 10
