REMARK  8 active torsions:
REMARK  status: ('A' for Active; 'I' for Inactive)
REMARK    1  A    between atoms: P13_1  and  O16_4 
REMARK    2  A    between atoms: O29_12  and  P13_1 
REMARK    3  A    between atoms: O16_4  and  P17_5 
REMARK    4  A    between atoms: C30_13  and  C21_9 
REMARK    5  A    between atoms: C28_11  and  C27_10 
REMARK    6  A    between atoms: C28_11  and  O29_12 
REMARK    7  A    between atoms: C30_13  and  C31_14 
REMARK    8  A    between atoms: C31_14  and  O33_15 
ROOT
ATOM      1  C27 H6P d   1      80.292 -60.326 -47.719  0.00  0.00    -0.076 C 
ATOM      2  C30 H6P d   1      80.450 -61.595 -47.375  0.00  0.00    -0.062 C 
ATOM      3  H4  H6P d   1      80.894 -59.928 -48.535  0.00  0.00     0.080 H 
ENDROOT
BRANCH   1   4
ATOM      4  C28 H6P d   1      79.302 -59.399 -47.020  0.00  0.00     0.047 C 
ATOM      5  H5  H6P d   1      78.544 -59.995 -46.490  0.00  0.00     0.081 H 
ATOM      6  H6  H6P d   1      78.808 -58.754 -47.762  0.00  0.00     0.081 H 
BRANCH   4   7
ATOM      7  O29 H6P d   1      80.011 -58.610 -46.103  0.00  0.00    -0.286 OA
BRANCH   7   8
ATOM      8  P13 H6P d   1      79.127 -57.770 -44.997  0.00  0.00     0.418 P 
ATOM      9  O14 H6P d   1      78.320 -58.789 -44.246  0.00  0.00    -0.624 OA
ATOM     10  O15 H6P d   1      80.076 -56.955 -44.167  0.00  0.00    -0.624 OA
BRANCH   8  11
ATOM     11  O16 H6P d   1      78.038 -56.811 -45.740  0.00  0.00    -0.173 OA
BRANCH  11  12
ATOM     12  P17 H6P d   1      78.328 -55.735 -46.955  0.00  0.00     0.431 P 
ATOM     13  O18 H6P d   1      79.749 -55.742 -47.431  0.00  0.00    -0.616 OA
ATOM     14  O19 H6P d   1      77.406 -56.115 -48.101  0.00  0.00    -0.616 OA
ATOM     15  O20 H6P d   1      78.030 -54.362 -46.418  0.00  0.00    -0.616 OA
ENDBRANCH  11  12
ENDBRANCH   8  11
ENDBRANCH   7   8
ENDBRANCH   4   7
ENDBRANCH   1   4
BRANCH   2  16
ATOM     16  C21 H6P d   1      79.673 -62.234 -46.218  0.00  0.00    -0.053 C 
ATOM     17  H1  H6P d   1      79.003 -61.486 -45.769  0.00  0.00     0.033 H 
ATOM     18  H2  H6P d   1      80.380 -62.597 -45.458  0.00  0.00     0.033 H 
ATOM     19  H3  H6P d   1      79.078 -63.078 -46.598  0.00  0.00     0.033 H 
ENDBRANCH   2  16
BRANCH   2  20
ATOM     20  C31 H6P d   1      81.451 -62.447 -48.159  0.00  0.00     0.036 C 
ATOM     21  H7  H6P d   1      80.975 -63.393 -48.457  0.00  0.00     0.081 H 
ATOM     22  H8  H6P d   1      82.326 -62.660 -47.528  0.00  0.00     0.081 H 
BRANCH  20  23
ATOM     23  O33 H6P d   1      81.858 -61.746 -49.304  0.00  0.00    -0.397 OA
ATOM     24  H9  H6P d   1      82.268 -60.929 -49.045  0.00  0.00     0.209 HD
ENDBRANCH  20  23
ENDBRANCH   2  20
TORSDOF 8
