REMARK  3 active torsions:
REMARK  status: ('A' for Active; 'I' for Inactive)
REMARK    1  A    between atoms: N_8  and  O_9 
REMARK    2  A    between atoms: C8_11  and  C11_12 
REMARK    3  A    between atoms: C6_14  and  C_15 
ROOT
ATOM      1  C1  B4O d   1      -6.324 -10.410  21.120  0.00  0.00    -0.057 C 
ATOM      2  C2  B4O d   1      -6.348 -10.192  23.582  0.00  0.00    -0.057 C 
ATOM      3  C3  B4O d   1      -5.608  -9.093  21.101  0.00  0.00    -0.064 C 
ATOM      4  C4  B4O d   1      -5.349  -9.028  23.632  0.00  0.00    -0.064 C 
ATOM      5  C5  B4O d   1      -4.688  -8.778  22.280  0.00  0.00    -0.065 C 
ATOM      6  C   B4O d   1      -6.090 -11.150  22.406  0.00  0.00    -0.011 C 
ATOM      7  H1  B4O d   1      -5.961 -11.025  20.283  0.00  0.00     0.034 H 
ATOM      8  H2  B4O d   1      -7.403 -10.231  21.003  0.00  0.00     0.034 H 
ATOM      9  H3  B4O d   1      -7.363  -9.780  23.483  0.00  0.00     0.034 H 
ATOM     10  H4  B4O d   1      -6.273 -10.760  24.521  0.00  0.00     0.034 H 
ATOM     11  H5  B4O d   1      -6.372  -8.302  21.057  0.00  0.00     0.033 H 
ATOM     12  H6  B4O d   1      -4.996  -9.063  20.187  0.00  0.00     0.033 H 
ATOM     13  H7  B4O d   1      -4.568  -9.263  24.370  0.00  0.00     0.033 H 
ATOM     14  H8  B4O d   1      -5.882  -8.116  23.940  0.00  0.00     0.033 H 
ATOM     15  H9  B4O d   1      -4.395  -7.719  22.223  0.00  0.00     0.033 H 
ATOM     16  H10 B4O d   1      -3.792  -9.412  22.205  0.00  0.00     0.033 H 
ATOM     17  H17 B4O d   1      -5.061 -11.529  22.492  0.00  0.00     0.049 H 
ENDROOT
BRANCH   6  18
ATOM     18  C6  B4O d   1      -7.022 -12.261  22.170  0.00  0.00     0.048 A 
ATOM     19  N   B4O d   1      -8.332 -12.255  22.672  0.00  0.00    -0.192 N 
ATOM     20  C9  B4O d   1      -9.166 -13.336  22.366  0.00  0.00     0.272 A 
ATOM     21  O1  B4O d   1     -10.310 -13.380  22.811  0.00  0.00    -0.266 OA
ATOM     22  C10 B4O d   1      -8.737 -14.355  21.564  0.00  0.00    -0.009 A 
ATOM     23  C8  B4O d   1      -7.456 -14.334  21.054  0.00  0.00    -0.055 A 
ATOM     24  H12 B4O d   1      -9.405 -15.182  21.328  0.00  0.00     0.092 H 
ATOM     25  C7  B4O d   1      -6.589 -13.300  21.345  0.00  0.00    -0.052 A 
ATOM     26  H16 B4O d   1      -5.580 -13.295  20.936  0.00  0.00     0.087 H 
BRANCH  19  27
ATOM     27  O   B4O d   1      -8.833 -11.207  23.514  0.00  0.00    -0.280 OA
ATOM     28  H11 B4O d   1      -9.075 -11.569  24.358  0.00  0.00     0.245 HD
ENDBRANCH  19  27
BRANCH  23  29
ATOM     29  C11 B4O d   1      -7.049 -15.479  20.195  0.00  0.00    -0.051 C 
ATOM     30  H13 B4O d   1      -6.012 -15.335  19.859  0.00  0.00     0.033 H 
ATOM     31  H14 B4O d   1      -7.713 -15.535  19.320  0.00  0.00     0.033 H 
ATOM     32  H15 B4O d   1      -7.121 -16.413  20.771  0.00  0.00     0.033 H 
ENDBRANCH  23  29
ENDBRANCH   6  18
TORSDOF 3
