REMARK  8 active torsions:
REMARK  status: ('A' for Active; 'I' for Inactive)
REMARK    1  A    between atoms: NAF_6  and  CAI_7 
REMARK    2  A    between atoms: CAV_12  and  CAZ_13 
REMARK    3  A    between atoms: CBC_21  and  NAY_22 
REMARK    4  A    between atoms: NAY_22  and  CAX_23 
REMARK    5  A    between atoms: CAX_23  and  CAW_24 
REMARK    6  A    between atoms: CAQ_29  and  NAP_30 
REMARK    7  A    between atoms: NAP_30  and  SAO_31 
REMARK    8  A    between atoms: SAO_31  and  CAN_34 
ROOT
ATOM      1  CAZ B9C d   1     -16.068 -19.717 -22.298  0.00  0.00     0.101 A 
ATOM      2  CBE B9C d   1     -15.771 -19.195 -21.088  0.00  0.00     0.025 A 
ATOM      3  CBD B9C d   1     -15.756 -17.947 -20.629  0.00  0.00    -0.043 A 
ATOM      4  NBA B9C d   1     -15.895 -21.025 -22.217  0.00  0.00    -0.173 NA
ATOM      5  NBB B9C d   1     -15.453 -21.320 -20.998  0.00  0.00    -0.277 N 
ATOM      6  CBF B9C d   1     -15.378 -20.196 -20.291  0.00  0.00     0.062 A 
ATOM      7  CBG B9C d   1     -15.002 -19.996 -19.013  0.00  0.00    -0.053 A 
ATOM      8  CBH B9C d   1     -14.977 -18.701 -18.490  0.00  0.00    -0.055 A 
ATOM      9  CBC B9C d   1     -15.364 -17.659 -19.327  0.00  0.00     0.029 A 
ATOM     10  H14 B9C d   1     -16.056 -17.137 -21.284  0.00  0.00     0.088 H 
ATOM     11  H15 B9C d   1     -15.210 -22.261 -20.658  0.00  0.00     0.189 HD
ATOM     12  H16 B9C d   1     -14.719 -20.838 -18.392  0.00  0.00     0.087 H 
ATOM     13  H17 B9C d   1     -14.667 -18.514 -17.468  0.00  0.00     0.087 H 
ENDROOT
BRANCH   1  14
ATOM     14  CAV B9C d   1     -16.535 -19.109 -23.430  0.00  0.00     0.013 A 
ATOM     15  CAG B9C d   1     -16.810 -17.766 -23.462  0.00  0.00    -0.066 A 
ATOM     16  CAH B9C d   1     -17.325 -17.166 -24.598  0.00  0.00    -0.038 A 
ATOM     17  H12 B9C d   1     -16.620 -17.163 -22.581  0.00  0.00     0.085 H 
ATOM     18  CAI B9C d   1     -17.574 -17.877 -25.771  0.00  0.00     0.125 A 
ATOM     19  H11 B9C d   1     -17.543 -16.104 -24.575  0.00  0.00     0.089 H 
ATOM     20  NAJ B9C d   1     -17.320 -19.202 -25.751  0.00  0.00    -0.243 NA
ATOM     21  CAK B9C d   1     -16.842 -19.832 -24.591  0.00  0.00     0.017 A 
ATOM     22  H13 B9C d   1     -16.707 -20.907 -24.593  0.00  0.00     0.116 H 
BRANCH  18  23
ATOM     23  NAF B9C d   1     -18.116 -17.200 -26.831  0.00  0.00    -0.363 N 
ATOM     24  CAA B9C d   1     -19.222 -17.766 -27.632  0.00  0.00     0.019 C 
ATOM     25  CAB B9C d   1     -19.175 -17.392 -29.029  0.00  0.00     0.096 C 
ATOM     26  H1  B9C d   1     -19.175 -18.863 -27.564  0.00  0.00     0.066 H 
ATOM     27  H2  B9C d   1     -20.174 -17.413 -27.209  0.00  0.00     0.066 H 
ATOM     28  NAC B9C d   1     -19.305 -15.946 -29.055  0.00  0.00    -0.072 N 
ATOM     29  H3  B9C d   1     -20.004 -17.861 -29.579  0.00  0.00     0.078 H 
ATOM     30  H4  B9C d   1     -18.218 -17.699 -29.476  0.00  0.00     0.078 H 
ATOM     31  CAD B9C d   1     -17.984 -15.446 -28.547  0.00  0.00     0.096 C 
ATOM     32  H5  B9C d   1     -20.056 -15.644 -28.454  0.00  0.00     0.277 HD
ATOM     33  H6  B9C d   1     -19.473 -15.619 -29.994  0.00  0.00     0.277 HD
ATOM     34  CAE B9C d   1     -17.861 -15.764 -27.085  0.00  0.00     0.019 C 
ATOM     35  H7  B9C d   1     -17.923 -14.357 -28.692  0.00  0.00     0.078 H 
ATOM     36  H8  B9C d   1     -17.169 -15.936 -29.099  0.00  0.00     0.078 H 
ATOM     37  H9  B9C d   1     -18.592 -15.164 -26.524  0.00  0.00     0.066 H 
ATOM     38  H10 B9C d   1     -16.845 -15.514 -26.747  0.00  0.00     0.066 H 
ENDBRANCH  18  23
ENDBRANCH   1  14
BRANCH   9  39
ATOM     39  NAY B9C d   1     -15.397 -16.397 -18.907  0.00  0.00    -0.386 N 
ATOM     40  H18 B9C d   1     -14.642 -15.751 -19.180  0.00  0.00     0.160 HD
BRANCH  39  41
ATOM     41  CAX B9C d   1     -16.489 -15.913 -18.063  0.00  0.00     0.019 C 
ATOM     42  H19 B9C d   1     -16.206 -14.927 -17.665  0.00  0.00     0.071 H 
ATOM     43  H20 B9C d   1     -16.621 -16.620 -17.231  0.00  0.00     0.071 H 
BRANCH  41  44
ATOM     44  CAW B9C d   1     -17.719 -15.783 -18.730  0.00  0.00    -0.013 A 
ATOM     45  CAU B9C d   1     -18.822 -16.344 -18.089  0.00  0.00    -0.073 A 
ATOM     46  CAT B9C d   1     -20.114 -16.279 -18.604  0.00  0.00    -0.082 A 
ATOM     47  H21 B9C d   1     -18.667 -16.855 -17.145  0.00  0.00     0.084 H 
ATOM     48  CAS B9C d   1     -20.287 -15.614 -19.789  0.00  0.00    -0.081 A 
ATOM     49  H22 B9C d   1     -20.950 -16.737 -18.087  0.00  0.00     0.083 H 
ATOM     50  CAR B9C d   1     -19.218 -15.021 -20.443  0.00  0.00    -0.056 A 
ATOM     51  H23 B9C d   1     -21.278 -15.550 -20.223  0.00  0.00     0.083 H 
ATOM     52  CAQ B9C d   1     -17.938 -15.091 -19.930  0.00  0.00     0.050 A 
ATOM     53  H24 B9C d   1     -19.390 -14.493 -21.374  0.00  0.00     0.087 H 
BRANCH  52  54
ATOM     54  NAP B9C d   1     -16.894 -14.560 -20.599  0.00  0.00    -0.284 N 
ATOM     55  H25 B9C d   1     -16.108 -15.134 -20.827  0.00  0.00     0.178 HD
BRANCH  54  56
ATOM     56  SAO B9C d   1     -16.903 -12.954 -21.050  0.00  0.00     0.227 S 
ATOM     57  OAL B9C d   1     -15.890 -12.736 -22.141  0.00  0.00    -0.206 OA
ATOM     58  OAM B9C d   1     -18.275 -12.470 -21.521  0.00  0.00    -0.206 OA
BRANCH  56  59
ATOM     59  CAN B9C d   1     -16.495 -12.037 -19.596  0.00  0.00     0.033 C 
ATOM     60  H26 B9C d   1     -16.485 -10.962 -19.831  0.00  0.00     0.051 H 
ATOM     61  H27 B9C d   1     -15.502 -12.343 -19.236  0.00  0.00     0.051 H 
ATOM     62  H28 B9C d   1     -17.244 -12.235 -18.816  0.00  0.00     0.051 H 
ENDBRANCH  56  59
ENDBRANCH  54  56
ENDBRANCH  52  54
ENDBRANCH  41  44
ENDBRANCH  39  41
ENDBRANCH   9  39
TORSDOF 8
