REMARK  5 active torsions:
REMARK  status: ('A' for Active; 'I' for Inactive)
REMARK    1  A    between atoms: C6_8  and  C7_9 
REMARK    2  A    between atoms: C7_9  and  O7_10 
REMARK    3  A    between atoms: C7_9  and  C8_11 
REMARK    4  A    between atoms: C11_14  and  C14_15 
REMARK    5  A    between atoms: C9_20  and  N_21 
ROOT
ATOM      1  C7  NTD d   1      31.074 -21.993   5.118  0.00  0.00     0.080 C 
ATOM      2  H8  NTD d   1      31.691 -22.353   5.955  0.00  0.00     0.092 H 
ENDROOT
BRANCH   1   3
ATOM      3  C6  NTD d   1      31.769 -22.685   4.221  0.00  0.00     0.090 C 
ATOM      4  C5  NTD d   1      33.195 -22.192   3.800  0.00  0.00     0.141 C 
ATOM      5  O1  NTD d   1      33.902 -21.653   4.585  0.00  0.00    -0.297 OA
ATOM      6  C2  NTD d   1      33.707 -22.382   2.369  0.00  0.00    -0.008 C 
ATOM      7  C3  NTD d   1      33.019 -23.438   1.567  0.00  0.00    -0.053 C 
ATOM      8  H1  NTD d   1      34.774 -22.642   2.424  0.00  0.00     0.044 H 
ATOM      9  H2  NTD d   1      33.590 -21.425   1.839  0.00  0.00     0.044 H 
ATOM     10  C4  NTD d   1      31.533 -23.382   1.666  0.00  0.00    -0.008 C 
ATOM     11  H3  NTD d   1      33.355 -24.422   1.925  0.00  0.00     0.034 H 
ATOM     12  H4  NTD d   1      33.303 -23.315   0.511  0.00  0.00     0.034 H 
ATOM     13  C1  NTD d   1      31.071 -23.522   3.114  0.00  0.00     0.141 C 
ATOM     14  H5  NTD d   1      31.103 -24.201   1.071  0.00  0.00     0.044 H 
ATOM     15  H6  NTD d   1      31.183 -22.418   1.269  0.00  0.00     0.044 H 
ATOM     16  O5  NTD d   1      30.189 -24.279   3.365  0.00  0.00    -0.297 OA
ATOM     17  H7  NTD d   1      32.065 -23.511   4.885  0.00  0.00     0.068 H 
ENDBRANCH   1   3
BRANCH   1  18
ATOM     18  O7  NTD d   1      31.418 -20.664   5.351  0.00  0.00    -0.390 OA
ATOM     19  H9  NTD d   1      32.317 -20.619   5.656  0.00  0.00     0.210 HD
ENDBRANCH   1  18
BRANCH   1  20
ATOM     20  C8  NTD d   1      29.798 -22.585   5.718  0.00  0.00     0.005 A 
ATOM     21  C13 NTD d   1      29.884 -23.469   6.786  0.00  0.00    -0.071 A 
ATOM     22  C12 NTD d   1      28.733 -24.017   7.331  0.00  0.00    -0.068 A 
ATOM     23  H10 NTD d   1      30.853 -23.731   7.194  0.00  0.00     0.084 H 
ATOM     24  C11 NTD d   1      27.494 -23.664   6.819  0.00  0.00     0.050 A 
ATOM     25  H11 NTD d   1      28.802 -24.719   8.154  0.00  0.00     0.084 H 
ATOM     26  C10 NTD d   1      27.406 -22.774   5.763  0.00  0.00    -0.036 A 
ATOM     27  C9  NTD d   1      28.553 -22.238   5.210  0.00  0.00     0.112 A 
ATOM     28  H12 NTD d   1      26.435 -22.497   5.369  0.00  0.00     0.088 H 
BRANCH  24  29
ATOM     29  C14 NTD d   1      26.214 -24.232   7.417  0.00  0.00     0.417 C 
ATOM     30  F2  NTD d   1      25.896 -25.407   6.788  0.00  0.00    -0.166 F 
ATOM     31  F3  NTD d   1      26.399 -24.453   8.750  0.00  0.00    -0.166 F 
ATOM     32  F1  NTD d   1      25.211 -23.324   7.240  0.00  0.00    -0.166 F 
ENDBRANCH  24  29
BRANCH  27  33
ATOM     33  N   NTD d   1      28.427 -21.311   4.097  0.00  0.00    -0.115 N 
ATOM     34  ON2 NTD d   1      28.238 -21.719   3.008  0.00  0.00    -0.532 OA
ATOM     35  ON1 NTD d   1      28.519 -19.938   4.319  0.00  0.00    -0.532 OA
ENDBRANCH  27  33
ENDBRANCH   1  20
TORSDOF 5
