REMARK  7 active torsions:
REMARK  status: ('A' for Active; 'I' for Inactive)
REMARK    1  A    between atoms: C13_3  and  C14_11 
REMARK       I    between atoms: N12_30  and  C13_3 
REMARK    2  A    between atoms: C03_5  and  C02_4 
REMARK       I    between atoms: C02_4  and  N01_28 
REMARK    3  A    between atoms: C08_9  and  C09_10 
REMARK    4  A    between atoms: C14_11  and  C15_12 
REMARK    5  A    between atoms: C22_16  and  C21_15 
REMARK    6  A    between atoms: O28_34  and  C27_21 
REMARK    7  A    between atoms: C29_22  and  O28_34 
ROOT
ATOM      1  C03 BA0 d   1      -1.992  16.971 110.107  0.00  0.00     0.108 A 
ATOM      2  C04 BA0 d   1      -1.050  16.021 110.394  0.00  0.00     0.138 A 
ATOM      3  C06 BA0 d   1       1.128  14.867 110.566  0.00  0.00    -0.004 C 
ATOM      4  C07 BA0 d   1       0.499  14.010 111.622  0.00  0.00    -0.029 C 
ATOM      5  C08 BA0 d   1      -0.926  13.671 111.311  0.00  0.00     0.041 C 
ATOM      6  C21 BA0 d   1      -3.239  16.410 110.467  0.00  0.00     0.107 A 
ATOM      7  N05 BA0 d   1       0.391  16.037 110.264  0.00  0.00    -0.374 N 
ATOM      8  N19 BA0 d   1      -1.673  14.938 110.916  0.00  0.00    -0.247 N 
ATOM      9  N20 BA0 d   1      -3.020  15.156 110.957  0.00  0.00    -0.169 NA
ATOM     10  H5  BA0 d   1       1.223  14.270 109.647  0.00  0.00     0.064 H 
ATOM     11  H6  BA0 d   1       2.128  15.167 110.913  0.00  0.00     0.064 H 
ATOM     12  H7  BA0 d   1       0.532  14.549 112.580  0.00  0.00     0.038 H 
ATOM     13  H8  BA0 d   1       1.073  13.076 111.707  0.00  0.00     0.038 H 
ATOM     14  H9  BA0 d   1      -0.909  12.991 110.447  0.00  0.00     0.076 H 
ATOM     15  H31 BA0 d   1       0.876  16.892 109.955  0.00  0.00     0.161 HD
ENDROOT
BRANCH   5  16
ATOM     16  C09 BA0 d   1      -1.722  12.983 112.403  0.00  0.00    -0.029 C 
ATOM     17  C10 BA0 d   1      -1.925  13.691 113.689  0.00  0.00    -0.045 C 
ATOM     18  C11 BA0 d   1      -2.711  12.833 114.693  0.00  0.00    -0.002 C 
ATOM     19  H1  BA0 d   1      -0.943  13.935 114.121  0.00  0.00     0.036 H 
ATOM     20  H2  BA0 d   1      -2.483  14.620 113.500  0.00  0.00     0.036 H 
ATOM     21  N12 BA0 d   1      -1.952  11.564 114.878  0.00  0.00    -0.352 N 
ATOM     22  H3  BA0 d   1      -3.715  12.617 114.299  0.00  0.00     0.064 H 
ATOM     23  H4  BA0 d   1      -2.799  13.363 115.653  0.00  0.00     0.064 H 
ATOM     24  C13 BA0 d   1      -1.395  11.097 116.113  0.00  0.00     0.219 C 
ATOM     25  C17 BA0 d   1      -1.734  10.824 113.600  0.00  0.00    -0.002 C 
ATOM     26  O16 BA0 d   1      -0.762  10.102 116.110  0.00  0.00    -0.273 OA
ATOM     27  C18 BA0 d   1      -1.030  11.684 112.562  0.00  0.00    -0.045 C 
ATOM     28  H16 BA0 d   1      -1.118   9.936 113.804  0.00  0.00     0.064 H 
ATOM     29  H17 BA0 d   1      -2.709  10.510 113.200  0.00  0.00     0.064 H 
ATOM     30  H18 BA0 d   1       0.006  11.864 112.885  0.00  0.00     0.036 H 
ATOM     31  H19 BA0 d   1      -1.027  11.156 111.597  0.00  0.00     0.036 H 
ATOM     32  H10 BA0 d   1      -2.731  12.796 112.006  0.00  0.00     0.043 H 
BRANCH  24  33
ATOM     33  C14 BA0 d   1      -1.630  11.881 117.393  0.00  0.00     0.006 C 
ATOM     34  H11 BA0 d   1      -2.428  11.391 117.971  0.00  0.00     0.046 H 
ATOM     35  H12 BA0 d   1      -1.940  12.904 117.134  0.00  0.00     0.046 H 
BRANCH  33  36
ATOM     36  C15 BA0 d   1      -0.367  11.946 118.246  0.00  0.00    -0.068 C 
ATOM     37  H13 BA0 d   1      -0.572  12.519 119.162  0.00  0.00     0.028 H 
ATOM     38  H14 BA0 d   1       0.435  12.439 117.677  0.00  0.00     0.028 H 
ATOM     39  H15 BA0 d   1      -0.053  10.927 118.514  0.00  0.00     0.028 H 
ENDBRANCH  33  36
ENDBRANCH  24  33
ENDBRANCH   5  16
BRANCH   1  40
ATOM     40  C02 BA0 d   1      -1.645  18.317 109.502  0.00  0.00     0.255 C 
ATOM     41  N01 BA0 d   1      -2.643  19.341 109.385  0.00  0.00    -0.366 N 
ATOM     42  H29 BA0 d   1      -2.406  20.226 108.985  0.00  0.00     0.159 HD
ATOM     43  H30 BA0 d   1      -3.575  19.169 109.704  0.00  0.00     0.159 HD
ATOM     44  O35 BA0 d   1      -0.521  18.483 109.106  0.00  0.00    -0.268 OA
ENDBRANCH   1  40
BRANCH   6  45
ATOM     45  C22 BA0 d   1      -4.630  16.979 110.379  0.00  0.00    -0.004 A 
ATOM     46  C23 BA0 d   1      -5.193  17.219 109.144  0.00  0.00    -0.068 A 
ATOM     47  C24 BA0 d   1      -6.471  17.726 109.103  0.00  0.00    -0.049 A 
ATOM     48  H20 BA0 d   1      -4.645  17.014 108.232  0.00  0.00     0.085 H 
ATOM     49  C27 BA0 d   1      -7.162  17.984 110.270  0.00  0.00     0.076 A 
ATOM     50  H21 BA0 d   1      -6.940  17.925 108.146  0.00  0.00     0.087 H 
ATOM     51  C26 BA0 d   1      -6.599  17.724 111.505  0.00  0.00    -0.049 A 
ATOM     52  C25 BA0 d   1      -5.319  17.214 111.553  0.00  0.00    -0.068 A 
ATOM     53  H23 BA0 d   1      -7.152  17.917 112.417  0.00  0.00     0.087 H 
ATOM     54  H22 BA0 d   1      -4.855  16.998 112.509  0.00  0.00     0.085 H 
BRANCH  49  55
ATOM     55  O28 BA0 d   1      -8.456  18.472 110.122  0.00  0.00    -0.311 OA
BRANCH  55  56
ATOM     56  C29 BA0 d   1      -8.954  19.403 111.033  0.00  0.00     0.076 A 
ATOM     57  C30 BA0 d   1      -8.223  20.509 111.441  0.00  0.00    -0.050 A 
ATOM     58  C31 BA0 d   1      -8.802  21.419 112.307  0.00  0.00    -0.080 A 
ATOM     59  H24 BA0 d   1      -7.210  20.658 111.085  0.00  0.00     0.087 H 
ATOM     60  C32 BA0 d   1     -10.100  21.227 112.757  0.00  0.00    -0.083 A 
ATOM     61  H25 BA0 d   1      -8.239  22.285 112.635  0.00  0.00     0.083 H 
ATOM     62  C33 BA0 d   1     -10.824  20.128 112.335  0.00  0.00    -0.080 A 
ATOM     63  H26 BA0 d   1     -10.547  21.940 113.441  0.00  0.00     0.083 H 
ATOM     64  C34 BA0 d   1     -10.256  19.222 111.457  0.00  0.00    -0.050 A 
ATOM     65  H27 BA0 d   1     -11.836  19.976 112.692  0.00  0.00     0.083 H 
ATOM     66  H28 BA0 d   1     -10.831  18.373 111.103  0.00  0.00     0.087 H 
ENDBRANCH  55  56
ENDBRANCH  49  55
ENDBRANCH   6  45
TORSDOF 7
