REMARK  8 active torsions:
REMARK  status: ('A' for Active; 'I' for Inactive)
REMARK    1  A    between atoms: PA_1  and  O3A_4 
REMARK    2  A    between atoms: PA_1  and  O5'_9 
REMARK    3  A    between atoms: O3A_4  and  PB_5 
REMARK    4  A    between atoms: O5'_9  and  C5'_10 
REMARK    5  A    between atoms: C5'_10  and  C4'_11 
REMARK    6  A    between atoms: C3'_13  and  O3'_14 
REMARK    7  A    between atoms: C1'_16  and  N1_17 
REMARK    8  A    between atoms: C5_23  and  C5M_24 
ROOT
ATOM      1  C4' TYD d   1      62.187   2.153 106.115  0.00  0.00     0.087 C 
ATOM      2  O4' TYD d   1      61.588   3.266 105.909  0.00  0.00    -0.356 OA
ATOM      3  C3' TYD d   1      61.268   0.963 105.446  0.00  0.00     0.066 C 
ATOM      4  C2' TYD d   1      60.479   1.564 104.676  0.00  0.00     0.002 C 
ATOM      5  C1' TYD d   1      60.212   2.918 105.409  0.00  0.00     0.116 C 
ATOM      6  H3  TYD d   1      62.303   1.981 107.195  0.00  0.00     0.090 H 
ATOM      7  H4  TYD d   1      61.887   0.257 104.873  0.00  0.00     0.087 H 
ATOM      8  H6  TYD d   1      59.546   0.996 104.548  0.00  0.00     0.043 H 
ATOM      9  H7  TYD d   1      60.943   1.734 103.693  0.00  0.00     0.043 H 
ATOM     10  H8  TYD d   1      59.507   2.767 106.240  0.00  0.00     0.118 H 
ENDROOT
BRANCH   5  11
ATOM     11  N1  TYD d   1      59.746   3.938 104.616  0.00  0.00    -0.282 N 
ATOM     12  C2  TYD d   1      58.585   4.529 104.971  0.00  0.00     0.331 A 
ATOM     13  O2  TYD d   1      57.979   4.137 105.957  0.00  0.00    -0.246 OA
ATOM     14  N3  TYD d   1      58.085   5.577 104.210  0.00  0.00    -0.275 N 
ATOM     15  C4  TYD d   1      58.745   5.997 103.130  0.00  0.00     0.256 A 
ATOM     16  H9  TYD d   1      57.227   6.018 104.473  0.00  0.00     0.173 HD
ATOM     17  O4  TYD d   1      58.298   6.913 102.473  0.00  0.00    -0.267 OA
ATOM     18  C5  TYD d   1      59.926   5.410 102.772  0.00  0.00     0.022 A 
ATOM     19  C6  TYD d   1      60.434   4.365 103.528  0.00  0.00    -0.002 A 
ATOM     20  H13 TYD d   1      61.375   3.892 103.251  0.00  0.00     0.113 H 
BRANCH  18  21
ATOM     21  C5M TYD d   1      60.684   5.928 101.502  0.00  0.00    -0.045 C 
ATOM     22  H10 TYD d   1      61.608   5.347 101.364  0.00  0.00     0.033 H 
ATOM     23  H11 TYD d   1      60.936   6.991 101.633  0.00  0.00     0.033 H 
ATOM     24  H12 TYD d   1      60.041   5.810 100.618  0.00  0.00     0.033 H 
ENDBRANCH  18  21
ENDBRANCH   5  11
BRANCH   1  25
ATOM     25  C5' TYD d   1      63.564   2.167 105.442  0.00  0.00     0.058 C 
ATOM     26  H1  TYD d   1      63.457   2.097 104.350  0.00  0.00     0.079 H 
ATOM     27  H2  TYD d   1      64.106   3.089 105.699  0.00  0.00     0.079 H 
BRANCH  25  28
ATOM     28  O5' TYD d   1      64.266   1.010 105.955  0.00  0.00    -0.287 OA
BRANCH  28  29
ATOM     29  PA  TYD d   1      65.239   0.200 104.928  0.00  0.00     0.418 P 
ATOM     30  O1A TYD d   1      64.492  -0.011 103.654  0.00  0.00    -0.624 OA
ATOM     31  O2A TYD d   1      65.713  -1.102 105.543  0.00  0.00    -0.624 OA
BRANCH  29  32
ATOM     32  O3A TYD d   1      66.578   1.133 104.652  0.00  0.00    -0.173 OA
BRANCH  32  33
ATOM     33  PB  TYD d   1      67.344   2.142 105.718  0.00  0.00     0.431 P 
ATOM     34  O1B TYD d   1      68.567   2.677 104.986  0.00  0.00    -0.616 OA
ATOM     35  O2B TYD d   1      66.475   3.304 106.114  0.00  0.00    -0.616 OA
ATOM     36  O3B TYD d   1      67.748   1.356 106.951  0.00  0.00    -0.616 OA
ENDBRANCH  32  33
ENDBRANCH  29  32
ENDBRANCH  28  29
ENDBRANCH  25  28
ENDBRANCH   1  25
BRANCH   3  37
ATOM     37  O3' TYD d   1      60.589   0.239 106.549  0.00  0.00    -0.393 OA
ATOM     38  H5  TYD d   1      60.051  -0.455 106.187  0.00  0.00     0.210 HD
ENDBRANCH   3  37
TORSDOF 8
