REMARK  10 active torsions:
REMARK  status: ('A' for Active; 'I' for Inactive)
REMARK    1  A    between atoms: C4_2  and  C13_22 
REMARK    2  A    between atoms: C3_3  and  C24_18 
REMARK    3  A    between atoms: C10_6  and  C6_4 
REMARK    4  A    between atoms: S1_11  and  C20_13 
REMARK    5  A    between atoms: S1_11  and  C7_16 
REMARK    6  A    between atoms: C20_13  and  C21_14 
REMARK    7  A    between atoms: C21_14  and  O3_15 
REMARK    8  A    between atoms: C24_18  and  C25_19 
REMARK    9  A    between atoms: C25_19  and  C26_20 
REMARK   10  A    between atoms: C14_24  and  C18_25 
ROOT
ATOM      1  C5  B8X d   1     -34.290   3.825  -6.310  0.00  0.00    -0.065 A 
ATOM      2  C4  B8X d   1     -35.549   3.324  -6.627  0.00  0.00    -0.046 A 
ATOM      3  C3  B8X d   1     -36.030   3.458  -7.973  0.00  0.00    -0.051 A 
ATOM      4  C6  B8X d   1     -33.472   4.422  -7.306  0.00  0.00    -0.025 A 
ATOM      5  C1  B8X d   1     -33.971   4.557  -8.623  0.00  0.00    -0.072 A 
ATOM      6  C23 B8X d   1     -35.257   4.051  -8.995  0.00  0.00    -0.075 A 
ATOM      7  H1  B8X d   1     -33.929   3.759  -5.290  0.00  0.00     0.085 H 
ATOM      8  H3  B8X d   1     -33.364   5.056  -9.369  0.00  0.00     0.084 H 
ATOM      9  H19 B8X d   1     -35.621   4.120 -10.014  0.00  0.00     0.084 H 
ENDROOT
BRANCH   4  10
ATOM     10  C10 B8X d   1     -32.140   4.909  -6.930  0.00  0.00    -0.026 A 
ATOM     11  C11 B8X d   1     -31.418   5.820  -7.758  0.00  0.00    -0.071 A 
ATOM     12  C12 B8X d   1     -30.129   6.237  -7.339  0.00  0.00    -0.061 A 
ATOM     13  H2  B8X d   1     -31.845   6.185  -8.685  0.00  0.00     0.084 H 
ATOM     14  C7  B8X d   1     -29.630   5.806  -6.139  0.00  0.00     0.059 A 
ATOM     15  H5  B8X d   1     -29.540   6.895  -7.967  0.00  0.00     0.085 H 
ATOM     16  C8  B8X d   1     -30.289   4.878  -5.303  0.00  0.00    -0.061 A 
ATOM     17  C9  B8X d   1     -31.564   4.453  -5.727  0.00  0.00    -0.071 A 
ATOM     18  H4  B8X d   1     -29.839   4.513  -4.387  0.00  0.00     0.085 H 
ATOM     19  H11 B8X d   1     -32.118   3.755  -5.110  0.00  0.00     0.084 H 
BRANCH  14  20
ATOM     20  S1  B8X d   1     -28.023   6.381  -5.596  0.00  0.00     0.177 S 
ATOM     21  O1  B8X d   1     -27.899   6.059  -4.166  0.00  0.00    -0.223 OA
ATOM     22  O2  B8X d   1     -27.946   7.678  -6.258  0.00  0.00    -0.223 OA
BRANCH  20  23
ATOM     23  C20 B8X d   1     -26.656   5.319  -6.248  0.00  0.00     0.052 C 
ATOM     24  H6  B8X d   1     -26.883   4.263  -6.037  0.00  0.00     0.059 H 
ATOM     25  H7  B8X d   1     -25.713   5.596  -5.755  0.00  0.00     0.059 H 
BRANCH  23  26
ATOM     26  C21 B8X d   1     -26.511   5.518  -7.787  0.00  0.00     0.029 C 
ATOM     27  H8  B8X d   1     -25.478   5.310  -8.101  0.00  0.00     0.075 H 
ATOM     28  H9  B8X d   1     -26.778   6.548  -8.064  0.00  0.00     0.075 H 
BRANCH  26  29
ATOM     29  O3  B8X d   1     -27.416   4.586  -8.406  0.00  0.00    -0.400 OA
ATOM     30  H10 B8X d   1     -27.179   3.701  -8.154  0.00  0.00     0.209 HD
ENDBRANCH  26  29
ENDBRANCH  23  26
ENDBRANCH  20  23
ENDBRANCH  14  20
ENDBRANCH   4  10
BRANCH   2  31
ATOM     31  C13 B8X d   1     -36.395   2.691  -5.529  0.00  0.00    -0.018 A 
ATOM     32  C30 B8X d   1     -36.875   1.282  -5.664  0.00  0.00    -0.048 A 
ATOM     33  C14 B8X d   1     -35.854   1.625  -4.577  0.00  0.00    -0.004 A 
ATOM     34  H21 B8X d   1     -36.570   0.680  -6.532  0.00  0.00     0.035 H 
ATOM     35  H22 B8X d   1     -37.908   1.026  -5.385  0.00  0.00     0.035 H 
ATOM     36  H23 B8X d   1     -36.141   1.632  -3.515  0.00  0.00     0.050 H 
ATOM     37  H20 B8X d   1     -37.076   3.457  -5.130  0.00  0.00     0.048 H 
BRANCH  33  38
ATOM     38  C18 B8X d   1     -34.430   1.110  -4.725  0.00  0.00     0.039 A 
ATOM     39  N1  B8X d   1     -34.154   0.553  -5.970  0.00  0.00    -0.265 NA
ATOM     40  C19 B8X d   1     -32.877   0.116  -6.209  0.00  0.00     0.003 A 
ATOM     41  C15 B8X d   1     -31.840   0.196  -5.225  0.00  0.00    -0.066 A 
ATOM     42  H24 B8X d   1     -32.643  -0.306  -7.180  0.00  0.00     0.114 H 
ATOM     43  C16 B8X d   1     -32.118   0.744  -3.935  0.00  0.00    -0.080 A 
ATOM     44  H25 B8X d   1     -30.843  -0.160  -5.459  0.00  0.00     0.085 H 
ATOM     45  C17 B8X d   1     -33.428   1.208  -3.698  0.00  0.00    -0.059 A 
ATOM     46  H26 B8X d   1     -31.353   0.801  -3.170  0.00  0.00     0.083 H 
ATOM     47  H27 B8X d   1     -33.681   1.641  -2.737  0.00  0.00     0.086 H 
ENDBRANCH  33  38
ENDBRANCH   2  31
BRANCH   3  48
ATOM     48  C24 B8X d   1     -37.415   2.894  -8.263  0.00  0.00    -0.041 C 
ATOM     49  H12 B8X d   1     -38.041   3.681  -8.708  0.00  0.00     0.040 H 
ATOM     50  H13 B8X d   1     -37.871   2.551  -7.322  0.00  0.00     0.040 H 
BRANCH  48  51
ATOM     51  C25 B8X d   1     -37.318   1.696  -9.252  0.00  0.00    -0.065 C 
ATOM     52  H14 B8X d   1     -36.690   0.920  -8.791  0.00  0.00     0.032 H 
ATOM     53  H15 B8X d   1     -36.842   2.052 -10.178  0.00  0.00     0.032 H 
BRANCH  51  54
ATOM     54  C26 B8X d   1     -38.663   1.067  -9.618  0.00  0.00    -0.076 C 
ATOM     55  H16 B8X d   1     -38.500   0.233 -10.317  0.00  0.00     0.027 H 
ATOM     56  H17 B8X d   1     -39.304   1.824 -10.093  0.00  0.00     0.027 H 
ATOM     57  H18 B8X d   1     -39.152   0.692  -8.707  0.00  0.00     0.027 H 
ENDBRANCH  51  54
ENDBRANCH  48  51
ENDBRANCH   3  48
TORSDOF 10
