REMARK  8 active torsions:
REMARK  status: ('A' for Active; 'I' for Inactive)
REMARK    1  A    between atoms: C1_1  and  N2_2 
REMARK    2  A    between atoms: C1_1  and  B9_9 
REMARK       I    between atoms: N2_2  and  C3_3 
REMARK    3  A    between atoms: C3_3  and  C5_5 
REMARK    4  A    between atoms: C5_5  and  C6_6 
REMARK    5  A    between atoms: C5_5  and  C8_8 
REMARK    6  A    between atoms: C6_6  and  S7_7 
REMARK    7  A    between atoms: B9_9  and  O10_10 
REMARK    8  A    between atoms: B9_9  and  O11_11 
ROOT
ATOM      1  N2  BHU d   1     -23.591  12.277 104.143  0.00  0.00    -0.367 N 
ATOM      2  C3  BHU d   1     -23.180  11.468 105.279  0.00  0.00     0.221 C 
ATOM      3  O4  BHU d   1     -22.870  10.330 105.134  0.00  0.00    -0.273 OA
ATOM      4  H4  BHU d   1     -23.845  13.234 104.280  0.00  0.00     0.161 HD
ENDROOT
BRANCH   2   5
ATOM      5  C5  BHU d   1     -23.123  12.129 106.652  0.00  0.00     0.028 C 
ATOM      6  H5  BHU d   1     -23.810  12.987 106.681  0.00  0.00     0.055 H 
BRANCH   5   7
ATOM      7  C6  BHU d   1     -23.440  11.184 107.805  0.00  0.00    -0.015 C 
ATOM      8  H6  BHU d   1     -23.305  11.723 108.754  0.00  0.00     0.049 H 
ATOM      9  H7  BHU d   1     -22.747  10.330 107.766  0.00  0.00     0.049 H 
BRANCH   7  10
ATOM     10  S7  BHU d   1     -25.141  10.564 107.719  0.00  0.00    -0.181 SA
ATOM     11  H8  BHU d   1     -25.311   9.945 108.496  0.00  0.00     0.101 HD
ENDBRANCH   7  10
ENDBRANCH   5   7
BRANCH   5  12
ATOM     12  C8  BHU d   1     -21.669  12.577 106.830  0.00  0.00    -0.064 C 
ATOM     13  H9  BHU d   1     -21.395  13.264 106.016  0.00  0.00     0.028 H 
ATOM     14  H10 BHU d   1     -21.009  11.698 106.805  0.00  0.00     0.028 H 
ATOM     15  H11 BHU d   1     -21.559  13.091 107.796  0.00  0.00     0.028 H 
ENDBRANCH   5  12
ENDBRANCH   2   5
BRANCH   1  16
ATOM     16  C1  BHU d   1     -23.634  11.700 102.807  0.00  0.00    -0.004 C 
ATOM     17  H1  BHU d   1     -23.116  12.367 102.103  0.00  0.00     0.051 H 
ATOM     18  H3  BHU d   1     -23.137  10.719 102.815  0.00  0.00     0.051 H 
BRANCH  16  19
ATOM     19  B9  BHU d   1     -25.062  11.153 102.476  0.00  0.00     0.338 B 
BRANCH  19  20
ATOM     20  O10 BHU d   1     -25.132  10.062 101.692  0.00  0.00     0.000 OA
ATOM     21  H12 BHU d   1     -25.229  10.330 100.786  0.00  0.00     0.000 HD
ATOM     22  H13 BHU d   1     -25.229  10.330 100.786  0.00  0.00     0.000 HD
ENDBRANCH  19  20
BRANCH  19  23
ATOM     23  O11 BHU d   1     -26.101  12.006 102.477  0.00  0.00    -0.466 OA
ATOM     24  H14 BHU d   1     -26.884  11.550 102.763  0.00  0.00     0.181 HD
ENDBRANCH  19  23
ENDBRANCH  16  19
ENDBRANCH   1  16
TORSDOF 8
