REMARK WARNING: 32 MAX_TORS EXCEEDED!!!
REMARK  48 active torsions:
REMARK  status: ('A' for Active; 'I' for Inactive)
REMARK    1  A    between atoms: O4_20  and  C1_1 
REMARK    2  A    between atoms: C2_2  and  N2_7 
REMARK    3  A    between atoms: C3_3  and  O3_8 
REMARK    4  A    between atoms: C4_4  and  O4_9 
REMARK    5  A    between atoms: C5_5  and  C6_6 
REMARK    6  A    between atoms: C6_6  and  O6_11 
REMARK    7  A    between atoms: O4_31  and  C1_12 
REMARK    8  A    between atoms: C2_13  and  N2_18 
REMARK    9  A    between atoms: C3_14  and  O3_19 
REMARK   10  A    between atoms: C4_15  and  O4_20 
REMARK   11  A    between atoms: C5_16  and  C6_17 
REMARK   12  A    between atoms: C6_17  and  O6_22 
REMARK   13  A    between atoms: O4_42  and  C1_23 
REMARK   14  A    between atoms: C2_24  and  N2_29 
REMARK   15  A    between atoms: C3_25  and  O3_30 
REMARK   16  A    between atoms: C4_26  and  O4_31 
REMARK   17  A    between atoms: C5_27  and  C6_28 
REMARK   18  A    between atoms: C6_28  and  O6_33 
REMARK   19  A    between atoms: O4_53  and  C1_34 
REMARK   20  A    between atoms: C2_35  and  N2_40 
REMARK   21  A    between atoms: C3_36  and  O3_41 
REMARK   22  A    between atoms: C4_37  and  O4_42 
REMARK   23  A    between atoms: C5_38  and  C6_39 
REMARK   24  A    between atoms: C6_39  and  O6_44 
REMARK   25  A    between atoms: O4_64  and  C1_45 
REMARK   26  A    between atoms: C2_46  and  N2_51 
REMARK   27  A    between atoms: C3_47  and  O3_52 
REMARK   28  A    between atoms: C4_48  and  O4_53 
REMARK   29  A    between atoms: C5_49  and  C6_50 
REMARK   30  A    between atoms: C6_50  and  O6_55 
REMARK   31  A    between atoms: O4_75  and  C1_56 
REMARK   32  A    between atoms: C2_57  and  N2_62 
REMARK   33  A    between atoms: C3_58  and  O3_63 
REMARK   34  A    between atoms: C4_59  and  O4_64 
REMARK   35  A    between atoms: C5_60  and  C6_61 
REMARK   36  A    between atoms: C6_61  and  O6_66 
REMARK   37  A    between atoms: O4_87  and  C1_67 
REMARK   38  A    between atoms: C2_68  and  N2_73 
REMARK   39  A    between atoms: C3_69  and  O3_74 
REMARK   40  A    between atoms: C4_70  and  O4_75 
REMARK   41  A    between atoms: C5_71  and  C6_72 
REMARK   42  A    between atoms: C6_72  and  O6_77 
REMARK   43  A    between atoms: C1_78  and  O1_85 
REMARK   44  A    between atoms: C2_79  and  N2_84 
REMARK   45  A    between atoms: C3_80  and  O3_86 
REMARK   46  A    between atoms: C4_81  and  O4_87 
REMARK   47  A    between atoms: C5_82  and  C6_83 
REMARK   48  A    between atoms: C6_83  and  O6_89 
ROOT
ATOM      1  O4  GCS d   1     -13.047  12.254   3.470  0.00  0.00    -0.348 OA
ENDROOT
BRANCH   1   2
ATOM      2  C1  GCS d   1     -12.118  11.227   3.103  0.00  0.00     0.162 C 
ATOM      3  C2  GCS d   1     -12.451  10.586   1.766  0.00  0.00     0.173 C 
ATOM      4  C3  GCS d   1     -11.421   9.562   1.416  0.00  0.00     0.095 C 
ATOM      5  H39 GCS d   1     -12.496  11.356   0.982  0.00  0.00     0.096 H 
ATOM      6  C4  GCS d   1     -10.008  10.077   1.433  0.00  0.00     0.095 C 
ATOM      7  H40 GCS d   1     -11.488   8.759   2.164  0.00  0.00     0.090 H 
ATOM      8  C5  GCS d   1      -9.725  10.823   2.737  0.00  0.00     0.089 C 
ATOM      9  H41 GCS d   1      -9.831  10.722   0.559  0.00  0.00     0.091 H 
ATOM     10  O5  GCS d   1     -10.753  11.819   3.060  0.00  0.00    -0.349 OA
ATOM     11  H42 GCS d   1      -9.690  10.082   3.549  0.00  0.00     0.090 H 
ATOM     12  H38 GCS d   1     -12.143  10.443   3.874  0.00  0.00     0.132 H 
BRANCH   3  13
ATOM     13  N2  GCS d   1     -13.772   9.895   1.893  0.00  0.00    -0.068 N 
ATOM     14  H45 GCS d   1     -14.483  10.570   2.129  0.00  0.00     0.275 HD
ATOM     15  H46 GCS d   1     -13.717   9.197   2.618  0.00  0.00     0.275 HD
ATOM     16  H47 GCS d   1     -14.006   9.454   1.018  0.00  0.00     0.275 HD
ENDBRANCH   3  13
BRANCH   4  17
ATOM     17  O3  GCS d   1     -11.716   8.995   0.107  0.00  0.00    -0.391 OA
ATOM     18  H48 GCS d   1     -11.615   9.666  -0.558  0.00  0.00     0.210 HD
ENDBRANCH   4  17
BRANCH   6  19
ATOM     19  O4  GCS d   1      -9.096   8.978   1.463  0.00  0.00    -0.348 OA
BRANCH  19  20
ATOM     20  C1  GCS d   1      -8.247   8.905   0.312  0.00  0.00     0.162 C 
ATOM     21  C2  GCS d   1      -7.081   7.956   0.561  0.00  0.00     0.173 C 
ATOM     22  C3  GCS d   1      -6.204   7.850  -0.641  0.00  0.00     0.095 C 
ATOM     23  H27 GCS d   1      -7.489   6.959   0.784  0.00  0.00     0.096 H 
ATOM     24  C4  GCS d   1      -6.963   7.525  -1.897  0.00  0.00     0.095 C 
ATOM     25  H28 GCS d   1      -5.689   8.812  -0.784  0.00  0.00     0.090 H 
ATOM     26  C5  GCS d   1      -8.174   8.438  -2.076  0.00  0.00     0.089 C 
ATOM     27  H29 GCS d   1      -7.289   6.475  -1.864  0.00  0.00     0.091 H 
ATOM     28  O5  GCS d   1      -9.009   8.453  -0.877  0.00  0.00    -0.349 OA
ATOM     29  H30 GCS d   1      -7.822   9.456  -2.299  0.00  0.00     0.090 H 
ATOM     30  H26 GCS d   1      -7.846   9.910   0.112  0.00  0.00     0.132 H 
BRANCH  21  31
ATOM     31  N2  GCS d   1      -6.271   8.417   1.739  0.00  0.00    -0.068 N 
ATOM     32  H33 GCS d   1      -6.867   8.488   2.549  0.00  0.00     0.275 HD
ATOM     33  H34 GCS d   1      -5.869   9.319   1.538  0.00  0.00     0.275 HD
ATOM     34  H35 GCS d   1      -5.534   7.754   1.920  0.00  0.00     0.275 HD
ENDBRANCH  21  31
BRANCH  22  35
ATOM     35  O3  GCS d   1      -5.219   6.806  -0.406  0.00  0.00    -0.391 OA
ATOM     36  H36 GCS d   1      -4.621   6.765  -1.143  0.00  0.00     0.210 HD
ENDBRANCH  22  35
BRANCH  24  37
ATOM     37  O4  GCS d   1      -6.115   7.747  -3.026  0.00  0.00    -0.348 OA
BRANCH  37  38
ATOM     38  C1  GCS d   1      -5.840   6.465  -3.622  0.00  0.00     0.162 C 
ATOM     39  C2  GCS d   1      -5.586   6.650  -5.122  0.00  0.00     0.173 C 
ATOM     40  C3  GCS d   1      -4.506   5.837  -5.772  0.00  0.00     0.095 C 
ATOM     41  H15 GCS d   1      -5.338   7.709  -5.284  0.00  0.00     0.096 H 
ATOM     42  C4  GCS d   1      -3.659   4.954  -4.892  0.00  0.00     0.095 C 
ATOM     43  H16 GCS d   1      -5.003   5.173  -6.495  0.00  0.00     0.090 H 
ATOM     44  C5  GCS d   1      -4.383   4.574  -3.602  0.00  0.00     0.089 C 
ATOM     45  H17 GCS d   1      -2.727   5.482  -4.642  0.00  0.00     0.091 H 
ATOM     46  O5  GCS d   1      -4.710   5.808  -2.894  0.00  0.00    -0.349 OA
ATOM     47  H18 GCS d   1      -5.306   4.030  -3.849  0.00  0.00     0.090 H 
ATOM     48  H14 GCS d   1      -6.728   5.826  -3.508  0.00  0.00     0.132 H 
BRANCH  39  49
ATOM     49  N2  GCS d   1      -6.873   6.321  -5.822  0.00  0.00    -0.068 N 
ATOM     50  H21 GCS d   1      -7.625   6.851  -5.410  0.00  0.00     0.275 HD
ATOM     51  H22 GCS d   1      -7.065   5.336  -5.727  0.00  0.00     0.275 HD
ATOM     52  H23 GCS d   1      -6.793   6.555  -6.799  0.00  0.00     0.275 HD
ENDBRANCH  39  49
BRANCH  40  53
ATOM     53  O3  GCS d   1      -3.633   6.749  -6.504  0.00  0.00    -0.391 OA
ATOM     54  H24 GCS d   1      -3.029   6.247  -7.038  0.00  0.00     0.210 HD
ENDBRANCH  40  53
BRANCH  42  55
ATOM     55  O4  GCS d   1      -3.360   3.751  -5.608  0.00  0.00    -0.348 OA
BRANCH  55  56
ATOM     56  C1  GCS d   1      -1.979   3.717  -6.015  0.00  0.00     0.162 C 
ATOM     57  C2  GCS d   1      -1.675   2.319  -6.539  0.00  0.00     0.173 C 
ATOM     58  C3  GCS d   1      -0.307   2.202  -7.103  0.00  0.00     0.094 C 
ATOM     59  H2  GCS d   1      -2.400   2.076  -7.330  0.00  0.00     0.096 H 
ATOM     60  C4  GCS d   1      -0.039   3.240  -8.156  0.00  0.00     0.089 C 
ATOM     61  H3  GCS d   1       0.424   2.325  -6.291  0.00  0.00     0.090 H 
ATOM     62  C5  GCS d   1      -0.372   4.666  -7.697  0.00  0.00     0.089 C 
ATOM     63  H4  GCS d   1      -0.650   3.005  -9.040  0.00  0.00     0.091 H 
ATOM     64  O5  GCS d   1      -1.672   4.792  -7.018  0.00  0.00    -0.349 OA
ATOM     65  H5  GCS d   1       0.422   5.010  -7.018  0.00  0.00     0.090 H 
ATOM     66  H1  GCS d   1      -1.350   3.898  -5.131  0.00  0.00     0.132 H 
BRANCH  57  67
ATOM     67  N2  GCS d   1      -1.824   1.343  -5.413  0.00  0.00    -0.068 N 
ATOM     68  H8  GCS d   1      -2.751   1.417  -5.025  0.00  0.00     0.275 HD
ATOM     69  H9  GCS d   1      -1.143   1.548  -4.698  0.00  0.00     0.275 HD
ATOM     70  H10 GCS d   1      -1.678   0.407  -5.758  0.00  0.00     0.275 HD
ENDBRANCH  57  67
BRANCH  58  71
ATOM     71  O3  GCS d   1      -0.161   0.877  -7.693  0.00  0.00    -0.391 OA
ATOM     72  H11 GCS d   1       0.723   0.775  -8.026  0.00  0.00     0.210 HD
ENDBRANCH  58  71
BRANCH  60  73
ATOM     73  O4  GCS d   1       1.347   3.192  -8.508  0.00  0.00    -0.390 OA
ATOM     74  H12 GCS d   1       1.569   2.314  -8.795  0.00  0.00     0.210 HD
ENDBRANCH  60  73
BRANCH  62  75
ATOM     75  C6  GCS d   1      -0.442   5.555  -8.903  0.00  0.00     0.043 C 
ATOM     76  H6  GCS d   1      -0.231   4.968  -9.809  0.00  0.00     0.078 H 
ATOM     77  H7  GCS d   1       0.297   6.365  -8.810  0.00  0.00     0.078 H 
BRANCH  75  78
ATOM     78  O6  GCS d   1      -1.735   6.100  -8.982  0.00  0.00    -0.398 OA
ATOM     79  H13 GCS d   1      -1.914   6.604  -8.197  0.00  0.00     0.209 HD
ENDBRANCH  75  78
ENDBRANCH  62  75
ENDBRANCH  55  56
ENDBRANCH  42  55
BRANCH  44  80
ATOM     80  C6  GCS d   1      -3.528   3.713  -2.722  0.00  0.00     0.043 C 
ATOM     81  H19 GCS d   1      -3.024   2.951  -3.334  0.00  0.00     0.078 H 
ATOM     82  H20 GCS d   1      -4.159   3.219  -1.968  0.00  0.00     0.078 H 
BRANCH  80  83
ATOM     83  O6  GCS d   1      -2.566   4.506  -2.078  0.00  0.00    -0.398 OA
ATOM     84  H25 GCS d   1      -3.002   5.164  -1.549  0.00  0.00     0.209 HD
ENDBRANCH  80  83
ENDBRANCH  44  80
ENDBRANCH  37  38
ENDBRANCH  24  37
BRANCH  26  85
ATOM     85  C6  GCS d   1      -9.050   7.948  -3.182  0.00  0.00     0.043 C 
ATOM     86  H31 GCS d   1      -9.287   6.884  -3.032  0.00  0.00     0.078 H 
ATOM     87  H32 GCS d   1      -8.543   8.078  -4.149  0.00  0.00     0.078 H 
BRANCH  85  88
ATOM     88  O6  GCS d   1     -10.228   8.711  -3.151  0.00  0.00    -0.398 OA
ATOM     89  H37 GCS d   1     -10.014   9.628  -3.276  0.00  0.00     0.209 HD
ENDBRANCH  85  88
ENDBRANCH  26  85
ENDBRANCH  19  20
ENDBRANCH   6  19
BRANCH   8  90
ATOM     90  C6  GCS d   1      -8.405  11.534   2.671  0.00  0.00     0.043 C 
ATOM     91  H43 GCS d   1      -8.374  12.187   1.787  0.00  0.00     0.078 H 
ATOM     92  H44 GCS d   1      -7.586  10.802   2.615  0.00  0.00     0.078 H 
BRANCH  90  93
ATOM     93  O6  GCS d   1      -8.280  12.304   3.841  0.00  0.00    -0.398 OA
ATOM     94  H49 GCS d   1      -8.993  12.930   3.884  0.00  0.00     0.209 HD
ENDBRANCH  90  93
ENDBRANCH   8  90
ENDBRANCH   1   2
BRANCH   1  95
ATOM     95  C4  GCS d   1     -13.023  12.458   4.891  0.00  0.00     0.095 C 
ATOM     96  C3  GCS d   1     -12.177  13.646   5.278  0.00  0.00     0.095 C 
ATOM     97  C2  GCS d   1     -12.308  14.017   6.715  0.00  0.00     0.173 C 
ATOM     98  H52 GCS d   1     -12.513  14.499   4.670  0.00  0.00     0.090 H 
ATOM     99  C1  GCS d   1     -13.760  14.217   7.116  0.00  0.00     0.162 C 
ATOM    100  H51 GCS d   1     -11.882  13.206   7.324  0.00  0.00     0.096 H 
ATOM    101  O5  GCS d   1     -14.571  13.037   6.716  0.00  0.00    -0.349 OA
ATOM    102  H50 GCS d   1     -14.155  15.099   6.591  0.00  0.00     0.132 H 
ATOM    103  C5  GCS d   1     -14.473  12.743   5.291  0.00  0.00     0.089 C 
ATOM    104  H54 GCS d   1     -14.833  13.606   4.711  0.00  0.00     0.090 H 
ATOM    105  H53 GCS d   1     -12.647  11.557   5.397  0.00  0.00     0.091 H 
BRANCH  96 106
ATOM    106  O3  GCS d   1     -10.763  13.424   5.018  0.00  0.00    -0.391 OA
ATOM    107  H60 GCS d   1     -10.635  13.260   4.091  0.00  0.00     0.210 HD
ENDBRANCH  96 106
BRANCH  97 108
ATOM    108  N2  GCS d   1     -11.555  15.283   6.991  0.00  0.00    -0.068 N 
ATOM    109  H57 GCS d   1     -11.650  15.525   7.965  0.00  0.00     0.275 HD
ATOM    110  H58 GCS d   1     -11.928  16.027   6.422  0.00  0.00     0.275 HD
ATOM    111  H59 GCS d   1     -10.580  15.149   6.772  0.00  0.00     0.275 HD
ENDBRANCH  97 108
BRANCH  99 112
ATOM    112  O4  GCS d   1     -13.824  14.463   8.526  0.00  0.00    -0.348 OA
BRANCH 112 113
ATOM    113  C4  GCS d   1     -15.037  15.101   8.936  0.00  0.00     0.095 C 
ATOM    114  C3  GCS d   1     -16.086  14.096   9.329  0.00  0.00     0.095 C 
ATOM    115  C2  GCS d   1     -17.203  14.711  10.109  0.00  0.00     0.173 C 
ATOM    116  H64 GCS d   1     -15.614  13.302   9.927  0.00  0.00     0.090 H 
ATOM    117  C1  GCS d   1     -16.682  15.384  11.365  0.00  0.00     0.162 C 
ATOM    118  H63 GCS d   1     -17.686  15.472   9.478  0.00  0.00     0.096 H 
ATOM    119  O5  GCS d   1     -15.704  16.438  10.972  0.00  0.00    -0.349 OA
ATOM    120  H62 GCS d   1     -16.157  14.634  11.975  0.00  0.00     0.132 H 
ATOM    121  C5  GCS d   1     -14.602  15.968  10.123  0.00  0.00     0.089 C 
ATOM    122  H66 GCS d   1     -13.908  15.380  10.741  0.00  0.00     0.090 H 
ATOM    123  H65 GCS d   1     -15.434  15.730   8.126  0.00  0.00     0.091 H 
BRANCH 114 124
ATOM    124  O3  GCS d   1     -16.685  13.530   8.126  0.00  0.00    -0.391 OA
ATOM    125  H72 GCS d   1     -16.012  13.103   7.609  0.00  0.00     0.210 HD
ENDBRANCH 114 124
BRANCH 115 126
ATOM    126  N2  GCS d   1     -18.226  13.682  10.484  0.00  0.00    -0.068 N 
ATOM    127  H69 GCS d   1     -18.967  14.120  11.008  0.00  0.00     0.275 HD
ATOM    128  H70 GCS d   1     -17.793  12.968  11.048  0.00  0.00     0.275 HD
ATOM    129  H71 GCS d   1     -18.606  13.266   9.648  0.00  0.00     0.275 HD
ENDBRANCH 115 126
BRANCH 117 130
ATOM    130  O4  GCS d   1     -17.772  15.910  12.148  0.00  0.00    -0.348 OA
BRANCH 130 131
ATOM    131  C4  GCS d   1     -17.458  16.090  13.547  0.00  0.00     0.095 C 
ATOM    132  C3  GCS d   1     -17.397  17.554  13.834  0.00  0.00     0.095 C 
ATOM    133  C2  GCS d   1     -17.058  17.780  15.258  0.00  0.00     0.173 C 
ATOM    134  H76 GCS d   1     -18.382  17.997  13.627  0.00  0.00     0.090 H 
ATOM    135  C1  GCS d   1     -18.190  17.303  16.164  0.00  0.00     0.162 C 
ATOM    136  H75 GCS d   1     -16.165  17.189  15.507  0.00  0.00     0.096 H 
ATOM    137  O5  GCS d   1     -18.364  15.810  15.894  0.00  0.00    -0.349 OA
ATOM    138  H74 GCS d   1     -19.119  17.807  15.859  0.00  0.00     0.132 H 
ATOM    139  C5  GCS d   1     -18.546  15.497  14.454  0.00  0.00     0.089 C 
ATOM    140  H78 GCS d   1     -19.508  15.928  14.140  0.00  0.00     0.090 H 
ATOM    141  H77 GCS d   1     -16.491  15.616  13.769  0.00  0.00     0.091 H 
BRANCH 132 142
ATOM    142  O3  GCS d   1     -16.404  18.196  12.984  0.00  0.00    -0.391 OA
ATOM    143  H84 GCS d   1     -16.639  18.068  12.072  0.00  0.00     0.210 HD
ENDBRANCH 132 142
BRANCH 133 144
ATOM    144  N2  GCS d   1     -16.716  19.225  15.419  0.00  0.00    -0.068 N 
ATOM    145  H81 GCS d   1     -16.480  19.409  16.381  0.00  0.00     0.275 HD
ATOM    146  H82 GCS d   1     -17.508  19.789  15.153  0.00  0.00     0.275 HD
ATOM    147  H83 GCS d   1     -15.929  19.452  14.831  0.00  0.00     0.275 HD
ENDBRANCH 133 144
BRANCH 135 148
ATOM    148  O4  GCS d   1     -17.947  17.675  17.556  0.00  0.00    -0.348 OA
BRANCH 148 149
ATOM    149  C4  GCS d   1     -18.866  18.609  18.201  0.00  0.00     0.095 C 
ATOM    150  C3  GCS d   1     -19.180  18.047  19.578  0.00  0.00     0.095 C 
ATOM    151  C2  GCS d   1     -19.642  19.003  20.636  0.00  0.00     0.173 C 
ATOM    152  H88 GCS d   1     -18.264  17.562  19.946  0.00  0.00     0.090 H 
ATOM    153  C1  GCS d   1     -18.844  20.287  20.685  0.00  0.00     0.158 C 
ATOM    154  H87 GCS d   1     -20.694  19.248  20.429  0.00  0.00     0.096 H 
ATOM    155  O5  GCS d   1     -18.831  20.910  19.332  0.00  0.00    -0.349 OA
ATOM    156  H86 GCS d   1     -17.815  20.077  21.011  0.00  0.00     0.132 H 
ATOM    157  C5  GCS d   1     -18.256  20.032  18.299  0.00  0.00     0.089 C 
ATOM    158  H90 GCS d   1     -17.174  19.913  18.458  0.00  0.00     0.090 H 
ATOM    159  H89 GCS d   1     -19.794  18.669  17.613  0.00  0.00     0.091 H 
BRANCH 150 160
ATOM    160  O3  GCS d   1     -20.231  17.055  19.441  0.00  0.00    -0.391 OA
ATOM    161  H97 GCS d   1     -21.005  17.464  19.073  0.00  0.00     0.210 HD
ENDBRANCH 150 160
BRANCH 151 162
ATOM    162  N2  GCS d   1     -19.536  18.395  22.004  0.00  0.00    -0.068 N 
ATOM    163  H93 GCS d   1     -19.853  19.060  22.692  0.00  0.00     0.275 HD
ATOM    164  H94 GCS d   1     -18.576  18.151  22.190  0.00  0.00     0.275 HD
ATOM    165  H95 GCS d   1     -20.108  17.566  22.049  0.00  0.00     0.275 HD
ENDBRANCH 151 162
BRANCH 153 166
ATOM    166  O1  GCS d   1     -19.445  21.143  21.559  0.00  0.00    -0.369 OA
ATOM    167  H96 GCS d   1     -20.335  21.312  21.274  0.00  0.00     0.212 HD
ENDBRANCH 153 166
BRANCH 157 168
ATOM    168  C6  GCS d   1     -18.522  20.893  17.111  0.00  0.00     0.043 C 
ATOM    169  H91 GCS d   1     -19.573  20.804  16.798  0.00  0.00     0.078 H 
ATOM    170  H92 GCS d   1     -17.865  20.611  16.275  0.00  0.00     0.078 H 
BRANCH 168 171
ATOM    171  O6  GCS d   1     -18.243  22.209  17.537  0.00  0.00    -0.398 OA
ATOM    172  H98 GCS d   1     -18.811  22.432  18.265  0.00  0.00     0.209 HD
ENDBRANCH 168 171
ENDBRANCH 157 168
ENDBRANCH 148 149
ENDBRANCH 135 148
BRANCH 139 173
ATOM    173  C6  GCS d   1     -18.613  14.008  14.270  0.00  0.00     0.043 C 
ATOM    174  H79 GCS d   1     -18.743  13.774  13.203  0.00  0.00     0.078 H 
ATOM    175  H80 GCS d   1     -19.463  13.604  14.840  0.00  0.00     0.078 H 
BRANCH 173 176
ATOM    176  O6  GCS d   1     -17.421  13.436  14.735  0.00  0.00    -0.398 OA
ATOM    177  H85 GCS d   1     -17.311  13.641  15.656  0.00  0.00     0.209 HD
ENDBRANCH 173 176
ENDBRANCH 139 173
ENDBRANCH 130 131
ENDBRANCH 117 130
BRANCH 121 178
ATOM    178  C6  GCS d   1     -13.908  17.191   9.607  0.00  0.00     0.043 C 
ATOM    179  H67 GCS d   1     -14.647  17.915   9.232  0.00  0.00     0.078 H 
ATOM    180  H68 GCS d   1     -13.217  16.919   8.796  0.00  0.00     0.078 H 
BRANCH 178 181
ATOM    181  O6  GCS d   1     -13.199  17.740  10.678  0.00  0.00    -0.398 OA
ATOM    182  H73 GCS d   1     -12.744  18.521  10.387  0.00  0.00     0.209 HD
ENDBRANCH 178 181
ENDBRANCH 121 178
ENDBRANCH 112 113
ENDBRANCH  99 112
BRANCH 103 183
ATOM    183  C6  GCS d   1     -15.361  11.569   5.036  0.00  0.00     0.043 C 
ATOM    184  H55 GCS d   1     -14.902  10.657   5.444  0.00  0.00     0.078 H 
ATOM    185  H56 GCS d   1     -15.519  11.447   3.954  0.00  0.00     0.078 H 
BRANCH 183 186
ATOM    186  O6  GCS d   1     -16.591  11.813   5.675  0.00  0.00    -0.398 OA
ATOM    187  H61 GCS d   1     -16.446  11.921   6.608  0.00  0.00     0.209 HD
ENDBRANCH 183 186
ENDBRANCH 103 183
ENDBRANCH   1  95
TORSDOF 48
