REMARK  2 active torsions:
REMARK  status: ('A' for Active; 'I' for Inactive)
REMARK    1  A    between atoms: C1_14  and  C16_1 
REMARK    2  A    between atoms: C9_10  and  C13_7 
REMARK       I    between atoms: N1_21  and  C9_10 
ROOT
ATOM      1  C18 BQF d   1     -61.789  28.247 -29.053  0.00  0.00     0.005 A 
ATOM      2  C20 BQF d   1     -62.886  28.266 -31.198  0.00  0.00    -0.082 A 
ATOM      3  C21 BQF d   1     -61.640  28.150 -31.841  0.00  0.00    -0.080 A 
ATOM      4  C22 BQF d   1     -60.457  28.055 -31.110  0.00  0.00    -0.049 A 
ATOM      5  C9  BQF d   1     -61.628  29.860 -24.019  0.00  0.00     0.254 C 
ATOM      6  C3  BQF d   1     -61.780  28.306 -27.589  0.00  0.00    -0.030 A 
ATOM      7  C4  BQF d   1     -63.133  28.416 -26.877  0.00  0.00    -0.024 C 
ATOM      8  C2  BQF d   1     -60.592  28.214 -26.931  0.00  0.00     0.043 A 
ATOM      9  C6  BQF d   1     -60.462  28.286 -25.454  0.00  0.00     0.028 C 
ATOM     10  C5  BQF d   1     -62.977  28.178 -25.375  0.00  0.00     0.002 C 
ATOM     11  O2  BQF d   1     -60.519  30.277 -23.632  0.00  0.00    -0.267 OA
ATOM     12  N1  BQF d   1     -61.739  28.843 -24.912  0.00  0.00    -0.343 N 
ATOM     13  C7  BQF d   1     -59.327  28.062 -27.636  0.00  0.00     0.296 A 
ATOM     14  O1  BQF d   1     -58.275  27.986 -27.031  0.00  0.00    -0.259 OA
ATOM     15  O5  BQF d   1     -59.377  28.021 -29.011  0.00  0.00    -0.274 OA
ATOM     16  C17 BQF d   1     -60.548  28.119 -29.715  0.00  0.00     0.090 A 
ATOM     17  C19 BQF d   1     -62.990  28.333 -29.787  0.00  0.00    -0.070 A 
ATOM     18  H1  BQF d   1     -63.788  28.305 -31.797  0.00  0.00     0.083 H 
ATOM     19  H2  BQF d   1     -61.599  28.134 -32.924  0.00  0.00     0.083 H 
ATOM     20  H3  BQF d   1     -59.500  27.936 -31.605  0.00  0.00     0.087 H 
ATOM     21  H7  BQF d   1     -63.821  27.664 -27.292  0.00  0.00     0.042 H 
ATOM     22  H8  BQF d   1     -63.546  29.422 -27.042  0.00  0.00     0.042 H 
ATOM     23  H9  BQF d   1     -59.622  28.943 -25.183  0.00  0.00     0.072 H 
ATOM     24  H10 BQF d   1     -60.288  27.280 -25.044  0.00  0.00     0.072 H 
ATOM     25  H11 BQF d   1     -62.913  27.098 -25.177  0.00  0.00     0.064 H 
ATOM     26  H12 BQF d   1     -63.843  28.598 -24.842  0.00  0.00     0.064 H 
ATOM     27  H14 BQF d   1     -63.949  28.445 -29.294  0.00  0.00     0.085 H 
ENDROOT
BRANCH   5  28
ATOM     28  C13 BQF d   1     -62.875  30.397 -23.461  0.00  0.00     0.032 A 
ATOM     29  C12 BQF d   1     -63.017  30.604 -22.065  0.00  0.00    -0.067 A 
ATOM     30  C11 BQF d   1     -64.250  31.081 -21.581  0.00  0.00    -0.066 A 
ATOM     31  H5  BQF d   1     -62.196  30.400 -21.387  0.00  0.00     0.085 H 
ATOM     32  C1  BQF d   1     -65.316  31.391 -22.462  0.00  0.00     0.040 A 
ATOM     33  H6  BQF d   1     -64.387  31.214 -20.514  0.00  0.00     0.085 H 
ATOM     34  C15 BQF d   1     -65.190  31.155 -23.860  0.00  0.00    -0.066 A 
ATOM     35  C14 BQF d   1     -63.938  30.674 -24.336  0.00  0.00    -0.067 A 
ATOM     36  H4  BQF d   1     -66.017  31.335 -24.537  0.00  0.00     0.085 H 
ATOM     37  H13 BQF d   1     -63.801  30.518 -25.400  0.00  0.00     0.085 H 
BRANCH  32  38
ATOM     38  C16 BQF d   1     -66.582  31.875 -21.877  0.00  0.00     0.209 C 
ATOM     39  O4  BQF d   1     -67.643  31.737 -22.520  0.00  0.00    -0.644 OA
ATOM     40  O3  BQF d   1     -66.534  32.319 -20.720  0.00  0.00    -0.644 OA
ENDBRANCH  32  38
ENDBRANCH   5  28
TORSDOF 2
