REMARK  2 active torsions:
REMARK  status: ('A' for Active; 'I' for Inactive)
REMARK    1  A    between atoms: C9_14  and  C13_12 
REMARK       I    between atoms: N1_15  and  C9_14 
REMARK    2  A    between atoms: C1_22  and  C21_25 
ROOT
ATOM      1  O1  BQC d   1     -58.719  27.843 -27.612  0.00  0.00    -0.265 OA
ATOM      2  O2  BQC d   1     -60.610  29.857 -23.705  0.00  0.00    -0.267 OA
ATOM      3  C9  BQC d   1     -61.778  29.596 -24.107  0.00  0.00     0.254 C 
ATOM      4  N1  BQC d   1     -61.994  28.666 -25.096  0.00  0.00    -0.343 N 
ATOM      5  C5  BQC d   1     -63.269  28.042 -25.551  0.00  0.00     0.003 C 
ATOM      6  C4  BQC d   1     -63.534  28.365 -27.024  0.00  0.00    -0.011 C 
ATOM      7  C6  BQC d   1     -60.783  28.266 -25.830  0.00  0.00     0.029 C 
ATOM      8  C2  BQC d   1     -61.045  28.101 -27.302  0.00  0.00     0.052 A 
ATOM      9  C7  BQC d   1     -59.852  27.871 -28.136  0.00  0.00     0.278 A 
ATOM     10  N2  BQC d   1     -60.093  27.734 -29.515  0.00  0.00    -0.191 NA
ATOM     11  C1  BQC d   1     -61.329  27.774 -29.979  0.00  0.00     0.142 A 
ATOM     12  N3  BQC d   1     -62.484  27.963 -29.206  0.00  0.00    -0.343 N 
ATOM     13  C3  BQC d   1     -62.293  28.145 -27.850  0.00  0.00     0.026 A 
ATOM     14  H7  BQC d   1     -64.099  28.430 -24.941  0.00  0.00     0.065 H 
ATOM     15  H8  BQC d   1     -63.202  26.951 -25.427  0.00  0.00     0.065 H 
ATOM     16  H9  BQC d   1     -63.845  29.416 -27.113  0.00  0.00     0.044 H 
ATOM     17  H10 BQC d   1     -64.337  27.712 -27.398  0.00  0.00     0.044 H 
ATOM     18  H11 BQC d   1     -60.421  27.310 -25.424  0.00  0.00     0.072 H 
ATOM     19  H12 BQC d   1     -60.012  29.038 -25.691  0.00  0.00     0.072 H 
ATOM     20  H13 BQC d   1     -63.424  27.966 -29.627  0.00  0.00     0.167 HD
ENDROOT
BRANCH   3  21
ATOM     21  C13 BQC d   1     -62.935  30.359 -23.526  0.00  0.00     0.032 A 
ATOM     22  C14 BQC d   1     -64.024  30.792 -24.331  0.00  0.00    -0.058 A 
ATOM     23  C16 BQC d   1     -65.148  31.408 -23.698  0.00  0.00    -0.014 A 
ATOM     24  H5  BQC d   1     -64.002  30.657 -25.406  0.00  0.00     0.086 H 
ATOM     25  C15 BQC d   1     -65.184  31.619 -22.305  0.00  0.00     0.049 A 
ATOM     26  C17 BQC d   1     -66.380  31.911 -24.424  0.00  0.00     0.072 A 
ATOM     27  N4  BQC d   1     -66.337  32.233 -21.880  0.00  0.00    -0.284 N 
ATOM     28  C11 BQC d   1     -64.119  31.197 -21.505  0.00  0.00    -0.055 A 
ATOM     29  S1  BQC d   1     -67.478  32.540 -23.089  0.00  0.00     0.235 S 
ATOM     30  H1  BQC d   1     -66.490  32.481 -20.923  0.00  0.00     0.178 HD
ATOM     31  O3  BQC d   1     -68.595  31.566 -22.951  0.00  0.00    -0.205 OA
ATOM     32  O4  BQC d   1     -67.712  33.987 -23.138  0.00  0.00    -0.205 OA
ATOM     33  C12 BQC d   1     -62.997  30.601 -22.123  0.00  0.00    -0.066 A 
ATOM     34  H2  BQC d   1     -64.153  31.325 -20.429  0.00  0.00     0.087 H 
ATOM     35  H6  BQC d   1     -62.151  30.317 -21.507  0.00  0.00     0.085 H 
ATOM     36  H3  BQC d   1     -66.117  32.718 -25.123  0.00  0.00     0.066 H 
ATOM     37  H4  BQC d   1     -66.867  31.093 -24.975  0.00  0.00     0.066 H 
ENDBRANCH   3  21
BRANCH  11  38
ATOM     38  C21 BQC d   1     -61.566  27.530 -31.420  0.00  0.00     0.010 A 
ATOM     39  C20 BQC d   1     -62.591  26.548 -31.678  0.00  0.00    -0.069 A 
ATOM     40  C19 BQC d   1     -62.932  26.167 -32.985  0.00  0.00    -0.082 A 
ATOM     41  H14 BQC d   1     -63.110  26.093 -30.842  0.00  0.00     0.085 H 
ATOM     42  C18 BQC d   1     -62.199  26.800 -34.024  0.00  0.00    -0.083 A 
ATOM     43  H15 BQC d   1     -63.706  25.436 -33.189  0.00  0.00     0.083 H 
ATOM     44  C23 BQC d   1     -61.172  27.769 -33.774  0.00  0.00    -0.082 A 
ATOM     45  H18 BQC d   1     -62.426  26.539 -35.051  0.00  0.00     0.083 H 
ATOM     46  C22 BQC d   1     -60.814  28.135 -32.456  0.00  0.00    -0.069 A 
ATOM     47  H17 BQC d   1     -60.660  28.230 -34.611  0.00  0.00     0.083 H 
ATOM     48  H16 BQC d   1     -60.013  28.836 -32.251  0.00  0.00     0.085 H 
ENDBRANCH  11  38
TORSDOF 2
