REMARK  24 active torsions:
REMARK  status: ('A' for Active; 'I' for Inactive)
REMARK    1  A    between atoms: C5_2  and  C6_3 
REMARK    2  A    between atoms: C41_7  and  C3_6 
REMARK       I    between atoms: N_9  and  C41_7 
REMARK    3  A    between atoms: CA_10  and  N_9 
REMARK    4  A    between atoms: C_11  and  CA_10 
REMARK    5  A    between atoms: CA_10  and  CB_13 
REMARK       I    between atoms: N_14  and  C_11 
REMARK    6  A    between atoms: CA_15  and  N_14 
REMARK    7  A    between atoms: C_16  and  CA_15 
REMARK    8  A    between atoms: CA_15  and  CB_18 
REMARK       I    between atoms: N_21  and  C_16 
REMARK    9  A    between atoms: CB_18  and  CG1_19 
REMARK   10  A    between atoms: CB_18  and  CG2_20 
REMARK   11  A    between atoms: CA_22  and  N_21 
REMARK   12  A    between atoms: C_23  and  CA_22 
REMARK   13  A    between atoms: CA_22  and  CB_25 
REMARK       I    between atoms: N5_40  and  C_23 
REMARK   14  A    between atoms: CB_25  and  CG_26 
REMARK   15  A    between atoms: CG_26  and  CD1_27 
REMARK   16  A    between atoms: CG_26  and  CD2_28 
REMARK   17  A    between atoms: C20_30  and  C19_29 
REMARK   18  A    between atoms: C19_29  and  C25_33 
REMARK   19  A    between atoms: C19_29  and  N5_40 
REMARK   20  A    between atoms: C22_32  and  C21_31 
REMARK   21  A    between atoms: O_43  and  C22_32 
REMARK   22  A    between atoms: C25_33  and  C26_34 
REMARK   23  A    between atoms: C_42  and  O_43 
REMARK   24  A    between atoms: C6_49  and  C_42 
ROOT
ATOM      1  CA  MOL d   1      39.435  14.790  15.423  0.00  0.00     0.089 C 
ATOM      2  H20 MOL d   1      39.126  15.246  14.470  0.00  0.00     0.087 H 
ENDROOT
BRANCH   1   3
ATOM      3  N   MOL d   1      40.151  15.737  16.227  0.00  0.00    -0.346 N 
ATOM      4  C   MOL d   1      39.621  17.114  16.337  0.00  0.00     0.241 C 
ATOM      5  O   MOL d   1      38.590  17.418  15.727  0.00  0.00    -0.271 OA
ATOM      6  H19 MOL d   1      40.990  15.473  16.703  0.00  0.00     0.163 HD
BRANCH   4   7
ATOM      7  CA  MOL d   1      40.321  18.139  17.194  0.00  0.00     0.092 C 
ATOM      8  H11 MOL d   1      41.283  17.729  17.533  0.00  0.00     0.088 H 
BRANCH   7   9
ATOM      9  N   MOL d   1      40.556  19.379  16.464  0.00  0.00    -0.346 N 
ATOM     10  C   MOL d   1      41.832  19.570  15.792  0.00  0.00     0.240 C 
ATOM     11  O   MOL d   1      42.695  18.682  15.846  0.00  0.00    -0.271 OA
ATOM     12  H10 MOL d   1      39.851  20.087  16.426  0.00  0.00     0.163 HD
BRANCH  10  13
ATOM     13  CA  MOL d   1      42.127  20.866  15.042  0.00  0.00     0.086 C 
ATOM     14  H6  MOL d   1      41.474  21.678  15.395  0.00  0.00     0.086 H 
BRANCH  13  15
ATOM     15  N   MOL d   1      43.508  21.153  15.307  0.00  0.00    -0.343 N 
ATOM     16  C41 MOL d   1      43.914  21.617  16.619  0.00  0.00     0.273 C 
ATOM     17  O42 MOL d   1      43.084  21.777  17.490  0.00  0.00    -0.266 OA
ATOM     18  H5  MOL d   1      44.191  21.033  14.586  0.00  0.00     0.163 HD
BRANCH  16  19
ATOM     19  C3  MOL d   1      45.413  21.903  16.884  0.00  0.00     0.154 A 
ATOM     20  C4  MOL d   1      45.929  22.814  17.783  0.00  0.00    -0.017 A 
ATOM     21  C5  MOL d   1      47.302  22.754  17.708  0.00  0.00     0.077 A 
ATOM     22  H1  MOL d   1      45.351  23.466  18.437  0.00  0.00     0.091 H 
ATOM     23  O1  MOL d   1      47.631  21.824  16.784  0.00  0.00    -0.218 OA
ATOM     24  N2  MOL d   1      46.445  21.294  16.268  0.00  0.00    -0.123 NA
BRANCH  21  25
ATOM     25  C6  MOL d   1      48.279  23.594  18.530  0.00  0.00    -0.029 C 
ATOM     26  H2  MOL d   1      49.311  23.329  18.256  0.00  0.00     0.036 H 
ATOM     27  H3  MOL d   1      48.122  23.396  19.601  0.00  0.00     0.036 H 
ATOM     28  H4  MOL d   1      48.108  24.661  18.325  0.00  0.00     0.036 H 
ENDBRANCH  21  25
ENDBRANCH  16  19
ENDBRANCH  13  15
BRANCH  13  29
ATOM     29  CB  MOL d   1      41.970  20.679  13.565  0.00  0.00    -0.049 C 
ATOM     30  H7  MOL d   1      40.918  20.457  13.333  0.00  0.00     0.030 H 
ATOM     31  H8  MOL d   1      42.603  19.843  13.232  0.00  0.00     0.030 H 
ATOM     32  H9  MOL d   1      42.274  21.599  13.044  0.00  0.00     0.030 H 
ENDBRANCH  13  29
ENDBRANCH  10  13
ENDBRANCH   7   9
BRANCH   7  33
ATOM     33  CB  MOL d   1      39.450  18.457  18.386  0.00  0.00    -0.033 C 
ATOM     34  H12 MOL d   1      38.482  18.839  18.029  0.00  0.00     0.042 H 
BRANCH  33  35
ATOM     35  CG1 MOL d   1      39.213  17.209  19.206  0.00  0.00    -0.071 C 
ATOM     36  H13 MOL d   1      38.578  17.453  20.070  0.00  0.00     0.028 H 
ATOM     37  H14 MOL d   1      40.177  16.814  19.559  0.00  0.00     0.028 H 
ATOM     38  H15 MOL d   1      38.712  16.452  18.585  0.00  0.00     0.028 H 
ENDBRANCH  33  35
BRANCH  33  39
ATOM     39  CG2 MOL d   1      40.115  19.521  19.243  0.00  0.00    -0.071 C 
ATOM     40  H16 MOL d   1      40.284  20.425  18.640  0.00  0.00     0.028 H 
ATOM     41  H17 MOL d   1      41.079  19.143  19.615  0.00  0.00     0.028 H 
ATOM     42  H18 MOL d   1      39.464  19.765  20.095  0.00  0.00     0.028 H 
ENDBRANCH  33  39
ENDBRANCH   7  33
ENDBRANCH   4   7
ENDBRANCH   1   3
BRANCH   1  43
ATOM     43  C   MOL d   1      38.192  14.419  16.265  0.00  0.00     0.241 C 
ATOM     44  O   MOL d   1      38.325  14.042  17.429  0.00  0.00    -0.271 OA
ATOM     45  N5  MOL d   1      36.837  14.538  15.733  0.00  0.00    -0.351 N 
ATOM     46  H41 MOL d   1      36.653  14.843  14.799  0.00  0.00     0.163 HD
BRANCH  45  47
ATOM     47  C19 MOL d   1      35.768  14.178  16.667  0.00  0.00     0.030 C 
ATOM     48  H30 MOL d   1      36.209  14.216  17.674  0.00  0.00     0.079 H 
BRANCH  47  49
ATOM     49  C20 MOL d   1      35.273  12.781  16.493  0.00  0.00    -0.076 C 
ATOM     50  C21 MOL d   1      35.784  11.905  17.451  0.00  0.00    -0.012 C 
ATOM     51  H32 MOL d   1      36.464  12.300  18.204  0.00  0.00     0.092 H 
ATOM     52  H31 MOL d   1      34.587  12.478  15.703  0.00  0.00     0.080 H 
BRANCH  50  53
ATOM     53  C22 MOL d   1      35.435  10.413  17.495  0.00  0.00     0.282 C 
ATOM     54  O7  MOL d   1      34.335  10.063  17.771  0.00  0.00    -0.260 OA
BRANCH  53  55
ATOM     55  O   MOL d   1      36.445   9.450  17.200  0.00  0.00    -0.314 OA
BRANCH  55  56
ATOM     56  C   MOL d   1      36.875   8.689  18.365  0.00  0.00     0.053 C 
ATOM     57  H42 MOL d   1      37.126   7.663  18.057  0.00  0.00     0.082 H 
ATOM     58  H43 MOL d   1      36.059   8.661  19.102  0.00  0.00     0.082 H 
BRANCH  56  59
ATOM     59  C6  MOL d   1      38.159   9.372  19.024  0.00  0.00    -0.034 A 
ATOM     60  C1  MOL d   1      38.706  10.571  18.542  0.00  0.00    -0.075 A 
ATOM     61  C2  MOL d   1      39.836  11.126  19.160  0.00  0.00    -0.082 A 
ATOM     62  H44 MOL d   1      38.255  11.069  17.691  0.00  0.00     0.084 H 
ATOM     63  C3  MOL d   1      40.416  10.487  20.260  0.00  0.00    -0.083 A 
ATOM     64  H45 MOL d   1      40.260  12.050  18.785  0.00  0.00     0.083 H 
ATOM     65  C4  MOL d   1      39.867   9.292  20.741  0.00  0.00    -0.082 A 
ATOM     66  H46 MOL d   1      41.289  10.916  20.739  0.00  0.00     0.083 H 
ATOM     67  C5  MOL d   1      38.743   8.734  20.128  0.00  0.00    -0.075 A 
ATOM     68  H47 MOL d   1      40.317   8.797  21.594  0.00  0.00     0.083 H 
ATOM     69  H48 MOL d   1      38.322   7.809  20.505  0.00  0.00     0.084 H 
ENDBRANCH  56  59
ENDBRANCH  55  56
ENDBRANCH  53  55
ENDBRANCH  50  53
ENDBRANCH  47  49
BRANCH  47  70
ATOM     70  C25 MOL d   1      34.665  15.222  16.643  0.00  0.00    -0.032 C 
ATOM     71  H33 MOL d   1      33.748  14.825  17.103  0.00  0.00     0.037 H 
ATOM     72  H34 MOL d   1      34.452  15.534  15.610  0.00  0.00     0.037 H 
BRANCH  70  73
ATOM     73  C26 MOL d   1      35.167  16.305  17.394  0.00  0.00     0.027 C 
ATOM     74  C27 MOL d   1      35.200  15.925  18.882  0.00  0.00    -0.039 C 
ATOM     75  C28 MOL d   1      34.928  17.123  19.534  0.00  0.00    -0.004 C 
ATOM     76  H36 MOL d   1      36.190  15.540  19.167  0.00  0.00     0.036 H 
ATOM     77  H37 MOL d   1      34.433  15.171  19.111  0.00  0.00     0.036 H 
ATOM     78  N6  MOL d   1      34.018  17.914  18.585  0.00  0.00    -0.361 N 
ATOM     79  H38 MOL d   1      35.859  17.677  19.723  0.00  0.00     0.064 H 
ATOM     80  H39 MOL d   1      34.414  16.933  20.488  0.00  0.00     0.064 H 
ATOM     81  C29 MOL d   1      34.148  17.451  17.356  0.00  0.00     0.222 C 
ATOM     82  H40 MOL d   1      33.418  18.666  18.857  0.00  0.00     0.162 HD
ATOM     83  O8  MOL d   1      33.567  17.855  16.346  0.00  0.00    -0.273 OA
ATOM     84  H35 MOL d   1      36.155  16.615  17.024  0.00  0.00     0.054 H 
ENDBRANCH  70  73
ENDBRANCH  47  70
ENDBRANCH  45  47
ENDBRANCH   1  43
BRANCH   1  85
ATOM     85  CB  MOL d   1      40.299  13.598  15.141  0.00  0.00    -0.035 C 
ATOM     86  H21 MOL d   1      39.668  12.700  15.066  0.00  0.00     0.037 H 
ATOM     87  H22 MOL d   1      41.022  13.470  15.960  0.00  0.00     0.037 H 
BRANCH  85  88
ATOM     88  CG  MOL d   1      41.066  13.801  13.805  0.00  0.00    -0.059 C 
ATOM     89  H23 MOL d   1      41.301  14.867  13.670  0.00  0.00     0.038 H 
BRANCH  88  90
ATOM     90  CD1 MOL d   1      42.370  12.984  13.836  0.00  0.00    -0.073 C 
ATOM     91  H24 MOL d   1      42.914  13.127  12.891  0.00  0.00     0.028 H 
ATOM     92  H25 MOL d   1      42.132  11.918  13.965  0.00  0.00     0.028 H 
ATOM     93  H26 MOL d   1      42.996  13.324  14.674  0.00  0.00     0.028 H 
ENDBRANCH  88  90
BRANCH  88  94
ATOM     94  CD2 MOL d   1      40.151  13.294  12.596  0.00  0.00    -0.073 C 
ATOM     95  H27 MOL d   1      39.218  13.877  12.572  0.00  0.00     0.028 H 
ATOM     96  H28 MOL d   1      39.914  12.229  12.737  0.00  0.00     0.028 H 
ATOM     97  H29 MOL d   1      40.691  13.427  11.647  0.00  0.00     0.028 H 
ENDBRANCH  88  94
ENDBRANCH  85  88
ENDBRANCH   1  85
TORSDOF 24
