REMARK  6 active torsions:
REMARK  status: ('A' for Active; 'I' for Inactive)
REMARK    1  A    between atoms: C2_1  and  C4_2 
REMARK    2  A    between atoms: C2_1  and  C1_4 
REMARK    3  A    between atoms: C2_1  and  C3_5 
REMARK    4  A    between atoms: C2_1  and  O5_6 
REMARK    5  A    between atoms: O5_6  and  C6_3 
REMARK       I    between atoms: C6_3  and  N8_8 
REMARK    6  A    between atoms: C14_14  and  N15_15 
ROOT
ATOM      1  C6  BQ3 d   1      10.461 -11.287 -34.729  0.00  0.00     0.363 C 
ATOM      2  O7  BQ3 d   1       9.464 -11.966 -34.775  0.00  0.00    -0.238 OA
ATOM      3  N8  BQ3 d   1      10.551 -10.051 -35.274  0.00  0.00    -0.323 N 
ATOM      4  C9  BQ3 d   1       9.421  -9.454 -35.996  0.00  0.00     0.004 C 
ATOM      5  C10 BQ3 d   1       8.862  -8.311 -35.179  0.00  0.00    -0.025 C 
ATOM      6  C11 BQ3 d   1       9.956  -7.339 -34.818  0.00  0.00    -0.049 A 
ATOM      7  C12 BQ3 d   1       9.640  -6.034 -34.450  0.00  0.00    -0.074 A 
ATOM      8  C13 BQ3 d   1      10.625  -5.113 -34.144  0.00  0.00    -0.057 A 
ATOM      9  C14 BQ3 d   1      11.971  -5.474 -34.210  0.00  0.00     0.026 A 
ATOM     10  C16 BQ3 d   1      12.291  -6.783 -34.572  0.00  0.00    -0.050 A 
ATOM     11  C17 BQ3 d   1      11.308  -7.725 -34.872  0.00  0.00    -0.032 A 
ATOM     12  C18 BQ3 d   1      11.706  -9.140 -35.243  0.00  0.00     0.024 C 
ATOM     13  H10 BQ3 d   1       8.640 -10.213 -36.151  0.00  0.00     0.065 H 
ATOM     14  H11 BQ3 d   1       9.764  -9.077 -36.971  0.00  0.00     0.065 H 
ATOM     15  H12 BQ3 d   1       8.413  -8.710 -34.258  0.00  0.00     0.042 H 
ATOM     16  H13 BQ3 d   1       8.092  -7.789 -35.766  0.00  0.00     0.042 H 
ATOM     17  H14 BQ3 d   1       8.600  -5.734 -34.402  0.00  0.00     0.084 H 
ATOM     18  H15 BQ3 d   1      10.350  -4.106 -33.852  0.00  0.00     0.086 H 
ATOM     19  H18 BQ3 d   1      13.334  -7.076 -34.621  0.00  0.00     0.087 H 
ATOM     20  H19 BQ3 d   1      12.174  -9.127 -36.238  0.00  0.00     0.071 H 
ATOM     21  H20 BQ3 d   1      12.430  -9.510 -34.502  0.00  0.00     0.071 H 
ENDROOT
BRANCH   1  22
ATOM     22  O5  BQ3 d   1      11.610 -11.635 -34.131  0.00  0.00    -0.294 OA
BRANCH  22  23
ATOM     23  C2  BQ3 d   1      12.104 -13.039 -34.151  0.00  0.00     0.061 C 
BRANCH  23  24
ATOM     24  C4  BQ3 d   1      13.467 -12.946 -33.490  0.00  0.00    -0.048 C 
ATOM     25  H1  BQ3 d   1      13.926 -13.945 -33.454  0.00  0.00     0.031 H 
ATOM     26  H2  BQ3 d   1      13.353 -12.557 -32.467  0.00  0.00     0.031 H 
ATOM     27  H3  BQ3 d   1      14.110 -12.268 -34.070  0.00  0.00     0.031 H 
ENDBRANCH  23  24
BRANCH  23  28
ATOM     28  C1  BQ3 d   1      11.158 -13.916 -33.349  0.00  0.00    -0.048 C 
ATOM     29  H4  BQ3 d   1      10.182 -13.961 -33.855  0.00  0.00     0.031 H 
ATOM     30  H5  BQ3 d   1      11.030 -13.492 -32.342  0.00  0.00     0.031 H 
ATOM     31  H6  BQ3 d   1      11.577 -14.930 -33.269  0.00  0.00     0.031 H 
ENDBRANCH  23  28
BRANCH  23  32
ATOM     32  C3  BQ3 d   1      12.217 -13.506 -35.592  0.00  0.00    -0.048 C 
ATOM     33  H7  BQ3 d   1      12.909 -12.847 -36.138  0.00  0.00     0.031 H 
ATOM     34  H8  BQ3 d   1      11.226 -13.471 -36.068  0.00  0.00     0.031 H 
ATOM     35  H9  BQ3 d   1      12.598 -14.537 -35.614  0.00  0.00     0.031 H 
ENDBRANCH  23  32
ENDBRANCH  22  23
ENDBRANCH   1  22
BRANCH   9  36
ATOM     36  N15 BQ3 d   1      12.958  -4.556 -33.943  0.00  0.00    -0.399 N 
ATOM     37  H16 BQ3 d   1      13.948  -4.835 -33.995  0.00  0.00     0.156 HD
ATOM     38  H17 BQ3 d   1      12.708  -3.589 -33.691  0.00  0.00     0.156 HD
ENDBRANCH   9  36
TORSDOF 6
