REMARK  30 active torsions:
REMARK  status: ('A' for Active; 'I' for Inactive)
REMARK    1  A    between atoms: O1_10  and  C1_1 
REMARK    2  A    between atoms: C2_2  and  N2_9 
REMARK    3  A    between atoms: C3_3  and  O3_11 
REMARK    4  A    between atoms: C4_4  and  O4_12 
REMARK    5  A    between atoms: C5_5  and  C6_6 
REMARK    6  A    between atoms: C6_6  and  O6_14 
REMARK    7  A    between atoms: C7_7  and  C8_8 
REMARK       I    between atoms: N2_9  and  C7_7 
REMARK    8  A    between atoms: C4_19  and  O1_10 
REMARK    9  A    between atoms: C1_16  and  O4_35 
REMARK   10  A    between atoms: C2_17  and  O2_22 
REMARK   11  A    between atoms: O3_23  and  C3_18 
REMARK   12  A    between atoms: C5_20  and  C6_21 
REMARK   13  A    between atoms: C6_21  and  O6_25 
REMARK   14  A    between atoms: C2_39  and  O3_23 
REMARK   15  A    between atoms: C2_26  and  O2_33 
REMARK   16  A    between atoms: C3_27  and  O3_34 
REMARK   17  A    between atoms: O4_35  and  C4_28 
REMARK   18  A    between atoms: C5_29  and  C6_30 
REMARK   19  A    between atoms: C6_30  and  O6_37 
REMARK   20  A    between atoms: C1_31  and  O1_32 
REMARK   21  A    between atoms: C2_39  and  C1_38 
REMARK   22  A    between atoms: C4_41  and  O4_52 
REMARK   23  A    between atoms: N5_49  and  C5_42 
REMARK   24  A    between atoms: C6_43  and  C7_44 
REMARK   25  A    between atoms: C7_44  and  C8_45 
REMARK   26  A    between atoms: C7_44  and  O7_54 
REMARK   27  A    between atoms: C8_45  and  C9_46 
REMARK   28  A    between atoms: C8_45  and  O8_55 
REMARK   29  A    between atoms: C9_46  and  O9_56 
REMARK   30  A    between atoms: C10_47  and  C11_48 
REMARK       I    between atoms: C10_47  and  N5_49 
ROOT
ATOM      1  C1  NAG d   1     108.066 151.842 -34.512  0.00  0.00     0.159 C 
ATOM      2  C2  NAG d   1     107.184 150.618 -34.165  0.00  0.00     0.110 C 
ATOM      3  C3  NAG d   1     106.447 150.855 -32.877  0.00  0.00     0.099 C 
ATOM      4  C4  NAG d   1     107.499 151.085 -31.785  0.00  0.00     0.096 C 
ATOM      5  C5  NAG d   1     108.227 152.358 -32.142  0.00  0.00     0.089 C 
ATOM      6  O5  NAG d   1     108.925 152.186 -33.396  0.00  0.00    -0.348 OA
ATOM      7  H15 NAG d   1     107.418 152.706 -34.720  0.00  0.00     0.133 H 
ATOM      8  H16 NAG d   1     107.832 149.736 -34.059  0.00  0.00     0.094 H 
ATOM      9  H17 NAG d   1     105.809 151.745 -32.977  0.00  0.00     0.091 H 
ATOM     10  H18 NAG d   1     107.018 151.201 -30.803  0.00  0.00     0.091 H 
ATOM     11  H19 NAG d   1     107.474 153.152 -32.257  0.00  0.00     0.090 H 
ENDROOT
BRANCH   3  12
ATOM     12  O3  NAG d   1     105.628 149.726 -32.523  0.00  0.00    -0.336 OA
BRANCH  12  13
ATOM     13  C2  NAG d   1     104.344 149.780 -32.033  0.00  0.00     0.259 C 
ATOM     14  C3  NAG d   1     103.837 148.427 -31.488  0.00  0.00     0.024 C 
ATOM     15  C4  NAG d   1     102.770 147.644 -32.255  0.00  0.00     0.063 C 
ATOM     16  H35 NAG d   1     103.428 148.622 -30.485  0.00  0.00     0.045 H 
ATOM     17  H36 NAG d   1     104.715 147.769 -31.405  0.00  0.00     0.045 H 
ATOM     18  C5  NAG d   1     102.694 148.103 -33.707  0.00  0.00     0.064 C 
ATOM     19  H37 NAG d   1     101.798 147.821 -31.771  0.00  0.00     0.086 H 
ATOM     20  C6  NAG d   1     102.484 149.632 -33.740  0.00  0.00     0.091 C 
ATOM     21  H38 NAG d   1     103.640 147.851 -34.209  0.00  0.00     0.080 H 
ATOM     22  O6  NAG d   1     103.602 150.312 -33.191  0.00  0.00    -0.336 OA
ATOM     23  H39 NAG d   1     101.568 149.883 -33.184  0.00  0.00     0.090 H 
BRANCH  13  24
ATOM     24  C1  NAG d   1     104.412 150.932 -30.946  0.00  0.00     0.239 C 
ATOM     25  O1A NAG d   1     104.018 152.078 -31.259  0.00  0.00    -0.644 OA
ATOM     26  O1B NAG d   1     104.899 150.518 -29.866  0.00  0.00    -0.644 OA
ENDBRANCH  13  24
BRANCH  15  27
ATOM     27  O4  NAG d   1     103.040 146.231 -32.252  0.00  0.00    -0.393 OA
ATOM     28  H48 NAG d   1     102.341 145.775 -32.706  0.00  0.00     0.210 HD
ENDBRANCH  15  27
BRANCH  18  29
ATOM     29  N5  NAG d   1     101.592 147.464 -34.424  0.00  0.00    -0.352 N 
ATOM     30  C10 NAG d   1     101.751 146.710 -35.542  0.00  0.00     0.214 C 
ATOM     31  O10 NAG d   1     102.840 146.477 -36.066  0.00  0.00    -0.274 OA
ATOM     32  H47 NAG d   1     100.665 147.590 -34.070  0.00  0.00     0.163 HD
BRANCH  30  33
ATOM     33  C11 NAG d   1     100.455 146.151 -36.128  0.00  0.00    -0.003 C 
ATOM     34  H44 NAG d   1     100.684 145.558 -37.026  0.00  0.00     0.040 H 
ATOM     35  H45 NAG d   1      99.787 146.982 -36.398  0.00  0.00     0.040 H 
ATOM     36  H46 NAG d   1      99.961 145.511 -35.382  0.00  0.00     0.040 H 
ENDBRANCH  30  33
ENDBRANCH  18  29
BRANCH  20  37
ATOM     37  C7  NAG d   1     102.397 150.158 -35.196  0.00  0.00     0.089 C 
ATOM     38  H40 NAG d   1     101.641 149.568 -35.735  0.00  0.00     0.091 H 
BRANCH  37  39
ATOM     39  C8  NAG d   1     101.946 151.637 -35.215  0.00  0.00     0.083 C 
ATOM     40  H41 NAG d   1     102.693 152.226 -34.662  0.00  0.00     0.090 H 
BRANCH  39  41
ATOM     41  C9  NAG d   1     101.894 152.178 -36.643  0.00  0.00     0.043 C 
ATOM     42  H42 NAG d   1     102.854 151.984 -37.144  0.00  0.00     0.078 H 
ATOM     43  H43 NAG d   1     101.706 153.262 -36.618  0.00  0.00     0.078 H 
BRANCH  41  44
ATOM     44  O9  NAG d   1     100.843 151.530 -37.362  0.00  0.00    -0.398 OA
ATOM     45  H51 NAG d   1     101.006 150.594 -37.384  0.00  0.00     0.209 HD
ENDBRANCH  41  44
ENDBRANCH  39  41
BRANCH  39  46
ATOM     46  O8  NAG d   1     100.691 151.785 -34.545  0.00  0.00    -0.391 OA
ATOM     47  H50 NAG d   1     100.460 152.706 -34.508  0.00  0.00     0.210 HD
ENDBRANCH  39  46
ENDBRANCH  37  39
BRANCH  37  48
ATOM     48  O7  NAG d   1     103.656 149.964 -35.844  0.00  0.00    -0.390 OA
ATOM     49  H49 NAG d   1     104.321 150.480 -35.403  0.00  0.00     0.210 HD
ENDBRANCH  37  48
ENDBRANCH  20  37
ENDBRANCH  12  13
ENDBRANCH   3  12
BRANCH   2  50
ATOM     50  O2  NAG d   1     106.214 150.367 -35.178  0.00  0.00    -0.388 OA
ATOM     51  H22 NAG d   1     105.703 149.601 -34.943  0.00  0.00     0.210 HD
ENDBRANCH   2  50
BRANCH   4  52
ATOM     52  O1  NAG d   1     108.323 149.980 -31.762  0.00  0.00    -0.348 OA
BRANCH  52  53
ATOM     53  C1  NAG d   1     108.341 149.300 -30.507  0.00  0.00     0.154 C 
ATOM     54  C2  NAG d   1     109.223 148.082 -30.735  0.00  0.00     0.087 C 
ATOM     55  C3  NAG d   1     109.720 147.489 -29.425  0.00  0.00     0.086 C 
ATOM     56  H2  NAG d   1     110.097 148.393 -31.326  0.00  0.00     0.084 H 
ATOM     57  C4  NAG d   1     110.418 148.607 -28.670  0.00  0.00     0.089 C 
ATOM     58  H3  NAG d   1     108.866 147.127 -28.834  0.00  0.00     0.090 H 
ATOM     59  C5  NAG d   1     109.311 149.588 -28.324  0.00  0.00     0.089 C 
ATOM     60  H4  NAG d   1     111.169 149.091 -29.312  0.00  0.00     0.091 H 
ATOM     61  O5  NAG d   1     108.908 150.198 -29.549  0.00  0.00    -0.349 OA
ATOM     62  H5  NAG d   1     108.466 149.027 -27.898  0.00  0.00     0.090 H 
ATOM     63  H1  NAG d   1     107.331 148.996 -30.194  0.00  0.00     0.132 H 
BRANCH  54  64
ATOM     64  N2  NAG d   1     108.483 147.082 -31.488  0.00  0.00    -0.349 N 
ATOM     65  C7  NAG d   1     108.586 146.983 -32.816  0.00  0.00     0.214 C 
ATOM     66  O7  NAG d   1     109.494 147.524 -33.442  0.00  0.00    -0.274 OA
ATOM     67  H11 NAG d   1     107.881 146.452 -30.998  0.00  0.00     0.163 HD
BRANCH  65  68
ATOM     68  C8  NAG d   1     107.513 146.163 -33.488  0.00  0.00    -0.003 C 
ATOM     69  H8  NAG d   1     107.691 146.146 -34.574  0.00  0.00     0.040 H 
ATOM     70  H9  NAG d   1     106.529 146.610 -33.284  0.00  0.00     0.040 H 
ATOM     71  H10 NAG d   1     107.537 145.135 -33.096  0.00  0.00     0.040 H 
ENDBRANCH  65  68
ENDBRANCH  54  64
BRANCH  55  72
ATOM     72  O3  NAG d   1     110.601 146.386 -29.684  0.00  0.00    -0.391 OA
ATOM     73  H12 NAG d   1     110.919 146.036 -28.860  0.00  0.00     0.210 HD
ENDBRANCH  55  72
BRANCH  57  74
ATOM     74  O4  NAG d   1     111.061 148.110 -27.498  0.00  0.00    -0.390 OA
ATOM     75  H13 NAG d   1     111.746 147.501 -27.748  0.00  0.00     0.210 HD
ENDBRANCH  57  74
BRANCH  59  76
ATOM     76  C6  NAG d   1     109.717 150.659 -27.321  0.00  0.00     0.043 C 
ATOM     77  H6  NAG d   1     110.446 151.340 -27.784  0.00  0.00     0.078 H 
ATOM     78  H7  NAG d   1     110.168 150.185 -26.437  0.00  0.00     0.078 H 
BRANCH  76  79
ATOM     79  O6  NAG d   1     108.553 151.396 -26.929  0.00  0.00    -0.398 OA
ATOM     80  H14 NAG d   1     108.800 152.066 -26.303  0.00  0.00     0.209 HD
ENDBRANCH  76  79
ENDBRANCH  59  76
ENDBRANCH  52  53
ENDBRANCH   4  52
BRANCH   1  81
ATOM     81  O4  NAG d   1     108.794 151.515 -35.710  0.00  0.00    -0.348 OA
BRANCH  81  82
ATOM     82  C4  NAG d   1     109.306 152.706 -36.307  0.00  0.00     0.096 C 
ATOM     83  C3  NAG d   1     110.773 152.466 -36.520  0.00  0.00     0.092 C 
ATOM     84  C2  NAG d   1     111.410 153.552 -37.307  0.00  0.00     0.110 C 
ATOM     85  H25 NAG d   1     110.891 151.521 -37.071  0.00  0.00     0.091 H 
ATOM     86  C1  NAG d   1     110.676 153.778 -38.625  0.00  0.00     0.156 C 
ATOM     87  H24 NAG d   1     111.386 154.482 -36.720  0.00  0.00     0.094 H 
ATOM     88  O5  NAG d   1     109.208 154.044 -38.406  0.00  0.00    -0.349 OA
ATOM     89  H30 NAG d   1     110.784 152.880 -39.250  0.00  0.00     0.133 H 
ATOM     90  C5  NAG d   1     108.567 152.963 -37.633  0.00  0.00     0.089 C 
ATOM     91  H27 NAG d   1     108.606 152.037 -38.225  0.00  0.00     0.090 H 
ATOM     92  H26 NAG d   1     109.160 153.566 -35.637  0.00  0.00     0.091 H 
BRANCH  83  93
ATOM     93  O3  NAG d   1     111.449 152.350 -35.234  0.00  0.00    -0.390 OA
ATOM     94  H33 NAG d   1     111.331 153.154 -34.742  0.00  0.00     0.210 HD
ENDBRANCH  83  93
BRANCH  84  95
ATOM     95  O2  NAG d   1     112.782 153.192 -37.581  0.00  0.00    -0.388 OA
ATOM     96  H32 NAG d   1     113.241 153.051 -36.761  0.00  0.00     0.210 HD
ENDBRANCH  84  95
BRANCH  86  97
ATOM     97  O1  NAG d   1     111.232 154.840 -39.264  0.00  0.00    -0.369 OA
ATOM     98  H31 NAG d   1     112.157 154.675 -39.404  0.00  0.00     0.212 HD
ENDBRANCH  86  97
BRANCH  90  99
ATOM     99  C6  NAG d   1     107.119 153.333 -37.420  0.00  0.00     0.043 C 
ATOM    100  H28 NAG d   1     106.577 152.471 -37.004  0.00  0.00     0.078 H 
ATOM    101  H29 NAG d   1     106.668 153.621 -38.381  0.00  0.00     0.078 H 
BRANCH  99 102
ATOM    102  O6  NAG d   1     107.041 154.413 -36.523  0.00  0.00    -0.398 OA
ATOM    103  H34 NAG d   1     107.510 155.157 -36.883  0.00  0.00     0.209 HD
ENDBRANCH  99 102
ENDBRANCH  90  99
ENDBRANCH  81  82
ENDBRANCH   1  81
BRANCH   5 104
ATOM    104  C6  NAG d   1     109.258 152.825 -31.093  0.00  0.00     0.043 C 
ATOM    105  H20 NAG d   1     110.030 152.050 -30.980  0.00  0.00     0.078 H 
ATOM    106  H21 NAG d   1     108.747 152.976 -30.131  0.00  0.00     0.078 H 
BRANCH 104 107
ATOM    107  O6  NAG d   1     109.871 154.029 -31.479  0.00  0.00    -0.398 OA
ATOM    108  H23 NAG d   1     110.318 153.904 -32.308  0.00  0.00     0.209 HD
ENDBRANCH 104 107
ENDBRANCH   5 104
TORSDOF 30
