REMARK WARNING: 32 MAX_TORS EXCEEDED!!!
REMARK  35 active torsions:
REMARK  status: ('A' for Active; 'I' for Inactive)
REMARK    1  A    between atoms: O3_64  and  C1_1 
REMARK    2  A    between atoms: C2_2  and  N2_9 
REMARK    3  A    between atoms: C3_3  and  O3_10 
REMARK    4  A    between atoms: C4_4  and  O4_11 
REMARK    5  A    between atoms: C5_5  and  C6_6 
REMARK    6  A    between atoms: C6_6  and  O6_13 
REMARK    7  A    between atoms: C7_7  and  C8_8 
REMARK       I    between atoms: N2_9  and  C7_7 
REMARK    8  A    between atoms: O3_10  and  C1_15 
REMARK    9  A    between atoms: O4_11  and  C1_25 
REMARK   10  A    between atoms: C2_16  and  O2_21 
REMARK   11  A    between atoms: C3_17  and  O3_22 
REMARK   12  A    between atoms: C4_18  and  O4_23 
REMARK   13  A    between atoms: C5_19  and  C6_20 
REMARK   14  A    between atoms: C2_26  and  O2_31 
REMARK   15  A    between atoms: C3_27  and  O3_32 
REMARK   16  A    between atoms: C4_28  and  O4_33 
REMARK   17  A    between atoms: C5_29  and  C6_30 
REMARK   18  A    between atoms: C6_30  and  O6_35 
REMARK   19  A    between atoms: O3_32  and  C2_37 
REMARK   20  A    between atoms: C2_37  and  C1_36 
REMARK   21  A    between atoms: C4_39  and  O4_50 
REMARK   22  A    between atoms: C5_40  and  N5_47 
REMARK   23  A    between atoms: C6_41  and  C7_42 
REMARK   24  A    between atoms: C7_42  and  C8_43 
REMARK   25  A    between atoms: C7_42  and  O7_52 
REMARK   26  A    between atoms: C8_43  and  C9_44 
REMARK   27  A    between atoms: C8_43  and  O8_53 
REMARK   28  A    between atoms: C9_44  and  O9_54 
REMARK   29  A    between atoms: C10_45  and  C11_46 
REMARK       I    between atoms: N5_47  and  C10_45 
REMARK   30  A    between atoms: C1_56  and  O1_62 
REMARK   31  A    between atoms: C2_57  and  O2_63 
REMARK   32  A    between atoms: C3_58  and  O3_64 
REMARK   33  A    between atoms: C4_59  and  O4_65 
REMARK   34  A    between atoms: C5_60  and  C6_61 
REMARK   35  A    between atoms: C6_61  and  O6_67 
ROOT
ATOM      1  C1  NAG d   1     110.569 153.835 -38.623  0.00  0.00     0.154 C 
ATOM      2  C2  NAG d   1     111.433 153.044 -37.637  0.00  0.00     0.087 C 
ATOM      3  C3  NAG d   1     110.660 151.823 -37.130  0.00  0.00     0.093 C 
ATOM      4  C4  NAG d   1     109.308 152.248 -36.567  0.00  0.00     0.096 C 
ATOM      5  C5  NAG d   1     108.535 153.018 -37.631  0.00  0.00     0.089 C 
ATOM      6  O5  NAG d   1     109.306 154.165 -38.010  0.00  0.00    -0.349 OA
ATOM      7  H1  NAG d   1     110.385 153.212 -39.511  0.00  0.00     0.132 H 
ATOM      8  H2  NAG d   1     111.660 153.692 -36.778  0.00  0.00     0.084 H 
ATOM      9  H3  NAG d   1     110.501 151.125 -37.965  0.00  0.00     0.091 H 
ATOM     10  H4  NAG d   1     109.475 152.905 -35.700  0.00  0.00     0.091 H 
ATOM     11  H5  NAG d   1     108.382 152.361 -38.500  0.00  0.00     0.090 H 
ENDROOT
BRANCH   4  12
ATOM     12  O4  NAG d   1     108.559 151.114 -36.143  0.00  0.00    -0.348 OA
BRANCH  12  13
ATOM     13  C1  NAG d   1     108.190 151.261 -34.751  0.00  0.00     0.159 C 
ATOM     14  C2  NAG d   1     106.930 150.402 -34.502  0.00  0.00     0.110 C 
ATOM     15  C3  NAG d   1     106.505 150.477 -33.027  0.00  0.00     0.099 C 
ATOM     16  H25 NAG d   1     107.160 149.358 -34.760  0.00  0.00     0.094 H 
ATOM     17  C4  NAG d   1     107.707 150.133 -32.110  0.00  0.00     0.090 C 
ATOM     18  H26 NAG d   1     106.180 151.507 -32.817  0.00  0.00     0.091 H 
ATOM     19  C5  NAG d   1     108.867 151.056 -32.478  0.00  0.00     0.089 C 
ATOM     20  H27 NAG d   1     107.426 150.296 -31.059  0.00  0.00     0.091 H 
ATOM     21  O5  NAG d   1     109.221 150.853 -33.856  0.00  0.00    -0.348 OA
ATOM     22  H28 NAG d   1     108.536 152.094 -32.327  0.00  0.00     0.090 H 
ATOM     23  H24 NAG d   1     107.958 152.319 -34.556  0.00  0.00     0.133 H 
BRANCH  14  24
ATOM     24  O2  NAG d   1     105.842 150.847 -35.293  0.00  0.00    -0.388 OA
ATOM     25  H31 NAG d   1     105.090 150.288 -35.139  0.00  0.00     0.210 HD
ENDBRANCH  14  24
BRANCH  15  26
ATOM     26  O3  NAG d   1     105.412 149.582 -32.717  0.00  0.00    -0.336 OA
BRANCH  26  27
ATOM     27  C2  NAG d   1     104.179 149.806 -32.145  0.00  0.00     0.259 C 
ATOM     28  C3  NAG d   1     103.383 148.657 -31.518  0.00  0.00     0.024 C 
ATOM     29  C4  NAG d   1     102.790 147.634 -32.487  0.00  0.00     0.063 C 
ATOM     30  H34 NAG d   1     102.553 149.097 -30.947  0.00  0.00     0.045 H 
ATOM     31  H35 NAG d   1     104.055 148.119 -30.833  0.00  0.00     0.045 H 
ATOM     32  C5  NAG d   1     102.632 148.214 -33.892  0.00  0.00     0.064 C 
ATOM     33  H36 NAG d   1     101.799 147.342 -32.109  0.00  0.00     0.086 H 
ATOM     34  C6  NAG d   1     102.352 149.737 -33.861  0.00  0.00     0.091 C 
ATOM     35  H37 NAG d   1     103.567 148.040 -34.444  0.00  0.00     0.080 H 
ATOM     36  O6  NAG d   1     103.385 150.461 -33.202  0.00  0.00    -0.336 OA
ATOM     37  H38 NAG d   1     101.395 149.910 -33.348  0.00  0.00     0.090 H 
BRANCH  27  38
ATOM     38  C1  NAG d   1     104.608 150.903 -31.083  0.00  0.00     0.239 C 
ATOM     39  O1A NAG d   1     104.297 152.065 -31.464  0.00  0.00    -0.644 OA
ATOM     40  O1B NAG d   1     105.186 150.525 -30.032  0.00  0.00    -0.644 OA
ENDBRANCH  27  38
BRANCH  29  41
ATOM     41  O4  NAG d   1     103.611 146.457 -32.595  0.00  0.00    -0.393 OA
ATOM     42  H47 NAG d   1     103.727 146.073 -31.734  0.00  0.00     0.210 HD
ENDBRANCH  29  41
BRANCH  32  43
ATOM     43  N5  NAG d   1     101.537 147.552 -34.596  0.00  0.00    -0.352 N 
ATOM     44  C10 NAG d   1     101.691 146.716 -35.651  0.00  0.00     0.214 C 
ATOM     45  O10 NAG d   1     102.781 146.415 -36.133  0.00  0.00    -0.274 OA
ATOM     46  H46 NAG d   1     100.606 147.728 -34.276  0.00  0.00     0.163 HD
BRANCH  44  47
ATOM     47  C11 NAG d   1     100.389 146.155 -36.216  0.00  0.00    -0.003 C 
ATOM     48  H43 NAG d   1     100.613 145.491 -37.064  0.00  0.00     0.040 H 
ATOM     49  H44 NAG d   1      99.751 146.983 -36.557  0.00  0.00     0.040 H 
ATOM     50  H45 NAG d   1      99.865 145.586 -35.434  0.00  0.00     0.040 H 
ENDBRANCH  44  47
ENDBRANCH  32  43
BRANCH  34  51
ATOM     51  C7  NAG d   1     102.291 150.303 -35.301  0.00  0.00     0.089 C 
ATOM     52  H39 NAG d   1     101.549 149.720 -35.866  0.00  0.00     0.091 H 
BRANCH  51  53
ATOM     53  C8  NAG d   1     101.806 151.768 -35.270  0.00  0.00     0.083 C 
ATOM     54  H40 NAG d   1     102.473 152.339 -34.607  0.00  0.00     0.090 H 
BRANCH  53  55
ATOM     55  C9  NAG d   1     101.891 152.393 -36.657  0.00  0.00     0.043 C 
ATOM     56  H41 NAG d   1     102.913 152.283 -37.049  0.00  0.00     0.078 H 
ATOM     57  H42 NAG d   1     101.635 153.461 -36.596  0.00  0.00     0.078 H 
BRANCH  55  58
ATOM     58  O9  NAG d   1     100.973 151.731 -37.525  0.00  0.00    -0.398 OA
ATOM     59  H50 NAG d   1     101.195 150.809 -37.575  0.00  0.00     0.209 HD
ENDBRANCH  55  58
ENDBRANCH  53  55
BRANCH  53  60
ATOM     60  O8  NAG d   1     100.488 151.819 -34.717  0.00  0.00    -0.391 OA
ATOM     61  H49 NAG d   1     100.211 152.725 -34.645  0.00  0.00     0.210 HD
ENDBRANCH  53  60
ENDBRANCH  51  53
BRANCH  51  62
ATOM     62  O7  NAG d   1     103.547 150.142 -35.954  0.00  0.00    -0.390 OA
ATOM     63  H48 NAG d   1     104.206 150.654 -35.500  0.00  0.00     0.210 HD
ENDBRANCH  51  62
ENDBRANCH  34  51
ENDBRANCH  26  27
ENDBRANCH  15  26
BRANCH  17  64
ATOM     64  O4  NAG d   1     108.090 148.775 -32.285  0.00  0.00    -0.390 OA
ATOM     65  H32 NAG d   1     107.362 148.210 -32.054  0.00  0.00     0.210 HD
ENDBRANCH  17  64
BRANCH  19  66
ATOM     66  C6  NAG d   1     110.149 150.830 -31.679  0.00  0.00     0.043 C 
ATOM     67  H29 NAG d   1     111.008 150.834 -32.366  0.00  0.00     0.078 H 
ATOM     68  H30 NAG d   1     110.091 149.856 -31.170  0.00  0.00     0.078 H 
BRANCH  66  69
ATOM     69  O6  NAG d   1     110.321 151.853 -30.710  0.00  0.00    -0.398 OA
ATOM     70  H33 NAG d   1     111.122 151.696 -30.224  0.00  0.00     0.209 HD
ENDBRANCH  66  69
ENDBRANCH  19  66
ENDBRANCH  12  13
ENDBRANCH   4  12
BRANCH   3  71
ATOM     71  O3  NAG d   1     111.410 151.176 -36.111  0.00  0.00    -0.348 OA
BRANCH  71  72
ATOM     72  C1  NAG d   1     112.012 149.958 -36.599  0.00  0.00     0.159 C 
ATOM     73  C2  NAG d   1     112.964 149.501 -35.482  0.00  0.00     0.110 C 
ATOM     74  C3  NAG d   1     112.146 149.051 -34.264  0.00  0.00     0.092 C 
ATOM     75  H14 NAG d   1     113.530 148.635 -35.854  0.00  0.00     0.094 H 
ATOM     76  C4  NAG d   1     111.194 147.913 -34.652  0.00  0.00     0.087 C 
ATOM     77  H15 NAG d   1     111.566 149.906 -33.887  0.00  0.00     0.091 H 
ATOM     78  C5  NAG d   1     110.292 148.391 -35.793  0.00  0.00     0.065 C 
ATOM     79  H16 NAG d   1     110.571 147.648 -33.785  0.00  0.00     0.091 H 
ATOM     80  O5  NAG d   1     111.065 148.926 -36.904  0.00  0.00    -0.351 OA
ATOM     81  H17 NAG d   1     109.648 149.188 -35.394  0.00  0.00     0.086 H 
ATOM     82  H13 NAG d   1     112.585 150.179 -37.512  0.00  0.00     0.133 H 
BRANCH  73  83
ATOM     83  O2  NAG d   1     113.901 150.504 -35.124  0.00  0.00    -0.388 OA
ATOM     84  H21 NAG d   1     113.439 151.256 -34.772  0.00  0.00     0.210 HD
ENDBRANCH  73  83
BRANCH  74  85
ATOM     85  O3  NAG d   1     112.991 148.566 -33.242  0.00  0.00    -0.390 OA
ATOM     86  H22 NAG d   1     113.480 147.818 -33.565  0.00  0.00     0.210 HD
ENDBRANCH  74  85
BRANCH  76  87
ATOM     87  O4  NAG d   1     111.941 146.771 -35.052  0.00  0.00    -0.390 OA
ATOM     88  H23 NAG d   1     112.494 146.488 -34.333  0.00  0.00     0.210 HD
ENDBRANCH  76  87
BRANCH  78  89
ATOM     89  C6  NAG d   1     109.402 147.289 -36.359  0.00  0.00    -0.050 C 
ATOM     90  H18 NAG d   1     108.783 147.698 -37.171  0.00  0.00     0.031 H 
ATOM     91  H19 NAG d   1     108.751 146.898 -35.563  0.00  0.00     0.031 H 
ATOM     92  H20 NAG d   1     110.030 146.476 -36.751  0.00  0.00     0.031 H 
ENDBRANCH  78  89
ENDBRANCH  71  72
ENDBRANCH   3  71
BRANCH   5  93
ATOM     93  C6  NAG d   1     107.191 153.531 -37.158  0.00  0.00     0.043 C 
ATOM     94  H6  NAG d   1     106.526 152.673 -36.980  0.00  0.00     0.078 H 
ATOM     95  H7  NAG d   1     106.760 154.172 -37.941  0.00  0.00     0.078 H 
BRANCH  93  96
ATOM     96  O6  NAG d   1     107.298 154.284 -35.957  0.00  0.00    -0.398 OA
ATOM     97  H12 NAG d   1     106.436 154.586 -35.696  0.00  0.00     0.209 HD
ENDBRANCH  93  96
ENDBRANCH   5  93
BRANCH   2  98
ATOM     98  N2  NAG d   1     112.693 152.642 -38.249  0.00  0.00    -0.349 N 
ATOM     99  C7  NAG d   1     113.899 152.909 -37.727  0.00  0.00     0.214 C 
ATOM    100  O7  NAG d   1     114.033 153.520 -36.670  0.00  0.00    -0.274 OA
ATOM    101  H11 NAG d   1     112.656 152.136 -39.111  0.00  0.00     0.163 HD
BRANCH  99 102
ATOM    102  C8  NAG d   1     115.077 152.410 -38.510  0.00  0.00    -0.003 C 
ATOM    103  H8  NAG d   1     116.006 152.685 -37.990  0.00  0.00     0.040 H 
ATOM    104  H9  NAG d   1     115.070 152.863 -39.512  0.00  0.00     0.040 H 
ATOM    105  H10 NAG d   1     115.019 151.315 -38.602  0.00  0.00     0.040 H 
ENDBRANCH  99 102
ENDBRANCH   2  98
BRANCH   1 106
ATOM    106  O3  NAG d   1     111.231 155.044 -39.034  0.00  0.00    -0.348 OA
BRANCH 106 107
ATOM    107  C3  NAG d   1     110.664 155.458 -40.283  0.00  0.00     0.098 C 
ATOM    108  C2  NAG d   1     111.712 156.077 -41.206  0.00  0.00     0.110 C 
ATOM    109  C1  NAG d   1     111.050 156.562 -42.503  0.00  0.00     0.156 C 
ATOM    110  H52 NAG d   1     112.181 156.938 -40.707  0.00  0.00     0.094 H 
ATOM    111  O5  NAG d   1     110.056 157.524 -42.193  0.00  0.00    -0.349 OA
ATOM    112  H51 NAG d   1     110.581 155.703 -43.004  0.00  0.00     0.133 H 
ATOM    113  C5  NAG d   1     108.996 157.027 -41.350  0.00  0.00     0.089 C 
ATOM    114  C4  NAG d   1     109.525 156.480 -40.015  0.00  0.00     0.090 C 
ATOM    115  H55 NAG d   1     108.492 156.195 -41.864  0.00  0.00     0.090 H 
ATOM    116  H54 NAG d   1     108.705 155.963 -39.495  0.00  0.00     0.091 H 
ATOM    117  H53 NAG d   1     110.240 154.575 -40.783  0.00  0.00     0.091 H 
BRANCH 108 118
ATOM    118  O2  NAG d   1     112.697 155.088 -41.451  0.00  0.00    -0.388 OA
ATOM    119  H59 NAG d   1     113.091 154.825 -40.628  0.00  0.00     0.210 HD
ENDBRANCH 108 118
BRANCH 109 120
ATOM    120  O1  NAG d   1     111.985 157.139 -43.372  0.00  0.00    -0.369 OA
ATOM    121  H58 NAG d   1     111.547 157.417 -44.168  0.00  0.00     0.212 HD
ENDBRANCH 109 120
BRANCH 113 122
ATOM    122  C6  NAG d   1     108.005 158.184 -41.218  0.00  0.00     0.043 C 
ATOM    123  H56 NAG d   1     108.552 159.094 -40.931  0.00  0.00     0.078 H 
ATOM    124  H57 NAG d   1     107.267 157.938 -40.440  0.00  0.00     0.078 H 
BRANCH 122 125
ATOM    125  O6  NAG d   1     107.326 158.418 -42.443  0.00  0.00    -0.398 OA
ATOM    126  H61 NAG d   1     106.849 157.636 -42.694  0.00  0.00     0.209 HD
ENDBRANCH 122 125
ENDBRANCH 113 122
BRANCH 114 127
ATOM    127  O4  NAG d   1     109.978 157.544 -39.194  0.00  0.00    -0.390 OA
ATOM    128  H60 NAG d   1     110.302 157.193 -38.373  0.00  0.00     0.210 HD
ENDBRANCH 114 127
ENDBRANCH 106 107
ENDBRANCH   1 106
TORSDOF 35
