REMARK WARNING: 32 MAX_TORS EXCEEDED!!!
REMARK  37 active torsions:
REMARK  status: ('A' for Active; 'I' for Inactive)
REMARK    1  A    between atoms: N_1  and  CA_2 
REMARK    2  A    between atoms: CA_2  and  C_3 
REMARK    3  A    between atoms: CA_2  and  CB_5 
REMARK       I    between atoms: C_3  and  N_9 
REMARK    4  A    between atoms: CB_5  and  CG_6 
REMARK    5  A    between atoms: N_9  and  CA_10 
REMARK    6  A    between atoms: CA_10  and  C_11 
REMARK    7  A    between atoms: CA_10  and  CB_13 
REMARK       I    between atoms: C_11  and  N_14 
REMARK    8  A    between atoms: CA_15  and  C_16 
REMARK       I    between atoms: C_16  and  N_21 
REMARK    9  A    between atoms: CA_22  and  C_23 
REMARK       I    between atoms: C_23  and  N_28 
REMARK   10  A    between atoms: CA_29  and  C_30 
REMARK       I    between atoms: C_30  and  N_35 
REMARK   11  A    between atoms: N_35  and  CA_36 
REMARK   12  A    between atoms: CA_36  and  C_37 
REMARK   13  A    between atoms: CA_36  and  CB_39 
REMARK       I    between atoms: C_37  and  N_47 
REMARK   14  A    between atoms: CB_39  and  CG_40 
REMARK   15  A    between atoms: CZ_45  and  OH_46 
REMARK   16  A    between atoms: N_47  and  CA_48 
REMARK   17  A    between atoms: CA_48  and  C_49 
REMARK   18  A    between atoms: CA_48  and  CB_51 
REMARK       I    between atoms: C_49  and  N_54 
REMARK   19  A    between atoms: CB_51  and  CG1_52 
REMARK   20  A    between atoms: CB_51  and  CG2_53 
REMARK   21  A    between atoms: N_54  and  CA_55 
REMARK   22  A    between atoms: CA_55  and  C_56 
REMARK   23  A    between atoms: CA_55  and  CB_58 
REMARK       I    between atoms: C_56  and  N_59 
REMARK   24  A    between atoms: CA_60  and  C_61 
REMARK       I    between atoms: C_61  and  N_66 
REMARK   25  A    between atoms: CA_67  and  C_68 
REMARK       I    between atoms: C_68  and  N_73 
REMARK   26  A    between atoms: N_73  and  CA_74 
REMARK   27  A    between atoms: CA_74  and  C_75 
REMARK   28  A    between atoms: CA_74  and  CB_77 
REMARK       I    between atoms: C_75  and  N_79 
REMARK   29  A    between atoms: CB_77  and  OG_78 
REMARK   30  A    between atoms: N_79  and  CA_80 
REMARK   31  A    between atoms: CA_80  and  C_81 
REMARK   32  A    between atoms: CA_80  and  CB_83 
REMARK       I    between atoms: C_81  and  N_91 
REMARK   33  A    between atoms: CB_83  and  CG_84 
REMARK   34  A    between atoms: CZ_89  and  OH_90 
REMARK   35  A    between atoms: N_91  and  CA_92 
REMARK   36  A    between atoms: CA_92  and  C_93 
REMARK   37  A    between atoms: CA_92  and  CB_95 
ROOT
ATOM      1  CA  ASP d   1     -27.437 -11.412   6.786  0.00  0.00     0.092 C 
ATOM      2  H43 ASP d   1     -28.426 -11.534   7.251  0.00  0.00     0.088 H 
ENDROOT
BRANCH   1   3
ATOM      3  N   ASP d   1     -27.561 -11.652   5.360  0.00  0.00    -0.346 N 
ATOM      4  C   ASP d   1     -28.738 -11.647   4.743  0.00  0.00     0.241 C 
ATOM      5  O   ASP d   1     -29.806 -11.531   5.329  0.00  0.00    -0.271 OA
ATOM      6  H42 ASP d   1     -26.735 -11.827   4.825  0.00  0.00     0.163 HD
BRANCH   4   7
ATOM      7  CA  ASP d   1     -28.703 -11.796   3.230  0.00  0.00     0.093 C 
ATOM      8  H34 ASP d   1     -27.703 -12.142   2.929  0.00  0.00     0.088 H 
BRANCH   7   9
ATOM      9  N   ASP d   1     -29.681 -12.782   2.814  0.00  0.00    -0.346 N 
ATOM     10  C   ASP d   1     -29.603 -14.023   3.275  0.00  0.00     0.241 C 
ATOM     11  O   ASP d   1     -28.671 -14.424   3.977  0.00  0.00    -0.271 OA
ATOM     12  H33 ASP d   1     -30.412 -12.527   2.181  0.00  0.00     0.163 HD
BRANCH  10  13
ATOM     13  CA  ASP d   1     -30.717 -14.976   2.879  0.00  0.00     0.091 C 
ATOM     14  N   ASP d   1     -30.312 -16.357   3.140  0.00  0.00    -0.337 N 
ATOM     15  C   ASP d   1     -29.341 -16.894   2.388  0.00  0.00     0.243 C 
ATOM     16  CD  ASP d   1     -31.078 -16.963   4.243  0.00  0.00    -0.001 C 
ATOM     17  O   ASP d   1     -28.781 -16.287   1.475  0.00  0.00    -0.271 OA
ATOM     18  CG  ASP d   1     -32.343 -16.170   4.237  0.00  0.00    -0.048 C 
ATOM     19  H31 ASP d   1     -30.547 -16.856   5.200  0.00  0.00     0.064 H 
ATOM     20  H32 ASP d   1     -31.276 -18.028   4.051  0.00  0.00     0.064 H 
ATOM     21  CB  ASP d   1     -31.958 -14.784   3.762  0.00  0.00    -0.036 C 
ATOM     22  H29 ASP d   1     -33.075 -16.621   3.550  0.00  0.00     0.035 H 
ATOM     23  H30 ASP d   1     -32.771 -16.123   5.249  0.00  0.00     0.035 H 
ATOM     24  H27 ASP d   1     -32.777 -14.337   3.180  0.00  0.00     0.036 H 
ATOM     25  H28 ASP d   1     -31.722 -14.137   4.620  0.00  0.00     0.036 H 
ATOM     26  H26 ASP d   1     -30.966 -14.831   1.818  0.00  0.00     0.087 H 
BRANCH  15  27
ATOM     27  CA  ASP d   1     -28.961 -18.344   2.651  0.00  0.00     0.092 C 
ATOM     28  N   ASP d   1     -28.675 -19.031   1.388  0.00  0.00    -0.337 N 
ATOM     29  C   ASP d   1     -29.570 -18.985   0.386  0.00  0.00     0.243 C 
ATOM     30  CD  ASP d   1     -27.428 -19.816   1.471  0.00  0.00    -0.001 C 
ATOM     31  O   ASP d   1     -30.703 -18.505   0.496  0.00  0.00    -0.271 OA
ATOM     32  CG  ASP d   1     -27.077 -19.750   2.938  0.00  0.00    -0.048 C 
ATOM     33  H24 ASP d   1     -26.636 -19.365   0.855  0.00  0.00     0.064 H 
ATOM     34  H25 ASP d   1     -27.594 -20.855   1.151  0.00  0.00     0.064 H 
ATOM     35  CB  ASP d   1     -27.640 -18.457   3.407  0.00  0.00    -0.036 C 
ATOM     36  H22 ASP d   1     -27.531 -20.591   3.483  0.00  0.00     0.035 H 
ATOM     37  H23 ASP d   1     -25.986 -19.770   3.076  0.00  0.00     0.035 H 
ATOM     38  H20 ASP d   1     -27.810 -18.474   4.494  0.00  0.00     0.036 H 
ATOM     39  H21 ASP d   1     -26.970 -17.622   3.154  0.00  0.00     0.036 H 
ATOM     40  H19 ASP d   1     -29.773 -18.842   3.201  0.00  0.00     0.087 H 
BRANCH  29  41
ATOM     41  CA  ASP d   1     -29.157 -19.566  -0.952  0.00  0.00     0.092 C 
ATOM     42  N   ASP d   1     -30.280 -19.523  -1.894  0.00  0.00    -0.337 N 
ATOM     43  C   ASP d   1     -31.366 -20.295  -1.709  0.00  0.00     0.243 C 
ATOM     44  CD  ASP d   1     -30.112 -18.470  -2.909  0.00  0.00    -0.001 C 
ATOM     45  O   ASP d   1     -31.451 -21.104  -0.783  0.00  0.00    -0.271 OA
ATOM     46  CG  ASP d   1     -28.656 -18.171  -2.859  0.00  0.00    -0.048 C 
ATOM     47  H17 ASP d   1     -30.706 -17.580  -2.654  0.00  0.00     0.064 H 
ATOM     48  H18 ASP d   1     -30.405 -18.833  -3.905  0.00  0.00     0.064 H 
ATOM     49  CB  ASP d   1     -28.079 -18.695  -1.619  0.00  0.00    -0.036 C 
ATOM     50  H15 ASP d   1     -28.158 -18.641  -3.720  0.00  0.00     0.035 H 
ATOM     51  H16 ASP d   1     -28.506 -17.082  -2.899  0.00  0.00     0.035 H 
ATOM     52  H13 ASP d   1     -27.189 -19.302  -1.844  0.00  0.00     0.036 H 
ATOM     53  H14 ASP d   1     -27.799 -17.866  -0.953  0.00  0.00     0.036 H 
ATOM     54  H12 ASP d   1     -28.798 -20.596  -0.813  0.00  0.00     0.087 H 
BRANCH  43  55
ATOM     55  CA  ASP d   1     -32.513 -20.143  -2.709  0.00  0.00     0.086 C 
ATOM     56  H8  ASP d   1     -32.081 -19.957  -3.703  0.00  0.00     0.086 H 
BRANCH  55  57
ATOM     57  N   ASP d   1     -33.304 -21.361  -2.769  0.00  0.00    -0.346 N 
ATOM     58  C   ASP d   1     -33.871 -21.747  -3.905  0.00  0.00     0.249 C 
ATOM     59  O   ASP d   1     -33.697 -21.167  -4.972  0.00  0.00    -0.271 OA
ATOM     60  H7  ASP d   1     -33.422 -21.915  -1.945  0.00  0.00     0.163 HD
BRANCH  58  61
ATOM     61  CA  ASP d   1     -34.728 -22.992  -3.834  0.00  0.00     0.185 C 
ATOM     62  H4  ASP d   1     -35.103 -23.101  -2.806  0.00  0.00     0.100 H 
BRANCH  61  63
ATOM     63  N   ASP d   1     -35.877 -22.900  -4.726  0.00  0.00    -0.066 N 
ATOM     64  H1  ASP d   1     -36.426 -23.743  -4.655  0.00  0.00     0.275 HD
ATOM     65  H2  ASP d   1     -35.557 -22.786  -5.675  0.00  0.00     0.275 HD
ATOM     66  H3  ASP d   1     -36.443 -22.108  -4.465  0.00  0.00     0.275 HD
ENDBRANCH  61  63
BRANCH  61  67
ATOM     67  CB  ASP d   1     -33.863 -24.201  -4.167  0.00  0.00     0.050 C 
ATOM     68  H5  ASP d   1     -33.313 -23.997  -5.098  0.00  0.00     0.052 H 
ATOM     69  H6  ASP d   1     -34.516 -25.075  -4.310  0.00  0.00     0.052 H 
BRANCH  67  70
ATOM     70  CG  ASP d   1     -32.866 -24.512  -3.070  0.00  0.00     0.175 C 
ATOM     71  OD1 ASP d   1     -31.765 -25.015  -3.379  0.00  0.00    -0.648 OA
ATOM     72  OD2 ASP d   1     -33.186 -24.247  -1.893  0.00  0.00    -0.648 OA
ENDBRANCH  67  70
ENDBRANCH  61  67
ENDBRANCH  58  61
ENDBRANCH  55  57
BRANCH  55  73
ATOM     73  CB  ASP d   1     -33.414 -18.959  -2.342  0.00  0.00    -0.049 C 
ATOM     74  H9  ASP d   1     -32.812 -18.040  -2.298  0.00  0.00     0.030 H 
ATOM     75  H10 ASP d   1     -33.877 -19.141  -1.361  0.00  0.00     0.030 H 
ATOM     76  H11 ASP d   1     -34.200 -18.846  -3.104  0.00  0.00     0.030 H 
ENDBRANCH  55  73
ENDBRANCH  43  55
ENDBRANCH  29  41
ENDBRANCH  15  27
ENDBRANCH  10  13
ENDBRANCH   7   9
BRANCH   7  77
ATOM     77  CB  ASP d   1     -28.970 -10.450   2.573  0.00  0.00    -0.014 C 
ATOM     78  H35 ASP d   1     -29.880 -10.019   3.015  0.00  0.00     0.043 H 
ATOM     79  H36 ASP d   1     -29.126 -10.611   1.496  0.00  0.00     0.043 H 
BRANCH  77  80
ATOM     80  CG  ASP d   1     -27.835  -9.468   2.754  0.00  0.00    -0.056 A 
ATOM     81  CD1 ASP d   1     -26.714  -9.521   1.933  0.00  0.00    -0.074 A 
ATOM     82  CE1 ASP d   1     -25.673  -8.621   2.085  0.00  0.00    -0.051 A 
ATOM     83  H37 ASP d   1     -26.654 -10.280   1.161  0.00  0.00     0.084 H 
ATOM     84  CZ  ASP d   1     -25.740  -7.669   3.091  0.00  0.00     0.065 A 
ATOM     85  H39 ASP d   1     -24.814  -8.660   1.424  0.00  0.00     0.087 H 
ATOM     86  CE2 ASP d   1     -26.840  -7.595   3.919  0.00  0.00    -0.051 A 
ATOM     87  CD2 ASP d   1     -27.881  -8.495   3.750  0.00  0.00    -0.074 A 
ATOM     88  H40 ASP d   1     -26.890  -6.840   4.695  0.00  0.00     0.087 H 
ATOM     89  H38 ASP d   1     -28.744  -8.441   4.403  0.00  0.00     0.084 H 
BRANCH  84  90
ATOM     90  OH  ASP d   1     -24.712  -6.779   3.252  0.00  0.00    -0.361 OA
ATOM     91  H41 ASP d   1     -24.035  -6.960   2.611  0.00  0.00     0.217 HD
ENDBRANCH  84  90
ENDBRANCH  77  80
ENDBRANCH   7  77
ENDBRANCH   4   7
ENDBRANCH   1   3
BRANCH   1  92
ATOM     92  C   ASP d   1     -26.956  -9.987   7.007  0.00  0.00     0.241 C 
ATOM     93  O   ASP d   1     -25.811  -9.660   6.709  0.00  0.00    -0.271 OA
ATOM     94  N   ASP d   1     -27.841  -9.139   7.516  0.00  0.00    -0.346 N 
ATOM     95  H51 ASP d   1     -28.745  -9.476   7.778  0.00  0.00     0.163 HD
BRANCH  94  96
ATOM     96  CA  ASP d   1     -27.526  -7.734   7.701  0.00  0.00     0.086 C 
ATOM     97  H52 ASP d   1     -26.936  -7.394   6.837  0.00  0.00     0.086 H 
BRANCH  96  98
ATOM     98  C   ASP d   1     -26.699  -7.521   8.961  0.00  0.00     0.243 C 
ATOM     99  O   ASP d   1     -26.727  -8.346   9.874  0.00  0.00    -0.271 OA
ATOM    100  N   ASP d   1     -25.950  -6.411   9.009  0.00  0.00    -0.337 N 
ATOM    101  CA  ASP d   1     -25.278  -6.007  10.243  0.00  0.00     0.092 C 
ATOM    102  CD  ASP d   1     -25.685  -5.472   7.903  0.00  0.00    -0.001 C 
ATOM    103  CB  ASP d   1     -24.399  -4.834   9.789  0.00  0.00    -0.036 C 
ATOM    104  H56 ASP d   1     -24.662  -6.825  10.646  0.00  0.00     0.087 H 
ATOM    105  CG  ASP d   1     -25.095  -4.288   8.601  0.00  0.00    -0.048 C 
ATOM    106  H57 ASP d   1     -23.391  -5.184   9.522  0.00  0.00     0.036 H 
ATOM    107  H58 ASP d   1     -24.326  -4.074  10.581  0.00  0.00     0.036 H 
ATOM    108  H59 ASP d   1     -24.382  -3.770   7.943  0.00  0.00     0.035 H 
ATOM    109  H60 ASP d   1     -25.887  -3.589   8.907  0.00  0.00     0.035 H 
ATOM    110  H61 ASP d   1     -26.616  -5.201   7.383  0.00  0.00     0.064 H 
ATOM    111  H62 ASP d   1     -24.974  -5.901   7.182  0.00  0.00     0.064 H 
BRANCH 101 112
ATOM    112  C   ASP d   1     -26.305  -5.578  11.295  0.00  0.00     0.243 C 
ATOM    113  O   ASP d   1     -27.494  -5.469  10.982  0.00  0.00    -0.271 OA
ATOM    114  N   ASP d   1     -25.868  -5.361  12.543  0.00  0.00    -0.337 N 
ATOM    115  CA  ASP d   1     -26.838  -4.901  13.542  0.00  0.00     0.091 C 
ATOM    116  CD  ASP d   1     -24.523  -5.539  13.111  0.00  0.00    -0.001 C 
ATOM    117  CB  ASP d   1     -25.969  -4.631  14.778  0.00  0.00    -0.036 C 
ATOM    118  H63 ASP d   1     -27.581  -5.684  13.752  0.00  0.00     0.087 H 
ATOM    119  CG  ASP d   1     -24.789  -5.559  14.590  0.00  0.00    -0.048 C 
ATOM    120  H64 ASP d   1     -26.515  -4.871  15.702  0.00  0.00     0.036 H 
ATOM    121  H65 ASP d   1     -25.642  -3.581  14.807  0.00  0.00     0.036 H 
ATOM    122  H66 ASP d   1     -25.038  -6.576  14.926  0.00  0.00     0.035 H 
ATOM    123  H67 ASP d   1     -23.914  -5.192  15.147  0.00  0.00     0.035 H 
ATOM    124  H68 ASP d   1     -23.863  -4.702  12.838  0.00  0.00     0.064 H 
ATOM    125  H69 ASP d   1     -24.073  -6.485  12.776  0.00  0.00     0.064 H 
BRANCH 115 126
ATOM    126  C   ASP d   1     -27.561  -3.637  13.081  0.00  0.00     0.241 C 
ATOM    127  O   ASP d   1     -26.980  -2.833  12.349  0.00  0.00    -0.271 OA
ATOM    128  N   ASP d   1     -28.823  -3.486  13.463  0.00  0.00    -0.344 N 
ATOM    129  H70 ASP d   1     -29.248  -4.174  14.051  0.00  0.00     0.163 HD
BRANCH 128 130
ATOM    130  CA  ASP d   1     -29.597  -2.324  13.033  0.00  0.00     0.109 C 
ATOM    131  H71 ASP d   1     -29.509  -2.235  11.940  0.00  0.00     0.090 H 
BRANCH 130 132
ATOM    132  C   ASP d   1     -29.047  -1.050  13.666  0.00  0.00     0.243 C 
ATOM    133  O   ASP d   1     -28.439  -1.093  14.738  0.00  0.00    -0.271 OA
ATOM    134  N   ASP d   1     -29.254   0.075  12.984  0.00  0.00    -0.346 N 
ATOM    135  H75 ASP d   1     -29.717   0.025  12.099  0.00  0.00     0.163 HD
BRANCH 134 136
ATOM    136  CA  ASP d   1     -28.828   1.379  13.483  0.00  0.00     0.093 C 
ATOM    137  H76 ASP d   1     -27.739   1.358  13.635  0.00  0.00     0.088 H 
BRANCH 136 138
ATOM    138  C   ASP d   1     -29.500   1.680  14.824  0.00  0.00     0.241 C 
ATOM    139  O   ASP d   1     -30.715   1.556  14.951  0.00  0.00    -0.271 OA
ATOM    140  N   ASP d   1     -28.703   2.064  15.816  0.00  0.00    -0.345 N 
ATOM    141  H84 ASP d   1     -27.726   2.180  15.638  0.00  0.00     0.163 HD
BRANCH 140 142
ATOM    142  CA  ASP d   1     -29.217   2.322  17.162  0.00  0.00     0.093 C 
ATOM    143  H85 ASP d   1     -30.265   1.990  17.200  0.00  0.00     0.089 H 
BRANCH 142 144
ATOM    144  C   ASP d   1     -29.175   3.811  17.492  0.00  0.00     0.196 C 
ATOM    145  O   ASP d   1     -28.203   4.500  17.177  0.00  0.00    -0.646 OA
ATOM    146  OXT ASP d   1     -30.112   4.354  18.080  0.00  0.00    -0.646 OA
ENDBRANCH 142 144
BRANCH 142 147
ATOM    147  CB  ASP d   1     -28.421   1.528  18.200  0.00  0.00    -0.048 C 
ATOM    148  H86 ASP d   1     -28.820   1.734  19.204  0.00  0.00     0.030 H 
ATOM    149  H87 ASP d   1     -27.363   1.827  18.158  0.00  0.00     0.030 H 
ATOM    150  H88 ASP d   1     -28.507   0.453  17.984  0.00  0.00     0.030 H 
ENDBRANCH 142 147
ENDBRANCH 140 142
ENDBRANCH 136 138
BRANCH 136 151
ATOM    151  CB  ASP d   1     -29.157   2.472  12.457  0.00  0.00    -0.014 C 
ATOM    152  H77 ASP d   1     -30.248   2.503  12.322  0.00  0.00     0.043 H 
ATOM    153  H78 ASP d   1     -28.677   2.208  11.503  0.00  0.00     0.043 H 
BRANCH 151 154
ATOM    154  CG  ASP d   1     -28.687   3.856  12.860  0.00  0.00    -0.056 A 
ATOM    155  CD1 ASP d   1     -29.540   4.741  13.505  0.00  0.00    -0.074 A 
ATOM    156  CE1 ASP d   1     -29.110   6.011  13.887  0.00  0.00    -0.051 A 
ATOM    157  H79 ASP d   1     -30.560   4.439  13.716  0.00  0.00     0.084 H 
ATOM    158  CZ  ASP d   1     -27.810   6.397  13.618  0.00  0.00     0.065 A 
ATOM    159  H81 ASP d   1     -29.789   6.690  14.390  0.00  0.00     0.087 H 
ATOM    160  CE2 ASP d   1     -26.947   5.534  12.974  0.00  0.00    -0.051 A 
ATOM    161  CD2 ASP d   1     -27.386   4.272  12.601  0.00  0.00    -0.074 A 
ATOM    162  H82 ASP d   1     -25.930   5.841  12.760  0.00  0.00     0.087 H 
ATOM    163  H80 ASP d   1     -26.702   3.598  12.098  0.00  0.00     0.084 H 
BRANCH 158 164
ATOM    164  OH  ASP d   1     -27.374   7.649  13.984  0.00  0.00    -0.361 OA
ATOM    165  H83 ASP d   1     -26.640   7.565  14.581  0.00  0.00     0.217 HD
ENDBRANCH 158 164
ENDBRANCH 151 154
ENDBRANCH 136 151
ENDBRANCH 134 136
ENDBRANCH 130 132
BRANCH 130 166
ATOM    166  CB  ASP d   1     -31.073  -2.498  13.385  0.00  0.00     0.044 C 
ATOM    167  H72 ASP d   1     -31.615  -1.573  13.138  0.00  0.00     0.077 H 
ATOM    168  H73 ASP d   1     -31.166  -2.701  14.462  0.00  0.00     0.077 H 
BRANCH 166 169
ATOM    169  OG  ASP d   1     -31.637  -3.574  12.660  0.00  0.00    -0.398 OA
ATOM    170  H74 ASP d   1     -32.553  -3.665  12.893  0.00  0.00     0.209 HD
ENDBRANCH 166 169
ENDBRANCH 130 166
ENDBRANCH 128 130
ENDBRANCH 115 126
ENDBRANCH 101 112
ENDBRANCH  96  98
BRANCH  96 171
ATOM    171  CB  ASP d   1     -28.805  -6.911   7.766  0.00  0.00    -0.049 C 
ATOM    172  H53 ASP d   1     -28.551  -5.850   7.906  0.00  0.00     0.030 H 
ATOM    173  H54 ASP d   1     -29.420  -7.256   8.610  0.00  0.00     0.030 H 
ATOM    174  H55 ASP d   1     -29.367  -7.033   6.829  0.00  0.00     0.030 H 
ENDBRANCH  96 171
ENDBRANCH  94  96
ENDBRANCH   1  92
BRANCH   1 175
ATOM    175  CB  ASP d   1     -26.463 -12.396   7.447  0.00  0.00    -0.033 C 
ATOM    176  H44 ASP d   1     -25.485 -12.306   6.952  0.00  0.00     0.042 H 
BRANCH 175 177
ATOM    177  CG1 ASP d   1     -26.291 -12.056   8.921  0.00  0.00    -0.071 C 
ATOM    178  H45 ASP d   1     -25.591 -12.768   9.382  0.00  0.00     0.028 H 
ATOM    179  H46 ASP d   1     -27.265 -12.119   9.428  0.00  0.00     0.028 H 
ATOM    180  H47 ASP d   1     -25.892 -11.035   9.018  0.00  0.00     0.028 H 
ENDBRANCH 175 177
BRANCH 175 181
ATOM    181  CG2 ASP d   1     -26.959 -13.830   7.279  0.00  0.00    -0.071 C 
ATOM    182  H48 ASP d   1     -27.076 -14.054   6.208  0.00  0.00     0.028 H 
ATOM    183  H49 ASP d   1     -27.928 -13.944   7.786  0.00  0.00     0.028 H 
ATOM    184  H50 ASP d   1     -26.230 -14.524   7.721  0.00  0.00     0.028 H 
ENDBRANCH 175 181
ENDBRANCH   1 175
TORSDOF 37
