REMARK  12 active torsions:
REMARK  status: ('A' for Active; 'I' for Inactive)
REMARK    1  A    between atoms: N_1  and  CA_2 
REMARK    2  A    between atoms: CA_2  and  C_3 
REMARK    3  A    between atoms: CA_2  and  CB_6 
REMARK    4  A    between atoms: CB_6  and  CG_7 
REMARK    5  A    between atoms: CG_7  and  CD_8 
REMARK    6  A    between atoms: CD_8  and  NE_9 
REMARK    7  A    between atoms: CD_8  and  C5'_10 
REMARK    8  A    between atoms: C5'_10  and  C4'_11 
REMARK    9  A    between atoms: C3'_13  and  O3'_14 
REMARK   10  A    between atoms: C2'_15  and  O2'_16 
REMARK   11  A    between atoms: C1'_17  and  N9_18 
REMARK   12  A    between atoms: C6_22  and  N6_23 
ROOT
ATOM      1  C4' SFG d   1     -33.606  11.118 -27.862  0.00  0.00     0.070 C 
ATOM      2  O4' SFG d   1     -33.456  11.769 -26.583  0.00  0.00    -0.355 OA
ATOM      3  C3' SFG d   1     -33.895  12.256 -28.819  0.00  0.00     0.089 C 
ATOM      4  C2' SFG d   1     -34.791  13.127 -27.959  0.00  0.00     0.105 C 
ATOM      5  C1' SFG d   1     -34.203  12.978 -26.565  0.00  0.00     0.139 C 
ATOM      6  H15 SFG d   1     -34.482  10.454 -27.823  0.00  0.00     0.087 H 
ATOM      7  H16 SFG d   1     -32.975  12.791 -29.099  0.00  0.00     0.091 H 
ATOM      8  H18 SFG d   1     -34.814  14.171 -28.305  0.00  0.00     0.093 H 
ATOM      9  H20 SFG d   1     -35.028  12.901 -25.841  0.00  0.00     0.122 H 
ENDROOT
BRANCH   1  10
ATOM     10  C5' SFG d   1     -32.401  10.249 -28.269  0.00  0.00    -0.012 C 
ATOM     11  H13 SFG d   1     -32.331   9.414 -27.557  0.00  0.00     0.040 H 
ATOM     12  H14 SFG d   1     -32.593   9.855 -29.278  0.00  0.00     0.040 H 
BRANCH  10  13
ATOM     13  CD  SFG d   1     -31.047  10.964 -28.292  0.00  0.00     0.102 C 
ATOM     14  H9  SFG d   1     -31.093  11.887 -27.695  0.00  0.00     0.084 H 
BRANCH  13  15
ATOM     15  CG  SFG d   1     -30.728  11.279 -29.750  0.00  0.00    -0.036 C 
ATOM     16  H7  SFG d   1     -30.013  10.536 -30.133  0.00  0.00     0.036 H 
ATOM     17  H8  SFG d   1     -31.655  11.234 -30.341  0.00  0.00     0.036 H 
BRANCH  15  18
ATOM     18  CB  SFG d   1     -30.120  12.672 -29.875  0.00  0.00    -0.027 C 
ATOM     19  H5  SFG d   1     -30.890  13.429 -29.668  0.00  0.00     0.036 H 
ATOM     20  H6  SFG d   1     -29.297  12.780 -29.154  0.00  0.00     0.036 H 
BRANCH  18  21
ATOM     21  CA  SFG d   1     -29.583  12.863 -31.297  0.00  0.00     0.182 C 
ATOM     22  H4  SFG d   1     -30.422  12.716 -31.994  0.00  0.00     0.101 H 
BRANCH  21  23
ATOM     23  N   SFG d   1     -28.539  11.888 -31.643  0.00  0.00    -0.065 N 
ATOM     24  H1  SFG d   1     -28.898  10.954 -31.521  0.00  0.00     0.275 HD
ATOM     25  H2  SFG d   1     -27.741  12.023 -31.042  0.00  0.00     0.275 HD
ATOM     26  H3  SFG d   1     -28.262  12.018 -32.603  0.00  0.00     0.275 HD
ENDBRANCH  21  23
BRANCH  21  27
ATOM     27  C   SFG d   1     -29.059  14.287 -31.476  0.00  0.00     0.204 C 
ATOM     28  O   SFG d   1     -27.842  14.504 -31.300  0.00  0.00    -0.646 OA
ATOM     29  OXT SFG d   1     -29.905  15.145 -31.793  0.00  0.00    -0.646 OA
ENDBRANCH  21  27
ENDBRANCH  18  21
ENDBRANCH  15  18
ENDBRANCH  13  15
BRANCH  13  30
ATOM     30  NE  SFG d   1     -29.997  10.084 -27.776  0.00  0.00    -0.075 N 
ATOM     31  H10 SFG d   1     -30.188   9.863 -26.811  0.00  0.00     0.274 HD
ATOM     32  H11 SFG d   1     -29.105  10.549 -27.843  0.00  0.00     0.274 HD
ATOM     33  H12 SFG d   1     -29.974   9.234 -28.318  0.00  0.00     0.274 HD
ENDBRANCH  13  30
ENDBRANCH  10  13
ENDBRANCH   1  10
BRANCH   3  34
ATOM     34  O3' SFG d   1     -34.547  11.775 -30.022  0.00  0.00    -0.390 OA
ATOM     35  H17 SFG d   1     -34.716  12.507 -30.603  0.00  0.00     0.210 HD
ENDBRANCH   3  34
BRANCH   5  36
ATOM     36  N9  SFG d   1     -33.312  14.080 -26.134  0.00  0.00    -0.294 N 
ATOM     37  C8  SFG d   1     -31.991  14.026 -25.958  0.00  0.00     0.071 A 
ATOM     38  N7  SFG d   1     -31.585  15.184 -25.435  0.00  0.00    -0.236 NA
ATOM     39  H21 SFG d   1     -31.351  13.179 -26.201  0.00  0.00     0.144 H 
ATOM     40  C5  SFG d   1     -32.660  15.978 -25.283  0.00  0.00     0.149 A 
ATOM     41  C6  SFG d   1     -32.819  17.255 -24.871  0.00  0.00     0.155 A 
ATOM     42  C4  SFG d   1     -33.732  15.264 -25.676  0.00  0.00     0.167 A 
ATOM     43  N1  SFG d   1     -34.026  17.812 -24.777  0.00  0.00    -0.222 NA
ATOM     44  C2  SFG d   1     -35.154  17.106 -25.181  0.00  0.00     0.091 A 
ATOM     45  N3  SFG d   1     -34.962  15.801 -25.626  0.00  0.00    -0.222 NA
ATOM     46  H24 SFG d   1     -36.141  17.553 -25.151  0.00  0.00     0.146 H 
BRANCH  41  47
ATOM     47  N6  SFG d   1     -31.742  17.949 -24.484  0.00  0.00    -0.382 N 
ATOM     48  H22 SFG d   1     -31.844  18.924 -24.167  0.00  0.00     0.157 HD
ATOM     49  H23 SFG d   1     -30.811  17.509 -24.503  0.00  0.00     0.157 HD
ENDBRANCH  41  47
ENDBRANCH   5  36
BRANCH   4  50
ATOM     50  O2' SFG d   1     -36.089  12.565 -27.906  0.00  0.00    -0.388 OA
ATOM     51  H19 SFG d   1     -36.648  13.112 -27.367  0.00  0.00     0.210 HD
ENDBRANCH   4  50
TORSDOF 12
