REMARK  7 active torsions:
REMARK  status: ('A' for Active; 'I' for Inactive)
REMARK    1  A    between atoms: C7_1  and  C1_7 
REMARK    2  A    between atoms: C4_2  and  N11_11 
REMARK    3  A    between atoms: C14_14  and  C3_5 
REMARK       I    between atoms: C1_7  and  N27_27 
REMARK    4  A    between atoms: N10_10  and  C8_8 
REMARK    5  A    between atoms: C12_12  and  N10_10 
REMARK    6  A    between atoms: N11_11  and  C18_18 
REMARK    7  A    between atoms: C23_23  and  N24_24 
ROOT
ATOM      1  C7  MOL d   1     -12.120  29.339   9.994  0.00  0.00     0.079 A 
ATOM      2  C4  MOL d   1     -14.810  29.207   9.605  0.00  0.00     0.147 A 
ATOM      3  C5  MOL d   1     -14.252  28.714  10.767  0.00  0.00     0.091 A 
ATOM      4  C6  MOL d   1     -12.890  28.770  10.974  0.00  0.00    -0.040 A 
ATOM      5  C2  MOL d   1     -15.001  28.096  11.814  0.00  0.00     0.103 C 
ATOM      6  C8  MOL d   1     -12.722  29.820   8.853  0.00  0.00     0.146 A 
ATOM      7  N9  MOL d   1     -14.048  29.763   8.643  0.00  0.00    -0.211 NA
ATOM      8  N25 MOL d   1     -15.585  27.487  12.623  0.00  0.00    -0.191 NA
ATOM      9  H1  MOL d   1     -12.444  28.378  11.881  0.00  0.00     0.087 H 
ENDROOT
BRANCH   2  10
ATOM     10  N11 MOL d   1     -16.220  29.091   9.488  0.00  0.00    -0.367 N 
ATOM     11  H6  MOL d   1     -16.820  28.790  10.269  0.00  0.00     0.161 HD
BRANCH  10  12
ATOM     12  C18 MOL d   1     -16.752  29.433   8.169  0.00  0.00     0.038 C 
ATOM     13  C19 MOL d   1     -18.248  29.683   8.251  0.00  0.00    -0.044 C 
ATOM     14  C20 MOL d   1     -18.785  30.107   6.891  0.00  0.00    -0.063 C 
ATOM     15  H12 MOL d   1     -18.444  30.480   8.983  0.00  0.00     0.036 H 
ATOM     16  H13 MOL d   1     -18.754  28.760   8.570  0.00  0.00     0.036 H 
ATOM     17  C21 MOL d   1     -18.430  29.131   5.782  0.00  0.00    -0.063 C 
ATOM     18  H14 MOL d   1     -18.364  31.092   6.639  0.00  0.00     0.033 H 
ATOM     19  H15 MOL d   1     -19.881  30.182   6.955  0.00  0.00     0.033 H 
ATOM     20  C22 MOL d   1     -16.942  28.873   5.749  0.00  0.00    -0.037 C 
ATOM     21  H16 MOL d   1     -18.744  29.553   4.816  0.00  0.00     0.033 H 
ATOM     22  H17 MOL d   1     -18.957  28.181   5.956  0.00  0.00     0.033 H 
ATOM     23  C23 MOL d   1     -16.455  28.389   7.099  0.00  0.00     0.119 C 
ATOM     24  H18 MOL d   1     -16.419  29.805   5.489  0.00  0.00     0.036 H 
ATOM     25  H19 MOL d   1     -16.725  28.107   4.990  0.00  0.00     0.036 H 
ATOM     26  H20 MOL d   1     -15.364  28.254   7.052  0.00  0.00     0.087 H 
ATOM     27  H11 MOL d   1     -16.268  30.370   7.855  0.00  0.00     0.075 H 
BRANCH  23  28
ATOM     28  N24 MOL d   1     -17.058  27.098   7.385  0.00  0.00    -0.073 N 
ATOM     29  H21 MOL d   1     -16.738  26.769   8.283  0.00  0.00     0.274 HD
ATOM     30  H22 MOL d   1     -16.792  26.438   6.671  0.00  0.00     0.274 HD
ATOM     31  H23 MOL d   1     -18.061  27.192   7.399  0.00  0.00     0.274 HD
ENDBRANCH  23  28
ENDBRANCH  10  12
ENDBRANCH   2  10
BRANCH   1  32
ATOM     32  C1  MOL d   1     -10.664  29.394  10.207  0.00  0.00     0.253 C 
ATOM     33  O26 MOL d   1      -9.889  29.891   9.394  0.00  0.00    -0.268 OA
ATOM     34  N27 MOL d   1     -10.333  28.829  11.399  0.00  0.00    -0.366 N 
ATOM     35  H24 MOL d   1      -9.376  28.791  11.686  0.00  0.00     0.159 HD
ATOM     36  H25 MOL d   1     -11.047  28.451  11.989  0.00  0.00     0.159 HD
ENDBRANCH   1  32
BRANCH   6  37
ATOM     37  N10 MOL d   1     -11.838  30.358   7.935  0.00  0.00    -0.340 N 
ATOM     38  H5  MOL d   1     -10.838  30.286   8.173  0.00  0.00     0.167 HD
BRANCH  37  39
ATOM     39  C12 MOL d   1     -12.134  30.979   6.739  0.00  0.00     0.034 A 
ATOM     40  C13 MOL d   1     -11.086  31.607   6.104  0.00  0.00    -0.051 A 
ATOM     41  C14 MOL d   1     -11.304  32.255   4.916  0.00  0.00    -0.060 A 
ATOM     42  H7  MOL d   1     -10.094  31.589   6.541  0.00  0.00     0.087 H 
ATOM     43  C15 MOL d   1     -12.565  32.274   4.368  0.00  0.00    -0.077 A 
ATOM     44  C16 MOL d   1     -13.608  31.639   5.005  0.00  0.00    -0.080 A 
ATOM     45  H8  MOL d   1     -12.739  32.791   3.431  0.00  0.00     0.084 H 
ATOM     46  C17 MOL d   1     -13.397  30.987   6.198  0.00  0.00    -0.057 A 
ATOM     47  H9  MOL d   1     -14.598  31.653   4.565  0.00  0.00     0.083 H 
ATOM     48  H10 MOL d   1     -14.215  30.487   6.704  0.00  0.00     0.086 H 
BRANCH  41  49
ATOM     49  C3  MOL d   1     -10.181  32.937   4.230  0.00  0.00    -0.051 C 
ATOM     50  H2  MOL d   1      -9.261  32.811   4.819  0.00  0.00     0.033 H 
ATOM     51  H3  MOL d   1     -10.409  34.009   4.131  0.00  0.00     0.033 H 
ATOM     52  H4  MOL d   1     -10.040  32.498   3.231  0.00  0.00     0.033 H 
ENDBRANCH  41  49
ENDBRANCH  37  39
ENDBRANCH   6  37
TORSDOF 7
