REMARK  10 active torsions:
REMARK  status: ('A' for Active; 'I' for Inactive)
REMARK    1  A    between atoms: C2_2  and  C7_7 
REMARK    2  A    between atoms: C7_7  and  C8_8 
REMARK    3  A    between atoms: C8_8  and  N9_9 
REMARK    4  A    between atoms: C8_8  and  B16_16 
REMARK       I    between atoms: N9_9  and  C10_10 
REMARK    5  A    between atoms: C10_10  and  C12_12 
REMARK    6  A    between atoms: C12_12  and  C13_13 
REMARK    7  A    between atoms: C12_12  and  C15_15 
REMARK    8  A    between atoms: C13_13  and  S14_14 
REMARK    9  A    between atoms: B16_16  and  O17_17 
REMARK   10  A    between atoms: B16_16  and  O18_18 
ROOT
ATOM      1  C8  BX6 d   1     126.579 -61.400 124.480  0.00  0.00    -0.029 C 
ATOM      2  H9  BX6 d   1     127.512 -61.660 125.001  0.00  0.00     0.053 H 
ENDROOT
BRANCH   1   3
ATOM      3  C7  BX6 d   1     126.676 -61.828 122.956  0.00  0.00    -0.032 C 
ATOM      4  H6  BX6 d   1     126.544 -60.920 122.350  0.00  0.00     0.041 H 
ATOM      5  H7  BX6 d   1     127.684 -62.235 122.792  0.00  0.00     0.041 H 
BRANCH   3   6
ATOM      6  C2  BX6 d   1     125.638 -62.904 122.432  0.00  0.00    -0.057 A 
ATOM      7  C1  BX6 d   1     124.367 -62.681 121.830  0.00  0.00    -0.077 A 
ATOM      8  C6  BX6 d   1     123.503 -63.679 121.408  0.00  0.00    -0.082 A 
ATOM      9  H1  BX6 d   1     124.052 -61.653 121.691  0.00  0.00     0.084 H 
ATOM     10  C5  BX6 d   1     123.879 -64.990 121.546  0.00  0.00    -0.083 A 
ATOM     11  H5  BX6 d   1     122.542 -63.426 120.974  0.00  0.00     0.083 H 
ATOM     12  C4  BX6 d   1     125.104 -65.262 122.119  0.00  0.00    -0.082 A 
ATOM     13  H4  BX6 d   1     123.230 -65.792 121.213  0.00  0.00     0.083 H 
ATOM     14  C3  BX6 d   1     125.972 -64.250 122.557  0.00  0.00    -0.077 A 
ATOM     15  H3  BX6 d   1     125.407 -66.296 122.235  0.00  0.00     0.083 H 
ATOM     16  H2  BX6 d   1     126.922 -64.522 123.002  0.00  0.00     0.084 H 
ENDBRANCH   3   6
ENDBRANCH   1   3
BRANCH   1  17
ATOM     17  N9  BX6 d   1     125.471 -62.111 125.076  0.00  0.00    -0.366 N 
ATOM     18  C10 BX6 d   1     125.688 -63.318 125.849  0.00  0.00     0.221 C 
ATOM     19  O11 BX6 d   1     126.808 -63.716 125.983  0.00  0.00    -0.273 OA
ATOM     20  H10 BX6 d   1     124.541 -61.765 124.953  0.00  0.00     0.161 HD
BRANCH  18  21
ATOM     21  C12 BX6 d   1     124.437 -64.025 126.424  0.00  0.00     0.028 C 
ATOM     22  H11 BX6 d   1     123.623 -63.295 126.540  0.00  0.00     0.055 H 
BRANCH  21  23
ATOM     23  C13 BX6 d   1     124.039 -65.038 125.351  0.00  0.00    -0.015 C 
ATOM     24  H12 BX6 d   1     124.883 -65.729 125.211  0.00  0.00     0.049 H 
ATOM     25  H13 BX6 d   1     123.859 -64.486 124.417  0.00  0.00     0.049 H 
BRANCH  23  26
ATOM     26  S14 BX6 d   1     122.560 -66.032 125.703  0.00  0.00    -0.181 SA
ATOM     27  H14 BX6 d   1     122.390 -66.662 124.935  0.00  0.00     0.101 HD
ENDBRANCH  23  26
ENDBRANCH  21  23
BRANCH  21  28
ATOM     28  C15 BX6 d   1     124.723 -64.624 127.818  0.00  0.00    -0.064 C 
ATOM     29  H15 BX6 d   1     124.999 -63.818 128.514  0.00  0.00     0.028 H 
ATOM     30  H16 BX6 d   1     125.551 -65.345 127.745  0.00  0.00     0.028 H 
ATOM     31  H17 BX6 d   1     123.823 -65.136 128.189  0.00  0.00     0.028 H 
ENDBRANCH  21  28
ENDBRANCH  18  21
ENDBRANCH   1  17
BRANCH   1  32
ATOM     32  B16 BX6 d   1     126.281 -59.876 124.882  0.00  0.00     0.117 B 
BRANCH  32  33
ATOM     33  O17 BX6 d   1     126.827 -59.344 126.047  0.00  0.00     0.000 OA
ATOM     34  H18 BX6 d   1     127.665 -59.757 126.220  0.00  0.00     0.000 HD
ATOM     35  H19 BX6 d   1     127.665 -59.757 126.220  0.00  0.00     0.000 HD
ENDBRANCH  32  33
BRANCH  32  36
ATOM     36  O18 BX6 d   1     125.066 -59.390 124.482  0.00  0.00     0.000 OA
ATOM     37  H20 BX6 d   1     124.422 -59.552 125.162  0.00  0.00     0.000 HD
ATOM     38  H21 BX6 d   1     124.422 -59.552 125.162  0.00  0.00     0.000 HD
ENDBRANCH  32  36
ENDBRANCH   1  32
TORSDOF 10
