REMARK  9 active torsions:
REMARK  status: ('A' for Active; 'I' for Inactive)
REMARK    1  A    between atoms: C1_1  and  N2_2 
REMARK    2  A    between atoms: C1_1  and  B9_9 
REMARK    3  A    between atoms: C1_1  and  C12_12 
REMARK       I    between atoms: N2_2  and  C3_3 
REMARK    4  A    between atoms: C3_3  and  C5_5 
REMARK    5  A    between atoms: C5_5  and  C6_6 
REMARK    6  A    between atoms: C5_5  and  C8_8 
REMARK    7  A    between atoms: C6_6  and  S7_7 
REMARK    8  A    between atoms: B9_9  and  O10_10 
REMARK    9  A    between atoms: B9_9  and  O11_11 
ROOT
ATOM      1  C1  BX9 d   1     125.926 -61.197 124.806  0.00  0.00    -0.008 C 
ATOM      2  H1  BX9 d   1     126.901 -61.401 125.273  0.00  0.00     0.060 H 
ENDROOT
BRANCH   1   3
ATOM      3  N2  BX9 d   1     124.862 -61.905 125.475  0.00  0.00    -0.363 N 
ATOM      4  C3  BX9 d   1     125.107 -63.175 126.074  0.00  0.00     0.222 C 
ATOM      5  O4  BX9 d   1     126.223 -63.603 126.092  0.00  0.00    -0.273 OA
ATOM      6  H3  BX9 d   1     123.948 -61.503 125.519  0.00  0.00     0.162 HD
BRANCH   4   7
ATOM      7  C5  BX9 d   1     123.867 -63.884 126.657  0.00  0.00     0.028 C 
ATOM      8  H4  BX9 d   1     123.068 -63.141 126.796  0.00  0.00     0.055 H 
BRANCH   7   9
ATOM      9  C6  BX9 d   1     123.318 -64.970 125.678  0.00  0.00    -0.015 C 
ATOM     10  H5  BX9 d   1     123.174 -65.890 126.263  0.00  0.00     0.049 H 
ATOM     11  H6  BX9 d   1     124.092 -65.139 124.915  0.00  0.00     0.049 H 
BRANCH   9  12
ATOM     12  S7  BX9 d   1     121.731 -64.639 124.782  0.00  0.00    -0.181 SA
ATOM     13  H7  BX9 d   1     121.509 -65.426 124.192  0.00  0.00     0.101 HD
ENDBRANCH   9  12
ENDBRANCH   7   9
BRANCH   7  14
ATOM     14  C8  BX9 d   1     124.272 -64.401 128.029  0.00  0.00    -0.064 C 
ATOM     15  H8  BX9 d   1     124.643 -63.566 128.641  0.00  0.00     0.028 H 
ATOM     16  H9  BX9 d   1     125.066 -65.154 127.917  0.00  0.00     0.028 H 
ATOM     17  H10 BX9 d   1     123.400 -64.857 128.521  0.00  0.00     0.028 H 
ENDBRANCH   7  14
ENDBRANCH   4   7
ENDBRANCH   1   3
BRANCH   1  18
ATOM     18  B9  BX9 d   1     125.619 -59.661 124.936  0.00  0.00     0.123 B 
BRANCH  18  19
ATOM     19  O10 BX9 d   1     124.443 -59.178 124.479  0.00  0.00     0.000 OA
ATOM     20  H11 BX9 d   1     123.776 -59.286 125.147  0.00  0.00     0.000 HD
ATOM     21  H12 BX9 d   1     123.776 -59.286 125.147  0.00  0.00     0.000 HD
ENDBRANCH  18  19
BRANCH  18  22
ATOM     22  O11 BX9 d   1     126.137 -59.105 126.044  0.00  0.00     0.000 OA
ATOM     23  H13 BX9 d   1     126.958 -59.532 126.257  0.00  0.00     0.000 HD
ATOM     24  H14 BX9 d   1     126.958 -59.532 126.257  0.00  0.00     0.000 HD
ENDBRANCH  18  22
ENDBRANCH   1  18
BRANCH   1  25
ATOM     25  C12 BX9 d   1     125.847 -61.784 123.410  0.00  0.00    -0.046 A 
ATOM     26  C13 BX9 d   1     124.615 -62.040 122.865  0.00  0.00    -0.073 A 
ATOM     27  C14 BX9 d   1     124.469 -62.559 121.588  0.00  0.00    -0.045 A 
ATOM     28  H15 BX9 d   1     123.728 -61.830 123.451  0.00  0.00     0.084 H 
ATOM     29  C15 BX9 d   1     125.584 -62.880 120.852  0.00  0.00     0.116 A 
ATOM     30  H16 BX9 d   1     123.480 -62.711 121.172  0.00  0.00     0.088 H 
ATOM     31  C16 BX9 d   1     126.828 -62.661 121.407  0.00  0.00    -0.045 A 
ATOM     32  F18 BX9 d   1     125.429 -63.412 119.611  0.00  0.00    -0.206 F 
ATOM     33  C17 BX9 d   1     126.964 -62.107 122.665  0.00  0.00    -0.073 A 
ATOM     34  H17 BX9 d   1     127.716 -62.929 120.845  0.00  0.00     0.088 H 
ATOM     35  H18 BX9 d   1     127.953 -61.925 123.070  0.00  0.00     0.084 H 
ENDBRANCH   1  25
TORSDOF 9
