REMARK  10 active torsions:
REMARK  status: ('A' for Active; 'I' for Inactive)
REMARK    1  A    between atoms: C13_3  and  C1_5 
REMARK    2  A    between atoms: C1_5  and  C2_6 
REMARK    3  A    between atoms: C2_6  and  N3_7 
REMARK    4  A    between atoms: C2_6  and  B10_14 
REMARK       I    between atoms: N3_7  and  C4_8 
REMARK    5  A    between atoms: C4_8  and  C6_10 
REMARK    6  A    between atoms: C6_10  and  C7_11 
REMARK    7  A    between atoms: C6_10  and  C9_13 
REMARK    8  A    between atoms: C7_11  and  S8_12 
REMARK    9  A    between atoms: B10_14  and  O11_15 
REMARK   10  A    between atoms: B10_14  and  O12_16 
ROOT
ATOM      1  C2  BY0 d   1     -30.197  10.807  69.012  0.00  0.00     0.014 C 
ATOM      2  H4  BY0 d   1     -29.406  10.932  69.766  0.00  0.00     0.059 H 
ENDROOT
BRANCH   1   3
ATOM      3  C1  BY0 d   1     -29.543  10.660  67.635  0.00  0.00    -0.025 C 
ATOM      4  H2  BY0 d   1     -29.010   9.700  67.578  0.00  0.00     0.042 H 
ATOM      5  H3  BY0 d   1     -30.314  10.698  66.852  0.00  0.00     0.042 H 
BRANCH   3   6
ATOM      6  C13 BY0 d   1     -28.562  11.803  67.445  0.00  0.00    -0.022 A 
ATOM      7  C17 BY0 d   1     -28.737  12.899  66.569  0.00  0.00     0.006 A 
ATOM      8  C16 BY0 d   1     -27.645  13.711  66.719  0.00  0.00     0.085 A 
ATOM      9  C18 BY0 d   1     -29.757  13.232  65.653  0.00  0.00    -0.070 A 
ATOM     10  O15 BY0 d   1     -26.813  13.142  67.668  0.00  0.00    -0.321 OA
ATOM     11  C21 BY0 d   1     -27.534  14.899  65.954  0.00  0.00    -0.049 A 
ATOM     12  C14 BY0 d   1     -27.361  11.993  68.116  0.00  0.00     0.026 A 
ATOM     13  H1  BY0 d   1     -26.937  11.332  68.870  0.00  0.00     0.124 H 
ATOM     14  C20 BY0 d   1     -28.539  15.234  65.056  0.00  0.00    -0.080 A 
ATOM     15  H21 BY0 d   1     -26.669  15.543  66.069  0.00  0.00     0.087 H 
ATOM     16  C19 BY0 d   1     -29.646  14.401  64.910  0.00  0.00    -0.082 A 
ATOM     17  H20 BY0 d   1     -28.462  16.142  64.469  0.00  0.00     0.083 H 
ATOM     18  H19 BY0 d   1     -30.429  14.668  64.209  0.00  0.00     0.083 H 
ATOM     19  H18 BY0 d   1     -30.617  12.584  65.530  0.00  0.00     0.085 H 
ENDBRANCH   3   6
ENDBRANCH   1   3
BRANCH   1  20
ATOM     20  N3  BY0 d   1     -31.114  11.971  69.090  0.00  0.00    -0.363 N 
ATOM     21  C4  BY0 d   1     -30.727  13.332  69.506  0.00  0.00     0.221 C 
ATOM     22  O5  BY0 d   1     -29.618  13.634  69.806  0.00  0.00    -0.273 OA
ATOM     23  H6  BY0 d   1     -32.071  11.821  68.841  0.00  0.00     0.161 HD
BRANCH  21  24
ATOM     24  C6  BY0 d   1     -31.772  14.447  69.570  0.00  0.00     0.028 C 
ATOM     25  H7  BY0 d   1     -32.777  14.007  69.484  0.00  0.00     0.055 H 
BRANCH  24  26
ATOM     26  C7  BY0 d   1     -31.679  15.242  70.894  0.00  0.00    -0.015 C 
ATOM     27  H8  BY0 d   1     -32.335  16.123  70.835  0.00  0.00     0.049 H 
ATOM     28  H9  BY0 d   1     -30.640  15.569  71.049  0.00  0.00     0.049 H 
BRANCH  26  29
ATOM     29  S8  BY0 d   1     -32.195  14.202  72.291  0.00  0.00    -0.181 SA
ATOM     30  H10 BY0 d   1     -32.129  14.732  73.146  0.00  0.00     0.101 HD
ENDBRANCH  26  29
ENDBRANCH  24  26
BRANCH  24  31
ATOM     31  C9  BY0 d   1     -31.523  15.403  68.403  0.00  0.00    -0.064 C 
ATOM     32  H11 BY0 d   1     -31.587  14.849  67.455  0.00  0.00     0.028 H 
ATOM     33  H12 BY0 d   1     -30.522  15.848  68.501  0.00  0.00     0.028 H 
ATOM     34  H13 BY0 d   1     -32.281  16.200  68.413  0.00  0.00     0.028 H 
ENDBRANCH  24  31
ENDBRANCH  21  24
ENDBRANCH   1  20
BRANCH   1  35
ATOM     35  B10 BY0 d   1     -30.933   9.428  69.287  0.00  0.00     0.343 B 
BRANCH  35  36
ATOM     36  O11 BY0 d   1     -30.257   8.279  69.071  0.00  0.00     0.000 OA
ATOM     37  H14 BY0 d   1     -30.469   7.655  69.755  0.00  0.00     0.000 HD
ATOM     38  H15 BY0 d   1     -30.469   7.655  69.755  0.00  0.00     0.000 HD
ENDBRANCH  35  36
BRANCH  35  39
ATOM     39  O12 BY0 d   1     -32.278   9.355  69.305  0.00  0.00    -0.465 OA
ATOM     40  H16 BY0 d   1     -32.588   9.031  68.468  0.00  0.00     0.181 HD
ENDBRANCH  35  39
ENDBRANCH   1  35
TORSDOF 10
