REMARK  8 active torsions:
REMARK  status: ('A' for Active; 'I' for Inactive)
REMARK    1  A    between atoms: CAC_3  and  CAJ_4 
REMARK    2  A    between atoms: CAG_10  and  OAB_11 
REMARK    3  A    between atoms: CAF_12  and  CAV_16 
REMARK    4  A    between atoms: CAO_19  and  CAP_20 
REMARK    5  A    between atoms: CAO_19  and  CAQ_21 
REMARK    6  A    between atoms: CAL_24  and  CAS_25 
REMARK    7  A    between atoms: CAL_24  and  CAR_26 
REMARK    8  A    between atoms: CAW_29  and  CAX_30 
ROOT
ATOM      1  CAV WY5 d   1      -2.046 -13.546  18.463  0.00  0.00    -0.017 A 
ATOM      2  CAU WY5 d   1      -0.839 -12.990  18.881  0.00  0.00    -0.064 A 
ATOM      3  CAT WY5 d   1       0.259 -12.931  18.017  0.00  0.00    -0.042 A 
ATOM      4  CAO WY5 d   1       1.572 -12.337  18.534  0.00  0.00    -0.020 C 
ATOM      5  CAN WY5 d   1       2.478 -11.938  17.363  0.00  0.00    -0.054 C 
ATOM      6  CAM WY5 d   1       2.605 -13.054  16.349  0.00  0.00    -0.054 C 
ATOM      7  CAL WY5 d   1       1.262 -13.394  15.688  0.00  0.00    -0.020 C 
ATOM      8  CAK WY5 d   1       0.128 -13.438  16.710  0.00  0.00    -0.043 A 
ATOM      9  CAY WY5 d   1      -1.097 -13.961  16.297  0.00  0.00    -0.069 A 
ATOM     10  CAW WY5 d   1      -2.189 -14.020  17.149  0.00  0.00    -0.050 A 
ATOM     11  H5  WY5 d   1      -0.750 -12.598  19.888  0.00  0.00     0.085 H 
ATOM     12  H12 WY5 d   1       3.478 -11.694  17.752  0.00  0.00     0.034 H 
ATOM     13  H13 WY5 d   1       2.052 -11.053  16.868  0.00  0.00     0.034 H 
ATOM     14  H14 WY5 d   1       2.987 -13.952  16.857  0.00  0.00     0.034 H 
ATOM     15  H15 WY5 d   1       3.315 -12.744  15.568  0.00  0.00     0.034 H 
ATOM     16  H22 WY5 d   1      -1.198 -14.331  15.283  0.00  0.00     0.085 H 
ENDROOT
BRANCH   1  17
ATOM     17  CAF WY5 d   1      -3.222 -13.562  19.374  0.00  0.00     0.009 A 
ATOM     18  CAG WY5 d   1      -3.140 -13.997  20.707  0.00  0.00     0.079 A 
ATOM     19  CAH WY5 d   1      -4.266 -13.981  21.541  0.00  0.00    -0.017 A 
ATOM     20  CAI WY5 d   1      -5.460 -13.509  21.026  0.00  0.00     0.092 A 
ATOM     21  H1  WY5 d   1      -4.203 -14.330  22.565  0.00  0.00     0.092 H 
ATOM     22  OAA WY5 d   1      -6.547 -13.498  21.866  0.00  0.00    -0.274 OA
ATOM     23  CAA WY5 d   1      -5.579 -13.062  19.717  0.00  0.00     0.000 A 
ATOM     24  CAD WY5 d   1      -7.790 -13.046  21.468  0.00  0.00     0.305 A 
ATOM     25  OAC WY5 d   1      -8.654 -13.089  22.309  0.00  0.00    -0.259 OA
ATOM     26  CAC WY5 d   1      -7.915 -12.575  20.095  0.00  0.00     0.117 A 
ATOM     27  CAB WY5 d   1      -6.846 -12.596  19.274  0.00  0.00    -0.048 A 
ATOM     28  H4  WY5 d   1      -6.956 -12.248  18.248  0.00  0.00     0.086 H 
ATOM     29  CAE WY5 d   1      -4.417 -13.099  18.900  0.00  0.00    -0.057 A 
ATOM     30  H3  WY5 d   1      -4.480 -12.751  17.875  0.00  0.00     0.086 H 
BRANCH  18  31
ATOM     31  OAB WY5 d   1      -1.950 -14.447  21.177  0.00  0.00    -0.360 OA
ATOM     32  H2  WY5 d   1      -1.297 -14.391  20.489  0.00  0.00     0.217 HD
ENDBRANCH  18  31
BRANCH  26  33
ATOM     33  CAJ WY5 d   1      -9.221 -12.067  19.584  0.00  0.00     0.215 C 
ATOM     34  OAD WY5 d   1      -9.839 -11.249  20.287  0.00  0.00    -0.644 OA
ATOM     35  OAE WY5 d   1      -9.609 -12.477  18.477  0.00  0.00    -0.644 OA
ENDBRANCH  26  33
ENDBRANCH   1  17
BRANCH  10  36
ATOM     36  CAX WY5 d   1      -3.494 -14.605  16.672  0.00  0.00    -0.050 C 
ATOM     37  H23 WY5 d   1      -4.233 -14.564  17.485  0.00  0.00     0.033 H 
ATOM     38  H24 WY5 d   1      -3.338 -15.652  16.371  0.00  0.00     0.033 H 
ATOM     39  H25 WY5 d   1      -3.862 -14.027  15.812  0.00  0.00     0.033 H 
ENDBRANCH  10  36
BRANCH   4  40
ATOM     40  CAP WY5 d   1       1.289 -11.087  19.377  0.00  0.00    -0.065 C 
ATOM     41  H6  WY5 d   1       2.238 -10.669  19.743  0.00  0.00     0.028 H 
ATOM     42  H7  WY5 d   1       0.654 -11.358  20.233  0.00  0.00     0.028 H 
ATOM     43  H8  WY5 d   1       0.772 -10.338  18.760  0.00  0.00     0.028 H 
ENDBRANCH   4  40
BRANCH   4  44
ATOM     44  CAQ WY5 d   1       2.310 -13.367  19.404  0.00  0.00    -0.065 C 
ATOM     45  H9  WY5 d   1       2.518 -14.268  18.808  0.00  0.00     0.028 H 
ATOM     46  H10 WY5 d   1       1.683 -13.635  20.267  0.00  0.00     0.028 H 
ATOM     47  H11 WY5 d   1       3.257 -12.935  19.759  0.00  0.00     0.028 H 
ENDBRANCH   4  44
BRANCH   7  48
ATOM     48  CAS WY5 d   1       1.391 -14.756  14.989  0.00  0.00    -0.065 C 
ATOM     49  H16 WY5 d   1       0.435 -15.014  14.510  0.00  0.00     0.028 H 
ATOM     50  H17 WY5 d   1       1.649 -15.526  15.731  0.00  0.00     0.028 H 
ATOM     51  H18 WY5 d   1       2.181 -14.703  14.226  0.00  0.00     0.028 H 
ENDBRANCH   7  48
BRANCH   7  52
ATOM     52  CAR WY5 d   1       0.930 -12.311  14.651  0.00  0.00    -0.065 C 
ATOM     53  H19 WY5 d   1       0.838 -11.337  15.154  0.00  0.00     0.028 H 
ATOM     54  H20 WY5 d   1      -0.020 -12.558  14.154  0.00  0.00     0.028 H 
ATOM     55  H21 WY5 d   1       1.734 -12.262  13.902  0.00  0.00     0.028 H 
ENDBRANCH   7  52
TORSDOF 8
