REMARK  6 active torsions:
REMARK  status: ('A' for Active; 'I' for Inactive)
REMARK    1  A    between atoms: CBA_3  and  NAA_4 
REMARK    2  A    between atoms: NBB_7  and  CAO_8 
REMARK    3  A    between atoms: CAO_8  and  CAV_9 
REMARK    4  A    between atoms: CAU_14  and  CAN_15 
REMARK    5  A    between atoms: CAN_15  and  NAQ_16 
REMARK       I    between atoms: NAQ_16  and  CAT_17 
REMARK    6  A    between atoms: CAT_17  and  CAW_19 
ROOT
ATOM      1  CAV BWR d   1     -37.388  27.845  -6.499  0.00  0.00    -0.033 A 
ATOM      2  CAG BWR d   1     -38.166  27.391  -7.577  0.00  0.00    -0.075 A 
ATOM      3  CAE BWR d   1     -38.107  26.033  -7.918  0.00  0.00    -0.075 A 
ATOM      4  CAF BWR d   1     -36.589  26.955  -5.765  0.00  0.00    -0.075 A 
ATOM      5  CAD BWR d   1     -36.532  25.607  -6.135  0.00  0.00    -0.075 A 
ATOM      6  CAU BWR d   1     -37.308  25.140  -7.196  0.00  0.00    -0.041 A 
ATOM      7  H16 BWR d   1     -38.797  28.075  -8.132  0.00  0.00     0.084 H 
ATOM      8  H17 BWR d   1     -38.691  25.668  -8.756  0.00  0.00     0.084 H 
ATOM      9  H18 BWR d   1     -36.018  27.311  -4.915  0.00  0.00     0.084 H 
ATOM     10  H19 BWR d   1     -35.884  24.925  -5.597  0.00  0.00     0.084 H 
ENDROOT
BRANCH   1  11
ATOM     11  CAO BWR d   1     -37.472  29.177  -6.098  0.00  0.00     0.107 C 
ATOM     12  H14 BWR d   1     -36.605  29.432  -5.472  0.00  0.00     0.083 H 
ATOM     13  H15 BWR d   1     -37.491  29.831  -6.982  0.00  0.00     0.083 H 
BRANCH  11  14
ATOM     14  NBB BWR d   1     -38.713  29.349  -5.324  0.00  0.00    -0.067 N 
ATOM     15  CAL BWR d   1     -39.531  30.463  -5.858  0.00  0.00     0.086 C 
ATOM     16  CAJ BWR d   1     -40.877  30.613  -5.097  0.00  0.00    -0.016 C 
ATOM     17  H1  BWR d   1     -38.962  31.399  -5.761  0.00  0.00     0.076 H 
ATOM     18  H2  BWR d   1     -39.743  30.271  -6.920  0.00  0.00     0.076 H 
ATOM     19  CBA BWR d   1     -40.662  30.641  -3.560  0.00  0.00     0.103 C 
ATOM     20  H3  BWR d   1     -41.528  29.764  -5.351  0.00  0.00     0.038 H 
ATOM     21  H4  BWR d   1     -41.360  31.551  -5.407  0.00  0.00     0.038 H 
ATOM     22  CAK BWR d   1     -39.749  29.499  -3.063  0.00  0.00    -0.016 C 
ATOM     23  H5  BWR d   1     -40.166  31.591  -3.313  0.00  0.00     0.084 H 
ATOM     24  CAM BWR d   1     -38.458  29.396  -3.866  0.00  0.00     0.086 C 
ATOM     25  H9  BWR d   1     -40.295  28.548  -3.148  0.00  0.00     0.038 H 
ATOM     26  H10 BWR d   1     -39.495  29.683  -2.009  0.00  0.00     0.038 H 
ATOM     27  H11 BWR d   1     -37.927  28.480  -3.569  0.00  0.00     0.076 H 
ATOM     28  H12 BWR d   1     -37.831  30.272  -3.643  0.00  0.00     0.076 H 
ATOM     29  H13 BWR d   1     -39.258  28.515  -5.475  0.00  0.00     0.280 HD
BRANCH  19  30
ATOM     30  NAA BWR d   1     -41.959  30.608  -2.854  0.00  0.00    -0.075 N 
ATOM     31  H6  BWR d   1     -41.800  30.627  -1.859  0.00  0.00     0.274 HD
ATOM     32  H7  BWR d   1     -42.454  29.765  -3.099  0.00  0.00     0.274 HD
ATOM     33  H8  BWR d   1     -42.508  31.410  -3.122  0.00  0.00     0.274 HD
ENDBRANCH  19  30
ENDBRANCH  11  14
ENDBRANCH   1  11
BRANCH   6  34
ATOM     34  CAN BWR d   1     -37.250  23.790  -7.547  0.00  0.00     0.019 C 
ATOM     35  H20 BWR d   1     -38.265  23.425  -7.761  0.00  0.00     0.071 H 
ATOM     36  H21 BWR d   1     -36.822  23.215  -6.713  0.00  0.00     0.071 H 
BRANCH  34  37
ATOM     37  NAQ BWR d   1     -36.403  23.616  -8.748  0.00  0.00    -0.353 N 
ATOM     38  CAT BWR d   1     -35.267  22.950  -8.706  0.00  0.00     0.253 C 
ATOM     39  OAB BWR d   1     -34.972  22.373  -7.654  0.00  0.00    -0.268 OA
ATOM     40  H22 BWR d   1     -36.701  24.015  -9.615  0.00  0.00     0.163 HD
BRANCH  38  41
ATOM     41  CAW BWR d   1     -34.441  22.912  -9.819  0.00  0.00     0.057 A 
ATOM     42  CAZ BWR d   1     -34.577  23.491 -11.073  0.00  0.00     0.084 A 
ATOM     43  CAX BWR d   1     -35.576  24.201 -11.666  0.00  0.00     0.282 A 
ATOM     44  CAY BWR d   1     -33.506  23.200 -11.875  0.00  0.00     0.091 A 
ATOM     45  OAC BWR d   1     -36.637  24.517 -11.097  0.00  0.00    -0.265 OA
ATOM     46  NAR BWR d   1     -35.470  24.616 -13.016  0.00  0.00    -0.205 NA
ATOM     47  CAH BWR d   1     -34.417  24.354 -13.750  0.00  0.00     0.068 A 
ATOM     48  NAP BWR d   1     -33.375  23.641 -13.136  0.00  0.00    -0.344 N 
ATOM     49  H23 BWR d   1     -34.353  24.675 -14.789  0.00  0.00     0.143 H 
ATOM     50  H24 BWR d   1     -32.505  23.455 -13.656  0.00  0.00     0.167 HD
ATOM     51  SAS BWR d   1     -32.401  22.407 -11.067  0.00  0.00    -0.082 SA
ATOM     52  CAI BWR d   1     -33.245  22.311  -9.658  0.00  0.00    -0.027 A 
ATOM     53  H25 BWR d   1     -32.894  21.838  -8.742  0.00  0.00     0.096 H 
ENDBRANCH  38  41
ENDBRANCH  34  37
ENDBRANCH   6  34
TORSDOF 6
