REMARK  11 active torsions:
REMARK  status: ('A' for Active; 'I' for Inactive)
REMARK    1  A    between atoms: N_4  and  CAT_5 
REMARK    2  A    between atoms: NAN_8  and  CAM_9 
REMARK    3  A    between atoms: CAM_9  and  CAA_10 
REMARK    4  A    between atoms: CAF_12  and  CAL_13 
REMARK    5  A    between atoms: CAL_13  and  OAV_14 
REMARK       I    between atoms: NAJ_21  and  CAK_22 
REMARK       I    between atoms: CAK_22  and  NAW_24 
REMARK    6  A    between atoms: NAW_24  and  CAY_25 
REMARK    7  A    between atoms: CBA_32  and  NBG_33 
REMARK    8  A    between atoms: NBG_33  and  CBH_34 
REMARK    9  A    between atoms: CBH_34  and  CBI_35 
REMARK   10  A    between atoms: CBI_35  and  OBJ_36 
REMARK   11  A    between atoms: OBJ_36  and  CBK_37 
ROOT
ATOM      1  CAY FGF d   1      87.875   2.661  84.335  0.00  0.00     0.133 A 
ATOM      2  CAZ FGF d   1      87.268   1.946  83.352  0.00  0.00    -0.012 A 
ATOM      3  NBD FGF d   1      89.142   2.991  84.211  0.00  0.00    -0.242 NA
ATOM      4  CBC FGF d   1      89.851   2.665  83.087  0.00  0.00     0.027 A 
ATOM      5  CBB FGF d   1      89.272   1.961  82.073  0.00  0.00     0.088 A 
ATOM      6  CBE FGF d   1      89.990   1.661  80.954  0.00  0.00     0.103 C 
ATOM      7  NBF FGF d   1      90.501   1.456  80.175  0.00  0.00    -0.191 NA
ATOM      8  CBA FGF d   1      87.973   1.607  82.237  0.00  0.00     0.054 A 
ATOM      9  H24 FGF d   1      86.231   1.648  83.454  0.00  0.00     0.093 H 
ATOM     10  H25 FGF d   1      90.888   2.971  83.001  0.00  0.00     0.117 H 
ENDROOT
BRANCH   8  11
ATOM     11  NBG FGF d   1      87.409   0.968  81.301  0.00  0.00    -0.387 N 
ATOM     12  H26 FGF d   1      87.594  -0.034  81.148  0.00  0.00     0.159 HD
BRANCH  11  13
ATOM     13  CBH FGF d   1      86.508   1.691  80.467  0.00  0.00     0.012 C 
ATOM     14  H27 FGF d   1      87.056   2.151  79.631  0.00  0.00     0.067 H 
ATOM     15  H28 FGF d   1      86.003   2.475  81.050  0.00  0.00     0.067 H 
BRANCH  13  16
ATOM     16  CBI FGF d   1      85.508   0.722  79.947  0.00  0.00     0.034 C 
ATOM     17  H29 FGF d   1      86.028  -0.106  79.443  0.00  0.00     0.076 H 
ATOM     18  H30 FGF d   1      84.845   1.229  79.230  0.00  0.00     0.076 H 
BRANCH  16  19
ATOM     19  OBJ FGF d   1      84.755   0.222  80.998  0.00  0.00    -0.394 OA
BRANCH  19  20
ATOM     20  CBK FGF d   1      84.728  -1.146  80.720  0.00  0.00     0.004 C 
ATOM     21  H31 FGF d   1      84.149  -1.667  81.497  0.00  0.00     0.066 H 
ATOM     22  H32 FGF d   1      85.756  -1.538  80.705  0.00  0.00     0.066 H 
ATOM     23  H33 FGF d   1      84.258  -1.312  79.739  0.00  0.00     0.066 H 
ENDBRANCH  19  20
ENDBRANCH  16  19
ENDBRANCH  13  16
ENDBRANCH  11  13
ENDBRANCH   8  11
BRANCH   1  24
ATOM     24  NAW FGF d   1      87.254   2.956  85.459  0.00  0.00    -0.293 N 
ATOM     25  CAK FGF d   1      85.948   3.144  85.589  0.00  0.00     0.329 C 
ATOM     26  NAJ FGF d   1      85.471   3.362  86.818  0.00  0.00    -0.283 N 
ATOM     27  OAX FGF d   1      85.217   3.156  84.620  0.00  0.00    -0.246 OA
ATOM     28  CAD FGF d   1      86.227   3.275  87.912  0.00  0.00     0.140 A 
ATOM     29  CAI FGF d   1      84.040   3.550  86.996  0.00  0.00     0.006 C 
ATOM     30  NAE FGF d   1      87.523   3.204  87.777  0.00  0.00    -0.232 NA
ATOM     31  CAC FGF d   1      85.663   3.222  89.149  0.00  0.00    -0.011 A 
ATOM     32  CAF FGF d   1      88.331   3.093  88.807  0.00  0.00     0.068 A 
ATOM     33  CAA FGF d   1      87.822   3.051  90.078  0.00  0.00    -0.013 A 
ATOM     34  CAB FGF d   1      86.464   3.116  90.245  0.00  0.00    -0.064 A 
ATOM     35  H13 FGF d   1      86.032   3.083  91.239  0.00  0.00     0.085 H 
ATOM     36  CAG FGF d   1      84.321   3.273  89.327  0.00  0.00    -0.036 C 
ATOM     37  CAH FGF d   1      83.685   4.076  88.298  0.00  0.00    -0.046 C 
ATOM     38  H17 FGF d   1      84.106   3.715  90.311  0.00  0.00     0.040 H 
ATOM     39  H18 FGF d   1      83.915   2.252  89.287  0.00  0.00     0.040 H 
ATOM     40  H19 FGF d   1      84.028   5.118  88.380  0.00  0.00     0.035 H 
ATOM     41  H20 FGF d   1      82.593   4.038  88.425  0.00  0.00     0.035 H 
ATOM     42  H21 FGF d   1      83.683   4.251  86.228  0.00  0.00     0.065 H 
ATOM     43  H22 FGF d   1      83.542   2.578  86.865  0.00  0.00     0.065 H 
ATOM     44  H23 FGF d   1      87.814   3.046  86.282  0.00  0.00     0.172 HD
BRANCH  32  45
ATOM     45  CAL FGF d   1      89.683   3.045  88.595  0.00  0.00     0.057 C 
ATOM     46  H14 FGF d   1      90.210   3.583  89.397  0.00  0.00     0.083 H 
ATOM     47  H15 FGF d   1      89.929   3.500  87.624  0.00  0.00     0.083 H 
BRANCH  45  48
ATOM     48  OAV FGF d   1      90.052   1.697  88.600  0.00  0.00    -0.395 OA
ATOM     49  H16 FGF d   1      90.988   1.626  88.455  0.00  0.00     0.209 HD
ENDBRANCH  45  48
ENDBRANCH  32  45
BRANCH  33  50
ATOM     50  CAM FGF d   1      88.701   2.916  91.151  0.00  0.00     0.023 C 
ATOM     51  H11 FGF d   1      88.921   1.845  91.272  0.00  0.00     0.071 H 
ATOM     52  H12 FGF d   1      89.626   3.454  90.897  0.00  0.00     0.071 H 
BRANCH  50  53
ATOM     53  NAN FGF d   1      88.232   3.420  92.430  0.00  0.00    -0.345 N 
ATOM     54  C   FGF d   1      87.634   2.655  93.317  0.00  0.00     0.246 C 
ATOM     55  O   FGF d   1      87.482   1.491  93.082  0.00  0.00    -0.272 OA
ATOM     56  CA  FGF d   1      87.198   3.140  94.511  0.00  0.00     0.155 C 
ATOM     57  N   FGF d   1      86.775   4.512  94.400  0.00  0.00    -0.065 N 
ATOM     58  H1  FGF d   1      88.016   3.076  95.243  0.00  0.00     0.090 H 
ATOM     59  H2  FGF d   1      86.349   2.531  94.856  0.00  0.00     0.090 H 
ATOM     60  CAP FGF d   1      87.983   5.212  94.095  0.00  0.00     0.098 C 
ATOM     61  H3  FGF d   1      86.096   4.619  93.662  0.00  0.00     0.280 HD
ATOM     62  CAO FGF d   1      88.442   4.819  92.749  0.00  0.00     0.021 C 
ATOM     63  H7  FGF d   1      88.754   4.956  94.836  0.00  0.00     0.078 H 
ATOM     64  H8  FGF d   1      87.797   6.296  94.119  0.00  0.00     0.078 H 
ATOM     65  H9  FGF d   1      89.519   5.030  92.677  0.00  0.00     0.067 H 
ATOM     66  H10 FGF d   1      87.899   5.426  92.009  0.00  0.00     0.067 H 
BRANCH  57  67
ATOM     67  CAT FGF d   1      86.224   5.002  95.636  0.00  0.00     0.067 C 
ATOM     68  H4  FGF d   1      85.914   6.050  95.509  0.00  0.00     0.068 H 
ATOM     69  H5  FGF d   1      86.985   4.938  96.428  0.00  0.00     0.068 H 
ATOM     70  H6  FGF d   1      85.352   4.393  95.916  0.00  0.00     0.068 H 
ENDBRANCH  57  67
ENDBRANCH  50  53
ENDBRANCH  33  50
ENDBRANCH   1  24
TORSDOF 11
