REMARK  8 active torsions:
REMARK  status: ('A' for Active; 'I' for Inactive)
REMARK    1  A    between atoms: C4_4  and  C6_6 
REMARK    2  A    between atoms: C6_6  and  C15_19 
REMARK    3  A    between atoms: C7_7  and  C16_28 
REMARK    4  A    between atoms: C9_13  and  N1_8 
REMARK       I    between atoms: C10_14  and  N2_9 
REMARK    5  A    between atoms: N2_9  and  C_24 
REMARK    6  A    between atoms: C13_17  and  O1_10 
REMARK    7  A    between atoms: O1_10  and  C17_21 
REMARK    8  A    between atoms: C11_15  and  C10_14 
ROOT
ATOM      1  C6  C6R d   1      17.432  37.995  -8.516  0.00  0.00     0.067 C 
ATOM      2  C7  C6R d   1      16.942  38.638  -9.847  0.00  0.00     0.008 C 
ATOM      3  C8  C6R d   1      16.818  40.180  -9.756  0.00  0.00    -0.006 C 
ATOM      4  C9  C6R d   1      15.925  39.426  -7.181  0.00  0.00     0.134 C 
ATOM      5  N   C6R d   1      16.515  38.315  -7.401  0.00  0.00    -0.357 N 
ATOM      6  S   C6R d   1      16.086  40.735  -8.221  0.00  0.00    -0.094 SA
ATOM      7  H4  C6R d   1      17.742  38.449 -10.578  0.00  0.00     0.052 H 
ATOM      8  H8  C6R d   1      16.192  40.531 -10.589  0.00  0.00     0.050 H 
ATOM      9  H9  C6R d   1      17.823  40.618  -9.843  0.00  0.00     0.050 H 
ATOM     10  H17 C6R d   1      16.332  37.558  -6.727  0.00  0.00     0.162 HD
ENDROOT
BRANCH   1  11
ATOM     11  C4  C6R d   1      18.868  38.429  -8.184  0.00  0.00     0.011 A 
ATOM     12  C3  C6R d   1      20.037  38.128  -9.087  0.00  0.00     0.125 A 
ATOM     13  C2  C6R d   1      21.327  38.541  -8.733  0.00  0.00    -0.043 A 
ATOM     14  F   C6R d   1      19.852  37.459 -10.236  0.00  0.00    -0.205 F 
ATOM     15  C1  C6R d   1      21.532  39.241  -7.540  0.00  0.00    -0.054 A 
ATOM     16  H2  C6R d   1      22.166  38.319  -9.383  0.00  0.00     0.088 H 
ATOM     17  C   C6R d   1      20.462  39.546  -6.675  0.00  0.00     0.035 A 
ATOM     18  H1  C6R d   1      22.535  39.556  -7.275  0.00  0.00     0.087 H 
ATOM     19  C5  C6R d   1      19.165  39.138  -7.007  0.00  0.00    -0.046 A 
ATOM     20  H3  C6R d   1      18.355  39.379  -6.328  0.00  0.00     0.088 H 
BRANCH  17  21
ATOM     21  N2  C6R d   1      20.593  40.217  -5.489  0.00  0.00    -0.322 N 
ATOM     22  C10 C6R d   1      21.673  40.822  -4.946  0.00  0.00     0.276 C 
ATOM     23  O   C6R d   1      22.795  40.799  -5.436  0.00  0.00    -0.266 OA
ATOM     24  H7  C6R d   1      19.760  40.267  -4.938  0.00  0.00     0.169 HD
BRANCH  22  25
ATOM     25  C11 C6R d   1      21.491  41.578  -3.654  0.00  0.00     0.141 A 
ATOM     26  N3  C6R d   1      20.387  41.381  -2.885  0.00  0.00    -0.250 NA
ATOM     27  C12 C6R d   1      20.189  42.040  -1.731  0.00  0.00     0.054 A 
ATOM     28  C13 C6R d   1      21.152  42.952  -1.303  0.00  0.00     0.184 A 
ATOM     29  H10 C6R d   1      19.295  41.865  -1.143  0.00  0.00     0.121 H 
ATOM     30  N4  C6R d   1      22.263  43.144  -2.065  0.00  0.00    -0.233 NA
ATOM     31  C14 C6R d   1      22.457  42.490  -3.223  0.00  0.00     0.038 A 
ATOM     32  H11 C6R d   1      23.349  42.667  -3.813  0.00  0.00     0.118 H 
BRANCH  28  33
ATOM     33  O1  C6R d   1      20.964  43.623  -0.119  0.00  0.00    -0.303 OA
BRANCH  33  34
ATOM     34  C17 C6R d   1      21.982  44.429   0.490  0.00  0.00     0.148 C 
ATOM     35  F1  C6R d   1      22.909  43.624   1.107  0.00  0.00    -0.227 F 
ATOM     36  H15 C6R d   1      21.523  45.094   1.236  0.00  0.00     0.126 H 
ATOM     37  H16 C6R d   1      22.480  45.033  -0.283  0.00  0.00     0.126 H 
ENDBRANCH  33  34
ENDBRANCH  28  33
ENDBRANCH  22  25
ENDBRANCH  17  21
ENDBRANCH   1  11
BRANCH   1  38
ATOM     38  C15 C6R d   1      17.464  36.462  -8.612  0.00  0.00    -0.048 C 
ATOM     39  H12 C6R d   1      17.814  36.042  -7.657  0.00  0.00     0.031 H 
ATOM     40  H13 C6R d   1      18.148  36.159  -9.418  0.00  0.00     0.031 H 
ATOM     41  H14 C6R d   1      16.453  36.087  -8.829  0.00  0.00     0.031 H 
ENDBRANCH   1  38
BRANCH   2  42
ATOM     42  C16 C6R d   1      15.711  37.972 -10.416  0.00  0.00    -0.051 A 
ATOM     43  C22 C6R d   1      15.865  37.154 -11.550  0.00  0.00    -0.076 A 
ATOM     44  C21 C6R d   1      14.769  36.486 -12.115  0.00  0.00    -0.082 A 
ATOM     45  H18 C6R d   1      16.847  37.038 -11.994  0.00  0.00     0.084 H 
ATOM     46  C20 C6R d   1      13.495  36.625 -11.551  0.00  0.00    -0.083 A 
ATOM     47  H19 C6R d   1      14.908  35.861 -12.990  0.00  0.00     0.083 H 
ATOM     48  C19 C6R d   1      13.315  37.422 -10.414  0.00  0.00    -0.082 A 
ATOM     49  H20 C6R d   1      12.648  36.115 -11.995  0.00  0.00     0.083 H 
ATOM     50  C18 C6R d   1      14.416  38.088  -9.854  0.00  0.00    -0.076 A 
ATOM     51  H21 C6R d   1      12.332  37.524  -9.969  0.00  0.00     0.083 H 
ATOM     52  H22 C6R d   1      14.273  38.704  -8.973  0.00  0.00     0.084 H 
ENDBRANCH   2  42
BRANCH   4  53
ATOM     53  N1  C6R d   1      15.158  39.534  -6.098  0.00  0.00    -0.380 N 
ATOM     54  H5  C6R d   1      15.056  38.734  -5.457  0.00  0.00     0.158 HD
ATOM     55  H6  C6R d   1      14.666  40.417  -5.901  0.00  0.00     0.158 HD
ENDBRANCH   4  53
TORSDOF 8
