REMARK  8 active torsions:
REMARK  status: ('A' for Active; 'I' for Inactive)
REMARK    1  A    between atoms: C4_4  and  C6_6 
REMARK    2  A    between atoms: C6_6  and  C15_19 
REMARK    3  A    between atoms: C7_7  and  C16_28 
REMARK    4  A    between atoms: C9_13  and  N1_8 
REMARK       I    between atoms: C10_14  and  N2_9 
REMARK    5  A    between atoms: N2_9  and  C_24 
REMARK    6  A    between atoms: C13_17  and  O1_10 
REMARK    7  A    between atoms: O1_10  and  C17_21 
REMARK    8  A    between atoms: C11_15  and  C10_14 
ROOT
ATOM      1  C6  C7X d   1     -17.587 -39.014  -8.642  0.00  0.00     0.067 C 
ATOM      2  C7  C7X d   1     -17.501 -40.023  -9.841  0.00  0.00     0.008 C 
ATOM      3  C8  C7X d   1     -17.315 -41.496  -9.417  0.00  0.00    -0.006 C 
ATOM      4  C9  C7X d   1     -15.840 -40.258  -7.390  0.00  0.00     0.134 C 
ATOM      5  N   C7X d   1     -16.592 -39.246  -7.579  0.00  0.00    -0.357 N 
ATOM      6  S   C7X d   1     -15.966 -41.672  -8.292  0.00  0.00    -0.094 SA
ATOM      7  H4  C7X d   1     -16.589 -39.745 -10.390  0.00  0.00     0.052 H 
ATOM      8  H8  C7X d   1     -17.117 -42.105 -10.312  0.00  0.00     0.050 H 
ATOM      9  H9  C7X d   1     -18.236 -41.848  -8.930  0.00  0.00     0.050 H 
ATOM     10  H17 C7X d   1     -16.490 -38.484  -6.893  0.00  0.00     0.162 HD
ENDROOT
BRANCH   1  11
ATOM     11  C4  C7X d   1     -18.993 -39.064  -8.029  0.00  0.00     0.011 A 
ATOM     12  C3  C7X d   1     -20.173 -38.294  -8.539  0.00  0.00     0.125 A 
ATOM     13  C2  C7X d   1     -21.433 -38.433  -7.938  0.00  0.00    -0.043 A 
ATOM     14  F   C7X d   1     -20.034 -37.460  -9.573  0.00  0.00    -0.205 F 
ATOM     15  C1  C7X d   1     -21.602 -39.305  -6.857  0.00  0.00    -0.054 A 
ATOM     16  H2  C7X d   1     -22.277 -37.864  -8.312  0.00  0.00     0.088 H 
ATOM     17  C   C7X d   1     -20.518 -40.053  -6.370  0.00  0.00     0.035 A 
ATOM     18  H1  C7X d   1     -22.576 -39.404  -6.392  0.00  0.00     0.087 H 
ATOM     19  C5  C7X d   1     -19.256 -39.919  -6.953  0.00  0.00    -0.046 A 
ATOM     20  H3  C7X d   1     -18.439 -40.507  -6.552  0.00  0.00     0.088 H 
BRANCH  17  21
ATOM     21  N2  C7X d   1     -20.588 -40.917  -5.314  0.00  0.00    -0.322 N 
ATOM     22  C10 C7X d   1     -21.654 -41.463  -4.722  0.00  0.00     0.276 C 
ATOM     23  O   C7X d   1     -22.798 -41.367  -5.138  0.00  0.00    -0.266 OA
ATOM     24  H7  C7X d   1     -19.706 -41.181  -4.924  0.00  0.00     0.169 HD
BRANCH  22  25
ATOM     25  C11 C7X d   1     -21.415 -42.217  -3.451  0.00  0.00     0.141 A 
ATOM     26  N3  C7X d   1     -20.263 -42.017  -2.754  0.00  0.00    -0.250 NA
ATOM     27  C12 C7X d   1     -20.024 -42.679  -1.604  0.00  0.00     0.054 A 
ATOM     28  C13 C7X d   1     -20.977 -43.574  -1.124  0.00  0.00     0.184 A 
ATOM     29  H10 C7X d   1     -19.101 -42.517  -1.059  0.00  0.00     0.121 H 
ATOM     30  N4  C7X d   1     -22.130 -43.774  -1.827  0.00  0.00    -0.233 NA
ATOM     31  C14 C7X d   1     -22.367 -43.123  -2.974  0.00  0.00     0.038 A 
ATOM     32  H11 C7X d   1     -23.285 -43.297  -3.525  0.00  0.00     0.118 H 
BRANCH  28  33
ATOM     33  O1  C7X d   1     -20.731 -44.239   0.051  0.00  0.00    -0.303 OA
BRANCH  33  34
ATOM     34  C17 C7X d   1     -21.745 -44.954   0.762  0.00  0.00     0.148 C 
ATOM     35  F1  C7X d   1     -22.755 -44.096   1.101  0.00  0.00    -0.227 F 
ATOM     36  H15 C7X d   1     -21.314 -45.392   1.675  0.00  0.00     0.126 H 
ATOM     37  H16 C7X d   1     -22.144 -45.756   0.124  0.00  0.00     0.126 H 
ENDBRANCH  33  34
ENDBRANCH  28  33
ENDBRANCH  22  25
ENDBRANCH  17  21
ENDBRANCH   1  11
BRANCH   1  38
ATOM     38  C15 C7X d   1     -17.190 -37.621  -9.129  0.00  0.00    -0.048 C 
ATOM     39  H12 C7X d   1     -17.249 -36.910  -8.292  0.00  0.00     0.031 H 
ATOM     40  H13 C7X d   1     -17.875 -37.303  -9.929  0.00  0.00     0.031 H 
ATOM     41  H14 C7X d   1     -16.161 -37.648  -9.516  0.00  0.00     0.031 H 
ENDBRANCH   1  38
BRANCH   2  42
ATOM     42  C16 C7X d   1     -18.637 -39.909 -10.828  0.00  0.00    -0.051 A 
ATOM     43  C22 C7X d   1     -18.528 -39.020 -11.905  0.00  0.00    -0.076 A 
ATOM     44  C21 C7X d   1     -19.556 -38.881 -12.839  0.00  0.00    -0.082 A 
ATOM     45  H18 C7X d   1     -17.627 -38.428 -12.015  0.00  0.00     0.084 H 
ATOM     46  C20 C7X d   1     -20.725 -39.635 -12.698  0.00  0.00    -0.083 A 
ATOM     47  H19 C7X d   1     -19.449 -38.192 -13.669  0.00  0.00     0.083 H 
ATOM     48  C19 C7X d   1     -20.865 -40.526 -11.628  0.00  0.00    -0.082 A 
ATOM     49  H20 C7X d   1     -21.526 -39.529 -13.421  0.00  0.00     0.083 H 
ATOM     50  C18 C7X d   1     -19.823 -40.667 -10.701  0.00  0.00    -0.076 A 
ATOM     51  H21 C7X d   1     -21.775 -41.104 -11.517  0.00  0.00     0.083 H 
ATOM     52  H22 C7X d   1     -19.928 -41.365  -9.878  0.00  0.00     0.084 H 
ENDBRANCH   2  42
BRANCH   4  53
ATOM     53  N1  C7X d   1     -14.923 -40.178  -6.426  0.00  0.00    -0.380 N 
ATOM     54  H5  C7X d   1     -14.837 -39.317  -5.867  0.00  0.00     0.158 HD
ATOM     55  H6  C7X d   1     -14.300 -40.977  -6.240  0.00  0.00     0.158 HD
ENDBRANCH   4  53
TORSDOF 8
