REMARK  5 active torsions:
REMARK  status: ('A' for Active; 'I' for Inactive)
REMARK    1  A    between atoms: C4_4  and  C6_6 
REMARK    2  A    between atoms: C6_6  and  C7_7 
REMARK    3  A    between atoms: C8_10  and  N1_8 
REMARK       I    between atoms: C11_14  and  N2_9 
REMARK    4  A    between atoms: N2_9  and  C_22 
REMARK    5  A    between atoms: C11_14  and  C12_15 
ROOT
ATOM      1  C1  C6U d   1      21.613  39.236  -7.445  0.00  0.00    -0.054 A 
ATOM      2  C2  C6U d   1      21.359  38.583  -8.651  0.00  0.00    -0.043 A 
ATOM      3  C3  C6U d   1      20.040  38.368  -9.060  0.00  0.00     0.125 A 
ATOM      4  C4  C6U d   1      18.896  38.824  -8.202  0.00  0.00     0.010 A 
ATOM      5  C5  C6U d   1      19.231  39.473  -7.009  0.00  0.00    -0.046 A 
ATOM      6  F   C6U d   1      19.816  37.746 -10.225  0.00  0.00    -0.205 F 
ATOM      7  C   C6U d   1      20.558  39.685  -6.630  0.00  0.00     0.035 A 
ATOM      8  H1  C6U d   1      22.638  39.400  -7.131  0.00  0.00     0.087 H 
ATOM      9  H2  C6U d   1      22.182  38.243  -9.269  0.00  0.00     0.088 H 
ATOM     10  H3  C6U d   1      18.436  39.822  -6.359  0.00  0.00     0.088 H 
ENDROOT
BRANCH   4  11
ATOM     11  C6  C6U d   1      17.434  38.622  -8.601  0.00  0.00     0.059 C 
ATOM     12  C10 C6U d   1      17.121  39.569  -9.780  0.00  0.00    -0.029 C 
ATOM     13  C9  C6U d   1      17.122  41.052  -9.385  0.00  0.00    -0.014 C 
ATOM     14  H12 C6U d   1      16.128  39.315 -10.178  0.00  0.00     0.038 H 
ATOM     15  H13 C6U d   1      17.880  39.416 -10.562  0.00  0.00     0.038 H 
ATOM     16  S   C6U d   1      16.011  41.285  -8.022  0.00  0.00    -0.095 SA
ATOM     17  H10 C6U d   1      16.792  41.662 -10.239  0.00  0.00     0.049 H 
ATOM     18  H11 C6U d   1      18.137  41.355  -9.089  0.00  0.00     0.049 H 
ATOM     19  C8  C6U d   1      15.876  39.861  -7.148  0.00  0.00     0.134 C 
ATOM     20  N   C6U d   1      16.536  38.814  -7.450  0.00  0.00    -0.358 N 
ATOM     21  H16 C6U d   1      16.429  38.009  -6.816  0.00  0.00     0.162 HD
BRANCH  11  22
ATOM     22  C7  C6U d   1      17.175  37.193  -9.061  0.00  0.00    -0.049 C 
ATOM     23  H4  C6U d   1      16.116  37.084  -9.340  0.00  0.00     0.031 H 
ATOM     24  H5  C6U d   1      17.413  36.496  -8.244  0.00  0.00     0.031 H 
ATOM     25  H6  C6U d   1      17.808  36.968  -9.932  0.00  0.00     0.031 H 
ENDBRANCH  11  22
BRANCH  19  26
ATOM     26  N1  C6U d   1      15.057  39.815  -6.097  0.00  0.00    -0.380 N 
ATOM     27  H7  C6U d   1      14.966  38.945  -5.553  0.00  0.00     0.158 HD
ATOM     28  H8  C6U d   1      14.515  40.649  -5.829  0.00  0.00     0.158 HD
ENDBRANCH  19  26
ENDBRANCH   4  11
BRANCH   7  29
ATOM     29  N2  C6U d   1      20.739  40.315  -5.438  0.00  0.00    -0.322 N 
ATOM     30  C11 C6U d   1      21.842  40.885  -4.921  0.00  0.00     0.274 C 
ATOM     31  O   C6U d   1      22.961  40.805  -5.401  0.00  0.00    -0.266 OA
ATOM     32  H9  C6U d   1      19.927  40.361  -4.856  0.00  0.00     0.169 HD
BRANCH  30  33
ATOM     33  C12 C6U d   1      21.656  41.644  -3.643  0.00  0.00     0.124 A 
ATOM     34  N3  C6U d   1      20.593  41.312  -2.859  0.00  0.00    -0.254 NA
ATOM     35  C13 C6U d   1      20.333  41.933  -1.697  0.00  0.00     0.024 A 
ATOM     36  C14 C6U d   1      21.176  42.948  -1.264  0.00  0.00     0.051 A 
ATOM     37  H14 C6U d   1      19.473  41.645  -1.103  0.00  0.00     0.117 H 
ATOM     38  C15 C6U d   1      22.295  43.310  -2.037  0.00  0.00    -0.058 A 
ATOM     39 CL   C6U d   1      20.808  43.730   0.305  0.00  0.00    -0.083 Cl
ATOM     40  C16 C6U d   1      22.542  42.654  -3.248  0.00  0.00    -0.048 A 
ATOM     41  H15 C6U d   1      22.962  44.093  -1.696  0.00  0.00     0.086 H 
ATOM     42  H17 C6U d   1      23.394  42.920  -3.863  0.00  0.00     0.087 H 
ENDBRANCH  30  33
ENDBRANCH   7  29
TORSDOF 5
