REMARK  7 active torsions:
REMARK  status: ('A' for Active; 'I' for Inactive)
REMARK    1  A    between atoms: C2_2  and  C1_1 
REMARK    2  A    between atoms: C10_15  and  C2_2 
REMARK    3  A    between atoms: C3_3  and  N2_9 
REMARK    4  A    between atoms: N3_13  and  C12_17 
REMARK       I    between atoms: C13_18  and  N3_13 
REMARK    5  A    between atoms: C14_19  and  C13_18 
REMARK    6  A    between atoms: C16_30  and  O4_32 
REMARK    7  A    between atoms: O4_32  and  C17_33 
ROOT
ATOM      1  C2  C7O d   1     -17.189 -38.428  -8.722  0.00  0.00     0.067 C 
ATOM      2  C3  C7O d   1     -15.702 -39.590  -7.167  0.00  0.00     0.134 C 
ATOM      3  C4  C7O d   1     -16.793 -40.864  -9.464  0.00  0.00    -0.006 C 
ATOM      4  C5  C7O d   1     -16.697 -39.345  -9.878  0.00  0.00    -0.000 C 
ATOM      5  C6  C7O d   1     -15.172 -39.270 -10.336  0.00  0.00    -0.043 C 
ATOM      6  C7  C7O d   1     -14.580 -40.191 -11.413  0.00  0.00     0.029 C 
ATOM      7  N1  C7O d   1     -16.289 -38.562  -7.564  0.00  0.00    -0.357 N 
ATOM      8  O1  C7O d   1     -15.602 -38.691 -13.298  0.00  0.00    -0.228 OA
ATOM      9  C8  C7O d   1     -17.386 -40.335 -12.318  0.00  0.00     0.029 C 
ATOM     10  O2  C7O d   1     -15.243 -41.110 -13.712  0.00  0.00    -0.228 OA
ATOM     11  C9  C7O d   1     -17.709 -39.458 -11.100  0.00  0.00    -0.043 C 
ATOM     12  S2  C7O d   1     -15.691 -40.065 -12.784  0.00  0.00     0.144 S 
ATOM     13  S1  C7O d   1     -15.864 -41.191  -7.953  0.00  0.00    -0.094 SA
ATOM     14  H4  C7O d   1     -16.385 -41.483 -10.277  0.00  0.00     0.050 H 
ATOM     15  H5  C7O d   1     -17.849 -41.124  -9.299  0.00  0.00     0.050 H 
ATOM     16  H6  C7O d   1     -14.573 -39.440  -9.429  0.00  0.00     0.035 H 
ATOM     17  H7  C7O d   1     -15.012 -38.242 -10.694  0.00  0.00     0.035 H 
ATOM     18  H8  C7O d   1     -14.530 -41.228 -11.050  0.00  0.00     0.056 H 
ATOM     19  H9  C7O d   1     -13.573 -39.854 -11.699  0.00  0.00     0.056 H 
ATOM     20  H10 C7O d   1     -16.124 -37.706  -7.016  0.00  0.00     0.162 HD
ATOM     21  H13 C7O d   1     -18.047 -40.064 -13.154  0.00  0.00     0.056 H 
ATOM     22  H14 C7O d   1     -17.535 -41.394 -12.061  0.00  0.00     0.056 H 
ATOM     23  H16 C7O d   1     -17.855 -38.436 -11.481  0.00  0.00     0.035 H 
ATOM     24  H17 C7O d   1     -18.657 -39.834 -10.687  0.00  0.00     0.035 H 
ENDROOT
BRANCH   1  25
ATOM     25  C1  C7O d   1     -16.908 -36.992  -9.187  0.00  0.00    -0.048 C 
ATOM     26  H1  C7O d   1     -17.234 -36.285  -8.410  0.00  0.00     0.031 H 
ATOM     27  H2  C7O d   1     -17.459 -36.794 -10.118  0.00  0.00     0.031 H 
ATOM     28  H3  C7O d   1     -15.830 -36.869  -9.365  0.00  0.00     0.031 H 
ENDBRANCH   1  25
BRANCH   1  29
ATOM     29  C10 C7O d   1     -18.669 -38.647  -8.301  0.00  0.00     0.011 A 
ATOM     30  C11 C7O d   1     -18.972 -39.439  -7.180  0.00  0.00    -0.046 A 
ATOM     31  C12 C7O d   1     -20.278 -39.678  -6.759  0.00  0.00     0.035 A 
ATOM     32  H18 C7O d   1     -18.156 -39.882  -6.620  0.00  0.00     0.088 H 
ATOM     33  C19 C7O d   1     -21.334 -39.090  -7.429  0.00  0.00    -0.054 A 
ATOM     34  C20 C7O d   1     -21.059 -38.293  -8.551  0.00  0.00    -0.043 A 
ATOM     35  H21 C7O d   1     -22.354 -39.241  -7.095  0.00  0.00     0.087 H 
ATOM     36  C21 C7O d   1     -19.752 -38.068  -8.981  0.00  0.00     0.125 A 
ATOM     37  H20 C7O d   1     -21.881 -37.842  -9.095  0.00  0.00     0.088 H 
ATOM     38  F2  C7O d   1     -19.578 -37.290 -10.071  0.00  0.00    -0.205 F 
BRANCH  31  39
ATOM     39  N3  C7O d   1     -20.397 -40.495  -5.542  0.00  0.00    -0.322 N 
ATOM     40  C13 C7O d   1     -21.625 -40.952  -4.878  0.00  0.00     0.276 C 
ATOM     41  O3  C7O d   1     -22.719 -40.733  -5.253  0.00  0.00    -0.266 OA
ATOM     42  H15 C7O d   1     -19.537 -40.773  -5.114  0.00  0.00     0.169 HD
BRANCH  40  43
ATOM     43  C14 C7O d   1     -21.399 -41.746  -3.570  0.00  0.00     0.141 A 
ATOM     44  C18 C7O d   1     -22.389 -42.555  -3.013  0.00  0.00     0.038 A 
ATOM     45  N5  C7O d   1     -22.122 -43.190  -1.870  0.00  0.00    -0.233 NA
ATOM     46  H22 C7O d   1     -23.353 -42.665  -3.497  0.00  0.00     0.118 H 
ATOM     47  C16 C7O d   1     -20.941 -43.069  -1.257  0.00  0.00     0.184 A 
ATOM     48  C15 C7O d   1     -19.970 -42.266  -1.817  0.00  0.00     0.054 A 
ATOM     49  N4  C7O d   1     -20.232 -41.605  -2.946  0.00  0.00    -0.250 NA
ATOM     50  H19 C7O d   1     -19.000 -42.172  -1.343  0.00  0.00     0.121 H 
BRANCH  47  51
ATOM     51  O4  C7O d   1     -20.623 -43.729  -0.048  0.00  0.00    -0.303 OA
BRANCH  51  52
ATOM     52  C17 C7O d   1     -21.718 -44.363   0.595  0.00  0.00     0.148 C 
ATOM     53  F1  C7O d   1     -22.639 -43.442   1.029  0.00  0.00    -0.227 F 
ATOM     54  H23 C7O d   1     -21.346 -44.933   1.459  0.00  0.00     0.126 H 
ATOM     55  H24 C7O d   1     -22.203 -45.049  -0.115  0.00  0.00     0.126 H 
ENDBRANCH  51  52
ENDBRANCH  47  51
ENDBRANCH  40  43
ENDBRANCH  31  39
ENDBRANCH   1  29
BRANCH   2  56
ATOM     56  N2  C7O d   1     -14.829 -39.511  -6.025  0.00  0.00    -0.380 N 
ATOM     57  H11 C7O d   1     -14.341 -40.354  -5.691  0.00  0.00     0.158 HD
ATOM     58  H12 C7O d   1     -14.693 -38.611  -5.542  0.00  0.00     0.158 HD
ENDBRANCH   2  56
TORSDOF 7
