REMARK  6 active torsions:
REMARK  status: ('A' for Active; 'I' for Inactive)
REMARK    1  A    between atoms: C2_2  and  C1_1 
REMARK    2  A    between atoms: C10_15  and  C2_2 
REMARK    3  A    between atoms: N3_13  and  C12_17 
REMARK       I    between atoms: C13_18  and  N3_13 
REMARK    4  A    between atoms: C14_19  and  C13_18 
REMARK    5  A    between atoms: C16_30  and  O4_32 
REMARK    6  A    between atoms: O4_32  and  C17_33 
ROOT
ATOM      1  C2  C7O d   1      21.140  -5.140 -18.301  0.00  0.00     0.067 C 
ATOM      2  C3  C7O d   1      23.633  -5.455 -18.136  0.00  0.00     0.134 C 
ATOM      3  C4  C7O d   1      22.202  -6.108 -20.417  0.00  0.00    -0.006 C 
ATOM      4  C5  C7O d   1      21.312  -4.939 -19.861  0.00  0.00    -0.000 C 
ATOM      5  C6  C7O d   1      21.928  -3.527 -20.151  0.00  0.00    -0.043 C 
ATOM      6  C7  C7O d   1      22.256  -3.205 -21.607  0.00  0.00     0.029 C 
ATOM      7  N1  C7O d   1      22.475  -5.097 -17.689  0.00  0.00    -0.357 N 
ATOM      8  N2  C7O d   1      24.757  -5.314 -17.387  0.00  0.00    -0.380 N 
ATOM      9  O1  C7O d   1      21.058  -3.133 -23.925  0.00  0.00    -0.228 OA
ATOM     10  C8  C7O d   1      20.008  -4.774 -22.158  0.00  0.00     0.029 C 
ATOM     11  O2  C7O d   1      19.848  -2.163 -22.012  0.00  0.00    -0.228 OA
ATOM     12  C9  C7O d   1      19.971  -4.998 -20.644  0.00  0.00    -0.043 C 
ATOM     13  S2  C7O d   1      20.712  -3.156 -22.550  0.00  0.00     0.144 S 
ATOM     14  S1  C7O d   1      23.883  -6.138 -19.734  0.00  0.00    -0.094 SA
ATOM     15  H4  C7O d   1      22.273  -6.000 -21.509  0.00  0.00     0.050 H 
ATOM     16  H5  C7O d   1      21.712  -7.062 -20.174  0.00  0.00     0.050 H 
ATOM     17  H6  C7O d   1      22.861  -3.446 -19.574  0.00  0.00     0.035 H 
ATOM     18  H7  C7O d   1      21.211  -2.772 -19.797  0.00  0.00     0.035 H 
ATOM     19  H8  C7O d   1      22.917  -3.982 -22.018  0.00  0.00     0.056 H 
ATOM     20  H9  C7O d   1      22.758  -2.228 -21.666  0.00  0.00     0.056 H 
ATOM     21  H10 C7O d   1      22.490  -4.713 -16.733  0.00  0.00     0.162 HD
ATOM     22  H11 C7O d   1      25.669  -5.607 -17.766  0.00  0.00     0.158 HD
ATOM     23  H12 C7O d   1      24.698  -4.914 -16.440  0.00  0.00     0.158 HD
ATOM     24  H13 C7O d   1      18.984  -4.828 -22.556  0.00  0.00     0.056 H 
ATOM     25  H14 C7O d   1      20.624  -5.558 -22.624  0.00  0.00     0.056 H 
ATOM     26  H16 C7O d   1      19.309  -4.230 -20.217  0.00  0.00     0.035 H 
ATOM     27  H17 C7O d   1      19.536  -5.994 -20.472  0.00  0.00     0.035 H 
ENDROOT
BRANCH   1  28
ATOM     28  C1  C7O d   1      20.375  -3.992 -17.570  0.00  0.00    -0.048 C 
ATOM     29  H1  C7O d   1      20.307  -4.222 -16.497  0.00  0.00     0.031 H 
ATOM     30  H2  C7O d   1      19.363  -3.901 -17.990  0.00  0.00     0.031 H 
ATOM     31  H3  C7O d   1      20.916  -3.045 -17.708  0.00  0.00     0.031 H 
ENDBRANCH   1  28
BRANCH   1  32
ATOM     32  C10 C7O d   1      20.457  -6.489 -17.901  0.00  0.00     0.011 A 
ATOM     33  C11 C7O d   1      21.206  -7.588 -17.426  0.00  0.00    -0.046 A 
ATOM     34  C12 C7O d   1      20.655  -8.822 -17.063  0.00  0.00     0.035 A 
ATOM     35  H18 C7O d   1      22.280  -7.468 -17.337  0.00  0.00     0.088 H 
ATOM     36  C19 C7O d   1      19.263  -8.966 -17.149  0.00  0.00    -0.054 A 
ATOM     37  C20 C7O d   1      18.490  -7.927 -17.612  0.00  0.00    -0.043 A 
ATOM     38  H21 C7O d   1      18.796  -9.897 -16.850  0.00  0.00     0.087 H 
ATOM     39  C21 C7O d   1      19.056  -6.714 -17.977  0.00  0.00     0.125 A 
ATOM     40  H20 C7O d   1      17.417  -8.058 -17.693  0.00  0.00     0.088 H 
ATOM     41  F2  C7O d   1      18.174  -5.784 -18.400  0.00  0.00    -0.205 F 
BRANCH  34  42
ATOM     42  N3  C7O d   1      21.546  -9.803 -16.577  0.00  0.00    -0.322 N 
ATOM     43  C13 C7O d   1      21.321 -11.137 -16.397  0.00  0.00     0.276 C 
ATOM     44  O3  C7O d   1      20.284 -11.711 -16.681  0.00  0.00    -0.266 OA
ATOM     45  H15 C7O d   1      22.460  -9.479 -16.333  0.00  0.00     0.169 HD
BRANCH  43  46
ATOM     46  C14 C7O d   1      22.427 -11.933 -15.822  0.00  0.00     0.141 A 
ATOM     47  C18 C7O d   1      22.311 -13.315 -15.578  0.00  0.00     0.038 A 
ATOM     48  N5  C7O d   1      23.339 -13.967 -15.053  0.00  0.00    -0.233 NA
ATOM     49  H22 C7O d   1      21.393 -13.839 -15.816  0.00  0.00     0.118 H 
ATOM     50  C16 C7O d   1      24.485 -13.341 -14.743  0.00  0.00     0.184 A 
ATOM     51  C15 C7O d   1      24.593 -11.967 -14.978  0.00  0.00     0.054 A 
ATOM     52  N4  C7O d   1      23.573 -11.308 -15.497  0.00  0.00    -0.250 NA
ATOM     53  H19 C7O d   1      25.511 -11.444 -14.735  0.00  0.00     0.121 H 
BRANCH  50  54
ATOM     54  O4  C7O d   1      25.557 -13.969 -14.205  0.00  0.00    -0.303 OA
BRANCH  54  55
ATOM     55  C17 C7O d   1      25.520 -15.357 -13.872  0.00  0.00     0.148 C 
ATOM     56  F1  C7O d   1      24.945 -15.533 -12.609  0.00  0.00    -0.227 F 
ATOM     57  H23 C7O d   1      26.545 -15.757 -13.864  0.00  0.00     0.126 H 
ATOM     58  H24 C7O d   1      24.922 -15.895 -14.622  0.00  0.00     0.126 H 
ENDBRANCH  54  55
ENDBRANCH  50  54
ENDBRANCH  43  46
ENDBRANCH  34  42
ENDBRANCH   1  32
TORSDOF 6
