REMARK  8 active torsions:
REMARK  status: ('A' for Active; 'I' for Inactive)
REMARK    1  A    between atoms: C2_2  and  C1_1 
REMARK    2  A    between atoms: C1_1  and  C_25 
REMARK    3  A    between atoms: N_27  and  C4_4 
REMARK    4  A    between atoms: C5_5  and  C6_6 
REMARK       I    between atoms: C5_5  and  N_27 
REMARK    5  A    between atoms: C8_11  and  O_28 
REMARK    6  A    between atoms: O_28  and  C9_13 
REMARK    7  A    between atoms: C14_18  and  N4_24 
REMARK    8  A    between atoms: C15_19  and  C16_22 
ROOT
ATOM      1  C2  C83 d   1      18.493  38.615  -8.335  0.00  0.00     0.013 A 
ATOM      2  C3  C83 d   1      18.796  39.271  -7.138  0.00  0.00    -0.046 A 
ATOM      3  C4  C83 d   1      20.098  39.628  -6.811  0.00  0.00     0.035 A 
ATOM      4  C11 C83 d   1      21.152  39.328  -7.689  0.00  0.00    -0.054 A 
ATOM      5  C12 C83 d   1      20.928  38.688  -8.912  0.00  0.00    -0.043 A 
ATOM      6  C13 C83 d   1      19.634  38.328  -9.261  0.00  0.00     0.125 A 
ATOM      7  F1  C83 d   1      19.414  37.712 -10.423  0.00  0.00    -0.205 F 
ATOM      8  H1  C83 d   1      17.994  39.507  -6.447  0.00  0.00     0.088 H 
ATOM      9  H7  C83 d   1      22.164  39.599  -7.412  0.00  0.00     0.087 H 
ATOM     10  H8  C83 d   1      21.755  38.476  -9.579  0.00  0.00     0.088 H 
ENDROOT
BRANCH   1  11
ATOM     11  C1  C83 d   1      17.063  38.249  -8.690  0.00  0.00     0.090 C 
ATOM     12  N3  C83 d   1      16.166  38.503  -7.546  0.00  0.00    -0.355 N 
ATOM     13  C14 C83 d   1      15.480  39.561  -7.334  0.00  0.00     0.135 C 
ATOM     14  H3  C83 d   1      16.084  37.751  -6.847  0.00  0.00     0.162 HD
ATOM     15  S   C83 d   1      15.597  40.935  -8.302  0.00  0.00    -0.087 SA
ATOM     16  C15 C83 d   1      16.622  40.595  -9.707  0.00  0.00     0.027 C 
ATOM     17  C17 C83 d   1      16.643  39.075  -9.918  0.00  0.00     0.119 C 
ATOM     18  H9  C83 d   1      17.645  40.935  -9.490  0.00  0.00     0.061 H 
ATOM     19  F2  C83 d   1      15.392  38.665 -10.267  0.00  0.00    -0.245 F 
ATOM     20  H10 C83 d   1      17.344  38.856 -10.737  0.00  0.00     0.097 H 
BRANCH  13  21
ATOM     21  N4  C83 d   1      14.646  39.562  -6.299  0.00  0.00    -0.380 N 
ATOM     22  H14 C83 d   1      14.077  40.396  -6.097  0.00  0.00     0.158 HD
ATOM     23  H15 C83 d   1      14.569  38.728  -5.699  0.00  0.00     0.158 HD
ENDBRANCH  13  21
BRANCH  16  24
ATOM     24  C16 C83 d   1      16.130  41.339 -10.948  0.00  0.00    -0.061 C 
ATOM     25  H11 C83 d   1      16.132  42.421 -10.751  0.00  0.00     0.029 H 
ATOM     26  H12 C83 d   1      15.108  41.012 -11.191  0.00  0.00     0.029 H 
ATOM     27  H13 C83 d   1      16.796  41.119 -11.795  0.00  0.00     0.029 H 
ENDBRANCH  16  24
BRANCH  11  28
ATOM     28  C   C83 d   1      16.964  36.758  -9.004  0.00  0.00    -0.046 C 
ATOM     29  H16 C83 d   1      17.619  36.518  -9.855  0.00  0.00     0.031 H 
ATOM     30  H17 C83 d   1      15.924  36.505  -9.259  0.00  0.00     0.031 H 
ATOM     31  H18 C83 d   1      17.278  36.176  -8.125  0.00  0.00     0.031 H 
ENDBRANCH  11  28
ENDBRANCH   1  11
BRANCH   3  32
ATOM     32  N   C83 d   1      20.258  40.240  -5.609  0.00  0.00    -0.322 N 
ATOM     33  C5  C83 d   1      21.349  40.820  -5.086  0.00  0.00     0.276 C 
ATOM     34  O1  C83 d   1      22.466  40.827  -5.594  0.00  0.00    -0.266 OA
ATOM     35  H19 C83 d   1      19.444  40.261  -5.029  0.00  0.00     0.169 HD
BRANCH  33  36
ATOM     36  C6  C83 d   1      21.126  41.523  -3.781  0.00  0.00     0.141 A 
ATOM     37  N1  C83 d   1      19.983  41.267  -3.087  0.00  0.00    -0.250 NA
ATOM     38  C7  C83 d   1      19.714  41.880  -1.928  0.00  0.00     0.054 A 
ATOM     39  C8  C83 d   1      20.640  42.783  -1.418  0.00  0.00     0.184 A 
ATOM     40  H2  C83 d   1      18.791  41.676  -1.397  0.00  0.00     0.121 H 
ATOM     41  N2  C83 d   1      21.797  43.032  -2.109  0.00  0.00    -0.233 NA
ATOM     42  C10 C83 d   1      22.057  42.436  -3.281  0.00  0.00     0.038 A 
ATOM     43  H6  C83 d   1      22.967  42.657  -3.827  0.00  0.00     0.118 H 
BRANCH  39  44
ATOM     44  O   C83 d   1      20.361  43.401  -0.225  0.00  0.00    -0.303 OA
BRANCH  44  45
ATOM     45  C9  C83 d   1      21.345  44.180   0.456  0.00  0.00     0.148 C 
ATOM     46  F   C83 d   1      22.351  43.335   0.856  0.00  0.00    -0.227 F 
ATOM     47  H4  C83 d   1      20.895  44.666   1.334  0.00  0.00     0.126 H 
ATOM     48  H5  C83 d   1      21.749  44.947  -0.221  0.00  0.00     0.126 H 
ENDBRANCH  44  45
ENDBRANCH  39  44
ENDBRANCH  33  36
ENDBRANCH   3  32
TORSDOF 8
