REMARK  7 active torsions:
REMARK  status: ('A' for Active; 'I' for Inactive)
REMARK    1  A    between atoms: C15_2  and  C16_20 
REMARK    2  A    between atoms: C22_4  and  O23_25 
REMARK    3  A    between atoms: O23_25  and  C24_5 
REMARK    4  A    between atoms: S05_11  and  C04_10 
REMARK    5  A    between atoms: N06_12  and  S05_11 
REMARK    6  A    between atoms: C07_13  and  N06_12 
REMARK    7  A    between atoms: N13_18  and  C12_17 
ROOT
ATOM      1  C10 C9O d   1      10.533   0.340  11.860  0.00  0.00     0.147 A 
ATOM      2  C07 C9O d   1      10.557   2.805  13.106  0.00  0.00     0.083 A 
ATOM      3  C08 C9O d   1      10.109   1.699  13.822  0.00  0.00    -0.051 A 
ATOM      4  C09 C9O d   1      10.104   0.452  13.185  0.00  0.00    -0.041 A 
ATOM      5  F11 C9O d   1      10.542  -0.867  11.204  0.00  0.00    -0.204 F 
ATOM      6  C12 C9O d   1      10.955   1.484  11.195  0.00  0.00     0.133 A 
ATOM      7  C29 C9O d   1      10.969   2.690  11.817  0.00  0.00     0.174 A 
ATOM      8  F30 C9O d   1      11.381   3.806  11.156  0.00  0.00    -0.201 F 
ATOM      9  H8  C9O d   1       9.772   1.800  14.847  0.00  0.00     0.087 H 
ATOM     10  H9  C9O d   1       9.767  -0.428  13.721  0.00  0.00     0.088 H 
ENDROOT
BRANCH   6  11
ATOM     11  N13 C9O d   1      11.460   1.516   9.847  0.00  0.00    -0.241 N 
ATOM     12  C14 C9O d   1      10.810   1.320   8.725  0.00  0.00     0.031 A 
ATOM     13  C15 C9O d   1      11.753   1.477   7.727  0.00  0.00     0.103 A 
ATOM     14  H10 C9O d   1       9.754   1.084   8.605  0.00  0.00     0.117 H 
ATOM     15  N27 C9O d   1      12.933   1.764   8.269  0.00  0.00    -0.158 NA
ATOM     16  N28 C9O d   1      12.758   1.799   9.599  0.00  0.00     0.010 NA
BRANCH  13  17
ATOM     17  C16 C9O d   1      11.552   1.352   6.238  0.00  0.00     0.014 A 
ATOM     18  C17 C9O d   1      12.687   1.120   5.473  0.00  0.00    -0.051 A 
ATOM     19  C18 C9O d   1      12.545   1.005   4.081  0.00  0.00     0.067 A 
ATOM     20  H1  C9O d   1      13.661   1.030   5.940  0.00  0.00     0.086 H 
ATOM     21  C22 C9O d   1      13.421   0.774   2.970  0.00  0.00     0.172 A 
ATOM     22  C19 C9O d   1      11.280   1.128   3.541  0.00  0.00     0.183 A 
ATOM     23  N21 C9O d   1      12.687   0.764   1.865  0.00  0.00    -0.254 N 
ATOM     24  N20 C9O d   1      11.404   0.974   2.202  0.00  0.00    -0.152 NA
ATOM     25  H11 C9O d   1      13.042   0.619   0.909  0.00  0.00     0.191 HD
ATOM     26  N25 C9O d   1      10.192   1.343   4.319  0.00  0.00    -0.238 NA
ATOM     27  C26 C9O d   1      10.297   1.465   5.631  0.00  0.00     0.017 A 
ATOM     28  H5  C9O d   1       9.415   1.652   6.233  0.00  0.00     0.116 H 
BRANCH  21  29
ATOM     29  O23 C9O d   1      14.803   0.598   3.034  0.00  0.00    -0.339 OA
BRANCH  29  30
ATOM     30  C24 C9O d   1      15.344   0.101   1.837  0.00  0.00     0.012 C 
ATOM     31  H2  C9O d   1      16.432  -0.017   1.947  0.00  0.00     0.067 H 
ATOM     32  H3  C9O d   1      15.133   0.805   1.019  0.00  0.00     0.067 H 
ATOM     33  H4  C9O d   1      14.891  -0.875   1.607  0.00  0.00     0.067 H 
ENDBRANCH  29  30
ENDBRANCH  21  29
ENDBRANCH  13  17
ENDBRANCH   6  11
BRANCH   2  34
ATOM     34  N06 C9O d   1      10.624   4.162  13.570  0.00  0.00    -0.277 N 
ATOM     35  H7  C9O d   1      10.936   4.881  12.949  0.00  0.00     0.179 HD
BRANCH  34  36
ATOM     36  S05 C9O d   1      10.188   4.555  15.130  0.00  0.00     0.263 S 
ATOM     37  O31 C9O d   1      10.547   5.931  15.460  0.00  0.00    -0.200 OA
ATOM     38  O32 C9O d   1      10.888   3.704  16.099  0.00  0.00    -0.200 OA
BRANCH  36  39
ATOM     39  C04 C9O d   1       8.403   4.293  15.284  0.00  0.00     0.081 A 
ATOM     40  C03 C9O d   1       7.929   3.797  16.469  0.00  0.00    -0.044 A 
ATOM     41  C02 C9O d   1       6.587   3.579  16.645  0.00  0.00     0.012 A 
ATOM     42  H6  C9O d   1       8.620   3.575  17.274  0.00  0.00     0.087 H 
ATOM     43 BR1  C9O d   1       6.021   2.859  18.350  0.00  0.00    -0.051 Br
ATOM     44  C35 C9O d   1       5.689   3.830  15.641  0.00  0.00    -0.066 A 
ATOM     45  C34 C9O d   1       6.164   4.329  14.436  0.00  0.00    -0.080 A 
ATOM     46  H14 C9O d   1       4.631   3.643  15.785  0.00  0.00     0.085 H 
ATOM     47  C33 C9O d   1       7.525   4.556  14.256  0.00  0.00    -0.060 A 
ATOM     48  H13 C9O d   1       5.471   4.543  13.631  0.00  0.00     0.083 H 
ATOM     49  H12 C9O d   1       7.893   4.938  13.311  0.00  0.00     0.085 H 
ENDBRANCH  36  39
ENDBRANCH  34  36
ENDBRANCH   2  34
TORSDOF 7
