REMARK  6 active torsions:
REMARK  status: ('A' for Active; 'I' for Inactive)
REMARK    1  A    between atoms: O5'_1  and  C5'_2 
REMARK    2  A    between atoms: C5'_2  and  C4'_3 
REMARK    3  A    between atoms: C1'_5  and  N9_6 
REMARK    4  A    between atoms: C6_10  and  N6_15 
REMARK    5  A    between atoms: C2'_16  and  O2'_17 
REMARK    6  A    between atoms: C3'_18  and  O3'_19 
ROOT
ATOM      1  C4' MOL d   1     -14.823  -4.888  -6.991  0.00  0.00     0.088 C 
ATOM      2  O4' MOL d   1     -15.105  -5.525  -8.117  0.00  0.00    -0.353 OA
ATOM      3  C1' MOL d   1     -13.966  -6.649  -8.390  0.00  0.00     0.138 C 
ATOM      4  C2' MOL d   1     -12.939  -6.332  -7.604  0.00  0.00     0.105 C 
ATOM      5  C3' MOL d   1     -13.563  -5.589  -6.398  0.00  0.00     0.091 C 
ATOM      6  H4  MOL d   1     -15.666  -4.961  -6.288  0.00  0.00     0.090 H 
ATOM      7  H5  MOL d   1     -14.345  -7.653  -8.149  0.00  0.00     0.122 H 
ATOM      8  H10 MOL d   1     -12.229  -5.683  -8.138  0.00  0.00     0.093 H 
ATOM      9  H12 MOL d   1     -12.860  -4.852  -5.983  0.00  0.00     0.091 H 
ENDROOT
BRANCH   3  10
ATOM     10  N9  MOL d   1     -13.568  -6.596  -9.725  0.00  0.00    -0.310 N 
ATOM     11  C8  MOL d   1     -13.277  -5.473 -10.411  0.00  0.00     0.001 A 
ATOM     12  C7  MOL d   1     -12.913  -5.818 -11.728  0.00  0.00     0.040 A 
ATOM     13  H6  MOL d   1     -13.317  -4.461 -10.011  0.00  0.00     0.113 H 
ATOM     14  C5  MOL d   1     -12.990  -7.273 -11.782  0.00  0.00     0.073 A 
ATOM     15  IAE MOL d   1     -12.341  -4.521 -13.286  0.00  0.00    -0.042 I 
ATOM     16  C6  MOL d   1     -12.752  -8.317 -12.807  0.00  0.00     0.138 A 
ATOM     17  C4  MOL d   1     -13.402  -7.686 -10.511  0.00  0.00     0.148 A 
ATOM     18  N1  MOL d   1     -12.942  -9.617 -12.481  0.00  0.00    -0.224 NA
ATOM     19  C2  MOL d   1     -13.353  -9.972 -11.229  0.00  0.00     0.091 A 
ATOM     20  N3  MOL d   1     -13.569  -9.072 -10.282  0.00  0.00    -0.223 NA
ATOM     21  H7  MOL d   1     -13.507 -11.021 -11.003  0.00  0.00     0.146 H 
BRANCH  16  22
ATOM     22  N6  MOL d   1     -12.321  -7.939 -14.161  0.00  0.00    -0.383 N 
ATOM     23  H8  MOL d   1     -12.156  -8.667 -14.871  0.00  0.00     0.157 HD
ATOM     24  H9  MOL d   1     -12.184  -6.946 -14.399  0.00  0.00     0.157 HD
ENDBRANCH  16  22
ENDBRANCH   3  10
BRANCH   4  25
ATOM     25  O2' MOL d   1     -12.267  -7.510  -7.147  0.00  0.00    -0.388 OA
ATOM     26  H11 MOL d   1     -12.875  -8.049  -6.655  0.00  0.00     0.210 HD
ENDBRANCH   4  25
BRANCH   1  27
ATOM     27  C5' MOL d   1     -14.527  -3.412  -7.287  0.00  0.00     0.043 C 
ATOM     28  H2  MOL d   1     -15.403  -2.948  -7.764  0.00  0.00     0.078 H 
ATOM     29  H3  MOL d   1     -14.299  -2.886  -6.348  0.00  0.00     0.078 H 
BRANCH  27  30
ATOM     30  O5' MOL d   1     -13.424  -3.334  -8.151  0.00  0.00    -0.398 OA
ATOM     31  H1  MOL d   1     -13.624  -3.791  -8.960  0.00  0.00     0.209 HD
ENDBRANCH  27  30
ENDBRANCH   1  27
BRANCH   5  32
ATOM     32  O3' MOL d   1     -13.927  -6.470  -5.434  0.00  0.00    -0.390 OA
ATOM     33  H13 MOL d   1     -13.162  -6.949  -5.139  0.00  0.00     0.210 HD
ENDBRANCH   5  32
TORSDOF 6
