REMARK  13 active torsions:
REMARK  status: ('A' for Active; 'I' for Inactive)
REMARK    1  A    between atoms: C4_6  and  NAL_35 
REMARK    2  A    between atoms: CAK_10  and  CAG_7 
REMARK    3  A    between atoms: CAM_11  and  CAN_12 
REMARK    4  A    between atoms: CAM_11  and  CAO_13 
REMARK    5  A    between atoms: NAL_35  and  CAM_11 
REMARK    6  A    between atoms: CAO_13  and  OAP_39 
REMARK    7  A    between atoms: NBA_36  and  CAY_22 
REMARK    8  A    between atoms: CBB_24  and  CBC_25 
REMARK       I    between atoms: CBB_24  and  NBA_36 
REMARK    9  A    between atoms: CBC_25  and  CBE_26 
REMARK   10  A    between atoms: CBE_26  and  CBF_27 
REMARK   11  A    between atoms: CBF_27  and  NBG_37 
REMARK   12  A    between atoms: NBG_37  and  CBH_28 
REMARK   13  A    between atoms: NBG_37  and  CBI_29 
ROOT
ATOM      1  C5  CKO d   1     -21.805 -52.378   0.415  0.00  0.00     0.077 A 
ATOM      2  C6  CKO d   1     -21.135 -53.256   1.175  0.00  0.00     0.186 A 
ATOM      3  N1  CKO d   1     -21.736 -54.299   1.760  0.00  0.00    -0.217 NA
ATOM      4  C2  CKO d   1     -23.099 -54.509   1.588  0.00  0.00     0.091 A 
ATOM      5  N3  CKO d   1     -23.783 -53.597   0.796  0.00  0.00    -0.224 NA
ATOM      6  C4  CKO d   1     -23.129 -52.569   0.234  0.00  0.00     0.141 A 
ATOM      7  CAG CKO d   1     -20.884 -51.481  -0.009  0.00  0.00     0.027 A 
ATOM      8  CAH CKO d   1     -19.697 -51.833   0.521  0.00  0.00     0.100 A 
ATOM      9  CAJ CKO d   1     -18.472 -51.289   0.433  0.00  0.00    -0.001 A 
ATOM     10  CAQ CKO d   1     -18.096 -50.293  -0.466  0.00  0.00    -0.070 A 
ATOM     11  CAR CKO d   1     -16.790 -49.808  -0.468  0.00  0.00    -0.082 A 
ATOM     12  CAS CKO d   1     -15.843 -50.305   0.421  0.00  0.00    -0.083 A 
ATOM     13  CAT CKO d   1     -16.206 -51.298   1.319  0.00  0.00    -0.082 A 
ATOM     14  CAU CKO d   1     -17.511 -51.780   1.317  0.00  0.00    -0.070 A 
ATOM     15  OAI CKO d   1     -19.871 -52.902   1.222  0.00  0.00    -0.289 OA
ATOM     16  H1  CKO d   1     -23.605 -55.348   2.052  0.00  0.00     0.146 H 
ATOM     17  H5  CKO d   1     -18.822 -49.894  -1.166  0.00  0.00     0.084 H 
ATOM     18  H6  CKO d   1     -16.508 -49.033  -1.172  0.00  0.00     0.083 H 
ATOM     19  H7  CKO d   1     -14.830 -49.920   0.412  0.00  0.00     0.083 H 
ATOM     20  H8  CKO d   1     -15.478 -51.696   2.017  0.00  0.00     0.083 H 
ATOM     21  H9  CKO d   1     -17.788 -52.557   2.020  0.00  0.00     0.084 H 
ENDROOT
BRANCH   7  22
ATOM     22  CAK CKO d   1     -21.116 -50.410  -0.790  0.00  0.00    -0.020 A 
ATOM     23  CAV CKO d   1     -21.618 -49.268  -0.181  0.00  0.00    -0.072 A 
ATOM     24  CAW CKO d   1     -21.868 -48.126  -0.926  0.00  0.00    -0.080 A 
ATOM     25  H10 CKO d   1     -21.816 -49.269   0.885  0.00  0.00     0.084 H 
ATOM     26  CAX CKO d   1     -21.613 -48.125  -2.289  0.00  0.00    -0.057 A 
ATOM     27  H11 CKO d   1     -22.261 -47.238  -0.445  0.00  0.00     0.083 H 
ATOM     28  CAY CKO d   1     -21.114 -49.255  -2.926  0.00  0.00     0.035 A 
ATOM     29  H12 CKO d   1     -21.806 -47.228  -2.867  0.00  0.00     0.086 H 
ATOM     30  CAZ CKO d   1     -20.852 -50.405  -2.171  0.00  0.00    -0.046 A 
ATOM     31  H13 CKO d   1     -20.447 -51.289  -2.650  0.00  0.00     0.088 H 
BRANCH  28  32
ATOM     32  NBA CKO d   1     -20.895 -49.105  -4.240  0.00  0.00    -0.327 N 
ATOM     33  CBB CKO d   1     -19.983 -49.817  -4.929  0.00  0.00     0.222 C 
ATOM     34  OBD CKO d   1     -19.308 -50.742  -4.484  0.00  0.00    -0.273 OA
ATOM     35  H32 CKO d   1     -21.439 -48.428  -4.736  0.00  0.00     0.169 HD
BRANCH  33  36
ATOM     36  CBC CKO d   1     -19.876 -49.368  -6.391  0.00  0.00     0.011 C 
ATOM     37  H14 CKO d   1     -19.569 -48.312  -6.375  0.00  0.00     0.047 H 
ATOM     38  H15 CKO d   1     -20.885 -49.450  -6.821  0.00  0.00     0.047 H 
BRANCH  36  39
ATOM     39  CBE CKO d   1     -18.922 -50.091  -7.364  0.00  0.00    -0.035 C 
ATOM     40  H16 CKO d   1     -19.240 -51.142  -7.424  0.00  0.00     0.036 H 
ATOM     41  H17 CKO d   1     -17.909 -50.038  -6.939  0.00  0.00     0.036 H 
BRANCH  39  42
ATOM     42  CBF CKO d   1     -18.855 -49.536  -8.810  0.00  0.00     0.083 C 
ATOM     43  H18 CKO d   1     -19.804 -49.763  -9.317  0.00  0.00     0.075 H 
ATOM     44  H19 CKO d   1     -18.029 -50.034  -9.338  0.00  0.00     0.075 H 
BRANCH  42  45
ATOM     45  NBG CKO d   1     -18.631 -48.061  -8.859  0.00  0.00    -0.079 N 
ATOM     46  H33 CKO d   1     -18.228 -47.877  -9.764  0.00  0.00     0.278 HD
BRANCH  45  47
ATOM     47  CBH CKO d   1     -17.662 -47.581  -7.863  0.00  0.00     0.066 C 
ATOM     48  H20 CKO d   1     -17.548 -46.491  -7.958  0.00  0.00     0.068 H 
ATOM     49  H21 CKO d   1     -16.690 -48.067  -8.033  0.00  0.00     0.068 H 
ATOM     50  H22 CKO d   1     -18.023 -47.826  -6.853  0.00  0.00     0.068 H 
ENDBRANCH  45  47
BRANCH  45  51
ATOM     51  CBI CKO d   1     -19.863 -47.254  -8.779  0.00  0.00     0.066 C 
ATOM     52  H23 CKO d   1     -20.587 -47.615  -9.525  0.00  0.00     0.068 H 
ATOM     53  H24 CKO d   1     -19.624 -46.199  -8.980  0.00  0.00     0.068 H 
ATOM     54  H25 CKO d   1     -20.297 -47.346  -7.772  0.00  0.00     0.068 H 
ENDBRANCH  45  51
ENDBRANCH  42  45
ENDBRANCH  39  42
ENDBRANCH  36  39
ENDBRANCH  33  36
ENDBRANCH  28  32
ENDBRANCH   7  22
BRANCH   6  55
ATOM     55  NAL CKO d   1     -23.797 -51.688  -0.513  0.00  0.00    -0.363 N 
ATOM     56  H31 CKO d   1     -23.293 -50.841  -0.813  0.00  0.00     0.162 HD
BRANCH  55  57
ATOM     57  CAM CKO d   1     -25.210 -51.833  -0.945  0.00  0.00     0.057 C 
ATOM     58  H2  CKO d   1     -25.278 -52.719  -1.593  0.00  0.00     0.083 H 
BRANCH  57  59
ATOM     59  CAN CKO d   1     -26.166 -51.974   0.087  0.00  0.00    -0.034 A 
ATOM     60  CBJ CKO d   1     -27.434 -52.442  -0.248  0.00  0.00    -0.075 A 
ATOM     61  CBK CKO d   1     -28.426 -52.595   0.715  0.00  0.00    -0.082 A 
ATOM     62  H26 CKO d   1     -27.652 -52.692  -1.280  0.00  0.00     0.084 H 
ATOM     63  CBL CKO d   1     -28.161 -52.272   2.039  0.00  0.00    -0.083 A 
ATOM     64  H27 CKO d   1     -29.404 -52.966   0.432  0.00  0.00     0.083 H 
ATOM     65  CBM CKO d   1     -26.901 -51.799   2.387  0.00  0.00    -0.082 A 
ATOM     66  H28 CKO d   1     -28.930 -52.388   2.795  0.00  0.00     0.083 H 
ATOM     67  CBN CKO d   1     -25.911 -51.644   1.418  0.00  0.00    -0.075 A 
ATOM     68  H29 CKO d   1     -26.687 -51.549   3.420  0.00  0.00     0.083 H 
ATOM     69  H30 CKO d   1     -24.936 -51.264   1.701  0.00  0.00     0.084 H 
ENDBRANCH  57  59
BRANCH  57  70
ATOM     70  CAO CKO d   1     -25.571 -50.579  -1.745  0.00  0.00     0.039 C 
ATOM     71  H3  CKO d   1     -24.653 -50.022  -1.981  0.00  0.00     0.077 H 
ATOM     72  H4  CKO d   1     -26.241 -49.945  -1.145  0.00  0.00     0.077 H 
BRANCH  70  73
ATOM     73  OAP CKO d   1     -26.228 -50.942  -2.960  0.00  0.00    -0.399 OA
ATOM     74  H34 CKO d   1     -25.650 -51.488  -3.480  0.00  0.00     0.209 HD
ENDBRANCH  70  73
ENDBRANCH  57  70
ENDBRANCH  55  57
ENDBRANCH   6  55
TORSDOF 13
