REMARK  5 active torsions:
REMARK  status: ('A' for Active; 'I' for Inactive)
REMARK    1  A    between atoms: C02_2  and  C16_13 
REMARK    2  A    between atoms: N22_28  and  C07_7 
REMARK    3  A    between atoms: C14_11  and  C15_12 
REMARK    4  A    between atoms: N18_26  and  C21_16 
REMARK    5  A    between atoms: C23_17  and  N22_28 
ROOT
ATOM      1  C01 CQF d   1      16.205   9.777 -10.312  0.00  0.00    -0.053 A 
ATOM      2  C02 CQF d   1      16.500  10.795 -11.452  0.00  0.00    -0.022 A 
ATOM      3  C03 CQF d   1      17.963  11.161 -11.803  0.00  0.00    -0.033 A 
ATOM      4  C04 CQF d   1      19.138  10.513 -11.013  0.00  0.00    -0.034 A 
ATOM      5  C05 CQF d   1      18.840   9.546  -9.924  0.00  0.00     0.024 A 
ATOM      6  C06 CQF d   1      17.375   9.144  -9.543  0.00  0.00    -0.025 A 
ATOM      7  C07 CQF d   1      20.586  10.929 -11.413  0.00  0.00     0.034 C 
ATOM      8  C08 CQF d   1      21.478   9.781 -11.894  0.00  0.00    -0.036 C 
ATOM      9  C09 CQF d   1      21.083   8.415 -11.370  0.00  0.00    -0.005 C 
ATOM     10  C10 CQF d   1      21.048   8.426  -9.829  0.00  0.00     0.134 A 
ATOM     11  C14 CQF d   1      20.230   8.831  -7.864  0.00  0.00     0.130 A 
ATOM     12  N11 CQF d   1      20.012   8.956  -9.196  0.00  0.00    -0.288 N 
ATOM     13  N12 CQF d   1      21.929   7.957  -8.925  0.00  0.00    -0.134 NA
ATOM     14  N13 CQF d   1      21.402   8.232  -7.711  0.00  0.00    -0.135 NA
ATOM     15  H1  CQF d   1      15.633   8.951 -10.760  0.00  0.00     0.034 H 
ATOM     16  H2  CQF d   1      15.580  10.298  -9.572  0.00  0.00     0.034 H 
ATOM     17  H3  CQF d   1      16.459  11.617 -10.722  0.00  0.00     0.048 H 
ATOM     18  H4  CQF d   1      18.057  12.250 -11.676  0.00  0.00     0.040 H 
ATOM     19  H5  CQF d   1      18.110  10.901 -12.862  0.00  0.00     0.040 H 
ATOM     20  H6  CQF d   1      17.295   8.055  -9.674  0.00  0.00     0.042 H 
ATOM     21  H7  CQF d   1      17.237   9.397  -8.481  0.00  0.00     0.042 H 
ATOM     22  H8  CQF d   1      21.055  11.375 -10.523  0.00  0.00     0.079 H 
ATOM     23  H9  CQF d   1      22.509   9.988 -11.570  0.00  0.00     0.037 H 
ATOM     24  H10 CQF d   1      21.438   9.752 -12.993  0.00  0.00     0.037 H 
ATOM     25  H11 CQF d   1      21.816   7.669 -11.711  0.00  0.00     0.044 H 
ATOM     26  H12 CQF d   1      20.086   8.153 -11.754  0.00  0.00     0.044 H 
ENDROOT
BRANCH   7  27
ATOM     27  N22 CQF d   1      20.564  11.921 -12.481  0.00  0.00    -0.381 N 
ATOM     28  H25 CQF d   1      20.825  11.648 -13.439  0.00  0.00     0.160 HD
BRANCH  27  29
ATOM     29  C23 CQF d   1      20.177  13.289 -12.201  0.00  0.00     0.028 A 
ATOM     30  C24 CQF d   1      20.151  14.314 -13.330  0.00  0.00    -0.056 A 
ATOM     31  C25 CQF d   1      19.737  15.746 -13.022  0.00  0.00    -0.060 A 
ATOM     32  H21 CQF d   1      20.424  14.026 -14.339  0.00  0.00     0.087 H 
ATOM     33  C26 CQF d   1      19.355  16.122 -11.596  0.00  0.00     0.034 A 
ATOM     34  H22 CQF d   1      19.714  16.491 -13.809  0.00  0.00     0.086 H 
ATOM     35  C27 CQF d   1      19.373  15.107 -10.468  0.00  0.00    -0.060 A 
ATOM     36 CL2  CQF d   1      18.870  17.784 -11.240  0.00  0.00    -0.084 Cl
ATOM     37  C28 CQF d   1      19.788  13.675 -10.777  0.00  0.00    -0.056 A 
ATOM     38  H23 CQF d   1      19.096  15.396  -9.461  0.00  0.00     0.086 H 
ATOM     39  H24 CQF d   1      19.807  12.932  -9.988  0.00  0.00     0.087 H 
ENDBRANCH  27  29
ENDBRANCH   7  27
BRANCH   2  40
ATOM     40  C16 CQF d   1      15.373  11.452 -12.260  0.00  0.00    -0.017 A 
ATOM     41  C17 CQF d   1      14.014  11.306 -12.103  0.00  0.00     0.006 A 
ATOM     42  N18 CQF d   1      13.411  12.059 -13.028  0.00  0.00    -0.285 N 
ATOM     43  H16 CQF d   1      13.518  10.687 -11.357  0.00  0.00     0.115 H 
ATOM     44  N19 CQF d   1      14.391  12.692 -13.780  0.00  0.00    -0.185 NA
ATOM     45  C20 CQF d   1      15.577  12.315 -13.307  0.00  0.00     0.029 A 
ATOM     46  H17 CQF d   1      16.545  12.637 -13.687  0.00  0.00     0.118 H 
BRANCH  42  47
ATOM     47  C21 CQF d   1      11.982  12.229 -13.226  0.00  0.00     0.002 C 
ATOM     48  H18 CQF d   1      11.808  12.913 -14.069  0.00  0.00     0.059 H 
ATOM     49  H19 CQF d   1      11.533  12.649 -12.314  0.00  0.00     0.059 H 
ATOM     50  H20 CQF d   1      11.523  11.253 -13.444  0.00  0.00     0.059 H 
ENDBRANCH  42  47
ENDBRANCH   2  40
BRANCH  11  51
ATOM     51  C15 CQF d   1      19.293   9.296  -6.758  0.00  0.00    -0.019 C 
ATOM     52  H13 CQF d   1      19.736   9.060  -5.779  0.00  0.00     0.037 H 
ATOM     53  H14 CQF d   1      18.326   8.781  -6.856  0.00  0.00     0.037 H 
ATOM     54  H15 CQF d   1      19.140  10.382  -6.839  0.00  0.00     0.037 H 
ENDBRANCH  11  51
TORSDOF 5
