REMARK  13 active torsions:
REMARK  status: ('A' for Active; 'I' for Inactive)
REMARK    1  A    between atoms: C1_1  and  C7_7 
REMARK    2  A    between atoms: C3_3  and  C9_9 
REMARK    3  A    between atoms: C5_5  and  C8_8 
REMARK       I    between atoms: C9_9  and  N10_10 
REMARK    4  A    between atoms: N10_10  and  C11_11 
REMARK    5  A    between atoms: N10_10  and  C25_25 
REMARK    6  A    between atoms: C11_11  and  C12_12 
REMARK    7  A    between atoms: C11_11  and  C27_27 
REMARK    8  A    between atoms: C12_12  and  C13_13 
REMARK    9  A    between atoms: C16_16  and  C19_19 
REMARK       I    between atoms: C27_27  and  N29_29 
REMARK   10  A    between atoms: N29_29  and  C30_30 
REMARK   11  A    between atoms: C30_30  and  C31_31 
REMARK   12  A    between atoms: C30_30  and  C32_32 
REMARK   13  A    between atoms: C32_32  and  C33_33 
ROOT
ATOM      1  C11 D2U d   1      37.175  39.054  23.998  0.00  0.00     0.095 C 
ATOM      2  H10 D2U d   1      38.274  39.072  23.961  0.00  0.00     0.088 H 
ENDROOT
BRANCH   1   3
ATOM      3  N10 D2U d   1      36.813  37.679  24.295  0.00  0.00    -0.339 N 
ATOM      4  C9  D2U d   1      37.800  36.621  24.088  0.00  0.00     0.254 C 
ATOM      5  O26 D2U d   1      38.881  36.928  23.707  0.00  0.00    -0.267 OA
BRANCH   4   6
ATOM      6  C3  D2U d   1      37.517  35.130  24.331  0.00  0.00     0.033 A 
ATOM      7  C2  D2U d   1      36.489  34.489  23.650  0.00  0.00    -0.062 A 
ATOM      8  C1  D2U d   1      36.238  33.144  23.856  0.00  0.00    -0.061 A 
ATOM      9  H1  D2U d   1      35.878  35.048  22.951  0.00  0.00     0.085 H 
ATOM     10  C6  D2U d   1      37.024  32.423  24.735  0.00  0.00    -0.071 A 
ATOM     11  C5  D2U d   1      38.058  33.055  25.407  0.00  0.00    -0.061 A 
ATOM     12  H3  D2U d   1      36.833  31.369  24.898  0.00  0.00     0.085 H 
ATOM     13  C4  D2U d   1      38.310  34.404  25.201  0.00  0.00    -0.062 A 
ATOM     14  H2  D2U d   1      39.128  34.889  25.722  0.00  0.00     0.085 H 
BRANCH   8  15
ATOM     15  C7  D2U d   1      35.095  32.469  23.108  0.00  0.00    -0.051 C 
ATOM     16  H4  D2U d   1      34.594  33.205  22.462  0.00  0.00     0.033 H 
ATOM     17  H5  D2U d   1      34.372  32.063  23.831  0.00  0.00     0.033 H 
ATOM     18  H6  D2U d   1      35.494  31.651  22.490  0.00  0.00     0.033 H 
ENDBRANCH   8  15
BRANCH  11  19
ATOM     19  C8  D2U d   1      38.924  32.260  26.371  0.00  0.00    -0.051 C 
ATOM     20  H7  D2U d   1      39.687  32.920  26.808  0.00  0.00     0.033 H 
ATOM     21  H8  D2U d   1      39.416  31.439  25.830  0.00  0.00     0.033 H 
ATOM     22  H9  D2U d   1      38.295  31.846  27.173  0.00  0.00     0.033 H 
ENDBRANCH  11  19
ENDBRANCH   4   6
BRANCH   3  23
ATOM     23  C25 D2U d   1      35.459  37.411  24.744  0.00  0.00    -0.015 C 
ATOM     24  H22 D2U d   1      35.340  36.333  24.927  0.00  0.00     0.056 H 
ATOM     25  H23 D2U d   1      34.746  37.733  23.971  0.00  0.00     0.056 H 
ATOM     26  H24 D2U d   1      35.265  37.964  25.675  0.00  0.00     0.056 H 
ENDBRANCH   3  23
ENDBRANCH   1   3
BRANCH   1  27
ATOM     27  C12 D2U d   1      36.804  40.101  25.054  0.00  0.00    -0.014 C 
ATOM     28  H11 D2U d   1      35.712  40.231  25.052  0.00  0.00     0.043 H 
ATOM     29  H12 D2U d   1      37.287  41.053  24.790  0.00  0.00     0.043 H 
BRANCH  27  30
ATOM     30  C13 D2U d   1      37.248  39.700  26.469  0.00  0.00    -0.056 A 
ATOM     31  C14 D2U d   1      38.499  39.140  26.682  0.00  0.00    -0.076 A 
ATOM     32  C15 D2U d   1      38.874  38.782  27.967  0.00  0.00    -0.072 A 
ATOM     33  H13 D2U d   1      39.177  38.984  25.851  0.00  0.00     0.084 H 
ATOM     34  C16 D2U d   1      38.002  38.980  29.029  0.00  0.00    -0.026 A 
ATOM     35  H14 D2U d   1      39.851  38.346  28.143  0.00  0.00     0.084 H 
ATOM     36  C17 D2U d   1      36.753  39.534  28.808  0.00  0.00    -0.072 A 
ATOM     37  C18 D2U d   1      36.376  39.892  27.525  0.00  0.00    -0.076 A 
ATOM     38  H15 D2U d   1      36.072  39.687  29.637  0.00  0.00     0.084 H 
ATOM     39  H16 D2U d   1      35.397  40.323  27.348  0.00  0.00     0.084 H 
BRANCH  34  40
ATOM     40  C19 D2U d   1      38.405  38.576  30.454  0.00  0.00    -0.026 A 
ATOM     41  C20 D2U d   1      37.433  38.128  31.335  0.00  0.00    -0.072 A 
ATOM     42  C21 D2U d   1      37.780  37.755  32.623  0.00  0.00    -0.082 A 
ATOM     43  H17 D2U d   1      36.399  38.069  31.015  0.00  0.00     0.084 H 
ATOM     44  C22 D2U d   1      39.101  37.828  33.031  0.00  0.00    -0.083 A 
ATOM     45  H18 D2U d   1      37.018  37.406  33.311  0.00  0.00     0.083 H 
ATOM     46  C23 D2U d   1      40.074  38.274  32.156  0.00  0.00    -0.082 A 
ATOM     47  H19 D2U d   1      39.373  37.535  34.039  0.00  0.00     0.083 H 
ATOM     48  C24 D2U d   1      39.729  38.649  30.864  0.00  0.00    -0.072 A 
ATOM     49  H20 D2U d   1      41.107  38.331  32.479  0.00  0.00     0.083 H 
ATOM     50  H21 D2U d   1      40.492  38.998  30.177  0.00  0.00     0.084 H 
ENDBRANCH  34  40
ENDBRANCH  27  30
ENDBRANCH   1  27
BRANCH   1  51
ATOM     51  C27 D2U d   1      36.694  39.393  22.586  0.00  0.00     0.241 C 
ATOM     52  O28 D2U d   1      35.990  40.328  22.385  0.00  0.00    -0.271 OA
ATOM     53  N29 D2U d   1      37.128  38.508  21.514  0.00  0.00    -0.344 N 
ATOM     54  H25 D2U d   1      37.730  37.739  21.730  0.00  0.00     0.163 HD
BRANCH  53  55
ATOM     55  C30 D2U d   1      36.708  38.714  20.135  0.00  0.00     0.100 C 
ATOM     56  H26 D2U d   1      36.132  39.649  20.068  0.00  0.00     0.090 H 
BRANCH  55  57
ATOM     57  C31 D2U d   1      35.795  37.542  19.772  0.00  0.00     0.197 C 
ATOM     58  O42 D2U d   1      34.800  37.750  19.032  0.00  0.00    -0.646 OA
ATOM     59  O43 D2U d   1      36.028  36.386  20.218  0.00  0.00    -0.646 OA
ENDBRANCH  55  57
BRANCH  55  60
ATOM     60  C32 D2U d   1      37.915  38.831  19.196  0.00  0.00    -0.011 C 
ATOM     61  H27 D2U d   1      37.567  38.735  18.157  0.00  0.00     0.044 H 
ATOM     62  H28 D2U d   1      38.622  38.019  19.423  0.00  0.00     0.044 H 
BRANCH  60  63
ATOM     63  C33 D2U d   1      38.637  40.175  19.355  0.00  0.00    -0.028 A 
ATOM     64  C34 D2U d   1      38.251  41.269  20.125  0.00  0.00    -0.015 A 
ATOM     65  N35 D2U d   1      39.154  42.225  19.993  0.00  0.00    -0.365 N 
ATOM     66  H29 D2U d   1      37.352  41.327  20.736  0.00  0.00     0.112 H 
ATOM     67  C36 D2U d   1      40.134  41.823  19.172  0.00  0.00     0.042 A 
ATOM     68  H30 D2U d   1      39.111  43.145  20.454  0.00  0.00     0.165 HD
ATOM     69  C37 D2U d   1      39.851  40.539  18.747  0.00  0.00    -0.002 A 
ATOM     70  C38 D2U d   1      41.299  42.464  18.720  0.00  0.00    -0.056 A 
ATOM     71  C41 D2U d   1      40.719  39.870  17.873  0.00  0.00    -0.070 A 
ATOM     72  C40 D2U d   1      41.869  40.512  17.428  0.00  0.00    -0.082 A 
ATOM     73  H34 D2U d   1      40.495  38.861  17.547  0.00  0.00     0.084 H 
ATOM     74  C39 D2U d   1      42.163  41.806  17.854  0.00  0.00    -0.081 A 
ATOM     75  H33 D2U d   1      42.541  40.003  16.746  0.00  0.00     0.083 H 
ATOM     76  H32 D2U d   1      43.065  42.299  17.510  0.00  0.00     0.083 H 
ATOM     77  H31 D2U d   1      41.524  43.473  19.047  0.00  0.00     0.086 H 
ENDBRANCH  60  63
ENDBRANCH  55  60
ENDBRANCH  53  55
ENDBRANCH   1  51
TORSDOF 13
