REMARK  8 active torsions:
REMARK  status: ('A' for Active; 'I' for Inactive)
REMARK    1  A    between atoms: NAA_8  and  C6_3 
REMARK    2  A    between atoms: CBA_7  and  CBB_6 
REMARK    3  A    between atoms: NAG_12  and  CAK_13 
REMARK    4  A    between atoms: CAP_15  and  OAQ_16 
REMARK    5  A    between atoms: CAN_17  and  OAO_18 
REMARK    6  A    between atoms: CAM_19  and  CAR_20 
REMARK    7  A    between atoms: CAR_20  and  OAS_21 
REMARK    8  A    between atoms: CAR_20  and  CAT_22 
ROOT
ATOM      1  CAK CUX d   1     -16.991-101.285  -3.621  0.00  0.00     0.138 C 
ATOM      2  OAL CUX d   1     -17.472-101.261  -4.939  0.00  0.00    -0.353 OA
ATOM      3  CAP CUX d   1     -17.275 -99.894  -3.139  0.00  0.00     0.105 C 
ATOM      4  CAN CUX d   1     -18.678 -99.655  -3.654  0.00  0.00     0.092 C 
ATOM      5  CAM CUX d   1     -18.733-100.573  -4.871  0.00  0.00     0.097 C 
ATOM      6  H8  CUX d   1     -17.467-102.050  -2.990  0.00  0.00     0.122 H 
ATOM      7  H9  CUX d   1     -16.567 -99.174  -3.576  0.00  0.00     0.093 H 
ATOM      8  H11 CUX d   1     -18.821 -98.601  -3.936  0.00  0.00     0.091 H 
ATOM      9  H13 CUX d   1     -19.553-101.296  -4.749  0.00  0.00     0.092 H 
ENDROOT
BRANCH   1  10
ATOM     10  NAG CUX d   1     -15.547-101.514  -3.769  0.00  0.00    -0.311 N 
ATOM     11  C4  CUX d   1     -14.915-102.555  -3.260  0.00  0.00     0.147 A 
ATOM     12  C5  CUX d   1     -13.614-102.448  -3.554  0.00  0.00     0.059 A 
ATOM     13  N3  CUX d   1     -15.393-103.575  -2.542  0.00  0.00    -0.223 NA
ATOM     14  C6  CUX d   1     -12.773-103.438  -3.167  0.00  0.00     0.164 A 
ATOM     15  CAI CUX d   1     -13.466-101.315  -4.263  0.00  0.00    -0.050 A 
ATOM     16  N1  CUX d   1     -13.205-104.471  -2.428  0.00  0.00    -0.222 NA
ATOM     17  C2  CUX d   1     -14.551-104.588  -2.093  0.00  0.00     0.091 A 
ATOM     18  H5  CUX d   1     -14.924-105.424  -1.513  0.00  0.00     0.146 H 
ATOM     19  CAH CUX d   1     -14.651-100.751  -4.403  0.00  0.00    -0.015 A 
ATOM     20  H6  CUX d   1     -12.527-100.928  -4.655  0.00  0.00     0.087 H 
ATOM     21  H7  CUX d   1     -14.862 -99.827  -4.940  0.00  0.00     0.111 H 
BRANCH  14  22
ATOM     22  NAA CUX d   1     -11.453-103.345  -3.398  0.00  0.00    -0.245 NA
ATOM     23  CBA CUX d   1     -10.841-103.136  -4.588  0.00  0.00    -0.019 C 
ATOM     24  H4  CUX d   1      -9.754-103.070  -4.581  0.00  0.00     0.107 H 
BRANCH  23  25
ATOM     25  CBB CUX d   1     -11.542-102.983  -5.946  0.00  0.00    -0.045 C 
ATOM     26  H1  CUX d   1     -10.789-102.824  -6.732  0.00  0.00     0.034 H 
ATOM     27  H2  CUX d   1     -12.224-102.121  -5.912  0.00  0.00     0.034 H 
ATOM     28  H3  CUX d   1     -12.115-103.895  -6.168  0.00  0.00     0.034 H 
ENDBRANCH  23  25
ENDBRANCH  14  22
ENDBRANCH   1  10
BRANCH   3  29
ATOM     29  OAQ CUX d   1     -17.213 -99.805  -1.711  0.00  0.00    -0.388 OA
ATOM     30  H10 CUX d   1     -17.856-100.391  -1.330  0.00  0.00     0.210 HD
ENDBRANCH   3  29
BRANCH   5  31
ATOM     31  CAR CUX d   1     -18.945 -99.782  -6.184  0.00  0.00     0.088 C 
ATOM     32  H14 CUX d   1     -18.890-100.498  -7.017  0.00  0.00     0.094 H 
BRANCH  31  33
ATOM     33  OAS CUX d   1     -17.866 -98.845  -6.367  0.00  0.00    -0.388 OA
ATOM     34  H15 CUX d   1     -17.043 -99.317  -6.413  0.00  0.00     0.210 HD
ENDBRANCH  31  33
BRANCH  31  35
ATOM     35  CAT CUX d   1     -20.253 -99.207  -6.224  0.00  0.00    -0.027 A 
ATOM     36  CAU CUX d   1     -21.356-100.077  -6.259  0.00  0.00    -0.073 A 
ATOM     37  CAV CUX d   1     -22.659 -99.611  -6.299  0.00  0.00    -0.061 A 
ATOM     38  H16 CUX d   1     -21.181-101.147  -6.255  0.00  0.00     0.084 H 
ATOM     39  CAW CUX d   1     -22.891 -98.254  -6.311  0.00  0.00     0.034 A 
ATOM     40  H17 CUX d   1     -23.489-100.308  -6.321  0.00  0.00     0.086 H 
ATOM     41 CLA  CUX d   1     -24.502 -97.702  -6.366  0.00  0.00    -0.084 Cl
ATOM     42  CAX CUX d   1     -21.819 -97.359  -6.273  0.00  0.00    -0.061 A 
ATOM     43  CAY CUX d   1     -20.498 -97.828  -6.236  0.00  0.00    -0.073 A 
ATOM     44  H18 CUX d   1     -22.010 -96.292  -6.272  0.00  0.00     0.086 H 
ATOM     45  H19 CUX d   1     -19.671 -97.127  -6.217  0.00  0.00     0.084 H 
ENDBRANCH  31  35
ENDBRANCH   5  31
BRANCH   4  46
ATOM     46  OAO CUX d   1     -19.691-100.041  -2.696  0.00  0.00    -0.390 OA
ATOM     47  H12 CUX d   1     -19.581 -99.536  -1.899  0.00  0.00     0.210 HD
ENDBRANCH   4  46
TORSDOF 8
