REMARK  20 active torsions:
REMARK  status: ('A' for Active; 'I' for Inactive)
REMARK    1  A    between atoms: O6_26  and  C1_1 
REMARK    2  A    between atoms: C2_2  and  N2_9 
REMARK    3  A    between atoms: C3_3  and  O3_10 
REMARK    4  A    between atoms: C4_4  and  O4_11 
REMARK    5  A    between atoms: C5_5  and  C6_6 
REMARK    6  A    between atoms: C6_6  and  O6_13 
REMARK    7  A    between atoms: C7_7  and  C8_8 
REMARK       I    between atoms: N2_9  and  C7_7 
REMARK    8  A    between atoms: C1_16  and  O1_17 
REMARK    9  A    between atoms: C2_18  and  N2_19 
REMARK       I    between atoms: N2_19  and  C7_27 
REMARK   10  A    between atoms: C3_20  and  O3_21 
REMARK   11  A    between atoms: O3_21  and  C1_30 
REMARK   12  A    between atoms: C4_22  and  O4_23 
REMARK   13  A    between atoms: C6_25  and  C5_24 
REMARK   14  A    between atoms: C6_25  and  O6_26 
REMARK   15  A    between atoms: C7_27  and  C8_29 
REMARK   16  A    between atoms: C2_31  and  O2_36 
REMARK   17  A    between atoms: C3_32  and  O3_37 
REMARK   18  A    between atoms: C4_33  and  O4_38 
REMARK   19  A    between atoms: C5_34  and  C6_35 
REMARK   20  A    between atoms: C6_35  and  O6_40 
ROOT
ATOM      1  O   NAG d   1      -5.524  12.753  11.143  0.00  0.00    -0.349 OA
ATOM      2  C1  NAG d   1      -6.737  12.041  11.378  0.00  0.00     0.151 C 
ATOM      3  C2  NAG d   1      -7.582  12.043  10.109  0.00  0.00     0.087 C 
ATOM      4  C3  NAG d   1      -6.803  11.470   8.932  0.00  0.00     0.093 C 
ATOM      5  C4  NAG d   1      -5.426  12.114   8.822  0.00  0.00     0.089 C 
ATOM      6  C5  NAG d   1      -4.710  12.105  10.167  0.00  0.00     0.089 C 
ATOM      7  H15 NAG d   1      -7.296  12.527  12.191  0.00  0.00     0.132 H 
ATOM      8  H17 NAG d   1      -7.856  13.082   9.874  0.00  0.00     0.084 H 
ATOM      9  H19 NAG d   1      -6.678  10.387   9.082  0.00  0.00     0.091 H 
ATOM     10  H20 NAG d   1      -4.825  11.547   8.096  0.00  0.00     0.091 H 
ATOM     11  H22 NAG d   1      -4.540  11.062  10.473  0.00  0.00     0.090 H 
ENDROOT
BRANCH   6  12
ATOM     12  C6  NAG d   1      -3.365  12.816  10.074  0.00  0.00     0.049 C 
ATOM     13  H23 NAG d   1      -3.445  13.814  10.530  0.00  0.00     0.078 H 
ATOM     14  H24 NAG d   1      -3.076  12.918   9.018  0.00  0.00     0.078 H 
BRANCH  12  15
ATOM     15  O6  NAG d   1      -2.373  12.052  10.768  0.00  0.00    -0.356 OA
BRANCH  15  16
ATOM     16  C1  NAG d   1      -1.242  12.959  10.646  0.00  0.00     0.153 C 
ATOM     17  C2  NAG d   1      -0.303  12.786  11.853  0.00  0.00     0.087 C 
ATOM     18  C3  NAG d   1       0.923  13.696  11.716  0.00  0.00     0.086 C 
ATOM     19  H2  NAG d   1       0.042  11.742  11.875  0.00  0.00     0.084 H 
ATOM     20  C4  NAG d   1       1.583  13.517  10.356  0.00  0.00     0.089 C 
ATOM     21  H3  NAG d   1       0.608  14.744  11.829  0.00  0.00     0.090 H 
ATOM     22  C5  NAG d   1       0.560  13.692   9.241  0.00  0.00     0.089 C 
ATOM     23  H4  NAG d   1       2.002  12.502  10.300  0.00  0.00     0.091 H 
ATOM     24  O5  NAG d   1      -0.498  12.743   9.417  0.00  0.00    -0.349 OA
ATOM     25  H5  NAG d   1       0.158  14.715   9.285  0.00  0.00     0.090 H 
ATOM     26  H1  NAG d   1      -1.626  13.990  10.641  0.00  0.00     0.132 H 
BRANCH  17  27
ATOM     27  N2  NAG d   1      -1.004  13.061  13.096  0.00  0.00    -0.349 N 
ATOM     28  C7  NAG d   1      -1.388  12.100  13.942  0.00  0.00     0.214 C 
ATOM     29  O7  NAG d   1      -1.164  10.913  13.722  0.00  0.00    -0.274 OA
ATOM     30  H11 NAG d   1      -1.208  14.012  13.329  0.00  0.00     0.163 HD
BRANCH  28  31
ATOM     31  C8  NAG d   1      -2.105  12.559  15.176  0.00  0.00    -0.003 C 
ATOM     32  H8  NAG d   1      -2.370  11.687  15.792  0.00  0.00     0.040 H 
ATOM     33  H9  NAG d   1      -3.021  13.097  14.889  0.00  0.00     0.040 H 
ATOM     34  H10 NAG d   1      -1.451  13.230  15.752  0.00  0.00     0.040 H 
ENDBRANCH  28  31
ENDBRANCH  17  27
BRANCH  18  35
ATOM     35  O3  NAG d   1       1.862  13.371  12.734  0.00  0.00    -0.391 OA
ATOM     36  H12 NAG d   1       2.615  13.947  12.665  0.00  0.00     0.210 HD
ENDBRANCH  18  35
BRANCH  20  37
ATOM     37  O4  NAG d   1       2.635  14.460  10.176  0.00  0.00    -0.390 OA
ATOM     38  H13 NAG d   1       3.276  14.354  10.870  0.00  0.00     0.210 HD
ENDBRANCH  20  37
BRANCH  22  39
ATOM     39  C6  NAG d   1       1.147  13.446   7.873  0.00  0.00     0.043 C 
ATOM     40  H6  NAG d   1       1.921  14.201   7.671  0.00  0.00     0.078 H 
ATOM     41  H7  NAG d   1       0.350  13.526   7.119  0.00  0.00     0.078 H 
BRANCH  39  42
ATOM     42  O6  NAG d   1       1.729  12.152   7.802  0.00  0.00    -0.398 OA
ATOM     43  H14 NAG d   1       2.420  12.081   8.451  0.00  0.00     0.209 HD
ENDBRANCH  39  42
ENDBRANCH  22  39
ENDBRANCH  15  16
ENDBRANCH  12  15
ENDBRANCH   6  12
BRANCH   5  44
ATOM     44  O4  NAG d   1      -5.566  13.464   8.364  0.00  0.00    -0.390 OA
ATOM     45  H21 NAG d   1      -5.986  13.466   7.512  0.00  0.00     0.210 HD
ENDBRANCH   5  44
BRANCH   2  46
ATOM     46  O1  NAG d   1      -6.434  10.691  11.747  0.00  0.00    -0.369 OA
ATOM     47  H16 NAG d   1      -7.243  10.217  11.903  0.00  0.00     0.212 HD
ENDBRANCH   2  46
BRANCH   4  48
ATOM     48  O3  NAG d   1      -7.533  11.696   7.721  0.00  0.00    -0.348 OA
BRANCH  48  49
ATOM     49  C1  NAG d   1      -7.889  10.336   7.406  0.00  0.00     0.159 C 
ATOM     50  C2  NAG d   1      -9.129  10.484   6.498  0.00  0.00     0.110 C 
ATOM     51  C3  NAG d   1      -9.510   9.215   5.734  0.00  0.00     0.092 C 
ATOM     52  H29 NAG d   1      -8.899  11.268   5.761  0.00  0.00     0.094 H 
ATOM     53  C4  NAG d   1      -8.295   8.622   5.036  0.00  0.00     0.090 C 
ATOM     54  H30 NAG d   1      -9.932   8.482   6.438  0.00  0.00     0.091 H 
ATOM     55  C5  NAG d   1      -7.188   8.407   6.061  0.00  0.00     0.089 C 
ATOM     56  H31 NAG d   1      -8.572   7.651   4.600  0.00  0.00     0.091 H 
ATOM     57  O5  NAG d   1      -6.834   9.626   6.769  0.00  0.00    -0.348 OA
ATOM     58  H32 NAG d   1      -7.554   7.668   6.788  0.00  0.00     0.090 H 
ATOM     59  H28 NAG d   1      -8.159   9.797   8.326  0.00  0.00     0.133 H 
BRANCH  50  60
ATOM     60  O2  NAG d   1     -10.277  10.884   7.244  0.00  0.00    -0.388 OA
ATOM     61  H35 NAG d   1     -10.997  11.054   6.648  0.00  0.00     0.210 HD
ENDBRANCH  50  60
BRANCH  51  62
ATOM     62  O3  NAG d   1     -10.463   9.517   4.713  0.00  0.00    -0.390 OA
ATOM     63  H36 NAG d   1     -10.085  10.140   4.103  0.00  0.00     0.210 HD
ENDBRANCH  51  62
BRANCH  53  64
ATOM     64  O4  NAG d   1      -7.851   9.481   3.990  0.00  0.00    -0.390 OA
ATOM     65  H37 NAG d   1      -7.102   9.089   3.557  0.00  0.00     0.210 HD
ENDBRANCH  53  64
BRANCH  55  66
ATOM     66  C6  NAG d   1      -5.879   7.887   5.447  0.00  0.00     0.043 C 
ATOM     67  H33 NAG d   1      -5.475   7.090   6.089  0.00  0.00     0.078 H 
ATOM     68  H34 NAG d   1      -5.157   8.715   5.391  0.00  0.00     0.078 H 
BRANCH  66  69
ATOM     69  O6  NAG d   1      -6.089   7.365   4.136  0.00  0.00    -0.398 OA
ATOM     70  H38 NAG d   1      -6.434   8.050   3.575  0.00  0.00     0.209 HD
ENDBRANCH  66  69
ENDBRANCH  55  66
ENDBRANCH  48  49
ENDBRANCH   4  48
BRANCH   3  71
ATOM     71  N2  NAG d   1      -8.796  11.279  10.320  0.00  0.00    -0.349 N 
ATOM     72  C7  NAG d   1      -9.985  11.870  10.397  0.00  0.00     0.214 C 
ATOM     73  O7  NAG d   1     -10.126  13.069  10.227  0.00  0.00    -0.274 OA
ATOM     74  H18 NAG d   1      -8.738  10.285  10.410  0.00  0.00     0.163 HD
BRANCH  72  75
ATOM     75  C8  NAG d   1     -11.141  10.965  10.706  0.00  0.00    -0.003 C 
ATOM     76  H25 NAG d   1     -12.068  11.555  10.746  0.00  0.00     0.040 H 
ATOM     77  H26 NAG d   1     -10.975  10.477  11.678  0.00  0.00     0.040 H 
ATOM     78  H27 NAG d   1     -11.227  10.199   9.921  0.00  0.00     0.040 H 
ENDBRANCH  72  75
ENDBRANCH   3  71
TORSDOF 20
