REMARK  6 active torsions:
REMARK  status: ('A' for Active; 'I' for Inactive)
REMARK    1  A    between atoms: P_1  and  O5'_5 
REMARK    2  A    between atoms: O5'_5  and  C5'_6 
REMARK    3  A    between atoms: C5'_6  and  C4'_7 
REMARK    4  A    between atoms: C3'_9  and  O3'_10 
REMARK    5  A    between atoms: C2'_11  and  O2'_12 
REMARK    6  A    between atoms: C1'_13  and  N9_14 
ROOT
ATOM      1  C4' AMP d   1      -1.051 -11.564 -66.339  0.00  0.00     0.089 C 
ATOM      2  O4' AMP d   1       0.137 -11.220 -65.578  0.00  0.00    -0.353 OA
ATOM      3  C3' AMP d   1      -2.145 -11.882 -65.317  0.00  0.00     0.091 C 
ATOM      4  C2' AMP d   1      -1.621 -11.253 -64.027  0.00  0.00     0.105 C 
ATOM      5  C1' AMP d   1      -0.112 -11.397 -64.201  0.00  0.00     0.139 C 
ATOM      6  H3  AMP d   1      -0.860 -12.464 -66.942  0.00  0.00     0.090 H 
ATOM      7  H4  AMP d   1      -3.117 -11.461 -65.613  0.00  0.00     0.091 H 
ATOM      8  H6  AMP d   1      -1.906 -10.192 -63.981  0.00  0.00     0.093 H 
ATOM      9  H8  AMP d   1       0.187 -12.409 -63.891  0.00  0.00     0.122 H 
ENDROOT
BRANCH   5  10
ATOM     10  N9  AMP d   1       0.688 -10.427 -63.441  0.00  0.00    -0.294 N 
ATOM     11  C8  AMP d   1       0.443 -10.058 -62.169  0.00  0.00     0.071 A 
ATOM     12  N7  AMP d   1       1.357  -9.157 -61.723  0.00  0.00    -0.236 NA
ATOM     13  H9  AMP d   1      -0.386 -10.435 -61.572  0.00  0.00     0.144 H 
ATOM     14  C5  AMP d   1       2.227  -8.937 -62.725  0.00  0.00     0.149 A 
ATOM     15  C6  AMP d   1       3.436  -8.100 -62.928  0.00  0.00     0.155 A 
ATOM     16  C4  AMP d   1       1.789  -9.781 -63.850  0.00  0.00     0.167 A 
ATOM     17  N6  AMP d   1       3.912  -7.297 -61.946  0.00  0.00    -0.382 N 
ATOM     18  N1  AMP d   1       4.056  -8.161 -64.127  0.00  0.00    -0.222 NA
ATOM     19  H10 AMP d   1       4.753  -6.725 -62.111  0.00  0.00     0.157 HD
ATOM     20  H11 AMP d   1       3.433  -7.258 -61.035  0.00  0.00     0.157 HD
ATOM     21  C2  AMP d   1       3.597  -8.948 -65.113  0.00  0.00     0.091 A 
ATOM     22  N3  AMP d   1       2.510  -9.729 -64.993  0.00  0.00    -0.222 NA
ATOM     23  H12 AMP d   1       4.132  -8.954 -66.056  0.00  0.00     0.146 H 
ENDBRANCH   5  10
BRANCH   4  24
ATOM     24  O2' AMP d   1      -2.076 -11.882 -62.848  0.00  0.00    -0.388 OA
ATOM     25  H7  AMP d   1      -3.024 -11.839 -62.813  0.00  0.00     0.210 HD
ENDBRANCH   4  24
BRANCH   1  26
ATOM     26  C5' AMP d   1      -1.375 -10.432 -67.276  0.00  0.00     0.059 C 
ATOM     27  H1  AMP d   1      -0.479 -10.184 -67.865  0.00  0.00     0.079 H 
ATOM     28  H2  AMP d   1      -2.183 -10.745 -67.953  0.00  0.00     0.079 H 
BRANCH  26  29
ATOM     29  O5' AMP d   1      -1.792  -9.279 -66.554  0.00  0.00    -0.280 OA
BRANCH  29  30
ATOM     30  P   AMP d   1      -0.729  -8.225 -66.008  0.00  0.00     0.422 P 
ATOM     31  O1P AMP d   1       0.582  -8.672 -66.610  0.00  0.00    -0.617 OA
ATOM     32  O2P AMP d   1      -0.810  -8.301 -64.503  0.00  0.00    -0.617 OA
ATOM     33  O3P AMP d   1      -1.246  -6.922 -66.544  0.00  0.00    -0.617 OA
ENDBRANCH  29  30
ENDBRANCH  26  29
ENDBRANCH   1  26
BRANCH   3  34
ATOM     34  O3' AMP d   1      -2.239 -13.293 -65.147  0.00  0.00    -0.390 OA
ATOM     35  H5  AMP d   1      -2.918 -13.490 -64.513  0.00  0.00     0.210 HD
ENDBRANCH   3  34
TORSDOF 6
