REMARK  2 active torsions:
REMARK  status: ('A' for Active; 'I' for Inactive)
REMARK    1  A    between atoms: CE1_8  and  SD_1 
REMARK    2  A    between atoms: CZ_3  and  CG_2 
ROOT
ATOM      1  CZ  JKE d   1       8.806  -5.000  -6.897  0.00  0.00     0.057 A 
ATOM      2  CD1 JKE d   1       8.737  -7.210  -8.012  0.00  0.00    -0.066 A 
ATOM      3  CD2 JKE d   1      10.797  -5.976  -7.884  0.00  0.00    -0.082 A 
ATOM      4  CE1 JKE d   1       8.071  -6.193  -7.319  0.00  0.00     0.014 A 
ATOM      5  CE2 JKE d   1      10.174  -4.952  -7.194  0.00  0.00    -0.065 A 
ATOM      6  CG1 JKE d   1      10.097  -7.100  -8.300  0.00  0.00    -0.082 A 
ATOM      7  H2  JKE d   1       8.191  -8.091  -8.328  0.00  0.00     0.085 H 
ATOM      8  H3  JKE d   1      11.855  -5.899  -8.105  0.00  0.00     0.083 H 
ATOM      9  H4  JKE d   1      10.756  -4.095  -6.877  0.00  0.00     0.085 H 
ATOM     10  H5  JKE d   1      10.604  -7.888  -8.845  0.00  0.00     0.083 H 
ENDROOT
BRANCH   1  11
ATOM     11  CG  JKE d   1       8.244  -3.841  -6.175  0.00  0.00     0.210 C 
ATOM     12  OD1 JKE d   1       8.949  -2.835  -6.088  0.00  0.00    -0.644 OA
ATOM     13  OD2 JKE d   1       7.051  -3.857  -5.648  0.00  0.00    -0.644 OA
ENDBRANCH   1  11
BRANCH   4  14
ATOM     14  SD  JKE d   1       6.397  -6.451  -6.959  0.00  0.00    -0.142 SA
ATOM     15  H1  JKE d   1       6.267  -6.461  -5.960  0.00  0.00     0.107 HD
ENDBRANCH   4  14
TORSDOF 2
