REMARK  3 active torsions:
REMARK  status: ('A' for Active; 'I' for Inactive)
REMARK    1  A    between atoms: C7_2  and  C3_4 
REMARK    2  A    between atoms: C4_6  and  S1_7 
REMARK    3  A    between atoms: C6_9  and  N1_10 
ROOT
ATOM      1  C3  D0U d   1       8.884  -5.103  -6.922  0.00  0.00     0.057 A 
ATOM      2  C2  D0U d   1      10.275  -5.084  -7.217  0.00  0.00    -0.063 A 
ATOM      3  C4  D0U d   1       8.096  -6.203  -7.305  0.00  0.00     0.017 A 
ATOM      4  C5  D0U d   1       8.745  -7.236  -8.018  0.00  0.00    -0.041 A 
ATOM      5  C6  D0U d   1      10.107  -7.212  -8.326  0.00  0.00     0.026 A 
ATOM      6  C1  D0U d   1      10.856  -6.151  -7.902  0.00  0.00    -0.057 A 
ATOM      7  H1  D0U d   1      10.883  -4.241  -6.910  0.00  0.00     0.085 H 
ATOM      8  H3  D0U d   1       8.158  -8.088  -8.341  0.00  0.00     0.089 H 
ATOM      9  H6  D0U d   1      11.921  -6.138  -8.102  0.00  0.00     0.086 H 
ENDROOT
BRANCH   1  10
ATOM     10  C7  D0U d   1       8.360  -3.919  -6.190  0.00  0.00     0.210 C 
ATOM     11  O2  D0U d   1       7.213  -3.921  -5.692  0.00  0.00    -0.644 OA
ATOM     12  O1  D0U d   1       9.122  -2.912  -6.114  0.00  0.00    -0.644 OA
ENDBRANCH   1  10
BRANCH   3  13
ATOM     13  S1  D0U d   1       6.451  -6.512  -6.972  0.00  0.00    -0.142 SA
ATOM     14  H2  D0U d   1       6.314  -6.558  -5.974  0.00  0.00     0.107 HD
ENDBRANCH   3  13
BRANCH   5  15
ATOM     15  N1  D0U d   1      10.713  -8.267  -8.996  0.00  0.00    -0.399 N 
ATOM     16  H4  D0U d   1      11.719  -8.229  -9.213  0.00  0.00     0.156 HD
ATOM     17  H5  D0U d   1      10.156  -9.087  -9.275  0.00  0.00     0.156 HD
ENDBRANCH   5  15
TORSDOF 3
