REMARK WARNING: 32 MAX_TORS EXCEEDED!!!
REMARK  54 active torsions:
REMARK  status: ('A' for Active; 'I' for Inactive)
REMARK    1  A    between atoms: N_1  and  CA_2 
REMARK    2  A    between atoms: CA_2  and  C_3 
REMARK    3  A    between atoms: CA_2  and  CB_5 
REMARK       I    between atoms: C_3  and  N_9 
REMARK    4  A    between atoms: CB_5  and  CG_6 
REMARK    5  A    between atoms: N_9  and  CA_10 
REMARK    6  A    between atoms: CA_10  and  C_11 
REMARK    7  A    between atoms: CA_10  and  CB_13 
REMARK       I    between atoms: C_11  and  N_16 
REMARK    8  A    between atoms: CB_13  and  OG1_14 
REMARK    9  A    between atoms: CB_13  and  CG2_15 
REMARK   10  A    between atoms: N_16  and  CA_17 
REMARK   11  A    between atoms: CA_17  and  C_18 
REMARK   12  A    between atoms: CA_17  and  CB_20 
REMARK       I    between atoms: C_18  and  N_21 
REMARK   13  A    between atoms: N_21  and  CA_22 
REMARK   14  A    between atoms: CA_22  and  C_23 
REMARK       I    between atoms: C_23  and  N_25 
REMARK   15  A    between atoms: N_25  and  CA_26 
REMARK   16  A    between atoms: CA_26  and  C_27 
REMARK   17  A    between atoms: CA_26  and  CB_29 
REMARK       I    between atoms: C_27  and  N_31 
REMARK   18  A    between atoms: CB_29  and  SG_30 
REMARK   19  A    between atoms: N_31  and  CA_32 
REMARK   20  A    between atoms: CA_32  and  C_33 
REMARK   21  A    between atoms: CA_32  and  CB_35 
REMARK       I    between atoms: C_33  and  N_39 
REMARK   22  A    between atoms: CB_35  and  CG1_36 
REMARK   23  A    between atoms: CB_35  and  CG2_37 
REMARK   24  A    between atoms: CG1_36  and  CD1_38 
REMARK   25  A    between atoms: N_39  and  CA_40 
REMARK   26  A    between atoms: CA_40  and  C_41 
REMARK   27  A    between atoms: CA_40  and  CB_43 
REMARK       I    between atoms: C_41  and  N_46 
REMARK   28  A    between atoms: CB_43  and  CG1_44 
REMARK   29  A    between atoms: CB_43  and  CG2_45 
REMARK   30  A    between atoms: N_46  and  CA_47 
REMARK   31  A    between atoms: CA_47  and  C_48 
REMARK   32  A    between atoms: CA_47  and  CB_50 
REMARK       I    between atoms: C_48  and  N_54 
REMARK   33  A    between atoms: CB_50  and  CG1_51 
REMARK   34  A    between atoms: CB_50  and  CG2_52 
REMARK   35  A    between atoms: CG1_51  and  CD1_53 
REMARK   36  A    between atoms: N_54  and  CA_55 
REMARK   37  A    between atoms: CA_55  and  CB_56 
REMARK   38  A    between atoms: CA_55  and  C_58 
REMARK   39  A    between atoms: CB_56  and  OG_57 
REMARK   40  A    between atoms: OG_57  and  P_60 
REMARK       I    between atoms: C_58  and  N_64 
REMARK   41  A    between atoms: N_64  and  CA_65 
REMARK   42  A    between atoms: CA_65  and  C_66 
REMARK   43  A    between atoms: CA_65  and  CB_68 
REMARK       I    between atoms: C_66  and  N_72 
REMARK   44  A    between atoms: CB_68  and  CG_69 
REMARK   45  A    between atoms: N_72  and  CA_73 
REMARK   46  A    between atoms: CA_73  and  CB_74 
REMARK   47  A    between atoms: CA_73  and  C_76 
REMARK   48  A    between atoms: CB_74  and  OG_75 
REMARK   49  A    between atoms: OG_75  and  P_78 
REMARK       I    between atoms: C_76  and  N_82 
REMARK   50  A    between atoms: N_82  and  CA_83 
REMARK   51  A    between atoms: CA_83  and  C_84 
REMARK   52  A    between atoms: CA_83  and  CB_86 
REMARK   53  A    between atoms: CB_86  and  CG_87 
REMARK   54  A    between atoms: CG_87  and  CD_88 
ROOT
ATOM      1  CA  ASP d   1       4.036   3.984   4.850  0.00  0.00     0.092 C 
ATOM      2  H39 ASP d   1       3.665   4.769   4.174  0.00  0.00     0.088 H 
ENDROOT
BRANCH   1   3
ATOM      3  N   ASP d   1       2.888   3.298   5.414  0.00  0.00    -0.346 N 
ATOM      4  C   ASP d   1       1.655   3.677   5.132  0.00  0.00     0.241 C 
ATOM      5  O   ASP d   1       1.410   4.648   4.416  0.00  0.00    -0.271 OA
ATOM      6  H38 ASP d   1       3.034   2.523   6.029  0.00  0.00     0.163 HD
BRANCH   4   7
ATOM      7  CA  ASP d   1       0.517   2.867   5.739  0.00  0.00     0.092 C 
ATOM      8  H28 ASP d   1       0.931   2.194   6.504  0.00  0.00     0.088 H 
BRANCH   7   9
ATOM      9  N   ASP d   1      -0.446   3.746   6.383  0.00  0.00    -0.346 N 
ATOM     10  C   ASP d   1      -0.794   3.601   7.652  0.00  0.00     0.241 C 
ATOM     11  O   ASP d   1      -0.362   2.695   8.372  0.00  0.00    -0.271 OA
ATOM     12  H27 ASP d   1      -0.859   4.484   5.850  0.00  0.00     0.163 HD
BRANCH  10  13
ATOM     13  CA  ASP d   1      -1.801   4.611   8.178  0.00  0.00     0.097 C 
ATOM     14  H23 ASP d   1      -2.132   5.249   7.345  0.00  0.00     0.088 H 
BRANCH  13  15
ATOM     15  N   ASP d   1      -2.956   3.924   8.727  0.00  0.00    -0.346 N 
ATOM     16  C   ASP d   1      -4.148   4.107   8.197  0.00  0.00     0.236 C 
ATOM     17  O   ASP d   1      -4.342   4.869   7.252  0.00  0.00    -0.272 OA
ATOM     18  H22 ASP d   1      -2.846   3.311   9.509  0.00  0.00     0.163 HD
BRANCH  16  19
ATOM     19  CA  ASP d   1      -5.302   3.358   8.804  0.00  0.00     0.069 C 
ATOM     20  H20 ASP d   1      -5.623   2.570   8.106  0.00  0.00     0.078 H 
ATOM     21  H21 ASP d   1      -4.973   2.900   9.748  0.00  0.00     0.078 H 
BRANCH  19  22
ATOM     22  N   ASP d   1      -6.420   4.229   9.072  0.00  0.00    -0.351 N 
ATOM     23  C   ASP d   1      -6.886   4.362  10.294  0.00  0.00     0.240 C 
ATOM     24  O   ASP d   1      -6.406   3.765  11.257  0.00  0.00    -0.271 OA
ATOM     25  H19 ASP d   1      -6.844   4.736   8.322  0.00  0.00     0.163 HD
BRANCH  23  26
ATOM     26  CA  ASP d   1      -8.064   5.295  10.487  0.00  0.00     0.086 C 
ATOM     27  H15 ASP d   1      -8.469   5.554   9.498  0.00  0.00     0.086 H 
BRANCH  26  28
ATOM     28  N   ASP d   1      -9.098   4.627  11.247  0.00  0.00    -0.346 N 
ATOM     29  C   ASP d   1     -10.342   4.514  10.817  0.00  0.00     0.243 C 
ATOM     30  O   ASP d   1     -10.742   5.006   9.755  0.00  0.00    -0.271 OA
ATOM     31  H14 ASP d   1      -8.861   4.234  12.136  0.00  0.00     0.163 HD
BRANCH  29  32
ATOM     32  CA  ASP d   1     -11.281   3.745  11.741  0.00  0.00     0.113 C 
ATOM     33  H8  ASP d   1     -10.737   3.491  12.663  0.00  0.00     0.091 H 
BRANCH  32  34
ATOM     34  N   ASP d   1     -12.439   4.537  12.101  0.00  0.00    -0.344 N 
ATOM     35  C   ASP d   1     -12.664   4.859  13.363  0.00  0.00     0.249 C 
ATOM     36  O   ASP d   1     -11.905   4.527  14.279  0.00  0.00    -0.271 OA
ATOM     37  H7  ASP d   1     -13.072   4.842  11.390  0.00  0.00     0.163 HD
BRANCH  35  38
ATOM     38  CA  ASP d   1     -13.904   5.690  13.663  0.00  0.00     0.185 C 
ATOM     39  H4  ASP d   1     -14.787   5.035  13.636  0.00  0.00     0.100 H 
BRANCH  38  40
ATOM     40  N   ASP d   1     -13.792   6.274  14.993  0.00  0.00    -0.066 N 
ATOM     41  H1  ASP d   1     -14.614   6.824  15.189  0.00  0.00     0.275 HD
ATOM     42  H2  ASP d   1     -12.976   6.864  15.033  0.00  0.00     0.275 HD
ATOM     43  H3  ASP d   1     -13.709   5.538  15.677  0.00  0.00     0.275 HD
ENDBRANCH  38  40
BRANCH  38  44
ATOM     44  CB  ASP d   1     -14.071   6.784  12.607  0.00  0.00     0.050 C 
ATOM     45  H5  ASP d   1     -13.078   7.054  12.219  0.00  0.00     0.052 H 
ATOM     46  H6  ASP d   1     -14.531   7.664  13.080  0.00  0.00     0.052 H 
BRANCH  44  47
ATOM     47  CG  ASP d   1     -14.944   6.343  11.447  0.00  0.00     0.175 C 
ATOM     48  OD1 ASP d   1     -16.014   6.950  11.229  0.00  0.00    -0.648 OA
ATOM     49  OD2 ASP d   1     -14.565   5.382  10.742  0.00  0.00    -0.648 OA
ENDBRANCH  44  47
ENDBRANCH  38  44
ENDBRANCH  35  38
ENDBRANCH  32  34
BRANCH  32  50
ATOM     50  CB  ASP d   1     -11.710   2.441  11.044  0.00  0.00     0.060 C 
ATOM     51  H9  ASP d   1     -11.929   2.661   9.989  0.00  0.00     0.086 H 
BRANCH  50  52
ATOM     52  OG1 ASP d   1     -12.894   1.917  11.666  0.00  0.00    -0.393 OA
ATOM     53  H10 ASP d   1     -13.150   1.113  11.229  0.00  0.00     0.210 HD
ENDBRANCH  50  52
BRANCH  50  54
ATOM     54  CG2 ASP d   1     -10.600   1.405  11.108  0.00  0.00    -0.050 C 
ATOM     55  H11 ASP d   1     -10.929   0.484  10.605  0.00  0.00     0.031 H 
ATOM     56  H12 ASP d   1     -10.365   1.184  12.160  0.00  0.00     0.031 H 
ATOM     57  H13 ASP d   1      -9.703   1.797  10.606  0.00  0.00     0.031 H 
ENDBRANCH  50  54
ENDBRANCH  32  50
ENDBRANCH  29  32
ENDBRANCH  26  28
BRANCH  26  58
ATOM     58  CB  ASP d   1      -7.636   6.578  11.179  0.00  0.00    -0.049 C 
ATOM     59  H16 ASP d   1      -6.851   7.070  10.586  0.00  0.00     0.030 H 
ATOM     60  H17 ASP d   1      -7.246   6.342  12.180  0.00  0.00     0.030 H 
ATOM     61  H18 ASP d   1      -8.501   7.251  11.271  0.00  0.00     0.030 H 
ENDBRANCH  26  58
ENDBRANCH  23  26
ENDBRANCH  19  22
ENDBRANCH  16  19
ENDBRANCH  13  15
BRANCH  13  62
ATOM     62  CB  ASP d   1      -1.149   5.494   9.246  0.00  0.00     0.001 C 
ATOM     63  H24 ASP d   1      -0.803   6.420   8.763  0.00  0.00     0.052 H 
ATOM     64  H25 ASP d   1      -0.286   4.952   9.661  0.00  0.00     0.052 H 
BRANCH  62  65
ATOM     65  SG  ASP d   1      -2.242   5.942  10.609  0.00  0.00    -0.180 SA
ATOM     66  H26 ASP d   1      -1.740   6.520  11.265  0.00  0.00     0.101 HD
ENDBRANCH  62  65
ENDBRANCH  13  62
ENDBRANCH  10  13
ENDBRANCH   7   9
BRANCH   7  67
ATOM     67  CB  ASP d   1      -0.134   2.005   4.631  0.00  0.00    -0.030 C 
ATOM     68  H29 ASP d   1      -0.459   2.669   3.817  0.00  0.00     0.043 H 
BRANCH  67  69
ATOM     69  CG1 ASP d   1      -1.364   1.269   5.175  0.00  0.00    -0.063 C 
ATOM     70  H30 ASP d   1      -2.149   2.012   5.377  0.00  0.00     0.033 H 
ATOM     71  H31 ASP d   1      -1.081   0.771   6.114  0.00  0.00     0.033 H 
BRANCH  69  72
ATOM     72  CD1 ASP d   1      -1.930   0.223   4.235  0.00  0.00    -0.076 C 
ATOM     73  H35 ASP d   1      -2.805  -0.254   4.701  0.00  0.00     0.027 H 
ATOM     74  H36 ASP d   1      -1.163  -0.539   4.030  0.00  0.00     0.027 H 
ATOM     75  H37 ASP d   1      -2.232   0.702   3.292  0.00  0.00     0.027 H 
ENDBRANCH  69  72
ENDBRANCH  67  69
BRANCH  67  76
ATOM     76  CG2 ASP d   1       0.880   1.018   4.073  0.00  0.00    -0.071 C 
ATOM     77  H32 ASP d   1       1.753   1.567   3.689  0.00  0.00     0.028 H 
ATOM     78  H33 ASP d   1       0.420   0.442   3.256  0.00  0.00     0.028 H 
ATOM     79  H34 ASP d   1       1.200   0.331   4.870  0.00  0.00     0.028 H 
ENDBRANCH  67  76
ENDBRANCH   7  67
ENDBRANCH   4   7
ENDBRANCH   1   3
BRANCH   1  80
ATOM     80  C   ASP d   1       4.875   3.004   4.038  0.00  0.00     0.241 C 
ATOM     81  O   ASP d   1       5.218   1.923   4.521  0.00  0.00    -0.271 OA
ATOM     82  N   ASP d   1       5.183   3.367   2.803  0.00  0.00    -0.346 N 
ATOM     83  H47 ASP d   1       4.863   4.249   2.458  0.00  0.00     0.163 HD
BRANCH  82  84
ATOM     84  CA  ASP d   1       5.977   2.509   1.938  0.00  0.00     0.092 C 
ATOM     85  H48 ASP d   1       6.283   1.635   2.532  0.00  0.00     0.088 H 
BRANCH  84  86
ATOM     86  C   ASP d   1       7.240   3.241   1.500  0.00  0.00     0.241 C 
ATOM     87  O   ASP d   1       7.195   4.410   1.113  0.00  0.00    -0.271 OA
ATOM     88  N   ASP d   1       8.368   2.555   1.595  0.00  0.00    -0.344 N 
ATOM     89  H58 ASP d   1       8.336   1.610   1.920  0.00  0.00     0.163 HD
BRANCH  88  90
ATOM     90  CA  ASP d   1       9.652   3.137   1.240  0.00  0.00     0.110 C 
ATOM     91  H59 ASP d   1       9.488   4.184   0.945  0.00  0.00     0.090 H 
BRANCH  90  92
ATOM     92  CB  ASP d   1      10.613   3.112   2.427  0.00  0.00     0.059 C 
ATOM     93  H60 ASP d   1      11.646   3.114   2.049  0.00  0.00     0.079 H 
ATOM     94  H61 ASP d   1      10.437   2.195   3.008  0.00  0.00     0.079 H 
BRANCH  92  95
ATOM     95  OG  ASP d   1      10.432   4.234   3.274  0.00  0.00    -0.280 OA
BRANCH  95  96
ATOM     96  P   ASP d   1      11.575   5.355   3.363  0.00  0.00     0.422 P 
ATOM     97  O1P ASP d   1      12.693   5.162   2.416  0.00  0.00    -0.617 OA
ATOM     98  O2P ASP d   1      12.014   5.656   4.738  0.00  0.00    -0.617 OA
ATOM     99  O3P ASP d   1      10.872   6.707   2.869  0.00  0.00    -0.617 OA
ENDBRANCH  95  96
ENDBRANCH  92  95
ENDBRANCH  90  92
BRANCH  90 100
ATOM    100  C   ASP d   1      10.269   2.394   0.068  0.00  0.00     0.243 C 
ATOM    101  O   ASP d   1      10.267   1.164   0.025  0.00  0.00    -0.271 OA
ATOM    102  N   ASP d   1      10.771   3.147  -0.888  0.00  0.00    -0.345 N 
ATOM    103  H62 ASP d   1      10.733   4.142  -0.796  0.00  0.00     0.163 HD
BRANCH 102 104
ATOM    104  CA  ASP d   1      11.376   2.570  -2.069  0.00  0.00     0.098 C 
ATOM    105  H63 ASP d   1      11.267   1.476  -2.026  0.00  0.00     0.088 H 
BRANCH 104 106
ATOM    106  C   ASP d   1      12.855   2.915  -2.105  0.00  0.00     0.241 C 
ATOM    107  O   ASP d   1      13.236   4.066  -1.898  0.00  0.00    -0.271 OA
ATOM    108  N   ASP d   1      13.685   1.918  -2.355  0.00  0.00    -0.344 N 
ATOM    109  H66 ASP d   1      13.315   1.006  -2.531  0.00  0.00     0.163 HD
BRANCH 108 110
ATOM    110  CA  ASP d   1      15.124   2.119  -2.379  0.00  0.00     0.110 C 
ATOM    111  H67 ASP d   1      15.345   3.157  -2.089  0.00  0.00     0.090 H 
BRANCH 110 112
ATOM    112  CB  ASP d   1      15.775   1.167  -1.364  0.00  0.00     0.059 C 
ATOM    113  H68 ASP d   1      15.548   1.516  -0.346  0.00  0.00     0.079 H 
ATOM    114  H69 ASP d   1      16.864   1.167  -1.518  0.00  0.00     0.079 H 
BRANCH 112 115
ATOM    115  OG  ASP d   1      15.282  -0.157  -1.523  0.00  0.00    -0.280 OA
BRANCH 115 116
ATOM    116  P   ASP d   1      14.532  -0.897  -0.319  0.00  0.00     0.422 P 
ATOM    117  O1P ASP d   1      14.507  -2.363  -0.445  0.00  0.00    -0.617 OA
ATOM    118  O2P ASP d   1      14.929  -0.426   1.019  0.00  0.00    -0.617 OA
ATOM    119  O3P ASP d   1      12.999  -0.469  -0.459  0.00  0.00    -0.617 OA
ENDBRANCH 115 116
ENDBRANCH 112 115
ENDBRANCH 110 112
BRANCH 110 120
ATOM    120  C   ASP d   1      15.682   1.876  -3.783  0.00  0.00     0.243 C 
ATOM    121  O   ASP d   1      15.392   0.864  -4.427  0.00  0.00    -0.271 OA
ATOM    122  N   ASP d   1      16.472   2.831  -4.255  0.00  0.00    -0.345 N 
ATOM    123  H70 ASP d   1      16.659   3.631  -3.684  0.00  0.00     0.163 HD
BRANCH 122 124
ATOM    124  CA  ASP d   1      17.075   2.752  -5.578  0.00  0.00     0.097 C 
ATOM    125  H71 ASP d   1      16.981   1.720  -5.946  0.00  0.00     0.089 H 
BRANCH 124 126
ATOM    126  C   ASP d   1      18.553   3.114  -5.508  0.00  0.00     0.196 C 
ATOM    127  O   ASP d   1      19.119   3.205  -4.417  0.00  0.00    -0.646 OA
ATOM    128  OXT ASP d   1      19.192   3.318  -6.542  0.00  0.00    -0.646 OA
ENDBRANCH 124 126
BRANCH 124 129
ATOM    129  CB  ASP d   1      16.355   3.689  -6.554  0.00  0.00    -0.028 C 
ATOM    130  H72 ASP d   1      16.605   4.726  -6.287  0.00  0.00     0.037 H 
ATOM    131  H73 ASP d   1      15.271   3.534  -6.447  0.00  0.00     0.037 H 
BRANCH 129 132
ATOM    132  CG  ASP d   1      16.730   3.466  -8.014  0.00  0.00     0.018 C 
ATOM    133  H74 ASP d   1      17.814   3.614  -8.123  0.00  0.00     0.049 H 
ATOM    134  H75 ASP d   1      16.195   4.205  -8.629  0.00  0.00     0.049 H 
BRANCH 132 135
ATOM    135  CD  ASP d   1      16.380   2.077  -8.516  0.00  0.00     0.172 C 
ATOM    136  OE1 ASP d   1      17.104   1.118  -8.180  0.00  0.00    -0.648 OA
ATOM    137  OE2 ASP d   1      15.383   1.937  -9.255  0.00  0.00    -0.648 OA
ENDBRANCH 132 135
ENDBRANCH 129 132
ENDBRANCH 124 129
ENDBRANCH 122 124
ENDBRANCH 110 120
ENDBRANCH 108 110
ENDBRANCH 104 106
BRANCH 104 138
ATOM    138  CB  ASP d   1      10.683   3.082  -3.330  0.00  0.00     0.043 C 
ATOM    139  H64 ASP d   1      11.060   4.090  -3.555  0.00  0.00     0.052 H 
ATOM    140  H65 ASP d   1       9.600   3.129  -3.143  0.00  0.00     0.052 H 
BRANCH 138 141
ATOM    141  CG  ASP d   1      10.929   2.195  -4.527  0.00  0.00     0.175 C 
ATOM    142  OD1 ASP d   1      11.887   2.448  -5.286  0.00  0.00    -0.648 OA
ATOM    143  OD2 ASP d   1      10.157   1.235  -4.714  0.00  0.00    -0.648 OA
ENDBRANCH 138 141
ENDBRANCH 104 138
ENDBRANCH 102 104
ENDBRANCH  90 100
ENDBRANCH  88  90
ENDBRANCH  84  86
BRANCH  84 144
ATOM    144  CB  ASP d   1       5.183   1.974   0.711  0.00  0.00    -0.030 C 
ATOM    145  H49 ASP d   1       5.756   1.143   0.275  0.00  0.00     0.043 H 
BRANCH 144 146
ATOM    146  CG1 ASP d   1       5.011   3.042  -0.370  0.00  0.00    -0.063 C 
ATOM    147  H50 ASP d   1       6.004   3.300  -0.766  0.00  0.00     0.033 H 
ATOM    148  H51 ASP d   1       4.557   3.933   0.089  0.00  0.00     0.033 H 
BRANCH 146 149
ATOM    149  CD1 ASP d   1       4.136   2.598  -1.522  0.00  0.00    -0.076 C 
ATOM    150  H55 ASP d   1       4.057   3.412  -2.257  0.00  0.00     0.027 H 
ATOM    151  H56 ASP d   1       3.134   2.346  -1.145  0.00  0.00     0.027 H 
ATOM    152  H57 ASP d   1       4.581   1.713  -2.001  0.00  0.00     0.027 H 
ENDBRANCH 146 149
ENDBRANCH 144 146
BRANCH 144 153
ATOM    153  CG2 ASP d   1       3.825   1.434   1.152  0.00  0.00    -0.071 C 
ATOM    154  H52 ASP d   1       3.970   0.668   1.929  0.00  0.00     0.028 H 
ATOM    155  H53 ASP d   1       3.310   0.988   0.289  0.00  0.00     0.028 H 
ATOM    156  H54 ASP d   1       3.217   2.257   1.557  0.00  0.00     0.028 H 
ENDBRANCH 144 153
ENDBRANCH  84 144
ENDBRANCH  82  84
ENDBRANCH   1  80
BRANCH   1 157
ATOM    157  CB  ASP d   1       4.910   4.662   5.934  0.00  0.00    -0.033 C 
ATOM    158  H40 ASP d   1       4.347   5.514   6.343  0.00  0.00     0.042 H 
BRANCH 157 159
ATOM    159  CG1 ASP d   1       5.219   3.708   7.078  0.00  0.00    -0.071 C 
ATOM    160  H41 ASP d   1       5.840   4.222   7.827  0.00  0.00     0.028 H 
ATOM    161  H42 ASP d   1       5.762   2.834   6.690  0.00  0.00     0.028 H 
ATOM    162  H43 ASP d   1       4.279   3.378   7.545  0.00  0.00     0.028 H 
ENDBRANCH 157 159
BRANCH 157 163
ATOM    163  CG2 ASP d   1       6.195   5.191   5.320  0.00  0.00    -0.071 C 
ATOM    164  H44 ASP d   1       5.952   5.878   4.496  0.00  0.00     0.028 H 
ATOM    165  H45 ASP d   1       6.790   4.350   4.933  0.00  0.00     0.028 H 
ATOM    166  H46 ASP d   1       6.774   5.728   6.086  0.00  0.00     0.028 H 
ENDBRANCH 157 163
ENDBRANCH   1 157
TORSDOF 54
