REMARK WARNING: 32 MAX_TORS EXCEEDED!!!
REMARK  54 active torsions:
REMARK  status: ('A' for Active; 'I' for Inactive)
REMARK    1  A    between atoms: N_1  and  CA_2 
REMARK    2  A    between atoms: CA_2  and  C_3 
REMARK    3  A    between atoms: CA_2  and  CB_5 
REMARK       I    between atoms: C_3  and  N_9 
REMARK    4  A    between atoms: CB_5  and  CG_6 
REMARK    5  A    between atoms: N_9  and  CA_10 
REMARK    6  A    between atoms: CA_10  and  C_11 
REMARK    7  A    between atoms: CA_10  and  CB_13 
REMARK       I    between atoms: C_11  and  N_16 
REMARK    8  A    between atoms: CB_13  and  OG1_14 
REMARK    9  A    between atoms: CB_13  and  CG2_15 
REMARK   10  A    between atoms: N_16  and  CA_17 
REMARK   11  A    between atoms: CA_17  and  C_18 
REMARK   12  A    between atoms: CA_17  and  CB_20 
REMARK       I    between atoms: C_18  and  N_21 
REMARK   13  A    between atoms: N_21  and  CA_22 
REMARK   14  A    between atoms: CA_22  and  C_23 
REMARK       I    between atoms: C_23  and  N_25 
REMARK   15  A    between atoms: N_25  and  CA_26 
REMARK   16  A    between atoms: CA_26  and  C_27 
REMARK   17  A    between atoms: CA_26  and  CB_29 
REMARK       I    between atoms: C_27  and  N_31 
REMARK   18  A    between atoms: CB_29  and  SG_30 
REMARK   19  A    between atoms: N_31  and  CA_32 
REMARK   20  A    between atoms: CA_32  and  C_33 
REMARK   21  A    between atoms: CA_32  and  CB_35 
REMARK       I    between atoms: C_33  and  N_39 
REMARK   22  A    between atoms: CB_35  and  CG1_36 
REMARK   23  A    between atoms: CB_35  and  CG2_37 
REMARK   24  A    between atoms: CG1_36  and  CD1_38 
REMARK   25  A    between atoms: N_39  and  CA_40 
REMARK   26  A    between atoms: CA_40  and  C_41 
REMARK   27  A    between atoms: CA_40  and  CB_43 
REMARK       I    between atoms: C_41  and  N_46 
REMARK   28  A    between atoms: CB_43  and  CG1_44 
REMARK   29  A    between atoms: CB_43  and  CG2_45 
REMARK   30  A    between atoms: N_46  and  CA_47 
REMARK   31  A    between atoms: CA_47  and  C_48 
REMARK   32  A    between atoms: CA_47  and  CB_50 
REMARK       I    between atoms: C_48  and  N_54 
REMARK   33  A    between atoms: CB_50  and  CG1_51 
REMARK   34  A    between atoms: CB_50  and  CG2_52 
REMARK   35  A    between atoms: CG1_51  and  CD1_53 
REMARK   36  A    between atoms: N_54  and  CA_55 
REMARK   37  A    between atoms: CA_55  and  CB_56 
REMARK   38  A    between atoms: CA_55  and  C_58 
REMARK   39  A    between atoms: CB_56  and  OG_57 
REMARK   40  A    between atoms: OG_57  and  P_60 
REMARK       I    between atoms: C_58  and  N_64 
REMARK   41  A    between atoms: N_64  and  CA_65 
REMARK   42  A    between atoms: CA_65  and  C_66 
REMARK   43  A    between atoms: CA_65  and  CB_68 
REMARK       I    between atoms: C_66  and  N_72 
REMARK   44  A    between atoms: CB_68  and  CG_69 
REMARK   45  A    between atoms: N_72  and  CA_73 
REMARK   46  A    between atoms: CA_73  and  CB_74 
REMARK   47  A    between atoms: CA_73  and  C_76 
REMARK   48  A    between atoms: CB_74  and  OG_75 
REMARK   49  A    between atoms: OG_75  and  P_78 
REMARK       I    between atoms: C_76  and  N_82 
REMARK   50  A    between atoms: N_82  and  CA_83 
REMARK   51  A    between atoms: CA_83  and  C_84 
REMARK   52  A    between atoms: CA_83  and  CB_86 
REMARK   53  A    between atoms: CB_86  and  CG_87 
REMARK   54  A    between atoms: CG_87  and  CD_88 
ROOT
ATOM      1  CA  ASP d   1       6.063  -5.534  -7.816  0.00  0.00     0.092 C 
ATOM      2  H39 ASP d   1       6.155  -5.492  -6.721  0.00  0.00     0.088 H 
ENDROOT
BRANCH   1   3
ATOM      3  N   ASP d   1       4.749  -6.086  -8.138  0.00  0.00    -0.346 N 
ATOM      4  C   ASP d   1       3.893  -6.437  -7.180  0.00  0.00     0.241 C 
ATOM      5  O   ASP d   1       4.174  -6.363  -5.980  0.00  0.00    -0.271 OA
ATOM      6  H38 ASP d   1       4.487  -6.202  -9.096  0.00  0.00     0.163 HD
BRANCH   4   7
ATOM      7  CA  ASP d   1       2.527  -6.974  -7.616  0.00  0.00     0.092 C 
ATOM      8  H28 ASP d   1       2.587  -7.209  -8.689  0.00  0.00     0.088 H 
BRANCH   7   9
ATOM      9  N   ASP d   1       2.198  -8.205  -6.906  0.00  0.00    -0.346 N 
ATOM     10  C   ASP d   1       1.823  -9.309  -7.542  0.00  0.00     0.241 C 
ATOM     11  O   ASP d   1       1.691  -9.365  -8.764  0.00  0.00    -0.271 OA
ATOM     12  H27 ASP d   1       2.257  -8.218  -5.908  0.00  0.00     0.163 HD
BRANCH  10  13
ATOM     13  CA  ASP d   1       1.528 -10.523  -6.660  0.00  0.00     0.097 C 
ATOM     14  H23 ASP d   1       1.663 -10.233  -5.607  0.00  0.00     0.088 H 
BRANCH  13  15
ATOM     15  N   ASP d   1       0.154 -10.961  -6.854  0.00  0.00    -0.346 N 
ATOM     16  C   ASP d   1      -0.680 -11.007  -5.827  0.00  0.00     0.236 C 
ATOM     17  O   ASP d   1      -0.338 -10.729  -4.685  0.00  0.00    -0.272 OA
ATOM     18  H22 ASP d   1      -0.161 -11.228  -7.765  0.00  0.00     0.163 HD
BRANCH  16  19
ATOM     19  CA  ASP d   1      -2.090 -11.445  -6.101  0.00  0.00     0.069 C 
ATOM     20  H20 ASP d   1      -2.760 -10.583  -5.965  0.00  0.00     0.078 H 
ATOM     21  H21 ASP d   1      -2.154 -11.800  -7.140  0.00  0.00     0.078 H 
BRANCH  19  22
ATOM     22  N   ASP d   1      -2.517 -12.508  -5.221  0.00  0.00    -0.351 N 
ATOM     23  C   ASP d   1      -2.967 -13.634  -5.729  0.00  0.00     0.240 C 
ATOM     24  O   ASP d   1      -3.067 -13.822  -6.940  0.00  0.00    -0.271 OA
ATOM     25  H19 ASP d   1      -2.470 -12.388  -4.229  0.00  0.00     0.163 HD
BRANCH  23  26
ATOM     26  CA  ASP d   1      -3.381 -14.719  -4.755  0.00  0.00     0.086 C 
ATOM     27  H15 ASP d   1      -3.363 -14.307  -3.735  0.00  0.00     0.086 H 
BRANCH  26  28
ATOM     28  N   ASP d   1      -4.731 -15.150  -5.059  0.00  0.00    -0.346 N 
ATOM     29  C   ASP d   1      -5.688 -15.200  -4.144  0.00  0.00     0.243 C 
ATOM     30  O   ASP d   1      -5.515 -14.933  -2.955  0.00  0.00    -0.271 OA
ATOM     31  H14 ASP d   1      -4.949 -15.420  -5.997  0.00  0.00     0.163 HD
BRANCH  29  32
ATOM     32  CA  ASP d   1      -7.054 -15.614  -4.671  0.00  0.00     0.113 C 
ATOM     33  H8  ASP d   1      -6.966 -15.825  -5.747  0.00  0.00     0.091 H 
BRANCH  32  34
ATOM     34  N   ASP d   1      -7.554 -16.805  -4.018  0.00  0.00    -0.344 N 
ATOM     35  C   ASP d   1      -7.794 -17.897  -4.742  0.00  0.00     0.249 C 
ATOM     36  O   ASP d   1      -7.567 -17.949  -5.953  0.00  0.00    -0.271 OA
ATOM     37  H7  ASP d   1      -7.718 -16.808  -3.031  0.00  0.00     0.163 HD
BRANCH  35  38
ATOM     38  CA  ASP d   1      -8.333 -19.119  -4.018  0.00  0.00     0.185 C 
ATOM     39  H4  ASP d   1      -9.382 -18.930  -3.747  0.00  0.00     0.100 H 
BRANCH  38  40
ATOM     40  N   ASP d   1      -8.283 -20.294  -4.885  0.00  0.00    -0.066 N 
ATOM     41  H1  ASP d   1      -8.644 -21.093  -4.388  0.00  0.00     0.275 HD
ATOM     42  H2  ASP d   1      -7.329 -20.470  -5.157  0.00  0.00     0.275 HD
ATOM     43  H3  ASP d   1      -8.842 -20.129  -5.707  0.00  0.00     0.275 HD
ENDBRANCH  38  40
BRANCH  38  44
ATOM     44  CB  ASP d   1      -7.541 -19.370  -2.742  0.00  0.00     0.050 C 
ATOM     45  H5  ASP d   1      -7.278 -18.402  -2.290  0.00  0.00     0.052 H 
ATOM     46  H6  ASP d   1      -6.622 -19.918  -2.995  0.00  0.00     0.052 H 
BRANCH  44  47
ATOM     47  CG  ASP d   1      -8.334 -20.180  -1.739  0.00  0.00     0.175 C 
ATOM     48  OD1 ASP d   1      -7.932 -21.326  -1.440  0.00  0.00    -0.648 OA
ATOM     49  OD2 ASP d   1      -9.365 -19.674  -1.249  0.00  0.00    -0.648 OA
ENDBRANCH  44  47
ENDBRANCH  38  44
ENDBRANCH  35  38
ENDBRANCH  32  34
BRANCH  32  50
ATOM     50  CB  ASP d   1      -8.025 -14.436  -4.472  0.00  0.00     0.060 C 
ATOM     51  H9  ASP d   1      -7.784 -13.937  -3.522  0.00  0.00     0.086 H 
BRANCH  50  52
ATOM     52  OG1 ASP d   1      -9.378 -14.916  -4.415  0.00  0.00    -0.393 OA
ATOM     53  H10 ASP d   1      -9.968 -14.182  -4.292  0.00  0.00     0.210 HD
ENDBRANCH  50  52
BRANCH  50  54
ATOM     54  CG2 ASP d   1      -7.888 -13.431  -5.599  0.00  0.00    -0.050 C 
ATOM     55  H11 ASP d   1      -8.590 -12.600  -5.436  0.00  0.00     0.031 H 
ATOM     56  H12 ASP d   1      -8.116 -13.921  -6.557  0.00  0.00     0.031 H 
ATOM     57  H13 ASP d   1      -6.859 -13.043  -5.621  0.00  0.00     0.031 H 
ENDBRANCH  50  54
ENDBRANCH  32  50
ENDBRANCH  29  32
ENDBRANCH  26  28
BRANCH  26  58
ATOM     58  CB  ASP d   1      -2.409 -15.886  -4.823  0.00  0.00    -0.049 C 
ATOM     59  H16 ASP d   1      -1.394 -15.532  -4.589  0.00  0.00     0.030 H 
ATOM     60  H17 ASP d   1      -2.423 -16.316  -5.835  0.00  0.00     0.030 H 
ATOM     61  H18 ASP d   1      -2.707 -16.654  -4.094  0.00  0.00     0.030 H 
ENDBRANCH  26  58
ENDBRANCH  23  26
ENDBRANCH  19  22
ENDBRANCH  16  19
ENDBRANCH  13  15
BRANCH  13  62
ATOM     62  CB  ASP d   1       2.491 -11.678  -6.981  0.00  0.00     0.001 C 
ATOM     63  H24 ASP d   1       3.517 -11.341  -6.773  0.00  0.00     0.052 H 
ATOM     64  H25 ASP d   1       2.395 -11.922  -8.049  0.00  0.00     0.052 H 
BRANCH  62  65
ATOM     65  SG  ASP d   1       2.179 -13.181  -6.022  0.00  0.00    -0.180 SA
ATOM     66  H26 ASP d   1       2.845 -13.890  -6.285  0.00  0.00     0.101 HD
ENDBRANCH  62  65
ENDBRANCH  13  62
ENDBRANCH  10  13
ENDBRANCH   7   9
BRANCH   7  67
ATOM     67  CB  ASP d   1       1.412  -5.910  -7.426  0.00  0.00    -0.030 C 
ATOM     68  H29 ASP d   1       0.545  -6.223  -8.026  0.00  0.00     0.043 H 
BRANCH  67  69
ATOM     69  CG1 ASP d   1       1.853  -4.521  -7.924  0.00  0.00    -0.063 C 
ATOM     70  H30 ASP d   1       2.300  -4.634  -8.923  0.00  0.00     0.033 H 
ATOM     71  H31 ASP d   1       2.606  -4.123  -7.228  0.00  0.00     0.033 H 
BRANCH  69  72
ATOM     72  CD1 ASP d   1       0.711  -3.528  -8.017  0.00  0.00    -0.076 C 
ATOM     73  H35 ASP d   1       1.094  -2.562  -8.377  0.00  0.00     0.027 H 
ATOM     74  H36 ASP d   1       0.258  -3.396  -7.023  0.00  0.00     0.027 H 
ATOM     75  H37 ASP d   1      -0.048  -3.906  -8.718  0.00  0.00     0.027 H 
ENDBRANCH  69  72
ENDBRANCH  67  69
BRANCH  67  76
ATOM     76  CG2 ASP d   1       0.976  -5.838  -5.970  0.00  0.00    -0.071 C 
ATOM     77  H32 ASP d   1       0.665  -6.837  -5.631  0.00  0.00     0.028 H 
ATOM     78  H33 ASP d   1       0.132  -5.139  -5.874  0.00  0.00     0.028 H 
ATOM     79  H34 ASP d   1       1.816  -5.486  -5.353  0.00  0.00     0.028 H 
ENDBRANCH  67  76
ENDBRANCH   7  67
ENDBRANCH   4   7
ENDBRANCH   1   3
BRANCH   1  80
ATOM     80  C   ASP d   1       6.160  -4.108  -8.368  0.00  0.00     0.241 C 
ATOM     81  O   ASP d   1       5.869  -3.853  -9.537  0.00  0.00    -0.271 OA
ATOM     82  N   ASP d   1       6.566  -3.180  -7.514  0.00  0.00    -0.346 N 
ATOM     83  H47 ASP d   1       6.813  -3.452  -6.584  0.00  0.00     0.163 HD
BRANCH  82  84
ATOM     84  CA  ASP d   1       6.663  -1.777  -7.888  0.00  0.00     0.092 C 
ATOM     85  H48 ASP d   1       6.385  -1.685  -8.948  0.00  0.00     0.088 H 
BRANCH  84  86
ATOM     86  C   ASP d   1       8.082  -1.257  -7.718  0.00  0.00     0.241 C 
ATOM     87  O   ASP d   1       8.740  -1.546  -6.721  0.00  0.00    -0.271 OA
ATOM     88  N   ASP d   1       8.578  -0.529  -8.699  0.00  0.00    -0.344 N 
ATOM     89  H58 ASP d   1       8.035  -0.359  -9.521  0.00  0.00     0.163 HD
BRANCH  88  90
ATOM     90  CA  ASP d   1       9.901   0.019  -8.583  0.00  0.00     0.110 C 
ATOM     91  H59 ASP d   1      10.359  -0.321  -7.643  0.00  0.00     0.090 H 
BRANCH  90  92
ATOM     92  CB  ASP d   1      10.734  -0.482  -9.757  0.00  0.00     0.059 C 
ATOM     93  H60 ASP d   1      10.303  -0.091 -10.690  0.00  0.00     0.079 H 
ATOM     94  H61 ASP d   1      10.702  -1.581  -9.771  0.00  0.00     0.079 H 
BRANCH  92  95
ATOM     95  OG  ASP d   1      12.083  -0.066  -9.668  0.00  0.00    -0.280 OA
BRANCH  95  96
ATOM     96  P   ASP d   1      13.162  -1.010  -8.975  0.00  0.00     0.422 P 
ATOM     97  O1P ASP d   1      14.552  -0.664  -9.303  0.00  0.00    -0.617 OA
ATOM     98  O2P ASP d   1      12.868  -2.452  -9.071  0.00  0.00    -0.617 OA
ATOM     99  O3P ASP d   1      13.034  -0.684  -7.420  0.00  0.00    -0.617 OA
ENDBRANCH  95  96
ENDBRANCH  92  95
ENDBRANCH  90  92
BRANCH  90 100
ATOM    100  C   ASP d   1       9.823   1.531  -8.574  0.00  0.00     0.243 C 
ATOM    101  O   ASP d   1       9.344   2.163  -9.519  0.00  0.00    -0.271 OA
ATOM    102  N   ASP d   1      10.250   2.088  -7.462  0.00  0.00    -0.345 N 
ATOM    103  H62 ASP d   1      10.584   1.496  -6.729  0.00  0.00     0.163 HD
BRANCH 102 104
ATOM    104  CA  ASP d   1      10.258   3.513  -7.253  0.00  0.00     0.098 C 
ATOM    105  H63 ASP d   1      10.145   3.995  -8.235  0.00  0.00     0.088 H 
BRANCH 104 106
ATOM    106  C   ASP d   1      11.577   3.970  -6.664  0.00  0.00     0.241 C 
ATOM    107  O   ASP d   1      12.109   3.340  -5.759  0.00  0.00    -0.271 OA
ATOM    108  N   ASP d   1      12.123   5.030  -7.200  0.00  0.00    -0.344 N 
ATOM    109  H66 ASP d   1      11.658   5.484  -7.960  0.00  0.00     0.163 HD
BRANCH 108 110
ATOM    110  CA  ASP d   1      13.388   5.568  -6.722  0.00  0.00     0.110 C 
ATOM    111  H67 ASP d   1      13.685   4.989  -5.835  0.00  0.00     0.090 H 
BRANCH 110 112
ATOM    112  CB  ASP d   1      14.460   5.446  -7.749  0.00  0.00     0.059 C 
ATOM    113  H68 ASP d   1      14.737   6.452  -8.098  0.00  0.00     0.079 H 
ATOM    114  H69 ASP d   1      14.079   4.856  -8.596  0.00  0.00     0.079 H 
BRANCH 112 115
ATOM    115  OG  ASP d   1      15.619   4.803  -7.221  0.00  0.00    -0.280 OA
BRANCH 115 116
ATOM    116  P   ASP d   1      16.962   5.635  -7.022  0.00  0.00     0.422 P 
ATOM    117  O1P ASP d   1      16.886   6.211  -5.532  0.00  0.00    -0.617 OA
ATOM    118  O2P ASP d   1      17.062   6.823  -7.878  0.00  0.00    -0.617 OA
ATOM    119  O3P ASP d   1      18.173   4.803  -7.031  0.00  0.00    -0.617 OA
ENDBRANCH 115 116
ENDBRANCH 112 115
ENDBRANCH 110 112
BRANCH 110 120
ATOM    120  C   ASP d   1      13.277   7.033  -6.327  0.00  0.00     0.243 C 
ATOM    121  O   ASP d   1      12.575   7.798  -6.990  0.00  0.00    -0.271 OA
ATOM    122  N   ASP d   1      13.924   7.402  -5.225  0.00  0.00    -0.345 N 
ATOM    123  H70 ASP d   1      14.419   6.709  -4.701  0.00  0.00     0.163 HD
BRANCH 122 124
ATOM    124  CA  ASP d   1      13.937   8.790  -4.751  0.00  0.00     0.097 C 
ATOM    125  H71 ASP d   1      12.915   9.062  -4.449  0.00  0.00     0.089 H 
BRANCH 124 126
ATOM    126  C   ASP d   1      14.394   9.761  -5.847  0.00  0.00     0.196 C 
ATOM    127  O   ASP d   1      14.837   9.366  -6.931  0.00  0.00    -0.646 OA
ATOM    128  OXT ASP d   1      14.342  10.987  -5.701  0.00  0.00    -0.646 OA
ENDBRANCH 124 126
BRANCH 124 129
ATOM    129  CB  ASP d   1      14.860   8.920  -3.538  0.00  0.00    -0.028 C 
ATOM    130  H72 ASP d   1      15.790   8.373  -3.751  0.00  0.00     0.037 H 
ATOM    131  H73 ASP d   1      14.357   8.466  -2.671  0.00  0.00     0.037 H 
BRANCH 129 132
ATOM    132  CG  ASP d   1      15.221  10.354  -3.183  0.00  0.00     0.018 C 
ATOM    133  H74 ASP d   1      15.450  10.897  -4.112  0.00  0.00     0.049 H 
ATOM    134  H75 ASP d   1      16.111  10.341  -2.537  0.00  0.00     0.049 H 
BRANCH 132 135
ATOM    135  CD  ASP d   1      14.111  11.086  -2.459  0.00  0.00     0.172 C 
ATOM    136  OE1 ASP d   1      13.801  12.233  -2.840  0.00  0.00    -0.648 OA
ATOM    137  OE2 ASP d   1      13.537  10.517  -1.507  0.00  0.00    -0.648 OA
ENDBRANCH 132 135
ENDBRANCH 129 132
ENDBRANCH 124 129
ENDBRANCH 122 124
ENDBRANCH 110 120
ENDBRANCH 108 110
ENDBRANCH 104 106
BRANCH 104 138
ATOM    138  CB  ASP d   1       9.098   3.949  -6.394  0.00  0.00     0.043 C 
ATOM    139  H64 ASP d   1       9.373   3.836  -5.335  0.00  0.00     0.052 H 
ATOM    140  H65 ASP d   1       8.228   3.314  -6.617  0.00  0.00     0.052 H 
BRANCH 138 141
ATOM    141  CG  ASP d   1       8.735   5.396  -6.658  0.00  0.00     0.175 C 
ATOM    142  OD1 ASP d   1       8.846   5.843  -7.825  0.00  0.00    -0.648 OA
ATOM    143  OD2 ASP d   1       8.360   6.097  -5.704  0.00  0.00    -0.648 OA
ENDBRANCH 138 141
ENDBRANCH 104 138
ENDBRANCH 102 104
ENDBRANCH  90 100
ENDBRANCH  88  90
ENDBRANCH  84  86
BRANCH  84 144
ATOM    144  CB  ASP d   1       5.687  -0.914  -7.049  0.00  0.00    -0.030 C 
ATOM    145  H49 ASP d   1       4.662  -1.245  -7.271  0.00  0.00     0.043 H 
BRANCH 144 146
ATOM    146  CG1 ASP d   1       5.797   0.576  -7.413  0.00  0.00    -0.063 C 
ATOM    147  H50 ASP d   1       6.844   0.886  -7.282  0.00  0.00     0.033 H 
ATOM    148  H51 ASP d   1       5.157   1.147  -6.724  0.00  0.00     0.033 H 
BRANCH 146 149
ATOM    149  CD1 ASP d   1       5.378   0.907  -8.833  0.00  0.00    -0.076 C 
ATOM    150  H55 ASP d   1       5.488   1.988  -9.005  0.00  0.00     0.027 H 
ATOM    151  H56 ASP d   1       4.327   0.617  -8.982  0.00  0.00     0.027 H 
ATOM    152  H57 ASP d   1       6.015   0.356  -9.541  0.00  0.00     0.027 H 
ENDBRANCH 146 149
ENDBRANCH 144 146
BRANCH 144 153
ATOM    153  CG2 ASP d   1       5.944  -1.115  -5.557  0.00  0.00    -0.071 C 
ATOM    154  H52 ASP d   1       5.862  -2.184  -5.312  0.00  0.00     0.028 H 
ATOM    155  H53 ASP d   1       5.201  -0.548  -4.977  0.00  0.00     0.028 H 
ATOM    156  H54 ASP d   1       6.954  -0.758  -5.308  0.00  0.00     0.028 H 
ENDBRANCH 144 153
ENDBRANCH  84 144
ENDBRANCH  82  84
ENDBRANCH   1  80
BRANCH   1 157
ATOM    157  CB  ASP d   1       7.232  -6.401  -8.359  0.00  0.00    -0.033 C 
ATOM    158  H40 ASP d   1       7.091  -7.428  -7.990  0.00  0.00     0.042 H 
BRANCH 157 159
ATOM    159  CG1 ASP d   1       7.237  -6.447  -9.884  0.00  0.00    -0.071 C 
ATOM    160  H41 ASP d   1       8.076  -7.068 -10.229  0.00  0.00     0.028 H 
ATOM    161  H42 ASP d   1       7.348  -5.427 -10.281  0.00  0.00     0.028 H 
ATOM    162  H43 ASP d   1       6.290  -6.879 -10.241  0.00  0.00     0.028 H 
ENDBRANCH 157 159
BRANCH 157 163
ATOM    163  CG2 ASP d   1       8.568  -5.888  -7.833  0.00  0.00    -0.071 C 
ATOM    164  H44 ASP d   1       8.544  -5.862  -6.734  0.00  0.00     0.028 H 
ATOM    165  H45 ASP d   1       8.749  -4.874  -8.219  0.00  0.00     0.028 H 
ATOM    166  H46 ASP d   1       9.375  -6.557  -8.166  0.00  0.00     0.028 H 
ENDBRANCH 157 163
ENDBRANCH   1 157
TORSDOF 54
