REMARK  6 active torsions:
REMARK  status: ('A' for Active; 'I' for Inactive)
REMARK    1  A    between atoms: C21_1  and  C7_2 
REMARK    2  A    between atoms: C1_7  and  C20_8 
REMARK    3  A    between atoms: C2_12  and  C11_13 
REMARK    4  A    between atoms: C16_17  and  N24_18 
REMARK    5  A    between atoms: C15_24  and  N22_27 
REMARK    6  A    between atoms: N22_27  and  C23_28 
ROOT
ATOM      1  C11 D4L d   1      11.572  18.211  14.934  0.00  0.00     0.112 A 
ATOM      2  C19 D4L d   1      10.771  17.318  14.272  0.00  0.00    -0.005 A 
ATOM      3  C12 D4L d   1      10.280  17.951  13.177  0.00  0.00     0.157 A 
ATOM      4  N14 D4L d   1       9.425  17.498  12.199  0.00  0.00    -0.212 NA
ATOM      5  C16 D4L d   1       9.094  18.417  11.208  0.00  0.00     0.131 A 
ATOM      6  C17 D4L d   1       9.610  19.713  11.231  0.00  0.00     0.005 A 
ATOM      7  C15 D4L d   1      10.457  20.102  12.275  0.00  0.00     0.131 A 
ATOM      8  N13 D4L d   1      10.770  19.208  13.227  0.00  0.00    -0.199 N 
ATOM      9  N18 D4L d   1      11.536  19.375  14.241  0.00  0.00    -0.162 NA
ATOM     10  H10 D4L d   1      10.566  16.291  14.570  0.00  0.00     0.093 H 
ATOM     11  H19 D4L d   1       9.355  20.418  10.441  0.00  0.00     0.095 H 
ENDROOT
BRANCH   1  12
ATOM     12  C2  D4L d   1      12.245  17.821  16.202  0.00  0.00     0.112 A 
ATOM     13  C1  D4L d   1      12.136  18.632  17.343  0.00  0.00     0.062 A 
ATOM     14  N3  D4L d   1      12.724  18.219  18.526  0.00  0.00    -0.249 NA
ATOM     15  C5  D4L d   1      13.395  17.014  18.571  0.00  0.00     0.086 A 
ATOM     16  C10 D4L d   1      13.995  16.621  19.746  0.00  0.00    -0.052 A 
ATOM     17  C6  D4L d   1      13.489  16.207  17.438  0.00  0.00     0.086 A 
ATOM     18  C9  D4L d   1      14.670  15.413  19.792  0.00  0.00    -0.075 A 
ATOM     19  H5  D4L d   1      13.940  17.251  20.626  0.00  0.00     0.087 H 
ATOM     20  C7  D4L d   1      14.757  14.609  18.669  0.00  0.00    -0.060 A 
ATOM     21  H4  D4L d   1      15.135  15.094  20.718  0.00  0.00     0.084 H 
ATOM     22  C8  D4L d   1      14.166  15.002  17.478  0.00  0.00    -0.047 A 
ATOM     23  H9  D4L d   1      14.233  14.377  16.595  0.00  0.00     0.088 H 
ATOM     24  N4  D4L d   1      12.908  16.612  16.263  0.00  0.00    -0.242 NA
BRANCH  13  25
ATOM     25  C20 D4L d   1      11.407  19.967  17.381  0.00  0.00    -0.033 C 
ATOM     26  H6  D4L d   1      10.986  20.183  16.388  0.00  0.00     0.035 H 
ATOM     27  H7  D4L d   1      12.113  20.763  17.661  0.00  0.00     0.035 H 
ATOM     28  H8  D4L d   1      10.595  19.920  18.122  0.00  0.00     0.035 H 
ENDBRANCH  13  25
BRANCH  20  29
ATOM     29  C21 D4L d   1      15.505  13.305  18.754  0.00  0.00    -0.051 C 
ATOM     30  H1  D4L d   1      15.898  13.173  19.773  0.00  0.00     0.033 H 
ATOM     31  H2  D4L d   1      16.340  13.314  18.038  0.00  0.00     0.033 H 
ATOM     32  H3  D4L d   1      14.824  12.475  18.513  0.00  0.00     0.033 H 
ENDBRANCH  20  29
ENDBRANCH   1  12
BRANCH   7  33
ATOM     33  N22 D4L d   1      11.033  21.379  12.346  0.00  0.00    -0.370 N 
ATOM     34  H20 D4L d   1      11.578  21.567  13.200  0.00  0.00     0.161 HD
BRANCH  33  35
ATOM     35  C23 D4L d   1      10.975  22.491  11.384  0.00  0.00     0.015 C 
ATOM     36  C33 D4L d   1      12.339  23.228  11.396  0.00  0.00    -0.026 C 
ATOM     37  C32 D4L d   1      12.277  24.693  10.927  0.00  0.00     0.021 C 
ATOM     38  H22 D4L d   1      13.029  22.684  10.734  0.00  0.00     0.039 H 
ATOM     39  H23 D4L d   1      12.729  23.213  12.425  0.00  0.00     0.039 H 
ATOM     40  O30 D4L d   1      11.107  25.395  11.360  0.00  0.00    -0.391 OA
ATOM     41  H24 D4L d   1      12.300  24.705   9.827  0.00  0.00     0.074 H 
ATOM     42  H25 D4L d   1      13.160  25.219  11.318  0.00  0.00     0.074 H 
ATOM     43  C29 D4L d   1       9.901  24.733  10.995  0.00  0.00     0.021 C 
ATOM     44  C31 D4L d   1       9.815  23.415  11.778  0.00  0.00    -0.026 C 
ATOM     45  H26 D4L d   1       9.904  24.524   9.915  0.00  0.00     0.074 H 
ATOM     46  H27 D4L d   1       9.039  25.369  11.243  0.00  0.00     0.074 H 
ATOM     47  H28 D4L d   1       9.869  23.628  12.856  0.00  0.00     0.039 H 
ATOM     48  H29 D4L d   1       8.861  22.918  11.550  0.00  0.00     0.039 H 
ATOM     49  H21 D4L d   1      10.791  22.097  10.373  0.00  0.00     0.072 H 
ENDBRANCH  33  35
ENDBRANCH   7  33
BRANCH   5  50
ATOM     50  N24 D4L d   1       8.213  18.032  10.181  0.00  0.00    -0.366 N 
ATOM     51  C26 D4L d   1       7.745  16.667   9.952  0.00  0.00    -0.004 C 
ATOM     52  C28 D4L d   1       6.708  16.708   8.844  0.00  0.00    -0.049 C 
ATOM     53  H11 D4L d   1       7.293  16.268  10.872  0.00  0.00     0.064 H 
ATOM     54  H12 D4L d   1       8.588  16.029   9.651  0.00  0.00     0.064 H 
ATOM     55  C27 D4L d   1       6.391  18.168   8.611  0.00  0.00    -0.049 C 
ATOM     56  H13 D4L d   1       5.801  16.166   9.151  0.00  0.00     0.035 H 
ATOM     57  H14 D4L d   1       7.113  16.255   7.927  0.00  0.00     0.035 H 
ATOM     58  C25 D4L d   1       7.573  18.921   9.190  0.00  0.00    -0.004 C 
ATOM     59  H15 D4L d   1       5.462  18.450   9.128  0.00  0.00     0.035 H 
ATOM     60  H16 D4L d   1       6.289  18.375   7.535  0.00  0.00     0.035 H 
ATOM     61  H17 D4L d   1       8.287  19.172   8.392  0.00  0.00     0.064 H 
ATOM     62  H18 D4L d   1       7.229  19.845   9.679  0.00  0.00     0.064 H 
ENDBRANCH   5  50
TORSDOF 6
