REMARK  6 active torsions:
REMARK  status: ('A' for Active; 'I' for Inactive)
REMARK    1  A    between atoms: O5'_1  and  C5'_2 
REMARK    2  A    between atoms: C5'_2  and  C4'_3 
REMARK    3  A    between atoms: C5_15  and  C5M_16 
REMARK    4  A    between atoms: C5_15  and  O5_17 
REMARK    5  A    between atoms: C5_32  and  C5M_33 
REMARK    6  A    between atoms: C3'_36  and  O3'_37 
ROOT
ATOM      1  C4' MOL d   1     -37.709 -24.956   4.782  0.00  0.00     0.087 C 
ATOM      2  O4' MOL d   1     -37.027 -24.709   6.043  0.00  0.00    -0.356 OA
ATOM      3  C3' MOL d   1     -36.617 -25.315   3.770  0.00  0.00     0.081 C 
ATOM      4  O3' MOL d   1     -36.700 -24.684   2.501  0.00  0.00    -0.282 OA
ATOM      5  C2' MOL d   1     -35.321 -24.865   4.413  0.00  0.00     0.003 C 
ATOM      6  C1' MOL d   1     -35.635 -24.509   5.858  0.00  0.00     0.113 C 
ATOM      7  N1  MOL d   1     -34.815 -25.394   6.826  0.00  0.00    -0.293 N 
ATOM      8  C2  MOL d   1     -33.972 -24.839   7.668  0.00  0.00     0.327 C 
ATOM      9  O2  MOL d   1     -33.777 -23.607   7.746  0.00  0.00    -0.247 OA
ATOM     10  N3  MOL d   1     -33.233 -25.684   8.526  0.00  0.00    -0.276 N 
ATOM     11  C4  MOL d   1     -33.315 -27.095   8.541  0.00  0.00     0.262 C 
ATOM     12  O4  MOL d   1     -32.458 -27.727   9.111  0.00  0.00    -0.270 OA
ATOM     13  C5  MOL d   1     -34.494 -27.739   7.832  0.00  0.00     0.161 C 
ATOM     14  C6  MOL d   1     -34.942 -26.883   6.572  0.00  0.00     0.099 C 
ATOM     15  P   MOL d   1     -36.459 -25.582   1.180  0.00  0.00     0.408 P 
ATOM     16  OP2 MOL d   1     -37.288 -26.805   1.357  0.00  0.00    -0.624 OA
ATOM     17  OP1 MOL d   1     -36.675 -24.721  -0.008  0.00  0.00    -0.624 OA
ATOM     18  O5' MOL d   1     -34.911 -26.010   1.223  0.00  0.00    -0.287 OA
ATOM     19  C5' MOL d   1     -33.928 -25.313   0.435  0.00  0.00     0.058 C 
ATOM     20  C4' MOL d   1     -32.748 -26.205   0.093  0.00  0.00     0.087 C 
ATOM     21  O4' MOL d   1     -31.876 -26.406   1.227  0.00  0.00    -0.356 OA
ATOM     22  C1' MOL d   1     -31.994 -27.735   1.728  0.00  0.00     0.116 C 
ATOM     23  N1  MOL d   1     -32.757 -27.566   3.019  0.00  0.00    -0.280 N 
ATOM     24  C2  MOL d   1     -32.330 -26.644   3.938  0.00  0.00     0.350 A 
ATOM     25  O2  MOL d   1     -31.302 -25.949   3.738  0.00  0.00    -0.244 OA
ATOM     26  N3  MOL d   1     -33.075 -26.479   5.088  0.00  0.00    -0.196 NA
ATOM     27  C4  MOL d   1     -34.183 -27.231   5.269  0.00  0.00     0.073 A 
ATOM     28  C5  MOL d   1     -34.647 -28.205   4.353  0.00  0.00    -0.019 A 
ATOM     29  C6  MOL d   1     -33.886 -28.336   3.224  0.00  0.00    -0.005 A 
ATOM     30  C2' MOL d   1     -32.811 -28.533   0.708  0.00  0.00     0.002 C 
ATOM     31  C3' MOL d   1     -33.056 -27.596  -0.464  0.00  0.00     0.066 C 
ATOM     32  H4  MOL d   1     -38.239 -24.055   4.438  0.00  0.00     0.090 H 
ATOM     33  H5  MOL d   1     -36.618 -26.404   3.617  0.00  0.00     0.088 H 
ATOM     34  H6  MOL d   1     -34.925 -23.985   3.886  0.00  0.00     0.043 H 
ATOM     35  H7  MOL d   1     -34.581 -25.678   4.378  0.00  0.00     0.043 H 
ATOM     36  H8  MOL d   1     -35.386 -23.453   6.042  0.00  0.00     0.118 H 
ATOM     37  H9  MOL d   1     -32.604 -25.251   9.172  0.00  0.00     0.173 HD
ATOM     38  H14 MOL d   1     -36.006 -27.105   6.401  0.00  0.00     0.088 H 
ATOM     39  H15 MOL d   1     -33.565 -24.445   1.004  0.00  0.00     0.079 H 
ATOM     40  H16 MOL d   1     -34.398 -24.970  -0.498  0.00  0.00     0.079 H 
ATOM     41  H17 MOL d   1     -32.181 -25.669  -0.682  0.00  0.00     0.090 H 
ATOM     42  H18 MOL d   1     -31.014 -28.205   1.898  0.00  0.00     0.118 H 
ATOM     43  H22 MOL d   1     -34.177 -29.064   2.469  0.00  0.00     0.112 H 
ATOM     44  H23 MOL d   1     -33.767 -28.850   1.149  0.00  0.00     0.043 H 
ATOM     45  H24 MOL d   1     -32.248 -29.419   0.377  0.00  0.00     0.043 H 
ATOM     46  H25 MOL d   1     -34.103 -27.654  -0.797  0.00  0.00     0.087 H 
ENDROOT
BRANCH   1  47
ATOM     47  C5' MOL d   1     -38.716 -26.053   5.049  0.00  0.00     0.043 C 
ATOM     48  H2  MOL d   1     -39.355 -25.758   5.894  0.00  0.00     0.078 H 
ATOM     49  H3  MOL d   1     -39.337 -26.199   4.153  0.00  0.00     0.078 H 
BRANCH  47  50
ATOM     50  O5' MOL d   1     -38.058 -27.273   5.365  0.00  0.00    -0.398 OA
ATOM     51  H1  MOL d   1     -37.523 -27.151   6.141  0.00  0.00     0.209 HD
ENDBRANCH  47  50
ENDBRANCH   1  47
BRANCH  13  52
ATOM     52  C5M MOL d   1     -35.663 -27.861   8.813  0.00  0.00    -0.037 C 
ATOM     53  H10 MOL d   1     -36.520 -28.327   8.305  0.00  0.00     0.032 H 
ATOM     54  H11 MOL d   1     -35.948 -26.860   9.170  0.00  0.00     0.032 H 
ATOM     55  H12 MOL d   1     -35.361 -28.483   9.668  0.00  0.00     0.032 H 
ENDBRANCH  13  52
BRANCH  13  56
ATOM     56  O5  MOL d   1     -34.120 -29.040   7.377  0.00  0.00    -0.378 OA
ATOM     57  H13 MOL d   1     -33.858 -29.571   8.120  0.00  0.00     0.211 HD
ENDBRANCH  13  56
BRANCH  28  58
ATOM     58  C5M MOL d   1     -35.887 -29.067   4.503  0.00  0.00    -0.048 C 
ATOM     59  H19 MOL d   1     -35.983 -29.727   3.628  0.00  0.00     0.033 H 
ATOM     60  H20 MOL d   1     -36.775 -28.422   4.574  0.00  0.00     0.033 H 
ATOM     61  H21 MOL d   1     -35.802 -29.676   5.415  0.00  0.00     0.033 H 
ENDBRANCH  28  58
BRANCH  31  62
ATOM     62  O3' MOL d   1     -32.193 -27.932  -1.556  0.00  0.00    -0.393 OA
ATOM     63  H26 MOL d   1     -32.356 -27.340  -2.281  0.00  0.00     0.210 HD
ENDBRANCH  31  62
TORSDOF 6
