REMARK  6 active torsions:
REMARK  status: ('A' for Active; 'I' for Inactive)
REMARK    1  A    between atoms: N12_24  and  C15_9 
REMARK    2  A    between atoms: C10_17  and  C8_10 
REMARK    3  A    between atoms: C1_13  and  C13_15 
REMARK    4  A    between atoms: C3_14  and  C14_16 
REMARK    5  A    between atoms: C11_18  and  C10_17 
REMARK    6  A    between atoms: C11_18  and  N12_24 
ROOT
ATOM      1  C10 D6X d   1      19.209   3.753  58.184  0.00  0.00     0.009 C 
ATOM      2  H14 D6X d   1      18.544   4.542  57.803  0.00  0.00     0.047 H 
ATOM      3  H15 D6X d   1      19.192   2.895  57.495  0.00  0.00     0.047 H 
ENDROOT
BRANCH   1   4
ATOM      4  C8  D6X d   1      18.696   3.311  59.471  0.00  0.00     0.168 A 
ATOM      5  N7  D6X d   1      19.276   3.558  60.695  0.00  0.00    -0.043 NA
ATOM      6  C6  D6X d   1      18.434   2.958  61.513  0.00  0.00     0.751 A 
ATOM      7  N4  D6X d   1      18.458   2.845  62.870  0.00  0.00    -0.066 NA
ATOM      8  N5  D6X d   1      17.411   2.389  60.810  0.00  0.00    -0.063 N 
ATOM      9  C3  D6X d   1      17.465   2.197  63.403  0.00  0.00     0.051 A 
ATOM     10  C2  D6X d   1      16.315   1.579  62.721  0.00  0.00    -0.035 A 
ATOM     11  C1  D6X d   1      16.362   1.735  61.400  0.00  0.00     0.052 A 
ATOM     12  H7  D6X d   1      15.515   1.053  63.240  0.00  0.00     0.089 H 
ATOM     13  N9  D6X d   1      17.566   2.610  59.487  0.00  0.00    -0.136 NA
BRANCH   9  14
ATOM     14  C14 D6X d   1      17.498   2.060  64.876  0.00  0.00    -0.035 C 
ATOM     15  H11 D6X d   1      18.396   2.558  65.270  0.00  0.00     0.035 H 
ATOM     16  H12 D6X d   1      17.522   0.994  65.145  0.00  0.00     0.035 H 
ATOM     17  H13 D6X d   1      16.601   2.527  65.308  0.00  0.00     0.035 H 
ENDBRANCH   9  14
BRANCH  11  18
ATOM     18  C13 D6X d   1      15.304   1.197  60.486  0.00  0.00    -0.035 C 
ATOM     19  H8  D6X d   1      14.524   0.698  61.081  0.00  0.00     0.035 H 
ATOM     20  H9  D6X d   1      15.754   0.473  59.791  0.00  0.00     0.035 H 
ATOM     21  H10 D6X d   1      14.857   2.024  59.916  0.00  0.00     0.035 H 
ENDBRANCH  11  18
ENDBRANCH   1   4
BRANCH   1  22
ATOM     22  C11 D6X d   1      20.603   4.295  58.220  0.00  0.00     0.000 C 
ATOM     23  H16 D6X d   1      21.352   3.493  58.138  0.00  0.00     0.064 H 
ATOM     24  H17 D6X d   1      20.788   4.877  59.135  0.00  0.00     0.064 H 
BRANCH  22  25
ATOM     25  N12 D6X d   1      20.595   5.134  57.050  0.00  0.00    -0.374 N 
ATOM     26  H18 D6X d   1      19.770   5.666  56.738  0.00  0.00     0.161 HD
BRANCH  25  27
ATOM     27  C15 D6X d   1      21.816   5.151  56.385  0.00  0.00     0.124 A 
ATOM     28  C16 D6X d   1      21.739   5.689  55.111  0.00  0.00    -0.038 A 
ATOM     29  C17 D6X d   1      22.896   5.751  54.365  0.00  0.00    -0.067 A 
ATOM     30  H6  D6X d   1      20.798   6.050  54.713  0.00  0.00     0.089 H 
ATOM     31  C20 D6X d   1      24.077   5.291  54.930  0.00  0.00    -0.007 A 
ATOM     32  H4  D6X d   1      22.884   6.151  53.358  0.00  0.00     0.085 H 
ATOM     33  C21 D6X d   1      25.251   5.349  54.177  0.00  0.00    -0.071 A 
ATOM     34  C19 D6X d   1      24.079   4.772  56.221  0.00  0.00     0.069 A 
ATOM     35  C22 D6X d   1      26.438   4.887  54.710  0.00  0.00    -0.082 A 
ATOM     36  H3  D6X d   1      25.231   5.757  53.173  0.00  0.00     0.084 H 
ATOM     37  C23 D6X d   1      26.462   4.356  55.990  0.00  0.00    -0.081 A 
ATOM     38  H1  D6X d   1      27.351   4.940  54.128  0.00  0.00     0.083 H 
ATOM     39  C24 D6X d   1      25.291   4.304  56.730  0.00  0.00    -0.054 A 
ATOM     40  H2  D6X d   1      27.390   3.984  56.409  0.00  0.00     0.083 H 
ATOM     41  H5  D6X d   1      25.317   3.889  57.731  0.00  0.00     0.087 H 
ATOM     42  N18 D6X d   1      22.958   4.690  56.955  0.00  0.00    -0.231 NA
ENDBRANCH  25  27
ENDBRANCH  22  25
ENDBRANCH   1  22
TORSDOF 6
