REMARK  5 active torsions:
REMARK  status: ('A' for Active; 'I' for Inactive)
REMARK    1  A    between atoms: C5_17  and  C3_7 
REMARK    2  A    between atoms: C12_11  and  C14_15 
REMARK    3  A    between atoms: C10_13  and  C13_16 
REMARK    4  A    between atoms: C6_18  and  C4_14 
REMARK    5  A    between atoms: C5_17  and  C6_18 
ROOT
ATOM      1  C6  D79 d   1      20.409   5.043  59.015  0.00  0.00    -0.018 C 
ATOM      2  H14 D79 d   1      19.627   5.815  59.071  0.00  0.00     0.043 H 
ATOM      3  H15 D79 d   1      21.003   5.054  59.941  0.00  0.00     0.043 H 
ENDROOT
BRANCH   1   4
ATOM      4  C4  D79 d   1      21.272   5.263  57.843  0.00  0.00     0.041 A 
ATOM      5  C15 D79 d   1      20.626   5.734  56.599  0.00  0.00    -0.005 A 
ATOM      6  C16 D79 d   1      21.474   5.896  55.580  0.00  0.00     0.203 A 
ATOM      7  H5  D79 d   1      19.558   5.931  56.521  0.00  0.00     0.093 H 
ATOM      8  N19 D79 d   1      22.805   5.635  55.759  0.00  0.00    -0.210 N 
ATOM      9  O21 D79 d   1      21.024   6.320  54.341  0.00  0.00    -0.170 OA
ATOM     10  C18 D79 d   1      23.301   5.200  56.960  0.00  0.00     0.166 A 
ATOM     11  N20 D79 d   1      23.783   5.748  54.842  0.00  0.00    -0.273 N 
ATOM     12  C22 D79 d   1      24.648   5.039  56.793  0.00  0.00     0.059 A 
ATOM     13  N17 D79 d   1      22.518   5.004  58.033  0.00  0.00    -0.233 NA
ATOM     14  C27 D79 d   1      25.495   4.610  57.791  0.00  0.00    -0.064 A 
ATOM     15  C23 D79 d   1      24.911   5.390  55.464  0.00  0.00     0.156 A 
ATOM     16  C26 D79 d   1      26.770   4.566  57.264  0.00  0.00    -0.065 A 
ATOM     17  H2  D79 d   1      25.212   4.354  58.806  0.00  0.00     0.085 H 
ATOM     18  C25 D79 d   1      27.016   4.917  55.945  0.00  0.00     0.004 A 
ATOM     19  H1  D79 d   1      27.595   4.251  57.893  0.00  0.00     0.085 H 
ATOM     20  N24 D79 d   1      26.165   5.331  54.989  0.00  0.00    -0.241 NA
ATOM     21  H3  D79 d   1      28.053   4.847  55.637  0.00  0.00     0.114 H 
ATOM     22  H16 D79 d   1      23.683   6.049  53.862  0.00  0.00     0.189 HD
ENDBRANCH   1   4
BRANCH   1  23
ATOM     23  C5  D79 d   1      19.797   3.681  58.791  0.00  0.00    -0.001 C 
ATOM     24  H12 D79 d   1      19.160   3.711  57.894  0.00  0.00     0.045 H 
ATOM     25  H13 D79 d   1      20.598   2.941  58.647  0.00  0.00     0.045 H 
BRANCH  23  26
ATOM     26  C3  D79 d   1      18.986   3.298  59.948  0.00  0.00     0.166 A 
ATOM     27  N1  D79 d   1      19.445   3.449  61.227  0.00  0.00    -0.044 NA
ATOM     28  C8  D79 d   1      18.445   2.998  61.937  0.00  0.00     0.751 A 
ATOM     29  N9  D79 d   1      18.349   2.916  63.282  0.00  0.00    -0.066 NA
ATOM     30  N7  D79 d   1      17.428   2.596  61.104  0.00  0.00    -0.063 N 
ATOM     31  C10 D79 d   1      17.233   2.419  63.703  0.00  0.00     0.051 A 
ATOM     32  C11 D79 d   1      16.086   1.948  62.899  0.00  0.00    -0.035 A 
ATOM     33  C12 D79 d   1      16.255   2.069  61.585  0.00  0.00     0.052 A 
ATOM     34  H4  D79 d   1      15.181   1.537  63.344  0.00  0.00     0.089 H 
ATOM     35  N2  D79 d   1      17.766   2.790  59.816  0.00  0.00    -0.136 NA
BRANCH  31  36
ATOM     36  C13 D79 d   1      17.045   2.299  65.166  0.00  0.00    -0.035 C 
ATOM     37  H9  D79 d   1      17.942   2.671  65.683  0.00  0.00     0.035 H 
ATOM     38  H10 D79 d   1      16.881   1.244  65.429  0.00  0.00     0.035 H 
ATOM     39  H11 D79 d   1      16.172   2.894  65.474  0.00  0.00     0.035 H 
ENDBRANCH  31  36
BRANCH  33  40
ATOM     40  C14 D79 d   1      15.195   1.650  60.634  0.00  0.00    -0.035 C 
ATOM     41  H6  D79 d   1      14.335   1.255  61.194  0.00  0.00     0.035 H 
ATOM     42  H7  D79 d   1      15.588   0.868  59.967  0.00  0.00     0.035 H 
ATOM     43  H8  D79 d   1      14.876   2.516  60.035  0.00  0.00     0.035 H 
ENDBRANCH  33  40
ENDBRANCH  23  26
ENDBRANCH   1  23
TORSDOF 5
