REMARK  5 active torsions:
REMARK  status: ('A' for Active; 'I' for Inactive)
REMARK    1  A    between atoms: C15_19  and  C16_7 
REMARK    2  A    between atoms: C21_11  and  C25_16 
REMARK    3  A    between atoms: C23_12  and  C26_17 
REMARK    4  A    between atoms: C13_13  and  C15_19 
REMARK       I    between atoms: N3_26  and  C13_13 
REMARK    5  A    between atoms: C2_15  and  C27_18 
ROOT
ATOM      1  C10 D7C d   1      26.907   4.229  56.403  0.00  0.00    -0.081 A 
ATOM      2  C11 D7C d   1      26.763   4.631  55.091  0.00  0.00    -0.081 A 
ATOM      3  C9  D7C d   1      25.887   4.335  57.323  0.00  0.00    -0.052 A 
ATOM      4  C12 D7C d   1      25.591   5.163  54.601  0.00  0.00    -0.054 A 
ATOM      5  C8  D7C d   1      24.689   4.862  56.863  0.00  0.00     0.103 A 
ATOM      6  C7  D7C d   1      24.581   5.255  55.534  0.00  0.00     0.081 A 
ATOM      7  C5  D7C d   1      22.719   5.584  56.659  0.00  0.00     0.713 A 
ATOM      8  C13 D7C d   1      20.436   5.548  57.331  0.00  0.00     0.245 C 
ATOM      9  C1  D7C d   1      22.458   6.263  54.430  0.00  0.00     0.037 C 
ATOM     10  C2  D7C d   1      21.260   6.665  55.254  0.00  0.00     0.050 C 
ATOM     11  N6  D7C d   1      23.521   5.075  57.563  0.00  0.00    -0.062 NA
ATOM     12  N4  D7C d   1      23.299   5.707  55.456  0.00  0.00    -0.177 N 
ATOM     13  N3  D7C d   1      21.457   6.059  56.550  0.00  0.00    -0.142 N 
ATOM     14  O14 D7C d   1      19.251   5.601  57.017  0.00  0.00    -0.272 OA
ATOM     15  H1  D7C d   1      27.857   3.815  56.721  0.00  0.00     0.083 H 
ATOM     16  H2  D7C d   1      27.607   4.524  54.419  0.00  0.00     0.083 H 
ATOM     17  H3  D7C d   1      26.014   4.023  58.353  0.00  0.00     0.087 H 
ATOM     18  H4  D7C d   1      25.473   5.481  53.572  0.00  0.00     0.087 H 
ATOM     19  H6  D7C d   1      22.928   7.131  53.944  0.00  0.00     0.069 H 
ATOM     20  H7  D7C d   1      22.196   5.514  53.668  0.00  0.00     0.069 H 
ATOM     21  H8  D7C d   1      20.318   6.332  54.793  0.00  0.00     0.076 H 
ENDROOT
BRANCH   8  22
ATOM     22  C15 D7C d   1      20.945   4.923  58.618  0.00  0.00     0.069 C 
ATOM     23  H18 D7C d   1      21.717   4.180  58.369  0.00  0.00     0.059 H 
ATOM     24  H19 D7C d   1      21.385   5.713  59.245  0.00  0.00     0.059 H 
BRANCH  22  25
ATOM     25  C16 D7C d   1      19.874   4.258  59.376  0.00  0.00     0.175 A 
ATOM     26  N18 D7C d   1      19.746   4.273  60.740  0.00  0.00    -0.043 NA
ATOM     27  C19 D7C d   1      18.650   3.556  60.909  0.00  0.00     0.751 A 
ATOM     28  N24 D7C d   1      18.006   3.212  62.048  0.00  0.00    -0.066 NA
ATOM     29  N20 D7C d   1      18.140   3.128  59.706  0.00  0.00    -0.063 N 
ATOM     30  C23 D7C d   1      16.929   2.493  61.913  0.00  0.00     0.051 A 
ATOM     31  C22 D7C d   1      16.325   2.003  60.645  0.00  0.00    -0.035 A 
ATOM     32  C21 D7C d   1      17.002   2.371  59.557  0.00  0.00     0.052 A 
ATOM     33  H5  D7C d   1      15.418   1.402  60.609  0.00  0.00     0.089 H 
ATOM     34  N17 D7C d   1      18.930   3.580  58.724  0.00  0.00    -0.136 NA
BRANCH  30  35
ATOM     35  C26 D7C d   1      16.214   2.117  63.173  0.00  0.00    -0.035 C 
ATOM     36  H12 D7C d   1      16.751   2.534  64.038  0.00  0.00     0.035 H 
ATOM     37  H13 D7C d   1      16.174   1.021  63.259  0.00  0.00     0.035 H 
ATOM     38  H14 D7C d   1      15.191   2.520  63.148  0.00  0.00     0.035 H 
ENDBRANCH  30  35
BRANCH  32  39
ATOM     39  C25 D7C d   1      16.575   1.987  58.175  0.00  0.00    -0.035 C 
ATOM     40  H9  D7C d   1      15.654   1.388  58.229  0.00  0.00     0.035 H 
ATOM     41  H10 D7C d   1      17.370   1.396  57.697  0.00  0.00     0.035 H 
ATOM     42  H11 D7C d   1      16.387   2.895  57.584  0.00  0.00     0.035 H 
ENDBRANCH  32  39
ENDBRANCH  22  25
ENDBRANCH   8  22
BRANCH  10  43
ATOM     43  C27 D7C d   1      21.289   8.166  55.402  0.00  0.00    -0.055 C 
ATOM     44  H15 D7C d   1      20.425   8.492  56.000  0.00  0.00     0.030 H 
ATOM     45  H16 D7C d   1      21.244   8.633  54.407  0.00  0.00     0.030 H 
ATOM     46  H17 D7C d   1      22.219   8.467  55.907  0.00  0.00     0.030 H 
ENDBRANCH  10  43
TORSDOF 5
