REMARK  11 active torsions:
REMARK  status: ('A' for Active; 'I' for Inactive)
REMARK    1  A    between atoms: N20_23  and  C21_3 
REMARK    2  A    between atoms: N20_23  and  C22_4 
REMARK    3  A    between atoms: C27_28  and  C28_5 
REMARK    4  A    between atoms: O02_7  and  C01_6 
REMARK    5  A    between atoms: C03_8  and  O02_7 
REMARK    6  A    between atoms: C09_14  and  C06_11 
REMARK    7  A    between atoms: N17_20  and  C18_21 
REMARK    8  A    between atoms: C18_21  and  C19_22 
REMARK    9  A    between atoms: C19_22  and  N20_23 
REMARK   10  A    between atoms: O26_27  and  C25_26 
REMARK   11  A    between atoms: O26_27  and  C27_28 
ROOT
ATOM      1  C13 D6C d   1      24.588   4.236 215.482  0.00  0.00    -0.082 A 
ATOM      2  C15 D6C d   1      25.834   2.514 216.569  0.00  0.00    -0.056 A 
ATOM      3  C09 D6C d   1      29.740   5.105 215.528  0.00  0.00     0.055 C 
ATOM      4  S10 D6C d   1      28.252   5.737 216.291  0.00  0.00    -0.115 SA
ATOM      5  C11 D6C d   1      26.872   4.602 216.185  0.00  0.00     0.028 A 
ATOM      6  C12 D6C d   1      25.699   5.055 215.597  0.00  0.00    -0.065 A 
ATOM      7  C14 D6C d   1      24.664   2.948 215.986  0.00  0.00    -0.081 A 
ATOM      8  C16 D6C d   1      26.973   3.333 216.654  0.00  0.00     0.054 A 
ATOM      9  N17 D6C d   1      28.186   2.840 217.348  0.00  0.00    -0.313 N 
ATOM     10  C23 D6C d   1      29.632   2.994 217.140  0.00  0.00     0.255 C 
ATOM     11  O24 D6C d   1      30.406   2.498 217.895  0.00  0.00    -0.270 OA
ATOM     12  C25 D6C d   1      30.255   3.720 215.948  0.00  0.00     0.141 C 
ATOM     13  H1  D6C d   1      23.681   4.594 215.009  0.00  0.00     0.083 H 
ATOM     14  H2  D6C d   1      25.878   1.510 216.975  0.00  0.00     0.087 H 
ATOM     15  H19 D6C d   1      29.590   5.097 214.438  0.00  0.00     0.069 H 
ATOM     16  H20 D6C d   1      25.652   6.070 215.220  0.00  0.00     0.085 H 
ATOM     17  H21 D6C d   1      23.808   2.286 215.922  0.00  0.00     0.083 H 
ATOM     18  H27 D6C d   1      31.316   3.863 216.199  0.00  0.00     0.101 H 
ENDROOT
BRANCH   3  19
ATOM     19  C06 D6C d   1      30.843   6.092 215.919  0.00  0.00    -0.041 A 
ATOM     20  C05 D6C d   1      31.005   6.570 217.205  0.00  0.00    -0.073 A 
ATOM     21  C04 D6C d   1      32.029   7.461 217.479  0.00  0.00    -0.050 A 
ATOM     22  H16 D6C d   1      30.335   6.250 217.994  0.00  0.00     0.084 H 
ATOM     23  C03 D6C d   1      32.877   7.862 216.457  0.00  0.00     0.068 A 
ATOM     24  H15 D6C d   1      32.167   7.842 218.484  0.00  0.00     0.087 H 
ATOM     25  C08 D6C d   1      32.712   7.378 215.191  0.00  0.00    -0.050 A 
ATOM     26  C07 D6C d   1      31.702   6.498 214.931  0.00  0.00    -0.073 A 
ATOM     27  H18 D6C d   1      33.380   7.691 214.397  0.00  0.00     0.087 H 
ATOM     28  H17 D6C d   1      31.577   6.113 213.925  0.00  0.00     0.084 H 
BRANCH  23  29
ATOM     29  O02 D6C d   1      33.927   8.752 216.655  0.00  0.00    -0.356 OA
BRANCH  29  30
ATOM     30  C01 D6C d   1      34.006   9.707 215.646  0.00  0.00     0.010 C 
ATOM     31  H12 D6C d   1      34.849  10.384 215.848  0.00  0.00     0.066 H 
ATOM     32  H13 D6C d   1      33.071  10.285 215.614  0.00  0.00     0.066 H 
ATOM     33  H14 D6C d   1      34.161   9.207 214.679  0.00  0.00     0.066 H 
ENDBRANCH  29  30
ENDBRANCH  23  29
ENDBRANCH   3  19
BRANCH  12  34
ATOM     34  O26 D6C d   1      30.174   2.840 214.856  0.00  0.00    -0.305 OA
BRANCH  34  35
ATOM     35  C27 D6C d   1      31.332   2.091 214.633  0.00  0.00     0.255 C 
ATOM     36  O29 D6C d   1      32.313   2.629 214.278  0.00  0.00    -0.266 OA
BRANCH  35  37
ATOM     37  C28 D6C d   1      31.351   0.587 214.833  0.00  0.00     0.004 C 
ATOM     38  H9  D6C d   1      32.355   0.199 214.604  0.00  0.00     0.041 H 
ATOM     39  H10 D6C d   1      30.615   0.119 214.163  0.00  0.00     0.041 H 
ATOM     40  H11 D6C d   1      31.097   0.353 215.877  0.00  0.00     0.041 H 
ENDBRANCH  35  37
ENDBRANCH  34  35
ENDBRANCH  12  34
BRANCH   9  41
ATOM     41  C18 D6C d   1      27.830   2.082 218.536  0.00  0.00     0.025 C 
ATOM     42  H22 D6C d   1      26.955   2.537 219.023  0.00  0.00     0.067 H 
ATOM     43  H23 D6C d   1      28.675   2.068 219.239  0.00  0.00     0.067 H 
BRANCH  41  44
ATOM     44  C19 D6C d   1      27.497   0.655 218.093  0.00  0.00     0.098 C 
ATOM     45  H24 D6C d   1      26.504   0.647 217.619  0.00  0.00     0.078 H 
ATOM     46  H25 D6C d   1      27.488  -0.003 218.974  0.00  0.00     0.078 H 
BRANCH  44  47
ATOM     47  N20 D6C d   1      28.484   0.166 217.142  0.00  0.00    -0.077 N 
ATOM     48  H26 D6C d   1      28.642   0.866 216.434  0.00  0.00     0.279 HD
BRANCH  47  49
ATOM     49  C21 D6C d   1      28.073  -1.071 216.518  0.00  0.00     0.066 C 
ATOM     50  H3  D6C d   1      28.848  -1.400 215.810  0.00  0.00     0.068 H 
ATOM     51  H4  D6C d   1      27.127  -0.913 215.979  0.00  0.00     0.068 H 
ATOM     52  H5  D6C d   1      27.931  -1.842 217.290  0.00  0.00     0.068 H 
ENDBRANCH  47  49
BRANCH  47  53
ATOM     53  C22 D6C d   1      29.699  -0.109 217.853  0.00  0.00     0.066 C 
ATOM     54  H6  D6C d   1      30.051   0.809 218.346  0.00  0.00     0.068 H 
ATOM     55  H7  D6C d   1      30.465  -0.462 217.147  0.00  0.00     0.068 H 
ATOM     56  H8  D6C d   1      29.513  -0.884 218.611  0.00  0.00     0.068 H 
ENDBRANCH  47  53
ENDBRANCH  44  47
ENDBRANCH  41  44
ENDBRANCH   9  41
TORSDOF 11
