REMARK  18 active torsions:
REMARK  status: ('A' for Active; 'I' for Inactive)
REMARK    1  A    between atoms: C3_9  and  O3_3 
REMARK    2  A    between atoms: C5_11  and  O5_4 
REMARK    3  A    between atoms: C14_22  and  O14_5 
REMARK    4  A    between atoms: O14_5  and  C18_25 
REMARK    5  A    between atoms: C2_8  and  C1_7 
REMARK    6  A    between atoms: C3_9  and  C2_8 
REMARK    7  A    between atoms: C4_10  and  C3_9 
REMARK    8  A    between atoms: C5_11  and  C4_10 
REMARK    9  A    between atoms: C6_12  and  C5_11 
REMARK   10  A    between atoms: C7_13  and  C6_12 
REMARK   11  A    between atoms: C8_14  and  C7_13 
REMARK   12  A    between atoms: C9_15  and  C9A_24 
REMARK   13  A    between atoms: C16_20  and  C24_31 
REMARK   14  A    between atoms: C18_25  and  C19_26 
REMARK   15  A    between atoms: C19_26  and  C20_27 
REMARK   16  A    between atoms: C19_26  and  C22_29 
REMARK   17  A    between atoms: C19_26  and  C23_30 
REMARK   18  A    between atoms: C20_27  and  C21_28 
ROOT
ATOM      1  C8  SIM d   1      -8.218  35.000  -5.406  0.00  0.00    -0.038 C 
ATOM      2  C9  SIM d   1      -6.867  35.615  -5.110  0.00  0.00    -0.037 C 
ATOM      3  C10 SIM d   1      -5.879  34.555  -4.781  0.00  0.00    -0.099 C 
ATOM      4  C11 SIM d   1      -6.275  33.477  -4.187  0.00  0.00    -0.080 C 
ATOM      5  C12 SIM d   1      -7.626  33.344  -3.672  0.00  0.00    -0.055 C 
ATOM      6  C17 SIM d   1      -7.902  32.505  -2.704  0.00  0.00    -0.093 C 
ATOM      7  C16 SIM d   1      -9.323  32.368  -2.290  0.00  0.00    -0.038 C 
ATOM      8  C15 SIM d   1     -10.225  32.294  -3.511  0.00  0.00    -0.034 C 
ATOM      9  C14 SIM d   1      -9.989  33.383  -4.531  0.00  0.00     0.056 C 
ATOM     10  C13 SIM d   1      -8.719  34.183  -4.238  0.00  0.00     0.001 C 
ATOM     11  H13 SIM d   1      -8.115  34.340  -6.280  0.00  0.00     0.042 H 
ATOM     12  H14 SIM d   1      -6.529  36.127  -6.023  0.00  0.00     0.046 H 
ATOM     13  H15 SIM d   1      -4.829  34.685  -5.038  0.00  0.00     0.077 H 
ATOM     14  H16 SIM d   1      -5.578  32.648  -4.070  0.00  0.00     0.083 H 
ATOM     15  H17 SIM d   1      -7.117  31.927  -2.219  0.00  0.00     0.078 H 
ATOM     16  H18 SIM d   1      -9.613  33.239  -1.684  0.00  0.00     0.045 H 
ATOM     17  H19 SIM d   1     -11.269  32.362  -3.171  0.00  0.00     0.037 H 
ATOM     18  H20 SIM d   1     -10.061  31.323  -4.001  0.00  0.00     0.037 H 
ATOM     19  H21 SIM d   1     -10.815  34.096  -4.392  0.00  0.00     0.085 H 
ATOM     20  H22 SIM d   1      -8.995  34.905  -3.455  0.00  0.00     0.051 H 
ENDROOT
BRANCH   1  21
ATOM     21  C7  SIM d   1      -9.221  36.064  -5.720  0.00  0.00    -0.058 C 
ATOM     22  H11 SIM d   1     -10.221  35.611  -5.784  0.00  0.00     0.033 H 
ATOM     23  H12 SIM d   1      -9.210  36.819  -4.920  0.00  0.00     0.033 H 
BRANCH  21  24
ATOM     24  C6  SIM d   1      -8.892  36.731  -7.038  0.00  0.00    -0.041 C 
ATOM     25  H9  SIM d   1      -7.940  37.275  -6.948  0.00  0.00     0.036 H 
ATOM     26  H10 SIM d   1      -8.805  35.968  -7.826  0.00  0.00     0.036 H 
BRANCH  24  27
ATOM     27  C5  SIM d   1      -9.996  37.697  -7.389  0.00  0.00     0.038 C 
ATOM     28  H8  SIM d   1     -10.909  37.143  -7.654  0.00  0.00     0.083 H 
BRANCH  27  29
ATOM     29  O5  SIM d   1     -10.247  38.567  -6.320  0.00  0.00    -0.395 OA
ATOM     30  H2  SIM d   1     -10.920  39.189  -6.570  0.00  0.00     0.210 HD
ENDBRANCH  27  29
BRANCH  27  31
ATOM     31  C4  SIM d   1      -9.543  38.542  -8.526  0.00  0.00    -0.017 C 
ATOM     32  H6  SIM d   1     -10.132  39.471  -8.545  0.00  0.00     0.040 H 
ATOM     33  H7  SIM d   1      -8.478  38.785  -8.396  0.00  0.00     0.040 H 
BRANCH  31  34
ATOM     34  C3  SIM d   1      -9.730  37.810  -9.824  0.00  0.00     0.047 C 
ATOM     35  H5  SIM d   1      -9.544  36.733  -9.699  0.00  0.00     0.083 H 
BRANCH  34  36
ATOM     36  O3  SIM d   1     -11.039  38.049 -10.274  0.00  0.00    -0.395 OA
ATOM     37  H1  SIM d   1     -11.181  38.985 -10.348  0.00  0.00     0.210 HD
ENDBRANCH  34  36
BRANCH  34  38
ATOM     38  C2  SIM d   1      -8.793  38.407 -10.835  0.00  0.00     0.039 C 
ATOM     39  H3  SIM d   1      -8.274  39.278 -10.409  0.00  0.00     0.052 H 
ATOM     40  H4  SIM d   1      -8.053  37.661 -11.159  0.00  0.00     0.052 H 
BRANCH  38  41
ATOM     41  C1  SIM d   1      -9.648  38.821 -11.980  0.00  0.00     0.175 C 
ATOM     42  O1A SIM d   1      -9.483  38.330 -13.074  0.00  0.00    -0.648 OA
ATOM     43  O1B SIM d   1     -10.595  39.727 -11.778  0.00  0.00    -0.648 OA
ENDBRANCH  38  41
ENDBRANCH  34  38
ENDBRANCH  31  34
ENDBRANCH  27  31
ENDBRANCH  24  27
ENDBRANCH  21  24
ENDBRANCH   1  21
BRANCH   2  44
ATOM     44  C9A SIM d   1      -6.910  36.646  -3.994  0.00  0.00    -0.069 C 
ATOM     45  H23 SIM d   1      -5.901  37.052  -3.830  0.00  0.00     0.028 H 
ATOM     46  H24 SIM d   1      -7.268  36.170  -3.069  0.00  0.00     0.028 H 
ATOM     47  H25 SIM d   1      -7.592  37.462  -4.275  0.00  0.00     0.028 H 
ENDBRANCH   2  44
BRANCH   9  48
ATOM     48  O14 SIM d   1     -10.113  32.942  -5.862  0.00  0.00    -0.315 OA
BRANCH  48  49
ATOM     49  C18 SIM d   1     -11.368  33.437  -6.504  0.00  0.00     0.267 C 
ATOM     50  O18 SIM d   1     -12.212  34.097  -5.945  0.00  0.00    -0.264 OA
BRANCH  49  51
ATOM     51  C19 SIM d   1     -11.768  33.080  -7.869  0.00  0.00     0.040 C 
BRANCH  51  52
ATOM     52  C20 SIM d   1     -10.917  33.673  -9.011  0.00  0.00    -0.053 C 
ATOM     53  H26 SIM d   1     -10.395  32.850  -9.521  0.00  0.00     0.034 H 
ATOM     54  H27 SIM d   1     -10.178  34.361  -8.575  0.00  0.00     0.034 H 
BRANCH  52  55
ATOM     55  C21 SIM d   1     -11.742  34.440 -10.046  0.00  0.00    -0.075 C 
ATOM     56  H28 SIM d   1     -11.075  34.834 -10.828  0.00  0.00     0.027 H 
ATOM     57  H29 SIM d   1     -12.263  35.275  -9.554  0.00  0.00     0.027 H 
ATOM     58  H30 SIM d   1     -12.480  33.763 -10.501  0.00  0.00     0.027 H 
ENDBRANCH  52  55
ENDBRANCH  51  52
BRANCH  51  59
ATOM     59  C22 SIM d   1     -11.819  31.528  -7.778  0.00  0.00    -0.060 C 
ATOM     60  H31 SIM d   1     -12.453  31.231  -6.929  0.00  0.00     0.029 H 
ATOM     61  H32 SIM d   1     -10.802  31.136  -7.631  0.00  0.00     0.029 H 
ATOM     62  H33 SIM d   1     -12.238  31.120  -8.709  0.00  0.00     0.029 H 
ENDBRANCH  51  59
BRANCH  51  63
ATOM     63  C23 SIM d   1     -13.069  33.788  -8.030  0.00  0.00    -0.060 C 
ATOM     64  H34 SIM d   1     -12.892  34.873  -8.081  0.00  0.00     0.029 H 
ATOM     65  H35 SIM d   1     -13.718  33.562  -7.171  0.00  0.00     0.029 H 
ATOM     66  H36 SIM d   1     -13.557  33.452  -8.957  0.00  0.00     0.029 H 
ENDBRANCH  51  63
ENDBRANCH  49  51
ENDBRANCH  48  49
ENDBRANCH   9  48
BRANCH   7  67
ATOM     67  C24 SIM d   1      -9.455  31.118  -1.463  0.00  0.00    -0.070 C 
ATOM     68  H37 SIM d   1      -8.796  31.188  -0.585  0.00  0.00     0.028 H 
ATOM     69  H38 SIM d   1      -9.167  30.246  -2.068  0.00  0.00     0.028 H 
ATOM     70  H39 SIM d   1     -10.498  31.006  -1.131  0.00  0.00     0.028 H 
ENDBRANCH   7  67
TORSDOF 18
