REMARK  7 active torsions:
REMARK  status: ('A' for Active; 'I' for Inactive)
REMARK    1  A    between atoms: N12_2  and  C15_4 
REMARK    2  A    between atoms: C15_4  and  C16_17 
REMARK    3  A    between atoms: N8_23  and  C17_5 
REMARK    4  A    between atoms: C19_18  and  C22_7 
REMARK    5  A    between atoms: C1_10  and  N8_23 
REMARK    6  A    between atoms: C3_12  and  N9_24 
REMARK    7  A    between atoms: C5_13  and  C7_14 
ROOT
ATOM      1  C1  DJX d   1      10.286   4.704  17.619  0.00  0.00     0.135 A 
ATOM      2  C2  DJX d   1       8.996   4.875  17.129  0.00  0.00     0.006 A 
ATOM      3  C3  DJX d   1       8.196   3.746  17.066  0.00  0.00     0.131 A 
ATOM      4  C5  DJX d   1       9.882   2.494  18.011  0.00  0.00     0.126 A 
ATOM      5  N4  DJX d   1       8.644   2.594  17.539  0.00  0.00    -0.216 NA
ATOM      6  N6  DJX d   1      10.699   3.523  18.046  0.00  0.00    -0.216 NA
ATOM      7  H10 DJX d   1       8.633   5.846  16.811  0.00  0.00     0.095 H 
ENDROOT
BRANCH   3   8
ATOM      8  N9  DJX d   1       6.819   3.866  16.650  0.00  0.00    -0.363 N 
ATOM      9  C10 DJX d   1       6.307   5.083  16.546  0.00  0.00     0.011 A 
ATOM     10  C11 DJX d   1       4.963   5.222  16.247  0.00  0.00     0.005 A 
ATOM     11  H1  DJX d   1       6.477   5.588  17.509  0.00  0.00     0.066 H 
ATOM     12  H2  DJX d   1       6.869   5.602  15.755  0.00  0.00     0.066 H 
ATOM     13  N12 DJX d   1       4.194   4.152  16.102  0.00  0.00    -0.410 N 
ATOM     14  H14 DJX d   1       4.906   5.782  15.302  0.00  0.00     0.066 H 
ATOM     15  H15 DJX d   1       4.520   5.822  17.056  0.00  0.00     0.066 H 
ATOM     16  C13 DJX d   1       4.719   2.943  16.256  0.00  0.00     0.005 A 
ATOM     17  C14 DJX d   1       6.062   2.785  16.553  0.00  0.00     0.011 A 
ATOM     18  H3  DJX d   1       4.540   2.401  15.316  0.00  0.00     0.066 H 
ATOM     19  H4  DJX d   1       4.159   2.459  17.070  0.00  0.00     0.066 H 
ATOM     20  H16 DJX d   1       6.497   2.154  15.764  0.00  0.00     0.066 H 
ATOM     21  H17 DJX d   1       6.122   2.259  17.517  0.00  0.00     0.066 H 
BRANCH  13  22
ATOM     22  C15 DJX d   1       2.781   4.297  15.768  0.00  0.00    -0.013 C 
ATOM     23  H5  DJX d   1       2.297   3.311  15.823  0.00  0.00     0.063 H 
ATOM     24  H6  DJX d   1       2.693   4.692  14.745  0.00  0.00     0.063 H 
BRANCH  22  25
ATOM     25  C16 DJX d   1       2.077   5.250  16.731  0.00  0.00    -0.061 C 
ATOM     26  H18 DJX d   1       1.017   5.336  16.452  0.00  0.00     0.029 H 
ATOM     27  H19 DJX d   1       2.552   6.241  16.679  0.00  0.00     0.029 H 
ATOM     28  H20 DJX d   1       2.155   4.859  17.756  0.00  0.00     0.029 H 
ENDBRANCH  22  25
ENDBRANCH  13  22
ENDBRANCH   3   8
BRANCH   1  29
ATOM     29  N8  DJX d   1      11.176   5.844  17.669  0.00  0.00    -0.320 N 
ATOM     30  H23 DJX d   1      10.868   6.740  17.265  0.00  0.00     0.169 HD
BRANCH  29  31
ATOM     31  C17 DJX d   1      12.497   5.755  18.277  0.00  0.00     0.172 A 
ATOM     32  N21 DJX d   1      13.332   6.790  18.294  0.00  0.00    -0.235 NA
ATOM     33  C20 DJX d   1      14.545   6.585  18.872  0.00  0.00     0.022 A 
ATOM     34  C19 DJX d   1      14.735   5.291  19.373  0.00  0.00     0.036 A 
ATOM     35  H7  DJX d   1      15.305   7.362  18.940  0.00  0.00     0.117 H 
ATOM     36  S18 DJX d   1      13.286   4.454  19.060  0.00  0.00    -0.050 SA
BRANCH  34  37
ATOM     37  C22 DJX d   1      16.017   4.826  20.056  0.00  0.00    -0.015 A 
ATOM     38  C23 DJX d   1      16.918   5.770  20.543  0.00  0.00    -0.055 A 
ATOM     39  C24 DJX d   1      18.098   5.330  21.119  0.00  0.00     0.003 A 
ATOM     40  H21 DJX d   1      16.700   6.829  20.472  0.00  0.00     0.087 H 
ATOM     41  N25 DJX d   1      18.359   4.040  21.209  0.00  0.00    -0.273 NA
ATOM     42  H8  DJX d   1      18.813   6.051  21.499  0.00  0.00     0.114 H 
ATOM     43  C26 DJX d   1      17.528   3.118  20.754  0.00  0.00     0.003 A 
ATOM     44  C27 DJX d   1      16.325   3.470  20.157  0.00  0.00    -0.055 A 
ATOM     45  H9  DJX d   1      17.790   2.070  20.849  0.00  0.00     0.114 H 
ATOM     46  H22 DJX d   1      15.646   2.713  19.781  0.00  0.00     0.087 H 
ENDBRANCH  34  37
ENDBRANCH  29  31
ENDBRANCH   1  29
BRANCH   4  47
ATOM     47  C7  DJX d   1      10.415   1.157  18.512  0.00  0.00    -0.019 C 
ATOM     48  H11 DJX d   1       9.629   0.393  18.424  0.00  0.00     0.037 H 
ATOM     49  H12 DJX d   1      10.716   1.254  19.565  0.00  0.00     0.037 H 
ATOM     50  H13 DJX d   1      11.284   0.859  17.908  0.00  0.00     0.037 H 
ENDBRANCH   4  47
TORSDOF 7
