REMARK  0 active torsions:
REMARK  status: ('A' for Active; 'I' for Inactive)
ROOT
ATOM      1  N1  URF d   1      -3.858  41.034  12.519  0.00  0.00    -0.316 N 
ATOM      2  C2  URF d   1      -5.011  41.136  11.808  0.00  0.00     0.327 A 
ATOM      3  N3  URF d   1      -6.153  40.536  12.213  0.00  0.00    -0.273 N 
ATOM      4  C4  URF d   1      -6.175  39.822  13.349  0.00  0.00     0.289 A 
ATOM      5  C5  URF d   1      -4.938  39.691  14.135  0.00  0.00     0.199 A 
ATOM      6  C6  URF d   1      -3.788  40.331  13.672  0.00  0.00     0.024 A 
ATOM      7  O2  URF d   1      -5.036  41.806  10.740  0.00  0.00    -0.247 OA
ATOM      8  O4  URF d   1      -7.206  39.259  13.773  0.00  0.00    -0.265 OA
ATOM      9  F5  URF d   1      -4.986  38.968  15.267  0.00  0.00    -0.199 F 
ATOM     10  H1  URF d   1      -3.037  41.492  12.180  0.00  0.00     0.170 HD
ATOM     11  H2  URF d   1      -6.984  40.625  11.664  0.00  0.00     0.173 HD
ATOM     12  H3  URF d   1      -2.854  40.266  14.227  0.00  0.00     0.116 H 
ENDROOT
TORSDOF 0
