REMARK WARNING: 32 MAX_TORS EXCEEDED!!!
REMARK  78 active torsions:
REMARK  status: ('A' for Active; 'I' for Inactive)
REMARK    1  A    between atoms: CA_2  and  N_1 
REMARK    2  A    between atoms: C_3  and  CA_2 
REMARK    3  A    between atoms: CA_2  and  CB_5 
REMARK       I    between atoms: N_8  and  C_3 
REMARK    4  A    between atoms: CB_5  and  OG1_6 
REMARK    5  A    between atoms: CB_5  and  CG2_7 
REMARK    6  A    between atoms: CA_9  and  N_8 
REMARK    7  A    between atoms: C_10  and  CA_9 
REMARK    8  A    between atoms: CA_9  and  CB_12 
REMARK       I    between atoms: N_13  and  C_10 
REMARK    9  A    between atoms: CA_14  and  N_13 
REMARK   10  A    between atoms: C_15  and  CA_14 
REMARK   11  A    between atoms: CA_14  and  CB_17 
REMARK       I    between atoms: N_24  and  C_15 
REMARK   12  A    between atoms: CB_17  and  CG_18 
REMARK   13  A    between atoms: CG_18  and  CD_19 
REMARK   14  A    between atoms: CD_19  and  NE_20 
REMARK       I    between atoms: NE_20  and  CZ_21 
REMARK       I    between atoms: CZ_21  and  NH1_22 
REMARK       I    between atoms: CZ_21  and  NH2_23 
REMARK   15  A    between atoms: CA_25  and  N_24 
REMARK   16  A    between atoms: C_26  and  CA_25 
REMARK   17  A    between atoms: CA_25  and  CB_28 
REMARK       I    between atoms: N_33  and  C_26 
REMARK   18  A    between atoms: CB_28  and  CG_29 
REMARK   19  A    between atoms: CG_29  and  CD_30 
REMARK   20  A    between atoms: CD_30  and  CE_31 
REMARK   21  A    between atoms: CE_31  and  NZ_32 
REMARK   22  A    between atoms: CA_34  and  N_33 
REMARK   23  A    between atoms: C_35  and  CA_34 
REMARK   24  A    between atoms: CA_34  and  CB_37 
REMARK       I    between atoms: N_39  and  C_35 
REMARK   25  A    between atoms: CB_37  and  OG_38 
REMARK   26  A    between atoms: CA_40  and  N_39 
REMARK   27  A    between atoms: C_41  and  CA_40 
REMARK   28  A    between atoms: CA_40  and  CB_43 
REMARK       I    between atoms: N_46  and  C_41 
REMARK   29  A    between atoms: CB_43  and  OG1_44 
REMARK   30  A    between atoms: CB_43  and  CG2_45 
REMARK   31  A    between atoms: CA_47  and  N_46 
REMARK   32  A    between atoms: C_48  and  CA_47 
REMARK       I    between atoms: N_50  and  C_48 
REMARK   33  A    between atoms: CA_51  and  N_50 
REMARK   34  A    between atoms: C_52  and  CA_51 
REMARK       I    between atoms: N_63  and  C_52 
REMARK   35  A    between atoms: CH_55  and  CH3_56 
REMARK       I    between atoms: NZ_57  and  CH_55 
REMARK   36  A    between atoms: CE_58  and  NZ_57 
REMARK   37  A    between atoms: CD_59  and  CE_58 
REMARK   38  A    between atoms: CG_60  and  CD_59 
REMARK   39  A    between atoms: CB_61  and  CG_60 
REMARK   40  A    between atoms: CA_62  and  CB_61 
REMARK   41  A    between atoms: CA_62  and  N_63 
REMARK   42  A    between atoms: CA_62  and  C_64 
REMARK       I    between atoms: C_64  and  N_66 
REMARK   43  A    between atoms: N_66  and  CA_67 
REMARK   44  A    between atoms: CA_67  and  C_68 
REMARK   45  A    between atoms: CA_67  and  CB_70 
REMARK       I    between atoms: C_68  and  N_71 
REMARK   46  A    between atoms: CA_72  and  C_73 
REMARK       I    between atoms: C_73  and  N_78 
REMARK   47  A    between atoms: N_78  and  CA_79 
REMARK   48  A    between atoms: CA_79  and  C_80 
REMARK   49  A    between atoms: CA_79  and  CB_82 
REMARK       I    between atoms: C_80  and  N_89 
REMARK   50  A    between atoms: CB_82  and  CG_83 
REMARK   51  A    between atoms: CG_83  and  CD_84 
REMARK   52  A    between atoms: CD_84  and  NE_85 
REMARK       I    between atoms: NE_85  and  CZ_86 
REMARK       I    between atoms: CZ_86  and  NH1_87 
REMARK   53  A    between atoms: N_89  and  CA_90 
REMARK   54  A    between atoms: CA_90  and  C_91 
REMARK   55  A    between atoms: CA_90  and  CB_93 
REMARK       I    between atoms: C_91  and  N_98 
REMARK   56  A    between atoms: CB_93  and  CG_94 
REMARK   57  A    between atoms: CG_94  and  CD_95 
REMARK   58  A    between atoms: CD_95  and  CE_96 
REMARK   59  A    between atoms: CE_96  and  NZ_97 
REMARK   60  A    between atoms: N_98  and  CA_99 
REMARK   61  A    between atoms: CA_99  and  C_100 
REMARK   62  A    between atoms: CA_99  and  CB_102 
REMARK       I    between atoms: C_100  and  N_107 
REMARK   63  A    between atoms: CB_102  and  CG_103 
REMARK   64  A    between atoms: CG_103  and  CD_104 
REMARK       I    between atoms: CD_104  and  NE2_106 
REMARK   65  A    between atoms: N_107  and  CA_108 
REMARK   66  A    between atoms: CA_108  and  C_109 
REMARK   67  A    between atoms: CA_108  and  CB_111 
REMARK       I    between atoms: C_109  and  N_115 
REMARK   68  A    between atoms: CB_111  and  CG_112 
REMARK   69  A    between atoms: CG_112  and  CD1_113 
REMARK   70  A    between atoms: CG_112  and  CD2_114 
REMARK   71  A    between atoms: N_115  and  CA_116 
REMARK   72  A    between atoms: CA_116  and  C_117 
REMARK   73  A    between atoms: CA_116  and  CB_119 
REMARK       I    between atoms: C_117  and  N_120 
REMARK   74  A    between atoms: N_120  and  CA_121 
REMARK   75  A    between atoms: CA_121  and  C_122 
REMARK   76  A    between atoms: CA_121  and  CB_124 
REMARK   77  A    between atoms: CB_124  and  CG_125 
REMARK   78  A    between atoms: CZ_130  and  OH_131 
ROOT
ATOM      1  C   THR d   1       1.826 -11.710  -7.376  0.00  0.00     0.241 C 
ATOM      2  O   THR d   1       2.634 -11.312  -6.532  0.00  0.00    -0.271 OA
ATOM      3  N   THR d   1       0.582 -11.279  -7.395  0.00  0.00    -0.346 N 
ATOM      4  H73 THR d   1      -0.045 -11.619  -8.096  0.00  0.00     0.163 HD
ENDROOT
BRANCH   3   5
ATOM      5  CA  THR d   1       0.102 -10.314  -6.412  0.00  0.00     0.086 C 
ATOM      6  H74 THR d   1       0.867 -10.237  -5.625  0.00  0.00     0.086 H 
BRANCH   5   7
ATOM      7  C   THR d   1      -1.186 -10.785  -5.743  0.00  0.00     0.243 C 
ATOM      8  O   THR d   1      -2.232 -10.116  -5.811  0.00  0.00    -0.271 OA
ATOM      9  N   THR d   1      -1.114 -11.935  -5.057  0.00  0.00    -0.337 N 
ATOM     10  CA  THR d   1      -2.335 -12.479  -4.449  0.00  0.00     0.091 C 
ATOM     11  CD  THR d   1       0.080 -12.726  -4.710  0.00  0.00    -0.001 C 
ATOM     12  CB  THR d   1      -1.868 -13.734  -3.691  0.00  0.00    -0.036 C 
ATOM     13  H78 THR d   1      -3.056 -12.754  -5.232  0.00  0.00     0.087 H 
ATOM     14  CG  THR d   1      -0.393 -13.573  -3.560  0.00  0.00    -0.048 C 
ATOM     15  H79 THR d   1      -2.109 -14.643  -4.261  0.00  0.00     0.036 H 
ATOM     16  H80 THR d   1      -2.341 -13.786  -2.700  0.00  0.00     0.036 H 
ATOM     17  H81 THR d   1       0.096 -14.558  -3.595  0.00  0.00     0.035 H 
ATOM     18  H82 THR d   1      -0.153 -13.078  -2.607  0.00  0.00     0.035 H 
ATOM     19  H83 THR d   1       0.911 -12.073  -4.404  0.00  0.00     0.064 H 
ATOM     20  H84 THR d   1       0.398 -13.352  -5.556  0.00  0.00     0.064 H 
BRANCH  10  21
ATOM     21  C   THR d   1      -2.994 -11.480  -3.502  0.00  0.00     0.241 C 
ATOM     22  O   THR d   1      -2.323 -10.763  -2.732  0.00  0.00    -0.271 OA
ATOM     23  N   THR d   1      -4.339 -11.496  -3.519  0.00  0.00    -0.346 N 
ATOM     24  H85 THR d   1      -4.836 -11.949  -4.259  0.00  0.00     0.163 HD
BRANCH  23  25
ATOM     25  CA  THR d   1      -5.052 -10.838  -2.436  0.00  0.00     0.089 C 
ATOM     26  H86 THR d   1      -4.825  -9.762  -2.435  0.00  0.00     0.087 H 
BRANCH  25  27
ATOM     27  C   THR d   1      -4.589 -11.454  -1.122  0.00  0.00     0.241 C 
ATOM     28  O   THR d   1      -4.328 -12.656  -1.045  0.00  0.00    -0.271 OA
ATOM     29  N   THR d   1      -4.488 -10.603  -0.090  0.00  0.00    -0.346 N 
ATOM     30  H98 THR d   1      -4.809  -9.661  -0.184  0.00  0.00     0.163 HD
BRANCH  29  31
ATOM     31  CA  THR d   1      -3.908 -11.056   1.171  0.00  0.00     0.089 C 
ATOM     32  H99 THR d   1      -2.857 -11.316   0.977  0.00  0.00     0.087 H 
BRANCH  31  33
ATOM     33  C   THR d   1      -4.591 -12.303   1.725  0.00  0.00     0.241 C 
ATOM     34  O   THR d   1      -3.926 -13.204   2.263  0.00  0.00    -0.271 OA
ATOM     35  N   THR d   1      -5.912 -12.380   1.669  0.00  0.00    -0.346 N 
ATOM     36 1H11 THR d   1      -6.454 -11.650   1.252  0.00  0.00     0.163 HD
BRANCH  35  37
ATOM     37  CA  THR d   1      -6.544 -13.552   2.229  0.00  0.00     0.090 C 
ATOM     38 2H11 THR d   1      -6.203 -13.649   3.270  0.00  0.00     0.087 H 
BRANCH  37  39
ATOM     39  C   THR d   1      -6.146 -14.816   1.498  0.00  0.00     0.241 C 
ATOM     40  O   THR d   1      -6.134 -15.913   2.093  0.00  0.00    -0.271 OA
ATOM     41  N   THR d   1      -5.733 -14.691   0.220  0.00  0.00    -0.346 N 
ATOM     42 9H11 THR d   1      -5.686 -13.787  -0.205  0.00  0.00     0.163 HD
BRANCH  41  43
ATOM     43  CA  THR d   1      -5.356 -15.876  -0.541  0.00  0.00     0.089 C 
ATOM     44 0H12 THR d   1      -5.980 -16.710  -0.188  0.00  0.00     0.087 H 
BRANCH  43  45
ATOM     45  C   THR d   1      -3.907 -16.269  -0.318  0.00  0.00     0.241 C 
ATOM     46  O   THR d   1      -3.464 -17.263  -0.911  0.00  0.00    -0.271 OA
ATOM     47  N   THR d   1      -3.151 -15.490   0.462  0.00  0.00    -0.346 N 
ATOM     48 0H13 THR d   1      -3.547 -14.641   0.811  0.00  0.00     0.163 HD
BRANCH  47  49
ATOM     49  CA  THR d   1      -1.781 -15.814   0.829  0.00  0.00     0.086 C 
ATOM     50 1H13 THR d   1      -1.304 -16.344  -0.008  0.00  0.00     0.086 H 
BRANCH  49  51
ATOM     51  C   THR d   1      -1.731 -16.697   2.060  0.00  0.00     0.240 C 
ATOM     52  O   THR d   1      -0.654 -17.153   2.445  0.00  0.00    -0.271 OA
ATOM     53  N   THR d   1      -2.866 -16.979   2.663  0.00  0.00    -0.344 N 
ATOM     54 5H13 THR d   1      -3.705 -16.524   2.366  0.00  0.00     0.163 HD
BRANCH  53  55
ATOM     55  CA  THR d   1      -2.922 -17.934   3.746  0.00  0.00     0.100 C 
ATOM     56 6H13 THR d   1      -2.005 -17.819   4.343  0.00  0.00     0.090 H 
BRANCH  55  57
ATOM     57  C   THR d   1      -2.991 -19.371   3.247  0.00  0.00     0.197 C 
ATOM     58  O   THR d   1      -3.009 -20.312   4.061  0.00  0.00    -0.646 OA
ATOM     59  OXT THR d   1      -3.029 -19.604   2.025  0.00  0.00    -0.646 OA
ENDBRANCH  55  57
BRANCH  55  60
ATOM     60  CB  THR d   1      -4.116 -17.680   4.645  0.00  0.00    -0.013 C 
ATOM     61 7H13 THR d   1      -4.290 -18.588   5.241  0.00  0.00     0.043 H 
ATOM     62 8H13 THR d   1      -4.989 -17.489   4.003  0.00  0.00     0.043 H 
BRANCH  60  63
ATOM     63  CG  THR d   1      -3.979 -16.538   5.581  0.00  0.00    -0.056 A 
ATOM     64  CD1 THR d   1      -4.340 -15.266   5.172  0.00  0.00    -0.074 A 
ATOM     65  CE1 THR d   1      -4.247 -14.191   6.040  0.00  0.00    -0.051 A 
ATOM     66 9H13 THR d   1      -4.699 -15.110   4.161  0.00  0.00     0.084 H 
ATOM     67  CZ  THR d   1      -3.800 -14.400   7.313  0.00  0.00     0.065 A 
ATOM     68 1H14 THR d   1      -4.526 -13.196   5.713  0.00  0.00     0.087 H 
ATOM     69  CE2 THR d   1      -3.452 -15.659   7.748  0.00  0.00    -0.051 A 
ATOM     70  CD2 THR d   1      -3.511 -16.720   6.871  0.00  0.00    -0.074 A 
ATOM     71 2H14 THR d   1      -3.134 -15.814   8.773  0.00  0.00     0.087 H 
ATOM     72 0H14 THR d   1      -3.189 -17.704   7.193  0.00  0.00     0.084 H 
BRANCH  67  73
ATOM     73  OH  THR d   1      -3.662 -13.378   8.267  0.00  0.00    -0.361 OA
ATOM     74 3H14 THR d   1      -4.215 -13.569   9.016  0.00  0.00     0.217 HD
ENDBRANCH  67  73
ENDBRANCH  60  63
ENDBRANCH  55  60
ENDBRANCH  53  55
ENDBRANCH  49  51
BRANCH  49  75
ATOM     75  CB  THR d   1      -1.024 -14.520   1.104  0.00  0.00    -0.049 C 
ATOM     76 2H13 THR d   1       0.014 -14.755   1.383  0.00  0.00     0.030 H 
ATOM     77 3H13 THR d   1      -1.511 -13.978   1.928  0.00  0.00     0.030 H 
ATOM     78 4H13 THR d   1      -1.028 -13.893   0.200  0.00  0.00     0.030 H 
ENDBRANCH  49  75
ENDBRANCH  47  49
ENDBRANCH  43  45
BRANCH  43  79
ATOM     79  CB  THR d   1      -5.659 -15.663  -2.042  0.00  0.00    -0.035 C 
ATOM     80 1H12 THR d   1      -5.408 -16.591  -2.577  0.00  0.00     0.037 H 
ATOM     81 2H12 THR d   1      -5.021 -14.845  -2.407  0.00  0.00     0.037 H 
BRANCH  79  82
ATOM     82  CG  THR d   1      -7.119 -15.308  -2.360  0.00  0.00    -0.059 C 
ATOM     83 3H12 THR d   1      -7.380 -14.372  -1.844  0.00  0.00     0.038 H 
BRANCH  82  84
ATOM     84  CD1 THR d   1      -7.249 -15.113  -3.872  0.00  0.00    -0.073 C 
ATOM     85 4H12 THR d   1      -8.290 -14.858  -4.121  0.00  0.00     0.028 H 
ATOM     86 5H12 THR d   1      -6.967 -16.043  -4.387  0.00  0.00     0.028 H 
ATOM     87 6H12 THR d   1      -6.584 -14.298  -4.195  0.00  0.00     0.028 H 
ENDBRANCH  82  84
BRANCH  82  88
ATOM     88  CD2 THR d   1      -8.084 -16.403  -1.914  0.00  0.00    -0.073 C 
ATOM     89 7H12 THR d   1      -7.996 -16.549  -0.827  0.00  0.00     0.028 H 
ATOM     90 8H12 THR d   1      -7.837 -17.342  -2.431  0.00  0.00     0.028 H 
ATOM     91 9H12 THR d   1      -9.114 -16.107  -2.162  0.00  0.00     0.028 H 
ENDBRANCH  82  88
ENDBRANCH  79  82
ENDBRANCH  43  79
ENDBRANCH  41  43
ENDBRANCH  37  39
BRANCH  37  92
ATOM     92  CB  THR d   1      -8.053 -13.390   2.247  0.00  0.00    -0.030 C 
ATOM     93 3H11 THR d   1      -8.295 -12.429   2.724  0.00  0.00     0.037 H 
ATOM     94 4H11 THR d   1      -8.485 -14.212   2.837  0.00  0.00     0.037 H 
BRANCH  92  95
ATOM     95  CG  THR d   1      -8.677 -13.411   0.867  0.00  0.00     0.011 C 
ATOM     96 5H11 THR d   1      -8.439 -14.367   0.377  0.00  0.00     0.047 H 
ATOM     97 6H11 THR d   1      -8.267 -12.582   0.272  0.00  0.00     0.047 H 
BRANCH  95  98
ATOM     98  CD  THR d   1     -10.198 -13.259   0.963  0.00  0.00     0.215 C 
ATOM     99  OE1 THR d   1     -10.748 -12.212   0.619  0.00  0.00    -0.274 OA
ATOM    100  NE2 THR d   1     -10.851 -14.268   1.466  0.00  0.00    -0.370 N 
ATOM    101 7H11 THR d   1     -11.846 -14.226   1.554  0.00  0.00     0.159 HD
ATOM    102 8H11 THR d   1     -10.357 -15.085   1.765  0.00  0.00     0.159 HD
ENDBRANCH  95  98
ENDBRANCH  92  95
ENDBRANCH  37  92
ENDBRANCH  35  37
ENDBRANCH  31  33
BRANCH  31 103
ATOM    103  CB  THR d   1      -3.931  -9.938   2.184  0.00  0.00    -0.038 C 
ATOM    104 0H10 THR d   1      -4.974  -9.658   2.395  0.00  0.00     0.036 H 
ATOM    105 1H10 THR d   1      -3.393  -9.068   1.780  0.00  0.00     0.036 H 
BRANCH 103 106
ATOM    106  CG  THR d   1      -3.262 -10.392   3.468  0.00  0.00    -0.061 C 
ATOM    107 2H10 THR d   1      -3.888 -11.159   3.948  0.00  0.00     0.033 H 
ATOM    108 3H10 THR d   1      -3.157  -9.530   4.143  0.00  0.00     0.033 H 
BRANCH 106 109
ATOM    109  CD  THR d   1      -1.881 -10.978   3.189  0.00  0.00    -0.043 C 
ATOM    110 4H10 THR d   1      -1.288 -10.247   2.620  0.00  0.00     0.035 H 
ATOM    111 5H10 THR d   1      -1.994 -11.899   2.597  0.00  0.00     0.035 H 
BRANCH 109 112
ATOM    112  CE  THR d   1      -1.164 -11.302   4.472  0.00  0.00     0.080 C 
ATOM    113 6H10 THR d   1      -0.097 -11.448   4.247  0.00  0.00     0.075 H 
ATOM    114 7H10 THR d   1      -1.583 -12.234   4.879  0.00  0.00     0.075 H 
BRANCH 112 115
ATOM    115  NZ  THR d   1      -1.285 -10.239   5.510  0.00  0.00    -0.079 N 
ATOM    116 8H10 THR d   1      -0.784 -10.520   6.338  0.00  0.00     0.274 HD
ATOM    117 9H10 THR d   1      -2.257 -10.100   5.736  0.00  0.00     0.274 HD
ATOM    118 0H11 THR d   1      -0.895  -9.379   5.157  0.00  0.00     0.274 HD
ENDBRANCH 112 115
ENDBRANCH 109 112
ENDBRANCH 106 109
ENDBRANCH 103 106
ENDBRANCH  31 103
ENDBRANCH  29  31
ENDBRANCH  25  27
BRANCH  25 119
ATOM    119  CB  THR d   1      -6.540 -11.037  -2.651  0.00  0.00    -0.036 C 
ATOM    120  H87 THR d   1      -7.072 -10.771  -1.726  0.00  0.00     0.036 H 
ATOM    121  H88 THR d   1      -6.727 -12.094  -2.890  0.00  0.00     0.036 H 
BRANCH 119 122
ATOM    122  CG  THR d   1      -7.067 -10.176  -3.786  0.00  0.00    -0.048 C 
ATOM    123  H89 THR d   1      -6.728 -10.610  -4.738  0.00  0.00     0.035 H 
ATOM    124  H90 THR d   1      -6.652  -9.163  -3.676  0.00  0.00     0.035 H 
BRANCH 122 125
ATOM    125  CD  THR d   1      -8.576 -10.075  -3.816  0.00  0.00     0.009 C 
ATOM    126  H91 THR d   1      -8.875  -9.270  -4.503  0.00  0.00     0.064 H 
ATOM    127  H92 THR d   1      -8.948  -9.852  -2.805  0.00  0.00     0.064 H 
BRANCH 125 128
ATOM    128  NE  THR d   1      -9.146 -11.342  -4.275  0.00  0.00    -0.227 N 
ATOM    129  CZ  THR d   1     -10.157 -12.006  -3.694  0.00  0.00     0.665 C 
ATOM    130  NH1 THR d   1     -10.646 -11.605  -2.505  0.00  0.00    -0.235 N 
ATOM    131  NH2 THR d   1     -10.611 -13.128  -4.278  0.00  0.00    -0.235 N 
ATOM    132  H94 THR d   1     -11.422 -12.121  -2.067  0.00  0.00     0.174 HD
ATOM    133  H95 THR d   1     -10.244 -10.782  -2.034  0.00  0.00     0.174 HD
ATOM    134  H96 THR d   1     -10.230 -13.426  -5.188  0.00  0.00     0.174 HD
ATOM    135  H97 THR d   1     -11.340 -13.690  -3.816  0.00  0.00     0.174 HD
ATOM    136  H93 THR d   1      -8.734 -11.762  -5.120  0.00  0.00     0.177 HD
ENDBRANCH 125 128
ENDBRANCH 122 125
ENDBRANCH 119 122
ENDBRANCH  25 119
ENDBRANCH  23  25
ENDBRANCH  10  21
ENDBRANCH   5   7
BRANCH   5 137
ATOM    137  CB  THR d   1      -0.047  -8.904  -7.051  0.00  0.00    -0.049 C 
ATOM    138  H75 THR d   1      -0.409  -8.194  -6.293  0.00  0.00     0.030 H 
ATOM    139  H76 THR d   1      -0.766  -8.952  -7.882  0.00  0.00     0.030 H 
ATOM    140  H77 THR d   1       0.929  -8.568  -7.430  0.00  0.00     0.030 H 
ENDBRANCH   5 137
ENDBRANCH   3   5
BRANCH   1 141
ATOM    141  CA  THR d   1       2.199 -12.747  -8.428  0.00  0.00     0.089 C 
ATOM    142  H71 THR d   1       1.965 -12.315  -9.412  0.00  0.00     0.087 H 
BRANCH 141 143
ATOM    143  CB  THR d   1       1.389 -14.068  -8.292  0.00  0.00    -0.038 C 
ATOM    144  H69 THR d   1       1.572 -14.501  -7.298  0.00  0.00     0.036 H 
ATOM    145  H70 THR d   1       0.318 -13.845  -8.403  0.00  0.00     0.036 H 
BRANCH 143 146
ATOM    146  CG  THR d   1       1.804 -15.085  -9.366  0.00  0.00    -0.061 C 
ATOM    147  H67 THR d   1       1.676 -14.643 -10.365  0.00  0.00     0.033 H 
ATOM    148  H68 THR d   1       2.857 -15.368  -9.222  0.00  0.00     0.033 H 
BRANCH 146 149
ATOM    149  CD  THR d   1       0.923 -16.308  -9.232  0.00  0.00    -0.050 C 
ATOM    150  H65 THR d   1       1.405 -17.145  -9.758  0.00  0.00     0.035 H 
ATOM    151  H66 THR d   1       0.825 -16.553  -8.164  0.00  0.00     0.035 H 
BRANCH 149 152
ATOM    152  CE  THR d   1      -0.477 -16.109  -9.815  0.00  0.00    -0.005 C 
ATOM    153  H63 THR d   1      -1.098 -16.974  -9.538  0.00  0.00     0.064 H 
ATOM    154  H64 THR d   1      -0.909 -15.194  -9.384  0.00  0.00     0.064 H 
BRANCH 152 155
ATOM    155  NZ  THR d   1      -0.477 -15.986 -11.232  0.00  0.00    -0.361 N 
ATOM    156  CH  THR d   1      -1.554 -15.561 -11.894  0.00  0.00     0.213 C 
ATOM    157  OH  THR d   1      -2.572 -15.220 -11.269  0.00  0.00    -0.274 OA
ATOM    158  H62 THR d   1       0.349 -16.224 -11.743  0.00  0.00     0.162 HD
BRANCH 156 159
ATOM    159  CH3 THR d   1      -1.477 -15.449 -13.367  0.00  0.00    -0.003 C 
ATOM    160  H59 THR d   1      -0.494 -15.803 -13.711  0.00  0.00     0.040 H 
ATOM    161  H60 THR d   1      -1.612 -14.398 -13.662  0.00  0.00     0.040 H 
ATOM    162  H61 THR d   1      -2.268 -16.062 -13.823  0.00  0.00     0.040 H 
ENDBRANCH 156 159
ENDBRANCH 152 155
ENDBRANCH 149 152
ENDBRANCH 146 149
ENDBRANCH 143 146
ENDBRANCH 141 143
BRANCH 141 163
ATOM    163  N   THR d   1       3.633 -13.034  -8.392  0.00  0.00    -0.346 N 
ATOM    164  C   THR d   1       4.548 -12.119  -8.684  0.00  0.00     0.236 C 
ATOM    165  O   THR d   1       4.322 -10.990  -9.170  0.00  0.00    -0.272 OA
ATOM    166  H72 THR d   1       3.934 -13.953  -8.138  0.00  0.00     0.163 HD
BRANCH 164 167
ATOM    167  CA  THR d   1       5.958 -12.551  -8.347  0.00  0.00     0.069 C 
ATOM    168  H57 THR d   1       6.092 -12.441  -7.261  0.00  0.00     0.078 H 
ATOM    169  H58 THR d   1       6.060 -13.611  -8.623  0.00  0.00     0.078 H 
BRANCH 167 170
ATOM    170  N   THR d   1       7.027 -11.817  -9.003  0.00  0.00    -0.351 N 
ATOM    171  C   THR d   1       7.206 -11.895 -10.312  0.00  0.00     0.235 C 
ATOM    172  O   THR d   1       6.497 -12.633 -11.026  0.00  0.00    -0.272 OA
ATOM    173  H56 THR d   1       7.637 -11.244  -8.456  0.00  0.00     0.163 HD
BRANCH 171 174
ATOM    174  CA  THR d   1       8.338 -11.117 -10.960  0.00  0.00     0.069 C 
ATOM    175  H54 THR d   1       8.965 -11.829 -11.516  0.00  0.00     0.078 H 
ATOM    176  H55 THR d   1       7.896 -10.393 -11.660  0.00  0.00     0.078 H 
BRANCH 174 177
ATOM    177  N   THR d   1       9.191 -10.390 -10.044  0.00  0.00    -0.350 N 
ATOM    178  C   THR d   1      10.158 -10.994  -9.367  0.00  0.00     0.243 C 
ATOM    179  O   THR d   1      10.402 -12.201  -9.509  0.00  0.00    -0.271 OA
ATOM    180  H53 THR d   1       9.047  -9.408  -9.919  0.00  0.00     0.163 HD
BRANCH 178 181
ATOM    181  CA  THR d   1      10.941 -10.185  -8.358  0.00  0.00     0.113 C 
ATOM    182  H47 THR d   1      12.012 -10.250  -8.602  0.00  0.00     0.091 H 
BRANCH 181 183
ATOM    183  N   THR d   1      10.555  -8.774  -8.336  0.00  0.00    -0.344 N 
ATOM    184  C   THR d   1      11.068  -7.895  -9.202  0.00  0.00     0.243 C 
ATOM    185  O   THR d   1      11.933  -8.224 -10.030  0.00  0.00    -0.271 OA
ATOM    186  H46 THR d   1       9.892  -8.460  -7.657  0.00  0.00     0.163 HD
BRANCH 184 187
ATOM    187  CA  THR d   1      10.576  -6.441  -9.140  0.00  0.00     0.109 C 
ATOM    188  H42 THR d   1      10.723  -6.006 -10.140  0.00  0.00     0.090 H 
BRANCH 187 189
ATOM    189  N   THR d   1       9.145  -6.314  -8.824  0.00  0.00    -0.344 N 
ATOM    190  C   THR d   1       8.251  -6.871  -9.635  0.00  0.00     0.241 C 
ATOM    191  O   THR d   1       8.572  -7.660 -10.524  0.00  0.00    -0.271 OA
ATOM    192  H41 THR d   1       8.848  -5.815  -8.010  0.00  0.00     0.163 HD
BRANCH 190 193
ATOM    193  CA  THR d   1       6.787  -6.492  -9.424  0.00  0.00     0.089 C 
ATOM    194  H29 THR d   1       6.729  -5.562  -8.839  0.00  0.00     0.087 H 
BRANCH 193 195
ATOM    195  N   THR d   1       6.124  -6.296 -10.714  0.00  0.00    -0.346 N 
ATOM    196  C   THR d   1       6.632  -5.508 -11.659  0.00  0.00     0.241 C 
ATOM    197  O   THR d   1       7.612  -4.773 -11.475  0.00  0.00    -0.271 OA
ATOM    198  H28 THR d   1       5.261  -6.769 -10.891  0.00  0.00     0.163 HD
BRANCH 196 199
ATOM    199  CA  THR d   1       5.999  -5.641 -13.040  0.00  0.00     0.089 C 
ATOM    200  H16 THR d   1       4.985  -6.054 -12.938  0.00  0.00     0.087 H 
BRANCH 199 201
ATOM    201  N   THR d   1       5.936  -4.330 -13.685  0.00  0.00    -0.346 N 
ATOM    202  C   THR d   1       5.232  -3.335 -13.168  0.00  0.00     0.240 C 
ATOM    203  O   THR d   1       4.599  -3.436 -12.126  0.00  0.00    -0.271 OA
ATOM    204  H15 THR d   1       6.437  -4.181 -14.538  0.00  0.00     0.163 HD
BRANCH 202 205
ATOM    205  CA  THR d   1       5.337  -2.014 -13.908  0.00  0.00     0.086 C 
ATOM    206  H11 THR d   1       5.643  -2.216 -14.945  0.00  0.00     0.086 H 
BRANCH 205 207
ATOM    207  N   THR d   1       4.066  -1.299 -13.933  0.00  0.00    -0.346 N 
ATOM    208  C   THR d   1       2.979  -1.853 -14.459  0.00  0.00     0.251 C 
ATOM    209  O   THR d   1       2.929  -3.038 -14.860  0.00  0.00    -0.271 OA
ATOM    210  H10 THR d   1       4.012  -0.378 -13.548  0.00  0.00     0.163 HD
BRANCH 208 211
ATOM    211  CA  THR d   1       1.766  -0.968 -14.519  0.00  0.00     0.199 C 
ATOM    212  H4  THR d   1       2.081   0.077 -14.659  0.00  0.00     0.103 H 
BRANCH 211 213
ATOM    213  N   THR d   1       0.938  -1.374 -15.660  0.00  0.00    -0.064 N 
ATOM    214  H1  THR d   1       1.472  -1.287 -16.511  0.00  0.00     0.275 HD
ATOM    215  H2  THR d   1       0.124  -0.782 -15.712  0.00  0.00     0.275 HD
ATOM    216  H3  THR d   1       0.649  -2.332 -15.541  0.00  0.00     0.275 HD
ENDBRANCH 211 213
BRANCH 211 217
ATOM    217  CB  THR d   1       1.003  -1.082 -13.206  0.00  0.00     0.068 C 
ATOM    218  H5  THR d   1       1.433  -0.381 -12.475  0.00  0.00     0.086 H 
BRANCH 217 219
ATOM    219  OG1 THR d   1       1.110  -2.410 -12.715  0.00  0.00    -0.393 OA
ATOM    220  H6  THR d   1       2.025  -2.620 -12.571  0.00  0.00     0.210 HD
ENDBRANCH 217 219
BRANCH 217 221
ATOM    221  CG2 THR d   1      -0.461  -0.760 -13.409  0.00  0.00    -0.050 C 
ATOM    222  H7  THR d   1      -0.992  -0.848 -12.450  0.00  0.00     0.031 H 
ATOM    223  H8  THR d   1      -0.894  -1.464 -14.134  0.00  0.00     0.031 H 
ATOM    224  H9  THR d   1      -0.561   0.267 -13.790  0.00  0.00     0.031 H 
ENDBRANCH 217 221
ENDBRANCH 211 217
ENDBRANCH 208 211
ENDBRANCH 205 207
BRANCH 205 225
ATOM    225  CB  THR d   1       6.403  -1.147 -13.232  0.00  0.00    -0.049 C 
ATOM    226  H12 THR d   1       7.360  -1.689 -13.215  0.00  0.00     0.030 H 
ATOM    227  H13 THR d   1       6.092  -0.920 -12.202  0.00  0.00     0.030 H 
ATOM    228  H14 THR d   1       6.523  -0.209 -13.794  0.00  0.00     0.030 H 
ENDBRANCH 205 225
ENDBRANCH 202 205
ENDBRANCH 199 201
BRANCH 199 229
ATOM    229  CB  THR d   1       6.844  -6.563 -13.920  0.00  0.00    -0.036 C 
ATOM    230  H17 THR d   1       7.856  -6.139 -13.993  0.00  0.00     0.036 H 
ATOM    231  H18 THR d   1       6.389  -6.599 -14.921  0.00  0.00     0.036 H 
BRANCH 229 232
ATOM    232  CG  THR d   1       6.956  -7.967 -13.402  0.00  0.00    -0.048 C 
ATOM    233  H19 THR d   1       5.950  -8.309 -13.118  0.00  0.00     0.035 H 
ATOM    234  H20 THR d   1       7.604  -7.954 -12.513  0.00  0.00     0.035 H 
BRANCH 232 235
ATOM    235  CD  THR d   1       7.539  -8.975 -14.404  0.00  0.00     0.009 C 
ATOM    236  H21 THR d   1       6.770  -9.251 -15.140  0.00  0.00     0.064 H 
ATOM    237  H22 THR d   1       7.874  -9.876 -13.869  0.00  0.00     0.064 H 
BRANCH 235 238
ATOM    238  NE  THR d   1       8.669  -8.363 -15.085  0.00  0.00    -0.227 N 
ATOM    239  CZ  THR d   1       9.039  -8.607 -16.337  0.00  0.00     0.665 C 
ATOM    240  NH1 THR d   1       8.411  -9.508 -17.093  0.00  0.00    -0.235 N 
ATOM    241  NH2 THR d   1      10.041  -7.918 -16.837  0.00  0.00    -0.235 N 
ATOM    242  H24 THR d   1       8.722  -9.675 -18.061  0.00  0.00     0.174 HD
ATOM    243  H25 THR d   1       7.615 -10.037 -16.709  0.00  0.00     0.174 HD
ATOM    244  H26 THR d   1      10.528  -7.221 -16.255  0.00  0.00     0.174 HD
ATOM    245  H27 THR d   1      10.339  -8.075 -17.810  0.00  0.00     0.174 HD
ATOM    246  H23 THR d   1       9.229  -7.683 -14.552  0.00  0.00     0.177 HD
ENDBRANCH 235 238
ENDBRANCH 232 235
ENDBRANCH 229 232
ENDBRANCH 199 229
ENDBRANCH 196 199
ENDBRANCH 193 195
BRANCH 193 247
ATOM    247  CB  THR d   1       6.089  -7.624  -8.664  0.00  0.00    -0.038 C 
ATOM    248  H30 THR d   1       6.225  -8.561  -9.224  0.00  0.00     0.036 H 
ATOM    249  H31 THR d   1       5.016  -7.391  -8.593  0.00  0.00     0.036 H 
BRANCH 247 250
ATOM    250  CG  THR d   1       6.643  -7.814  -7.251  0.00  0.00    -0.061 C 
ATOM    251  H32 THR d   1       6.776  -6.823  -6.793  0.00  0.00     0.033 H 
ATOM    252  H33 THR d   1       7.618  -8.318  -7.324  0.00  0.00     0.033 H 
BRANCH 250 253
ATOM    253  CD  THR d   1       5.720  -8.660  -6.331  0.00  0.00    -0.043 C 
ATOM    254  H34 THR d   1       5.687  -9.695  -6.701  0.00  0.00     0.035 H 
ATOM    255  H35 THR d   1       4.706  -8.234  -6.342  0.00  0.00     0.035 H 
BRANCH 253 256
ATOM    256  CE  THR d   1       6.266  -8.650  -4.879  0.00  0.00     0.080 C 
ATOM    257  H36 THR d   1       6.676  -7.651  -4.670  0.00  0.00     0.075 H 
ATOM    258  H37 THR d   1       7.069  -9.398  -4.806  0.00  0.00     0.075 H 
BRANCH 256 259
ATOM    259  NZ  THR d   1       5.236  -8.963  -3.839  0.00  0.00    -0.079 N 
ATOM    260  H38 THR d   1       5.662  -8.938  -2.926  0.00  0.00     0.274 HD
ATOM    261  H39 THR d   1       4.856  -9.882  -4.008  0.00  0.00     0.274 HD
ATOM    262  H40 THR d   1       4.496  -8.280  -3.883  0.00  0.00     0.274 HD
ENDBRANCH 256 259
ENDBRANCH 253 256
ENDBRANCH 250 253
ENDBRANCH 247 250
ENDBRANCH 193 247
ENDBRANCH 190 193
ENDBRANCH 187 189
BRANCH 187 263
ATOM    263  CB  THR d   1      11.431  -5.646  -8.160  0.00  0.00     0.044 C 
ATOM    264  H43 THR d   1      11.105  -4.595  -8.164  0.00  0.00     0.077 H 
ATOM    265  H44 THR d   1      12.485  -5.704  -8.469  0.00  0.00     0.077 H 
BRANCH 263 266
ATOM    266  OG  THR d   1      11.300  -6.165  -6.864  0.00  0.00    -0.398 OA
ATOM    267  H45 THR d   1      11.583  -7.072  -6.857  0.00  0.00     0.209 HD
ENDBRANCH 263 266
ENDBRANCH 187 263
ENDBRANCH 184 187
ENDBRANCH 181 183
BRANCH 181 268
ATOM    268  CB  THR d   1      10.689 -10.806  -6.988  0.00  0.00     0.060 C 
ATOM    269  H48 THR d   1      10.926 -11.880  -7.023  0.00  0.00     0.086 H 
BRANCH 268 270
ATOM    270  OG1 THR d   1       9.301 -10.637  -6.694  0.00  0.00    -0.393 OA
ATOM    271  H49 THR d   1       9.110 -11.015  -5.843  0.00  0.00     0.210 HD
ENDBRANCH 268 270
BRANCH 268 272
ATOM    272  CG2 THR d   1      11.591 -10.126  -5.889  0.00  0.00    -0.050 C 
ATOM    273  H50 THR d   1      11.391 -10.590  -4.912  0.00  0.00     0.031 H 
ATOM    274  H51 THR d   1      11.360  -9.052  -5.838  0.00  0.00     0.031 H 
ATOM    275  H52 THR d   1      12.651 -10.261  -6.149  0.00  0.00     0.031 H 
ENDBRANCH 268 272
ENDBRANCH 181 268
ENDBRANCH 178 181
ENDBRANCH 174 177
ENDBRANCH 171 174
ENDBRANCH 167 170
ENDBRANCH 164 167
ENDBRANCH 141 163
ENDBRANCH   1 141
TORSDOF 78
