REMARK  6 active torsions:
REMARK  status: ('A' for Active; 'I' for Inactive)
REMARK    1  A    between atoms: C1_1  and  C2_4 
REMARK    2  A    between atoms: C2_4  and  C3_5 
REMARK    3  A    between atoms: C3_5  and  O7_6 
REMARK    4  A    between atoms: C3_5  and  C4_7 
REMARK    5  A    between atoms: C3_5  and  C6_11 
REMARK    6  A    between atoms: C4_7  and  C5_8 
ROOT
ATOM      1  C3  CIT d   1     -50.741 -36.989  26.729  0.00  0.00     0.164 C 
ENDROOT
BRANCH   1   2
ATOM      2  C2  CIT d   1     -51.393 -38.086  25.882  0.00  0.00     0.054 C 
ATOM      3  H1  CIT d   1     -50.614 -38.815  25.614  0.00  0.00     0.054 H 
ATOM      4  H2  CIT d   1     -52.159 -38.579  26.498  0.00  0.00     0.054 H 
BRANCH   2   5
ATOM      5  C1  CIT d   1     -52.056 -37.618  24.598  0.00  0.00     0.176 C 
ATOM      6  O1  CIT d   1     -52.256 -38.470  23.707  0.00  0.00    -0.648 OA
ATOM      7  O2  CIT d   1     -52.387 -36.422  24.454  0.00  0.00    -0.648 OA
ENDBRANCH   2   5
ENDBRANCH   1   2
BRANCH   1   8
ATOM      8  O7  CIT d   1     -51.771 -36.205  27.352  0.00  0.00    -0.378 OA
ATOM      9  H3  CIT d   1     -52.317 -35.811  26.682  0.00  0.00     0.211 HD
ENDBRANCH   1   8
BRANCH   1  10
ATOM     10  C4  CIT d   1     -49.897 -37.690  27.798  0.00  0.00     0.054 C 
ATOM     11  H4  CIT d   1     -49.046 -38.178  27.301  0.00  0.00     0.054 H 
ATOM     12  H5  CIT d   1     -50.522 -38.452  28.287  0.00  0.00     0.054 H 
BRANCH  10  13
ATOM     13  C5  CIT d   1     -49.355 -36.759  28.867  0.00  0.00     0.176 C 
ATOM     14  O3  CIT d   1     -49.878 -35.635  29.048  0.00  0.00    -0.648 OA
ATOM     15  O4  CIT d   1     -48.390 -37.163  29.548  0.00  0.00    -0.648 OA
ENDBRANCH  10  13
ENDBRANCH   1  10
BRANCH   1  16
ATOM     16  C6  CIT d   1     -49.836 -36.089  25.891  0.00  0.00     0.210 C 
ATOM     17  O5  CIT d   1     -49.015 -36.620  25.106  0.00  0.00    -0.646 OA
ATOM     18  O6  CIT d   1     -49.938 -34.843  26.002  0.00  0.00    -0.646 OA
ENDBRANCH   1  16
TORSDOF 6
