REMARK  8 active torsions:
REMARK  status: ('A' for Active; 'I' for Inactive)
REMARK    1  A    between atoms: CAJ_7  and  CAI_6 
REMARK    2  A    between atoms: CAL_9  and  CAK_8 
REMARK    3  A    between atoms: CAS_16  and  CAP_13 
REMARK    4  A    between atoms: CAQ_14  and  CAR_15 
REMARK       I    between atoms: NAT_25  and  CAS_16 
REMARK    5  A    between atoms: CAV_17  and  NAT_25 
REMARK    6  A    between atoms: NBC_34  and  CAX_19 
REMARK    7  A    between atoms: CAZ_21  and  CBB_28 
REMARK    8  A    between atoms: NBF_35  and  CBI_33 
ROOT
ATOM      1  CAV DZC d   1     -15.028 -13.520  13.409  0.00  0.00     0.037 A 
ATOM      2  CAW DZC d   1     -16.287 -13.499  13.949  0.00  0.00    -0.036 A 
ATOM      3  CAX DZC d   1     -17.161 -12.462  13.702  0.00  0.00     0.013 A 
ATOM      4  CAY DZC d   1     -16.757 -11.398  12.900  0.00  0.00    -0.048 A 
ATOM      5  CAZ DZC d   1     -15.462 -11.367  12.333  0.00  0.00     0.051 A 
ATOM      6  CBA DZC d   1     -14.601 -12.452  12.612  0.00  0.00    -0.042 A 
ATOM      7  H11 DZC d   1     -16.603 -14.317  14.586  0.00  0.00     0.089 H 
ATOM      8  H12 DZC d   1     -17.445 -10.582  12.708  0.00  0.00     0.087 H 
ATOM      9  H14 DZC d   1     -13.597 -12.457  12.204  0.00  0.00     0.088 H 
ENDROOT
BRANCH   1  10
ATOM     10  NAT DZC d   1     -14.184 -14.638  13.757  0.00  0.00    -0.323 N 
ATOM     11  CAS DZC d   1     -12.741 -14.590  13.720  0.00  0.00     0.256 C 
ATOM     12  OAU DZC d   1     -12.165 -13.566  13.394  0.00  0.00    -0.267 OA
ATOM     13  H13 DZC d   1     -14.622 -15.492  14.039  0.00  0.00     0.169 HD
BRANCH  11  14
ATOM     14  CAP DZC d   1     -11.910 -15.791  14.197  0.00  0.00     0.039 A 
ATOM     15  CAO DZC d   1     -12.478 -16.614  15.161  0.00  0.00    -0.067 A 
ATOM     16  CAN DZC d   1     -11.767 -17.699  15.681  0.00  0.00    -0.081 A 
ATOM     17  H7  DZC d   1     -13.483 -16.413  15.514  0.00  0.00     0.085 H 
ATOM     18  CAM DZC d   1     -10.475 -17.952  15.247  0.00  0.00    -0.064 A 
ATOM     19  H6  DZC d   1     -12.226 -18.342  16.423  0.00  0.00     0.083 H 
ATOM     20  CAL DZC d   1      -9.910 -17.125  14.292  0.00  0.00     0.025 A 
ATOM     21  H5  DZC d   1      -9.914 -18.787  15.651  0.00  0.00     0.085 H 
ATOM     22  CAQ DZC d   1     -10.600 -16.038  13.776  0.00  0.00    -0.028 A 
BRANCH  20  23
ATOM     23  CAK DZC d   1      -8.501 -17.338  13.781  0.00  0.00    -0.059 C 
ATOM     24  CAJ DZC d   1      -7.380 -17.488  13.380  0.00  0.00    -0.041 C 
BRANCH  24  25
ATOM     25  CAI DZC d   1      -5.953 -17.658  12.898  0.00  0.00     0.112 A 
ATOM     26  CAH DZC d   1      -5.650 -17.846  11.752  0.00  0.00     0.039 A 
ATOM     27  NAG DZC d   1      -4.360 -17.974  11.519  0.00  0.00    -0.238 NA
ATOM     28  H4  DZC d   1      -6.392 -17.907  10.958  0.00  0.00     0.119 H 
ATOM     29  CAD DZC d   1      -3.900 -17.770  12.970  0.00  0.00     0.152 A 
ATOM     30  CAC DZC d   1      -2.675 -17.751  13.580  0.00  0.00     0.046 A 
ATOM     31  NAE DZC d   1      -5.077 -17.577  13.713  0.00  0.00    -0.296 N 
ATOM     32  NAB DZC d   1      -2.644 -17.539  14.932  0.00  0.00    -0.268 NA
ATOM     33  H2  DZC d   1      -1.759 -17.899  13.011  0.00  0.00     0.120 H 
ATOM     34  CAA DZC d   1      -3.809 -17.347  15.654  0.00  0.00     0.017 A 
ATOM     35  CAF DZC d   1      -5.065 -17.368  15.017  0.00  0.00     0.004 A 
ATOM     36  H1  DZC d   1      -3.754 -17.177  16.728  0.00  0.00     0.116 H 
ATOM     37  H3  DZC d   1      -5.987 -17.218  15.576  0.00  0.00     0.114 H 
ENDBRANCH  24  25
ENDBRANCH  20  23
BRANCH  22  38
ATOM     38  CAR DZC d   1      -9.879 -15.200  12.732  0.00  0.00    -0.049 C 
ATOM     39  H8  DZC d   1      -8.865 -15.598  12.579  0.00  0.00     0.033 H 
ATOM     40  H9  DZC d   1      -9.815 -14.158  13.078  0.00  0.00     0.033 H 
ATOM     41  H10 DZC d   1     -10.435 -15.238  11.784  0.00  0.00     0.033 H 
ENDBRANCH  22  38
ENDBRANCH  11  14
ENDBRANCH   1  10
BRANCH   3  42
ATOM     42  NBC DZC d   1     -18.392 -12.442  14.213  0.00  0.00    -0.280 NA
ATOM     43  CBD DZC d   1     -18.611 -11.347  14.871  0.00  0.00     0.006 C 
ATOM     44  CBE DZC d   1     -19.088 -11.563  16.285  0.00  0.00     0.094 C 
ATOM     45  H15 DZC d   1     -17.674 -10.772  14.907  0.00  0.00     0.058 H 
ATOM     46  H16 DZC d   1     -19.376 -10.768  14.333  0.00  0.00     0.058 H 
ATOM     47  NBF DZC d   1     -18.423 -12.538  16.855  0.00  0.00    -0.073 N 
ATOM     48  H17 DZC d   1     -20.158 -11.816  16.270  0.00  0.00     0.077 H 
ATOM     49  H18 DZC d   1     -18.938 -10.638  16.862  0.00  0.00     0.077 H 
ATOM     50  CBG DZC d   1     -18.647 -13.694  16.266  0.00  0.00     0.094 C 
ATOM     51  H26 DZC d   1     -17.439 -12.333  16.776  0.00  0.00     0.279 HD
ATOM     52  CBH DZC d   1     -18.797 -13.559  14.751  0.00  0.00     0.006 C 
ATOM     53  H19 DZC d   1     -17.804 -14.367  16.479  0.00  0.00     0.077 H 
ATOM     54  H20 DZC d   1     -19.573 -14.125  16.675  0.00  0.00     0.077 H 
ATOM     55  H21 DZC d   1     -19.864 -13.675  14.512  0.00  0.00     0.058 H 
ATOM     56  H22 DZC d   1     -18.226 -14.377  14.287  0.00  0.00     0.058 H 
BRANCH  47  57
ATOM     57  CBI DZC d   1     -18.727 -12.612  18.119  0.00  0.00     0.066 C 
ATOM     58  H23 DZC d   1     -18.536 -11.641  18.599  0.00  0.00     0.068 H 
ATOM     59  H24 DZC d   1     -18.111 -13.387  18.599  0.00  0.00     0.068 H 
ATOM     60  H25 DZC d   1     -19.791 -12.871  18.226  0.00  0.00     0.068 H 
ENDBRANCH  47  57
ENDBRANCH   3  42
BRANCH   5  61
ATOM     61  CBB DZC d   1     -15.010 -10.206  11.464  0.00  0.00     0.417 C 
ATOM     62  FBJ DZC d   1     -14.282  -9.366  12.214  0.00  0.00    -0.166 F 
ATOM     63  FBK DZC d   1     -16.090  -9.565  10.993  0.00  0.00    -0.166 F 
ATOM     64  FBL DZC d   1     -14.255 -10.654  10.449  0.00  0.00    -0.166 F 
ENDBRANCH   5  61
TORSDOF 8
