REMARK  13 active torsions:
REMARK  status: ('A' for Active; 'I' for Inactive)
REMARK    1  A    between atoms: NBP_3  and  CBS_4 
REMARK    2  A    between atoms: NBM_7  and  CBE_8 
REMARK    3  A    between atoms: CBG_11  and  CBI_12 
REMARK    4  A    between atoms: CBI_12  and  CBK_13 
REMARK    5  A    between atoms: CBI_12  and  CBJ_14 
REMARK    6  A    between atoms: CBC_16  and  NBA_17 
REMARK       I    between atoms: NBA_17  and  CAZ_18 
REMARK    7  A    between atoms: CAZ_18  and  CAW_20 
REMARK    8  A    between atoms: CAX_21  and  CAY_22 
REMARK    9  A    between atoms: CAS_26  and  CAR_27 
REMARK   10  A    between atoms: CAR_27  and  CAQ_28 
REMARK   11  A    between atoms: CAQ_28  and  CAP_29 
REMARK   12  A    between atoms: CAH_37  and  CAD_38 
REMARK   13  A    between atoms: CAA_41  and  NAG_42 
ROOT
ATOM      1  CAW DZ6 d   1     -12.028 -15.788  14.130  0.00  0.00     0.038 A 
ATOM      2  CAX DZ6 d   1     -10.810 -16.142  13.619  0.00  0.00    -0.040 A 
ATOM      3  CAV DZ6 d   1     -12.537 -16.410  15.260  0.00  0.00    -0.067 A 
ATOM      4  CAU DZ6 d   1     -11.846 -17.459  15.892  0.00  0.00    -0.081 A 
ATOM      5  CAT DZ6 d   1     -10.611 -17.853  15.373  0.00  0.00    -0.076 A 
ATOM      6  CAS DZ6 d   1     -10.165 -17.214  14.229  0.00  0.00    -0.051 A 
ATOM      7  H27 DZ6 d   1     -13.487 -16.081  15.665  0.00  0.00     0.085 H 
ATOM      8  H28 DZ6 d   1     -12.263 -17.951  16.763  0.00  0.00     0.083 H 
ATOM      9  H29 DZ6 d   1     -10.024 -18.630  15.848  0.00  0.00     0.084 H 
ENDROOT
BRANCH   1  10
ATOM     10  CAZ DZ6 d   1     -12.824 -14.604  13.584  0.00  0.00     0.256 C 
ATOM     11  NBA DZ6 d   1     -14.236 -14.715  13.552  0.00  0.00    -0.323 N 
ATOM     12  H23 DZ6 d   1     -14.663 -15.587  13.793  0.00  0.00     0.169 HD
ATOM     13  OBB DZ6 d   1     -12.226 -13.569  13.307  0.00  0.00    -0.267 OA
BRANCH  11  14
ATOM     14  CBC DZ6 d   1     -15.074 -13.597  13.179  0.00  0.00     0.037 A 
ATOM     15  CBD DZ6 d   1     -16.260 -13.535  13.893  0.00  0.00    -0.032 A 
ATOM     16  CBE DZ6 d   1     -17.193 -12.504  13.705  0.00  0.00     0.033 A 
ATOM     17  H13 DZ6 d   1     -16.474 -14.309  14.621  0.00  0.00     0.090 H 
ATOM     18  CBF DZ6 d   1     -16.863 -11.527  12.763  0.00  0.00    -0.051 A 
ATOM     19  CBG DZ6 d   1     -15.652 -11.573  12.060  0.00  0.00    -0.050 A 
ATOM     20  H14 DZ6 d   1     -17.558 -10.717  12.572  0.00  0.00     0.087 H 
ATOM     21  CBH DZ6 d   1     -14.734 -12.607  12.271  0.00  0.00    -0.051 A 
ATOM     22  H22 DZ6 d   1     -13.788 -12.633  11.742  0.00  0.00     0.087 H 
BRANCH  16  23
ATOM     23  NBM DZ6 d   1     -18.474 -12.366  14.816  0.00  0.00    -0.378 N 
ATOM     24  CBN DZ6 d   1     -18.694 -13.200  15.853  0.00  0.00     0.018 C 
ATOM     25  CBO DZ6 d   1     -18.514 -12.592  17.246  0.00  0.00     0.098 C 
ATOM     26  H1  DZ6 d   1     -19.728 -13.568  15.776  0.00  0.00     0.066 H 
ATOM     27  H2  DZ6 d   1     -17.996 -14.045  15.761  0.00  0.00     0.066 H 
ATOM     28  NBP DZ6 d   1     -18.543 -11.252  17.289  0.00  0.00    -0.072 N 
ATOM     29  H3  DZ6 d   1     -17.543 -12.925  17.640  0.00  0.00     0.078 H 
ATOM     30  H4  DZ6 d   1     -19.321 -12.971  17.890  0.00  0.00     0.078 H 
ATOM     31  CBQ DZ6 d   1     -19.416 -10.749  16.408  0.00  0.00     0.098 C 
ATOM     32  H5  DZ6 d   1     -17.625 -10.911  17.049  0.00  0.00     0.279 HD
ATOM     33  CBR DZ6 d   1     -19.183 -11.224  14.971  0.00  0.00     0.018 C 
ATOM     34  H9  DZ6 d   1     -19.337  -9.652  16.428  0.00  0.00     0.078 H 
ATOM     35  H10 DZ6 d   1     -20.429 -11.049  16.713  0.00  0.00     0.078 H 
ATOM     36  H11 DZ6 d   1     -18.648 -10.424  14.438  0.00  0.00     0.066 H 
ATOM     37  H12 DZ6 d   1     -20.168 -11.378  14.507  0.00  0.00     0.066 H 
BRANCH  28  38
ATOM     38  CBS DZ6 d   1     -18.829 -10.847  18.491  0.00  0.00     0.066 C 
ATOM     39  H6  DZ6 d   1     -18.849  -9.747  18.512  0.00  0.00     0.068 H 
ATOM     40  H7  DZ6 d   1     -18.065 -11.213  19.193  0.00  0.00     0.068 H 
ATOM     41  H8  DZ6 d   1     -19.814 -11.238  18.785  0.00  0.00     0.068 H 
ENDBRANCH  28  38
ENDBRANCH  16  23
BRANCH  19  42
ATOM     42  CBI DZ6 d   1     -15.318 -10.501  11.052  0.00  0.00    -0.035 C 
ATOM     43  H15 DZ6 d   1     -14.546 -10.887  10.370  0.00  0.00     0.046 H 
BRANCH  42  44
ATOM     44  CBK DZ6 d   1     -16.544 -10.155  10.232  0.00  0.00    -0.069 C 
ATOM     45  H16 DZ6 d   1     -16.288  -9.373   9.502  0.00  0.00     0.028 H 
ATOM     46  H17 DZ6 d   1     -17.339  -9.788  10.898  0.00  0.00     0.028 H 
ATOM     47  H18 DZ6 d   1     -16.895 -11.052   9.701  0.00  0.00     0.028 H 
ENDBRANCH  42  44
BRANCH  42  48
ATOM     48  CBJ DZ6 d   1     -14.761  -9.292  11.764  0.00  0.00    -0.069 C 
ATOM     49  H19 DZ6 d   1     -13.875  -9.585  12.346  0.00  0.00     0.028 H 
ATOM     50  H20 DZ6 d   1     -15.524  -8.881  12.441  0.00  0.00     0.028 H 
ATOM     51  H21 DZ6 d   1     -14.478  -8.529  11.024  0.00  0.00     0.028 H 
ENDBRANCH  42  48
ENDBRANCH  19  42
ENDBRANCH  11  14
ENDBRANCH   1  10
BRANCH   2  52
ATOM     52  CAY DZ6 d   1     -10.210 -15.469  12.403  0.00  0.00    -0.050 C 
ATOM     53  H24 DZ6 d   1     -10.868 -14.651  12.075  0.00  0.00     0.033 H 
ATOM     54  H25 DZ6 d   1     -10.106 -16.204  11.591  0.00  0.00     0.033 H 
ATOM     55  H26 DZ6 d   1      -9.220 -15.063  12.659  0.00  0.00     0.033 H 
ENDBRANCH   2  52
BRANCH   6  56
ATOM     56  CAR DZ6 d   1      -8.808 -17.503  13.689  0.00  0.00    -0.035 C 
ATOM     57  H30 DZ6 d   1      -9.238 -17.939  12.775  0.00  0.00     0.040 H 
ATOM     58  H31 DZ6 d   1      -8.653 -18.296  14.436  0.00  0.00     0.040 H 
BRANCH  56  59
ATOM     59  CAQ DZ6 d   1      -7.561 -17.665  13.215  0.00  0.00    -0.021 C 
ATOM     60  H32 DZ6 d   1      -7.714 -16.842  12.501  0.00  0.00     0.042 H 
ATOM     61  H33 DZ6 d   1      -7.851 -18.616  12.746  0.00  0.00     0.042 H 
BRANCH  59  62
ATOM     62  CAP DZ6 d   1      -6.157 -17.840  12.735  0.00  0.00     0.036 A 
ATOM     63  CAO DZ6 d   1      -5.562 -18.192  11.511  0.00  0.00     0.027 A 
ATOM     64  NAN DZ6 d   1      -4.232 -18.096  11.762  0.00  0.00    -0.239 NA
ATOM     65  H34 DZ6 d   1      -6.053 -18.475  10.581  0.00  0.00     0.117 H 
ATOM     66  CAK DZ6 d   1      -4.032 -17.683  13.060  0.00  0.00     0.151 A 
ATOM     67  CAJ DZ6 d   1      -2.811 -17.438  13.747  0.00  0.00     0.048 A 
ATOM     68  NAL DZ6 d   1      -5.181 -17.519  13.642  0.00  0.00    -0.306 N 
ATOM     69  NAI DZ6 d   1      -2.908 -17.035  15.024  0.00  0.00    -0.255 NA
ATOM     70  H35 DZ6 d   1      -1.845 -17.571  13.261  0.00  0.00     0.120 H 
ATOM     71  CAH DZ6 d   1      -4.092 -16.864  15.646  0.00  0.00     0.082 A 
ATOM     72  CAM DZ6 d   1      -5.273 -17.095  14.954  0.00  0.00     0.015 A 
ATOM     73  H36 DZ6 d   1      -6.241 -16.947  15.430  0.00  0.00     0.116 H 
BRANCH  71  74
ATOM     74  CAD DZ6 d   1      -4.108 -16.345  17.059  0.00  0.00    -0.006 A 
ATOM     75  CAC DZ6 d   1      -3.253 -16.805  18.046  0.00  0.00    -0.069 A 
ATOM     76  CAB DZ6 d   1      -3.327 -16.230  19.304  0.00  0.00    -0.057 A 
ATOM     77  H37 DZ6 d   1      -2.542 -17.597  17.839  0.00  0.00     0.085 H 
ATOM     78  CAA DZ6 d   1      -4.230 -15.201  19.563  0.00  0.00     0.025 A 
ATOM     79  H38 DZ6 d   1      -2.676 -16.584  20.095  0.00  0.00     0.086 H 
ATOM     80  CAF DZ6 d   1      -5.068 -14.738  18.565  0.00  0.00    -0.057 A 
ATOM     81  CAE DZ6 d   1      -5.000 -15.307  17.314  0.00  0.00    -0.069 A 
ATOM     82  H41 DZ6 d   1      -5.770 -13.937  18.766  0.00  0.00     0.086 H 
ATOM     83  H42 DZ6 d   1      -5.645 -14.945  16.522  0.00  0.00     0.085 H 
BRANCH  78  84
ATOM     84  NAG DZ6 d   1      -4.304 -14.610  20.858  0.00  0.00    -0.399 N 
ATOM     85  H39 DZ6 d   1      -4.975 -13.850  21.040  0.00  0.00     0.156 HD
ATOM     86  H40 DZ6 d   1      -3.687 -14.943  21.612  0.00  0.00     0.156 HD
ENDBRANCH  78  84
ENDBRANCH  71  74
ENDBRANCH  59  62
ENDBRANCH  56  59
ENDBRANCH   6  56
TORSDOF 13
