REMARK  15 active torsions:
REMARK  status: ('A' for Active; 'I' for Inactive)
REMARK    1  A    between atoms: N1_27  and  C1_1 
REMARK    2  A    between atoms: C12_4  and  C11_3 
REMARK    3  A    between atoms: C11_3  and  N1_27 
REMARK    4  A    between atoms: N2_28  and  C17_9 
REMARK    5  A    between atoms: C18_10  and  C27_19 
REMARK    6  A    between atoms: N2_28  and  C18_10 
REMARK    7  A    between atoms: S_33  and  C19_11 
REMARK    8  A    between atoms: C2_12  and  C3_20 
REMARK    9  A    between atoms: N1_27  and  C2_12 
REMARK   10  A    between atoms: C22_15  and  O25_31 
REMARK   11  A    between atoms: O25_31  and  C26_18 
REMARK   12  A    between atoms: C27_19  and  O1_29 
REMARK   13  A    between atoms: C3_20  and  C4_21 
REMARK   14  A    between atoms: C4_21  and  C5_22 
REMARK   15  A    between atoms: N2_28  and  S_33 
ROOT
ATOM      1  C12 KN9 d   1       7.504   5.939 157.569  0.00  0.00    -0.005 A 
ATOM      2  C13 KN9 d   1       7.326   4.609 157.911  0.00  0.00    -0.073 A 
ATOM      3  C14 KN9 d   1       8.373   3.712 157.796  0.00  0.00    -0.082 A 
ATOM      4  C15 KN9 d   1       9.608   4.129 157.351  0.00  0.00    -0.081 A 
ATOM      5  C16 KN9 d   1       9.798   5.457 157.014  0.00  0.00    -0.056 A 
ATOM      6  C17 KN9 d   1       8.750   6.362 157.111  0.00  0.00     0.053 A 
ATOM      7  H7  KN9 d   1       6.362   4.269 158.271  0.00  0.00     0.084 H 
ATOM      8  H8  KN9 d   1       8.220   2.671 158.059  0.00  0.00     0.083 H 
ATOM      9  H9  KN9 d   1      10.425   3.422 157.266  0.00  0.00     0.083 H 
ATOM     10  H10 KN9 d   1      10.770   5.793 156.672  0.00  0.00     0.087 H 
ENDROOT
BRANCH   1  11
ATOM     11  C11 KN9 d   1       6.330   6.910 157.702  0.00  0.00     0.109 C 
ATOM     12  H5  KN9 d   1       6.691   7.849 158.147  0.00  0.00     0.083 H 
ATOM     13  H6  KN9 d   1       5.568   6.463 158.357  0.00  0.00     0.083 H 
BRANCH  11  14
ATOM     14  N1  KN9 d   1       5.731   7.199 156.406  0.00  0.00    -0.071 N 
ATOM     15  H31 KN9 d   1       6.459   7.447 155.755  0.00  0.00     0.279 HD
BRANCH  14  16
ATOM     16  C1  KN9 d   1       4.998   6.052 155.900  0.00  0.00     0.067 C 
ATOM     17  H1  KN9 d   1       5.683   5.199 155.790  0.00  0.00     0.068 H 
ATOM     18  H2  KN9 d   1       4.560   6.299 154.922  0.00  0.00     0.068 H 
ATOM     19  H3  KN9 d   1       4.196   5.790 156.605  0.00  0.00     0.068 H 
ENDBRANCH  14  16
BRANCH  14  20
ATOM     20  C2  KN9 d   1       4.791   8.298 156.535  0.00  0.00     0.084 C 
ATOM     21  H13 KN9 d   1       4.231   8.410 155.595  0.00  0.00     0.076 H 
ATOM     22  H14 KN9 d   1       4.091   8.084 157.356  0.00  0.00     0.076 H 
BRANCH  20  23
ATOM     23  C3  KN9 d   1       5.540   9.592 156.834  0.00  0.00    -0.039 C 
ATOM     24  H24 KN9 d   1       5.537  10.241 155.946  0.00  0.00     0.035 H 
ATOM     25  H25 KN9 d   1       6.578   9.367 157.121  0.00  0.00     0.035 H 
BRANCH  23  26
ATOM     26  C4  KN9 d   1       4.819  10.283 157.986  0.00  0.00    -0.040 C 
ATOM     27  H26 KN9 d   1       4.725   9.583 158.829  0.00  0.00     0.040 H 
ATOM     28  H27 KN9 d   1       3.817  10.595 157.655  0.00  0.00     0.040 H 
BRANCH  26  29
ATOM     29  C5  KN9 d   1       5.608  11.510 158.433  0.00  0.00    -0.058 A 
ATOM     30  C10 KN9 d   1       5.243  12.182 159.591  0.00  0.00    -0.075 A 
ATOM     31  C9  KN9 d   1       5.943  13.300 160.016  0.00  0.00    -0.061 A 
ATOM     32  H4  KN9 d   1       4.399  11.828 160.171  0.00  0.00     0.084 H 
ATOM     33  C8  KN9 d   1       7.020  13.748 159.264  0.00  0.00     0.034 A 
ATOM     34  H30 KN9 d   1       5.653  13.818 160.923  0.00  0.00     0.086 H 
ATOM     35  C7  KN9 d   1       7.382  13.077 158.105  0.00  0.00    -0.061 A 
ATOM     36 CL   KN9 d   1       7.953  15.187 159.766  0.00  0.00    -0.084 Cl
ATOM     37  C6  KN9 d   1       6.677  11.959 157.686  0.00  0.00    -0.075 A 
ATOM     38  H29 KN9 d   1       8.224  13.430 157.521  0.00  0.00     0.086 H 
ATOM     39  H28 KN9 d   1       6.964  11.441 156.778  0.00  0.00     0.084 H 
ENDBRANCH  26  29
ENDBRANCH  23  26
ENDBRANCH  20  23
ENDBRANCH  14  20
ENDBRANCH  11  14
ENDBRANCH   1  11
BRANCH   6  40
ATOM     40  N2  KN9 d   1       9.024   7.740 156.765  0.00  0.00    -0.269 N 
BRANCH  40  41
ATOM     41  C18 KN9 d   1       8.989   8.240 155.401  0.00  0.00     0.030 C 
ATOM     42  H11 KN9 d   1       8.551   9.249 155.401  0.00  0.00     0.069 H 
ATOM     43  H12 KN9 d   1      10.016   8.286 155.010  0.00  0.00     0.069 H 
BRANCH  41  44
ATOM     44  C27 KN9 d   1       8.155   7.338 154.499  0.00  0.00     0.033 C 
ATOM     45  H22 KN9 d   1       8.008   6.389 155.035  0.00  0.00     0.076 H 
ATOM     46  H23 KN9 d   1       8.743   7.157 153.587  0.00  0.00     0.076 H 
BRANCH  44  47
ATOM     47  O1  KN9 d   1       7.085   7.716 154.157  0.00  0.00    -0.399 OA
ATOM     48  H32 KN9 d   1       6.681   7.059 153.603  0.00  0.00     0.209 HD
ENDBRANCH  44  47
ENDBRANCH  41  44
ENDBRANCH  40  41
BRANCH  40  49
ATOM     49  S   KN9 d   1       9.475   8.780 158.038  0.00  0.00     0.265 S 
ATOM     50  O2  KN9 d   1       9.340  10.338 157.511  0.00  0.00    -0.200 OA
ATOM     51  O3  KN9 d   1       8.489   8.531 159.340  0.00  0.00    -0.200 OA
BRANCH  49  52
ATOM     52  C19 KN9 d   1      11.159   8.328 158.547  0.00  0.00     0.080 A 
ATOM     53  C20 KN9 d   1      11.338   7.555 159.687  0.00  0.00    -0.058 A 
ATOM     54  C21 KN9 d   1      12.621   7.188 160.085  0.00  0.00    -0.049 A 
ATOM     55  H15 KN9 d   1      10.479   7.237 160.267  0.00  0.00     0.086 H 
ATOM     56  C22 KN9 d   1      13.724   7.581 159.352  0.00  0.00     0.068 A 
ATOM     57  H16 KN9 d   1      12.755   6.588 160.978  0.00  0.00     0.087 H 
ATOM     58  C23 KN9 d   1      13.544   8.353 158.218  0.00  0.00    -0.049 A 
ATOM     59  C24 KN9 d   1      12.268   8.713 157.817  0.00  0.00    -0.058 A 
ATOM     60  H17 KN9 d   1      14.403   8.677 157.642  0.00  0.00     0.087 H 
ATOM     61  H18 KN9 d   1      12.137   9.305 156.918  0.00  0.00     0.086 H 
BRANCH  56  62
ATOM     62  O25 KN9 d   1      15.012   7.213 159.769  0.00  0.00    -0.356 OA
BRANCH  62  63
ATOM     63  C26 KN9 d   1      16.032   7.404 158.828  0.00  0.00     0.010 C 
ATOM     64  H19 KN9 d   1      16.992   7.084 159.258  0.00  0.00     0.066 H 
ATOM     65  H20 KN9 d   1      16.087   8.469 158.558  0.00  0.00     0.066 H 
ATOM     66  H21 KN9 d   1      15.817   6.809 157.928  0.00  0.00     0.066 H 
ENDBRANCH  62  63
ENDBRANCH  56  62
ENDBRANCH  49  52
ENDBRANCH  40  49
ENDBRANCH   6  40
TORSDOF 15
