REMARK  2 active torsions:
REMARK  status: ('A' for Active; 'I' for Inactive)
REMARK    1  A    between atoms: N09_11  and  C03_6 
REMARK    2  A    between atoms: C10_10  and  N19_17 
ROOT
ATOM      1  C14 J84 d   1       7.831  28.710  30.383  0.00  0.00     0.203 A 
ATOM      2  C12 J84 d   1       7.938  27.658  32.607  0.00  0.00     0.040 A 
ATOM      3  C11 J84 d   1       7.264  28.050  31.461  0.00  0.00     0.079 A 
ATOM      4  C10 J84 d   1       5.940  27.670  31.615  0.00  0.00     0.139 A 
ATOM      5  N09 J84 d   1       5.846  27.078  32.797  0.00  0.00    -0.216 N 
ATOM      6  N13 J84 d   1       7.067  27.071  33.404  0.00  0.00    -0.177 NA
ATOM      7  N15 J84 d   1       7.215  29.041  29.262  0.00  0.00    -0.138 NA
ATOM      8  N16 J84 d   1       8.108  29.680  28.454  0.00  0.00    -0.200 N 
ATOM      9  N17 J84 d   1       9.290  29.724  29.129  0.00  0.00     0.022 NA
ATOM     10  N18 J84 d   1       9.086  29.114  30.331  0.00  0.00    -0.136 NA
ATOM     11  H1  J84 d   1       8.997  27.808  32.812  0.00  0.00     0.119 H 
ATOM     12  H5  J84 d   1       7.924  30.057  27.513  0.00  0.00     0.208 HD
ENDROOT
BRANCH   5  13
ATOM     13  C03 J84 d   1       4.744  26.569  33.319  0.00  0.00     0.082 A 
ATOM     14  C02 J84 d   1       3.661  27.397  33.569  0.00  0.00    -0.052 A 
ATOM     15  C01 J84 d   1       2.506  26.867  34.120  0.00  0.00    -0.060 A 
ATOM     16  H3  J84 d   1       3.718  28.454  33.334  0.00  0.00     0.087 H 
ATOM     17  C06 J84 d   1       2.438  25.518  34.428  0.00  0.00     0.035 A 
ATOM     18  H2  J84 d   1       1.654  27.509  34.311  0.00  0.00     0.086 H 
ATOM     19  C05 J84 d   1       3.517  24.691  34.183  0.00  0.00    -0.039 A 
ATOM     20 CL07 J84 d   1       0.952  24.837  35.139  0.00  0.00    -0.084 Cl
ATOM     21  C04 J84 d   1       4.673  25.217  33.633  0.00  0.00     0.064 A 
ATOM     22  H4  J84 d   1       3.459  23.635  34.420  0.00  0.00     0.088 H 
ATOM     23 CL08 J84 d   1       6.061  24.138  33.326  0.00  0.00    -0.082 Cl
ENDBRANCH   5  13
BRANCH   4  24
ATOM     24  N19 J84 d   1       4.867  27.876  30.658  0.00  0.00    -0.383 N 
ATOM     25  H6  J84 d   1       5.058  28.352  29.765  0.00  0.00     0.157 HD
ATOM     26  H7  J84 d   1       3.915  27.546  30.873  0.00  0.00     0.157 HD
ENDBRANCH   4  24
TORSDOF 2
