REMARK  7 active torsions:
REMARK  status: ('A' for Active; 'I' for Inactive)
REMARK    1  A    between atoms: C2_2  and  O30_23 
REMARK    2  A    between atoms: C6_6  and  O29_22 
REMARK    3  A    between atoms: C10_8  and  O27_21 
REMARK    4  A    between atoms: C11_9  and  C14_10 
REMARK    5  A    between atoms: C16_12  and  O25_20 
REMARK    6  A    between atoms: C17_13  and  O24_19 
REMARK    7  A    between atoms: C18_14  and  O23_18 
ROOT
ATOM      1  C1  MYC d   1       7.228  24.720  21.890  0.00  0.00    -0.018 A 
ATOM      2  C2  MYC d   1       6.285  25.745  21.795  0.00  0.00     0.085 A 
ATOM      3  C3  MYC d   1       5.814  26.382  23.029  0.00  0.00     0.079 A 
ATOM      4  C4  MYC d   1       6.333  25.892  24.314  0.00  0.00     0.089 A 
ATOM      5  C5  MYC d   1       7.251  24.859  24.331  0.00  0.00    -0.018 A 
ATOM      6  C6  MYC d   1       7.701  24.289  23.138  0.00  0.00     0.071 A 
ATOM      7  C9  MYC d   1       4.822  27.465  23.028  0.00  0.00     0.196 A 
ATOM      8  C10 MYC d   1       4.409  28.044  24.317  0.00  0.00     0.127 A 
ATOM      9  C11 MYC d   1       5.015  27.500  25.571  0.00  0.00     0.102 A 
ATOM     10  O12 MYC d   1       5.914  26.466  25.479  0.00  0.00    -0.337 OA
ATOM     11  O13 MYC d   1       4.361  27.891  21.964  0.00  0.00    -0.289 OA
ATOM     12  H1  MYC d   1       7.600  24.251  20.986  0.00  0.00     0.092 H 
ATOM     13  H2  MYC d   1       7.625  24.488  25.278  0.00  0.00     0.092 H 
ATOM     14  H3  MYC d   1       3.584  27.322  24.406  0.00  0.00     0.100 H 
ATOM     15  H4  MYC d   1       5.816  28.252  25.516  0.00  0.00     0.096 H 
ENDROOT
BRANCH   9  16
ATOM     16  C14 MYC d   1       4.663  27.946  26.945  0.00  0.00    -0.021 A 
ATOM     17  C15 MYC d   1       4.964  27.028  27.967  0.00  0.00    -0.039 A 
ATOM     18  C16 MYC d   1       4.664  27.287  29.288  0.00  0.00     0.102 A 
ATOM     19  H5  MYC d   1       5.445  26.091  27.709  0.00  0.00     0.088 H 
ATOM     20  C17 MYC d   1       3.997  28.567  29.628  0.00  0.00     0.132 A 
ATOM     21  C18 MYC d   1       3.686  29.499  28.527  0.00  0.00     0.102 A 
ATOM     22  C19 MYC d   1       4.015  29.157  27.226  0.00  0.00    -0.039 A 
ATOM     23  H6  MYC d   1       3.769  29.834  26.416  0.00  0.00     0.088 H 
BRANCH  18  24
ATOM     24  O25 MYC d   1       4.998  26.357  30.215  0.00  0.00    -0.358 OA
ATOM     25  H9  MYC d   1       4.214  26.064  30.665  0.00  0.00     0.217 HD
ENDBRANCH  18  24
BRANCH  20  26
ATOM     26  O24 MYC d   1       3.674  28.901  30.898  0.00  0.00    -0.356 OA
ATOM     27  H8  MYC d   1       3.938  28.202  31.485  0.00  0.00     0.218 HD
ENDBRANCH  20  26
BRANCH  21  28
ATOM     28  O23 MYC d   1       3.071  30.680  28.794  0.00  0.00    -0.358 OA
ATOM     29  H7  MYC d   1       2.920  30.753  29.729  0.00  0.00     0.217 HD
ENDBRANCH  21  28
ENDBRANCH   9  16
BRANCH   8  30
ATOM     30  O27 MYC d   1       3.522  29.057  24.280  0.00  0.00    -0.385 OA
ATOM     31  H10 MYC d   1       3.277  29.229  23.378  0.00  0.00     0.210 HD
ENDBRANCH   8  30
BRANCH   2  32
ATOM     32  O30 MYC d   1       5.794  26.185  20.615  0.00  0.00    -0.360 OA
ATOM     33  H12 MYC d   1       6.004  27.105  20.509  0.00  0.00     0.217 HD
ENDBRANCH   2  32
BRANCH   6  34
ATOM     34  O29 MYC d   1       8.630  23.293  23.207  0.00  0.00    -0.361 OA
ATOM     35  H11 MYC d   1       9.414  23.621  23.632  0.00  0.00     0.217 HD
ENDBRANCH   6  34
TORSDOF 7
