REMARK  6 active torsions:
REMARK  status: ('A' for Active; 'I' for Inactive)
REMARK    1  A    between atoms: C2_2  and  O30_22 
REMARK    2  A    between atoms: C6_6  and  O29_21 
REMARK    3  A    between atoms: C10_8  and  O27_20 
REMARK    4  A    between atoms: C11_9  and  C14_10 
REMARK    5  A    between atoms: C17_13  and  O24_19 
REMARK    6  A    between atoms: C18_14  and  O23_18 
ROOT
ATOM      1  C1  QUE d   1       7.243  24.799  21.911  0.00  0.00    -0.018 A 
ATOM      2  C2  QUE d   1       6.295  25.815  21.811  0.00  0.00     0.085 A 
ATOM      3  C3  QUE d   1       5.798  26.472  23.029  0.00  0.00     0.079 A 
ATOM      4  C4  QUE d   1       6.332  26.002  24.315  0.00  0.00     0.089 A 
ATOM      5  C5  QUE d   1       7.272  24.984  24.327  0.00  0.00    -0.018 A 
ATOM      6  C6  QUE d   1       7.717  24.392  23.149  0.00  0.00     0.071 A 
ATOM      7  C9  QUE d   1       4.793  27.557  23.025  0.00  0.00     0.196 A 
ATOM      8  C10 QUE d   1       4.380  28.143  24.319  0.00  0.00     0.127 A 
ATOM      9  C11 QUE d   1       4.986  27.597  25.578  0.00  0.00     0.102 A 
ATOM     10  O12 QUE d   1       5.903  26.566  25.486  0.00  0.00    -0.337 OA
ATOM     11  O13 QUE d   1       4.325  27.969  21.950  0.00  0.00    -0.289 OA
ATOM     12  H1  QUE d   1       7.614  24.322  21.011  0.00  0.00     0.092 H 
ATOM     13  H2  QUE d   1       7.670  24.641  25.275  0.00  0.00     0.092 H 
ATOM     14  H3  QUE d   1       3.561  27.413  24.407  0.00  0.00     0.100 H 
ATOM     15  H4  QUE d   1       5.785  28.349  25.508  0.00  0.00     0.096 H 
ENDROOT
BRANCH   9  16
ATOM     16  C14 QUE d   1       4.664  28.064  26.957  0.00  0.00    -0.023 A 
ATOM     17  C15 QUE d   1       4.087  29.317  27.237  0.00  0.00    -0.071 A 
ATOM     18  C16 QUE d   1       3.794  29.707  28.543  0.00  0.00    -0.048 A 
ATOM     19  H5  QUE d   1       3.866  29.993  26.419  0.00  0.00     0.084 H 
ATOM     20  C17 QUE d   1       4.066  28.855  29.603  0.00  0.00     0.098 A 
ATOM     21  H6  QUE d   1       3.352  30.679  28.730  0.00  0.00     0.087 H 
ATOM     22  C18 QUE d   1       4.664  27.518  29.320  0.00  0.00     0.099 A 
ATOM     23  C19 QUE d   1       4.941  27.171  28.007  0.00  0.00    -0.040 A 
ATOM     24  H7  QUE d   1       5.375  26.202  27.788  0.00  0.00     0.088 H 
BRANCH  20  25
ATOM     25  O24 QUE d   1       3.776  29.252  30.866  0.00  0.00    -0.358 OA
ATOM     26  H9  QUE d   1       3.405  30.126  30.845  0.00  0.00     0.217 HD
ENDBRANCH  20  25
BRANCH  22  27
ATOM     27  O23 QUE d   1       4.950  26.630  30.311  0.00  0.00    -0.358 OA
ATOM     28  H8  QUE d   1       4.707  27.004  31.150  0.00  0.00     0.217 HD
ENDBRANCH  22  27
ENDBRANCH   9  16
BRANCH   8  29
ATOM     29  O27 QUE d   1       3.474  29.147  24.292  0.00  0.00    -0.385 OA
ATOM     30  H10 QUE d   1       3.230  29.327  23.392  0.00  0.00     0.210 HD
ENDBRANCH   8  29
BRANCH   2  31
ATOM     31  O30 QUE d   1       5.835  26.196  20.611  0.00  0.00    -0.360 OA
ATOM     32  H12 QUE d   1       6.032  27.115  20.475  0.00  0.00     0.217 HD
ENDBRANCH   2  31
BRANCH   6  33
ATOM     33  O29 QUE d   1       8.641  23.391  23.211  0.00  0.00    -0.361 OA
ATOM     34  H11 QUE d   1       9.432  23.717  23.624  0.00  0.00     0.217 HD
ENDBRANCH   6  33
TORSDOF 6
