REMARK  5 active torsions:
REMARK  status: ('A' for Active; 'I' for Inactive)
REMARK    1  A    between atoms: C2_3  and  O1_2 
REMARK    2  A    between atoms: C4_7  and  O2_4 
REMARK    3  A    between atoms: C12_18  and  O5_10 
REMARK    4  A    between atoms: C13_19  and  O6_12 
REMARK    5  A    between atoms: C10_16  and  C9_15 
ROOT
ATOM      1  C1  LU2 d   1       7.398  25.087  24.703  0.00  0.00    -0.017 A 
ATOM      2  C2  LU2 d   1       7.889  24.439  23.563  0.00  0.00     0.071 A 
ATOM      3  C3  LU2 d   1       7.376  24.701  22.288  0.00  0.00    -0.018 A 
ATOM      4  O3  LU2 d   1       4.197  27.569  22.083  0.00  0.00    -0.287 OA
ATOM      5  C4  LU2 d   1       6.347  25.617  22.111  0.00  0.00     0.085 A 
ATOM      6  O4  LU2 d   1       5.862  26.691  25.674  0.00  0.00    -0.309 OA
ATOM      7  C5  LU2 d   1       5.799  26.328  23.279  0.00  0.00     0.081 A 
ATOM      8  C6  LU2 d   1       6.369  26.021  24.598  0.00  0.00     0.095 A 
ATOM      9  C7  LU2 d   1       4.698  27.324  23.192  0.00  0.00     0.190 A 
ATOM     10  C8  LU2 d   1       4.245  27.948  24.357  0.00  0.00    -0.000 A 
ATOM     11  C9  LU2 d   1       4.828  27.618  25.592  0.00  0.00     0.090 A 
ATOM     12  H1  LU2 d   1       7.822  24.860  25.675  0.00  0.00     0.092 H 
ATOM     13  H4  LU2 d   1       7.786  24.183  21.428  0.00  0.00     0.092 H 
ATOM     14  H7  LU2 d   1       3.445  28.685  24.308  0.00  0.00     0.094 H 
ENDROOT
BRANCH  11  15
ATOM     15  C10 LU2 d   1       4.413  28.240  26.880  0.00  0.00     0.001 A 
ATOM     16  C11 LU2 d   1       4.626  27.497  28.048  0.00  0.00    -0.036 A 
ATOM     17  C12 LU2 d   1       4.288  28.015  29.288  0.00  0.00     0.099 A 
ATOM     18  H8  LU2 d   1       5.060  26.506  27.981  0.00  0.00     0.089 H 
ATOM     19  C13 LU2 d   1       3.710  29.378  29.367  0.00  0.00     0.098 A 
ATOM     20  C14 LU2 d   1       3.515  30.094  28.186  0.00  0.00    -0.047 A 
ATOM     21  C15 LU2 d   1       3.869  29.534  26.953  0.00  0.00    -0.068 A 
ATOM     22  H9  LU2 d   1       3.087  31.089  28.223  0.00  0.00     0.087 H 
ATOM     23  H10 LU2 d   1       3.722  30.105  26.044  0.00  0.00     0.085 H 
BRANCH  17  24
ATOM     24  O5  LU2 d   1       4.492  27.266  30.406  0.00  0.00    -0.358 OA
ATOM     25  H5  LU2 d   1       4.212  27.756  31.170  0.00  0.00     0.217 HD
ENDBRANCH  17  24
BRANCH  19  26
ATOM     26  O6  LU2 d   1       3.363  29.902  30.577  0.00  0.00    -0.358 OA
ATOM     27  H6  LU2 d   1       3.011  30.776  30.453  0.00  0.00     0.217 HD
ENDBRANCH  19  26
ENDBRANCH  11  15
BRANCH   2  28
ATOM     28  O1  LU2 d   1       8.892  23.520  23.684  0.00  0.00    -0.361 OA
ATOM     29  H2  LU2 d   1       9.109  23.175  22.826  0.00  0.00     0.217 HD
ENDBRANCH   2  28
BRANCH   5  30
ATOM     30  O2  LU2 d   1       5.844  25.875  20.893  0.00  0.00    -0.360 OA
ATOM     31  H3  LU2 d   1       5.153  26.523  20.968  0.00  0.00     0.217 HD
ENDBRANCH   5  30
TORSDOF 5
