REMARK  5 active torsions:
REMARK  status: ('A' for Active; 'I' for Inactive)
REMARK    1  A    between atoms: C2_2  and  O30_21 
REMARK    2  A    between atoms: C6_6  and  O29_20 
REMARK    3  A    between atoms: C10_8  and  O27_19 
REMARK    4  A    between atoms: C11_9  and  C14_10 
REMARK    5  A    between atoms: C17_13  and  O24_18 
ROOT
ATOM      1  C1  KMP d   1       7.343  24.750  22.019  0.00  0.00    -0.018 A 
ATOM      2  C2  KMP d   1       6.381  25.742  21.905  0.00  0.00     0.085 A 
ATOM      3  C3  KMP d   1       5.869  26.385  23.123  0.00  0.00     0.079 A 
ATOM      4  C4  KMP d   1       6.408  25.939  24.420  0.00  0.00     0.089 A 
ATOM      5  C5  KMP d   1       7.367  24.942  24.451  0.00  0.00    -0.018 A 
ATOM      6  C6  KMP d   1       7.820  24.356  23.270  0.00  0.00     0.071 A 
ATOM      7  C9  KMP d   1       4.849  27.458  23.099  0.00  0.00     0.196 A 
ATOM      8  C10 KMP d   1       4.416  28.029  24.386  0.00  0.00     0.127 A 
ATOM      9  C11 KMP d   1       5.023  27.518  25.653  0.00  0.00     0.102 A 
ATOM     10  O12 KMP d   1       5.962  26.513  25.580  0.00  0.00    -0.337 OA
ATOM     11  O13 KMP d   1       4.347  27.856  22.029  0.00  0.00    -0.289 OA
ATOM     12  H1  KMP d   1       7.730  24.274  21.125  0.00  0.00     0.092 H 
ATOM     13  H2  KMP d   1       7.770  24.614  25.402  0.00  0.00     0.092 H 
ATOM     14  H3  KMP d   1       3.616  27.279  24.474  0.00  0.00     0.100 H 
ATOM     15  H4  KMP d   1       5.803  28.290  25.582  0.00  0.00     0.096 H 
ENDROOT
BRANCH   9  16
ATOM     16  C14 KMP d   1       4.672  27.993  27.023  0.00  0.00    -0.026 A 
ATOM     17  C15 KMP d   1       4.046  29.219  27.289  0.00  0.00    -0.072 A 
ATOM     18  C16 KMP d   1       3.744  29.584  28.599  0.00  0.00    -0.050 A 
ATOM     19  H5  KMP d   1       3.796  29.886  26.472  0.00  0.00     0.084 H 
ATOM     20  C17 KMP d   1       4.051  28.735  29.651  0.00  0.00     0.065 A 
ATOM     21  H6  KMP d   1       3.267  30.537  28.797  0.00  0.00     0.087 H 
ATOM     22  C18 KMP d   1       4.669  27.514  29.400  0.00  0.00    -0.050 A 
ATOM     23  C19 KMP d   1       4.969  27.141  28.096  0.00  0.00    -0.072 A 
ATOM     24  H7  KMP d   1       4.917  26.853  30.223  0.00  0.00     0.087 H 
ATOM     25  H8  KMP d   1       5.437  26.182  27.906  0.00  0.00     0.084 H 
BRANCH  20  26
ATOM     26  O24 KMP d   1       3.754  29.095  30.927  0.00  0.00    -0.361 OA
ATOM     27  H9  KMP d   1       3.338  29.949  30.925  0.00  0.00     0.217 HD
ENDBRANCH  20  26
ENDBRANCH   9  16
BRANCH   8  28
ATOM     28  O27 KMP d   1       3.494  29.011  24.336  0.00  0.00    -0.385 OA
ATOM     29  H10 KMP d   1       3.252  29.171  23.431  0.00  0.00     0.210 HD
ENDBRANCH   8  28
BRANCH   2  30
ATOM     30  O30 KMP d   1       5.892  26.121  20.708  0.00  0.00    -0.360 OA
ATOM     31  H12 KMP d   1       6.061  27.047  20.577  0.00  0.00     0.217 HD
ENDBRANCH   2  30
BRANCH   6  32
ATOM     32  O29 KMP d   1       8.769  23.385  23.333  0.00  0.00    -0.361 OA
ATOM     33  H11 KMP d   1       8.973  23.086  22.455  0.00  0.00     0.217 HD
ENDBRANCH   6  32
TORSDOF 5
