REMARK  7 active torsions:
REMARK  status: ('A' for Active; 'I' for Inactive)
REMARK    1  A    between atoms: C01_1  and  O25_2 
REMARK    2  A    between atoms: O25_2  and  C16_3 
REMARK    3  A    between atoms: C17_5  and  O24_6 
REMARK    4  A    between atoms: C14_9  and  C11_10 
REMARK    5  A    between atoms: C6_14  and  O29_15 
REMARK    6  A    between atoms: C2_17  and  O30_18 
REMARK    7  A    between atoms: C10_22  and  O27_23 
ROOT
ATOM      1  C11 IRH d   1       4.977  27.452  25.737  0.00  0.00     0.123 A 
ATOM      2  O12 IRH d   1       5.869  26.410  25.668  0.00  0.00    -0.306 OA
ATOM      3  C4  IRH d   1       6.339  25.904  24.490  0.00  0.00     0.096 A 
ATOM      4  C5  IRH d   1       7.305  24.904  24.541  0.00  0.00    -0.017 A 
ATOM      5  C6  IRH d   1       7.812  24.358  23.371  0.00  0.00     0.071 A 
ATOM      6  C1  IRH d   1       7.337  24.822  22.151  0.00  0.00    -0.018 A 
ATOM      7  C2  IRH d   1       6.372  25.821  22.111  0.00  0.00     0.085 A 
ATOM      8  C3  IRH d   1       5.837  26.385  23.276  0.00  0.00     0.084 A 
ATOM      9  C9  IRH d   1       4.880  27.408  23.283  0.00  0.00     0.223 A 
ATOM     10  O13 IRH d   1       4.458  27.881  22.229  0.00  0.00    -0.284 OA
ATOM     11  C10 IRH d   1       4.493  27.948  24.516  0.00  0.00     0.152 A 
ATOM     12  H8  IRH d   1       7.663  24.549  25.501  0.00  0.00     0.092 H 
ATOM     13  H10 IRH d   1       7.720  24.404  21.227  0.00  0.00     0.092 H 
ENDROOT
BRANCH   1  14
ATOM     14  C14 IRH d   1       4.648  27.847  27.041  0.00  0.00     0.004 A 
ATOM     15  C15 IRH d   1       4.390  29.180  27.399  0.00  0.00    -0.035 A 
ATOM     16  C16 IRH d   1       4.056  29.489  28.717  0.00  0.00     0.102 A 
ATOM     17  H4  IRH d   1       4.450  29.965  26.654  0.00  0.00     0.089 H 
ATOM     18  C17 IRH d   1       4.017  28.502  29.696  0.00  0.00     0.099 A 
ATOM     19  C18 IRH d   1       4.273  27.174  29.363  0.00  0.00    -0.047 A 
ATOM     20  C19 IRH d   1       4.588  26.853  28.039  0.00  0.00    -0.068 A 
ATOM     21  H6  IRH d   1       4.229  26.400  30.120  0.00  0.00     0.087 H 
ATOM     22  H7  IRH d   1       4.790  25.821  27.775  0.00  0.00     0.085 H 
BRANCH  16  23
ATOM     23  O25 IRH d   1       3.834  30.773  29.112  0.00  0.00    -0.353 OA
BRANCH  23  24
ATOM     24  C01 IRH d   1       2.523  31.247  29.413  0.00  0.00     0.010 C 
ATOM     25  H1  IRH d   1       2.575  32.305  29.709  0.00  0.00     0.066 H 
ATOM     26  H2  IRH d   1       2.100  30.656  30.238  0.00  0.00     0.066 H 
ATOM     27  H3  IRH d   1       1.883  31.146  28.524  0.00  0.00     0.066 H 
ENDBRANCH  23  24
ENDBRANCH  16  23
BRANCH  18  28
ATOM     28  O24 IRH d   1       3.703  28.887  30.964  0.00  0.00    -0.358 OA
ATOM     29  H5  IRH d   1       3.709  28.128  31.535  0.00  0.00     0.217 HD
ENDBRANCH  18  28
ENDBRANCH   1  14
BRANCH  11  30
ATOM     30  O27 IRH d   1       3.618  28.985  24.514  0.00  0.00    -0.355 OA
ATOM     31  H12 IRH d   1       3.993  29.713  24.033  0.00  0.00     0.218 HD
ENDBRANCH  11  30
BRANCH   5  32
ATOM     32  O29 IRH d   1       8.765  23.383  23.413  0.00  0.00    -0.361 OA
ATOM     33  H9  IRH d   1       8.995  23.128  22.527  0.00  0.00     0.217 HD
ENDBRANCH   5  32
BRANCH   7  34
ATOM     34  O30 IRH d   1       5.914  26.247  20.924  0.00  0.00    -0.360 OA
ATOM     35  H11 IRH d   1       5.264  26.926  21.062  0.00  0.00     0.217 HD
ENDBRANCH   7  34
TORSDOF 7
