REMARK  6 active torsions:
REMARK  status: ('A' for Active; 'I' for Inactive)
REMARK    1  A    between atoms: C01_1  and  O6_2 
REMARK    2  A    between atoms: O6_2  and  C13_3 
REMARK    3  A    between atoms: C12_4  and  O5_6 
REMARK    4  A    between atoms: C10_9  and  C9_10 
REMARK    5  A    between atoms: C2_14  and  O1_15 
REMARK    6  A    between atoms: C4_17  and  O2_18 
ROOT
ATOM      1  C9  J8D d   1       4.780  27.600  25.463  0.00  0.00     0.090 A 
ATOM      2  O4  J8D d   1       5.776  26.659  25.563  0.00  0.00    -0.309 OA
ATOM      3  C6  J8D d   1       6.214  25.958  24.465  0.00  0.00     0.095 A 
ATOM      4  C1  J8D d   1       7.235  25.022  24.615  0.00  0.00    -0.017 A 
ATOM      5  C2  J8D d   1       7.705  24.314  23.514  0.00  0.00     0.071 A 
ATOM      6  C3  J8D d   1       7.145  24.549  22.268  0.00  0.00    -0.018 A 
ATOM      7  C4  J8D d   1       6.130  25.481  22.127  0.00  0.00     0.085 A 
ATOM      8  C5  J8D d   1       5.631  26.204  23.220  0.00  0.00     0.081 A 
ATOM      9  C7  J8D d   1       4.599  27.156  23.106  0.00  0.00     0.190 A 
ATOM     10  O3  J8D d   1       4.013  27.351  22.042  0.00  0.00    -0.287 OA
ATOM     11  C8  J8D d   1       4.167  27.848  24.232  0.00  0.00    -0.000 A 
ATOM     12  H8  J8D d   1       7.665  24.845  25.594  0.00  0.00     0.092 H 
ATOM     13  H10 J8D d   1       7.502  24.003  21.402  0.00  0.00     0.092 H 
ATOM     14  H12 J8D d   1       3.360  28.575  24.155  0.00  0.00     0.094 H 
ENDROOT
BRANCH   1  15
ATOM     15  C10 J8D d   1       4.469  28.262  26.661  0.00  0.00     0.001 A 
ATOM     16  C11 J8D d   1       4.710  27.628  27.888  0.00  0.00    -0.036 A 
ATOM     17  C12 J8D d   1       4.420  28.270  29.087  0.00  0.00     0.099 A 
ATOM     18  H4  J8D d   1       5.127  26.627  27.902  0.00  0.00     0.089 H 
ATOM     19  C13 J8D d   1       3.901  29.567  29.111  0.00  0.00     0.101 A 
ATOM     20  C14 J8D d   1       3.658  30.216  27.890  0.00  0.00    -0.047 A 
ATOM     21  C15 J8D d   1       3.947  29.569  26.681  0.00  0.00    -0.068 A 
ATOM     22  H6  J8D d   1       3.246  31.219  27.883  0.00  0.00     0.087 H 
ATOM     23  H7  J8D d   1       3.765  30.084  25.745  0.00  0.00     0.085 H 
BRANCH  17  24
ATOM     24  O5  J8D d   1       4.642  27.656  30.279  0.00  0.00    -0.358 OA
ATOM     25  H5  J8D d   1       4.388  28.238  30.986  0.00  0.00     0.217 HD
ENDBRANCH  17  24
BRANCH  19  26
ATOM     26  O6  J8D d   1       3.655  30.089  30.360  0.00  0.00    -0.353 OA
BRANCH  26  27
ATOM     27  C01 J8D d   1       3.503  31.515  30.483  0.00  0.00     0.010 C 
ATOM     28  H1  J8D d   1       3.313  31.774  31.535  0.00  0.00     0.066 H 
ATOM     29  H2  J8D d   1       2.657  31.848  29.864  0.00  0.00     0.066 H 
ATOM     30  H3  J8D d   1       4.423  32.013  30.144  0.00  0.00     0.066 H 
ENDBRANCH  26  27
ENDBRANCH  19  26
ENDBRANCH   1  15
BRANCH   5  31
ATOM     31  O1  J8D d   1       8.699  23.395  23.639  0.00  0.00    -0.361 OA
ATOM     32  H9  J8D d   1       8.887  23.015  22.788  0.00  0.00     0.217 HD
ENDBRANCH   5  31
BRANCH   7  33
ATOM     33  O2  J8D d   1       5.595  25.705  20.905  0.00  0.00    -0.360 OA
ATOM     34  H11 J8D d   1       4.916  26.366  20.974  0.00  0.00     0.217 HD
ENDBRANCH   7  33
TORSDOF 6
