REMARK  7 active torsions:
REMARK  status: ('A' for Active; 'I' for Inactive)
REMARK    1  A    between atoms: C2_2  and  O30_19 
REMARK    2  A    between atoms: C6_6  and  O29_17 
REMARK    3  A    between atoms: C18_8  and  O23_9 
REMARK    4  A    between atoms: C17_10  and  O24_11 
REMARK    5  A    between atoms: C11_15  and  C14_14 
REMARK    6  A    between atoms: O29_17  and  C01_18 
REMARK    7  A    between atoms: C10_22  and  O27_23 
ROOT
ATOM      1  C1  J8G d   1       7.308  24.706  22.253  0.00  0.00    -0.018 A 
ATOM      2  C2  J8G d   1       6.318  25.696  22.257  0.00  0.00     0.085 A 
ATOM      3  C3  J8G d   1       5.863  26.285  23.445  0.00  0.00     0.084 A 
ATOM      4  C4  J8G d   1       6.455  25.845  24.637  0.00  0.00     0.096 A 
ATOM      5  C5  J8G d   1       7.444  24.858  24.640  0.00  0.00    -0.017 A 
ATOM      6  C6  J8G d   1       7.883  24.282  23.449  0.00  0.00     0.073 A 
ATOM      7  C11 J8G d   1       5.102  27.392  25.905  0.00  0.00     0.123 A 
ATOM      8  O12 J8G d   1       6.057  26.402  25.831  0.00  0.00    -0.306 OA
ATOM      9  C9  J8G d   1       4.868  27.285  23.477  0.00  0.00     0.223 A 
ATOM     10  O13 J8G d   1       4.309  27.692  22.456  0.00  0.00    -0.284 OA
ATOM     11  C10 J8G d   1       4.517  27.823  24.709  0.00  0.00     0.152 A 
ATOM     12  H1  J8G d   1       7.629  24.267  21.315  0.00  0.00     0.092 H 
ATOM     13  H2  J8G d   1       7.875  24.536  25.581  0.00  0.00     0.092 H 
ENDROOT
BRANCH   7  14
ATOM     14  C14 J8G d   1       4.847  27.883  27.189  0.00  0.00     0.004 A 
ATOM     15  C19 J8G d   1       4.756  26.987  28.262  0.00  0.00    -0.035 A 
ATOM     16  C18 J8G d   1       4.525  27.472  29.548  0.00  0.00     0.099 A 
ATOM     17  H3  J8G d   1       4.865  25.922  28.093  0.00  0.00     0.089 H 
ATOM     18  C17 J8G d   1       4.394  28.846  29.782  0.00  0.00     0.098 A 
ATOM     19  C16 J8G d   1       4.495  29.744  28.723  0.00  0.00    -0.047 A 
ATOM     20  C15 J8G d   1       4.730  29.262  27.433  0.00  0.00    -0.068 A 
ATOM     21  H6  J8G d   1       4.392  30.809  28.898  0.00  0.00     0.087 H 
ATOM     22  H7  J8G d   1       4.823  29.961  26.610  0.00  0.00     0.085 H 
BRANCH  16  23
ATOM     23  O23 J8G d   1       4.419  26.634  30.611  0.00  0.00    -0.358 OA
ATOM     24  H4  J8G d   1       4.263  27.142  31.399  0.00  0.00     0.217 HD
ENDBRANCH  16  23
BRANCH  18  25
ATOM     25  O24 J8G d   1       4.167  29.260  31.063  0.00  0.00    -0.358 OA
ATOM     26  H5  J8G d   1       4.887  28.983  31.617  0.00  0.00     0.217 HD
ENDBRANCH  18  25
ENDBRANCH   7  14
BRANCH  11  27
ATOM     27  O27 J8G d   1       3.559  28.791  24.728  0.00  0.00    -0.355 OA
ATOM     28  H12 J8G d   1       3.847  29.530  24.206  0.00  0.00     0.218 HD
ENDBRANCH  11  27
BRANCH   2  29
ATOM     29  O30 J8G d   1       5.751  26.120  21.096  0.00  0.00    -0.360 OA
ATOM     30  H11 J8G d   1       5.903  27.052  20.992  0.00  0.00     0.217 HD
ENDBRANCH   2  29
BRANCH   6  31
ATOM     31  O29 J8G d   1       8.862  23.318  23.463  0.00  0.00    -0.356 OA
BRANCH  31  32
ATOM     32  C01 J8G d   1       9.328  22.395  22.811  0.00  0.00     0.010 C 
ATOM     33  H8  J8G d   1      10.169  21.946  23.360  0.00  0.00     0.066 H 
ATOM     34  H9  J8G d   1       9.684  22.774  21.842  0.00  0.00     0.066 H 
ATOM     35  H10 J8G d   1       8.551  21.635  22.644  0.00  0.00     0.066 H 
ENDBRANCH  31  32
ENDBRANCH   6  31
TORSDOF 7
