REMARK  14 active torsions:
REMARK  status: ('A' for Active; 'I' for Inactive)
REMARK    1  A    between atoms: C_1  and  CH3_3 
REMARK       I    between atoms: C_1  and  N_4 
REMARK    2  A    between atoms: N_4  and  CA_5 
REMARK    3  A    between atoms: CA_5  and  C_6 
REMARK    4  A    between atoms: CA_5  and  CB_8 
REMARK       I    between atoms: C_6  and  N_12 
REMARK    5  A    between atoms: CB_8  and  CG1_9 
REMARK    6  A    between atoms: CB_8  and  CG2_10 
REMARK    7  A    between atoms: CG1_9  and  CD1_11 
REMARK    8  A    between atoms: N_12  and  CA_13 
REMARK    9  A    between atoms: CA_13  and  C_14 
REMARK   10  A    between atoms: CA_13  and  CB_16 
REMARK       I    between atoms: C_14  and  N_17 
REMARK   11  A    between atoms: N_17  and  CA_18 
REMARK   12  A    between atoms: CA_18  and  C_19 
REMARK   13  A    between atoms: CA_18  and  CB_21 
REMARK   14  A    between atoms: CB_21  and  CG_22 
ROOT
ATOM      1  CA  ALA d   1      23.693  14.312  10.751  0.00  0.00     0.086 C 
ATOM      2  H16 ALA d   1      24.363  15.070  10.319  0.00  0.00     0.086 H 
ENDROOT
BRANCH   1   3
ATOM      3  N   ALA d   1      22.976  13.629   9.658  0.00  0.00    -0.346 N 
ATOM      4  C   ILE d   1      23.637  13.034   8.695  0.00  0.00     0.241 C 
ATOM      5  O   ILE d   1      24.869  13.063   8.683  0.00  0.00    -0.271 OA
ATOM      6  H15 ALA d   1      21.976  13.620   9.652  0.00  0.00     0.163 HD
BRANCH   4   7
ATOM      7  CA  ILE d   1      22.902  12.298   7.584  0.00  0.00     0.092 C 
ATOM      8  H5  ILE d   1      23.122  11.228   7.714  0.00  0.00     0.088 H 
BRANCH   7   9
ATOM      9  N   ILE d   1      21.472  12.437   7.678  0.00  0.00    -0.348 N 
ATOM     10  C   ACE d   1      20.697  11.377   7.961  0.00  0.00     0.214 C 
ATOM     11  O   ACE d   1      21.127  10.279   8.229  0.00  0.00    -0.274 OA
ATOM     12  H4  ILE d   1      21.051  13.332   7.531  0.00  0.00     0.163 HD
BRANCH  10  13
ATOM     13  CH3 ACE d   1      19.171  11.614   7.876  0.00  0.00    -0.003 C 
ATOM     14  H1  ACE d   1      18.977  12.667   7.623  0.00  0.00     0.040 H 
ATOM     15  H2  ACE d   1      18.709  11.379   8.846  0.00  0.00     0.040 H 
ATOM     16  H3  ACE d   1      18.742  10.965   7.098  0.00  0.00     0.040 H 
ENDBRANCH  10  13
ENDBRANCH   7   9
BRANCH   7  17
ATOM     17  CB  ILE d   1      23.435  12.695   6.197  0.00  0.00    -0.030 C 
ATOM     18  H6  ILE d   1      24.526  12.560   6.234  0.00  0.00     0.043 H 
BRANCH  17  19
ATOM     19  CG1 ILE d   1      23.186  14.154   5.829  0.00  0.00    -0.063 C 
ATOM     20  H7  ILE d   1      23.445  14.779   6.697  0.00  0.00     0.033 H 
ATOM     21  H8  ILE d   1      22.118  14.275   5.596  0.00  0.00     0.033 H 
BRANCH  19  22
ATOM     22  CD1 ILE d   1      23.988  14.633   4.643  0.00  0.00    -0.076 C 
ATOM     23  H12 ILE d   1      23.753  15.689   4.443  0.00  0.00     0.027 H 
ATOM     24  H13 ILE d   1      23.735  14.028   3.760  0.00  0.00     0.027 H 
ATOM     25  H14 ILE d   1      25.061  14.532   4.861  0.00  0.00     0.027 H 
ENDBRANCH  19  22
ENDBRANCH  17  19
BRANCH  17  26
ATOM     26  CG2 ILE d   1      22.903  11.770   5.096  0.00  0.00    -0.071 C 
ATOM     27  H9  ILE d   1      23.090  10.723   5.375  0.00  0.00     0.028 H 
ATOM     28  H10 ILE d   1      23.416  11.994   4.149  0.00  0.00     0.028 H 
ATOM     29  H11 ILE d   1      21.822  11.930   4.974  0.00  0.00     0.028 H 
ENDBRANCH  17  26
ENDBRANCH   7  17
ENDBRANCH   4   7
ENDBRANCH   1   3
BRANCH   1  30
ATOM     30  C   ALA d   1      24.527  13.327  11.546  0.00  0.00     0.240 C 
ATOM     31  O   ALA d   1      24.115  12.193  11.824  0.00  0.00    -0.271 OA
ATOM     32  N   PHL d   1      25.706  13.787  11.964  0.00  0.00    -0.344 N 
ATOM     33  H20 PHL d   1      26.007  14.691  11.659  0.00  0.00     0.163 HD
BRANCH  32  34
ATOM     34  CA  PHL d   1      26.577  13.015  12.855  0.00  0.00     0.100 C 
ATOM     35  H21 PHL d   1      26.177  11.998  12.984  0.00  0.00     0.090 H 
BRANCH  34  36
ATOM     36  C   PHL d   1      26.581  13.790  14.250  0.00  0.00     0.197 C 
ATOM     37  O   PHL d   1      27.346  13.180  15.211  0.00  0.00    -0.646 OA
ATOM     38  OXT PHL d   1      25.819  14.930  14.243  0.00  0.00    -0.646 OA
ENDBRANCH  34  36
BRANCH  34  39
ATOM     39  CB  PHL d   1      28.009  12.931  12.301  0.00  0.00    -0.013 C 
ATOM     40  H22 PHL d   1      28.680  12.635  13.121  0.00  0.00     0.043 H 
ATOM     41  H23 PHL d   1      28.296  13.927  11.934  0.00  0.00     0.043 H 
BRANCH  39  42
ATOM     42  CG  PHL d   1      28.174  11.949  11.179  0.00  0.00    -0.056 A 
ATOM     43  CD1 PHL d   1      29.148  12.166  10.203  0.00  0.00    -0.077 A 
ATOM     44  CE1 PHL d   1      29.394  11.222   9.210  0.00  0.00    -0.082 A 
ATOM     45  H24 PHL d   1      29.723  13.085  10.219  0.00  0.00     0.084 H 
ATOM     46  CZ  PHL d   1      28.629  10.081   9.129  0.00  0.00    -0.083 A 
ATOM     47  H26 PHL d   1      30.193  11.387   8.496  0.00  0.00     0.083 H 
ATOM     48  CE2 PHL d   1      27.659   9.827  10.090  0.00  0.00    -0.082 A 
ATOM     49  H28 PHL d   1      28.783   9.381   8.316  0.00  0.00     0.083 H 
ATOM     50  CD2 PHL d   1      27.425  10.729  11.130  0.00  0.00    -0.077 A 
ATOM     51  H27 PHL d   1      27.075   8.915  10.032  0.00  0.00     0.083 H 
ATOM     52  H25 PHL d   1      26.685  10.509  11.891  0.00  0.00     0.084 H 
ENDBRANCH  39  42
ENDBRANCH  34  39
ENDBRANCH  32  34
ENDBRANCH   1  30
BRANCH   1  53
ATOM     53  CB  ALA d   1      22.685  15.000  11.648  0.00  0.00    -0.049 C 
ATOM     54  H17 ALA d   1      23.212  15.512  12.466  0.00  0.00     0.030 H 
ATOM     55  H18 ALA d   1      21.996  14.252  12.067  0.00  0.00     0.030 H 
ATOM     56  H19 ALA d   1      22.115  15.736  11.062  0.00  0.00     0.030 H 
ENDBRANCH   1  53
TORSDOF 14
