REMARK  12 active torsions:
REMARK  status: ('A' for Active; 'I' for Inactive)
REMARK    1  A    between atoms: C_1  and  CH3_3 
REMARK       I    between atoms: C_1  and  N_4 
REMARK    2  A    between atoms: N_4  and  CA_5 
REMARK    3  A    between atoms: CA_5  and  C_6 
REMARK    4  A    between atoms: CA_5  and  CB_8 
REMARK       I    between atoms: C_6  and  N_12 
REMARK    5  A    between atoms: CB_8  and  CG1_9 
REMARK    6  A    between atoms: CB_8  and  CG2_10 
REMARK    7  A    between atoms: CG1_9  and  CD1_11 
REMARK    8  A    between atoms: CA_13  and  C_14 
REMARK       I    between atoms: C_14  and  N_19 
REMARK    9  A    between atoms: N_19  and  CA_20 
REMARK   10  A    between atoms: CA_20  and  C_21 
REMARK   11  A    between atoms: CA_20  and  CB_23 
REMARK   12  A    between atoms: CB_23  and  CG_24 
ROOT
ATOM      1  C   ILE d   1      23.513  13.115   8.829  0.00  0.00     0.243 C 
ATOM      2  O   ILE d   1      24.737  12.938   8.860  0.00  0.00    -0.271 OA
ATOM      3  N   PRO d   1      22.928  13.854   9.751  0.00  0.00    -0.337 N 
ATOM      4  CA  PRO d   1      23.744  14.458  10.818  0.00  0.00     0.091 C 
ATOM      5  CB  PRO d   1      22.680  15.231  11.654  0.00  0.00    -0.036 C 
ATOM      6  CG  PRO d   1      21.653  15.596  10.693  0.00  0.00    -0.048 C 
ATOM      7  CD  PRO d   1      21.530  14.370   9.804  0.00  0.00    -0.001 C 
ATOM      8  H15 PRO d   1      24.488  15.149  10.395  0.00  0.00     0.087 H 
ATOM      9  H16 PRO d   1      23.122  16.129  12.110  0.00  0.00     0.036 H 
ATOM     10  H17 PRO d   1      22.263  14.587  12.442  0.00  0.00     0.036 H 
ATOM     11  H18 PRO d   1      21.960  16.475  10.107  0.00  0.00     0.035 H 
ATOM     12  H19 PRO d   1      20.700  15.808  11.200  0.00  0.00     0.035 H 
ATOM     13  H20 PRO d   1      20.851  13.627  10.247  0.00  0.00     0.064 H 
ATOM     14  H21 PRO d   1      21.171  14.643   8.801  0.00  0.00     0.064 H 
ENDROOT
BRANCH   1  15
ATOM     15  CA  ILE d   1      22.678  12.560   7.690  0.00  0.00     0.092 C 
ATOM     16  H5  ILE d   1      21.771  13.170   7.566  0.00  0.00     0.088 H 
BRANCH  15  17
ATOM     17  N   ILE d   1      23.478  12.636   6.473  0.00  0.00    -0.348 N 
ATOM     18  C   ACE d   1      23.197  13.353   5.434  0.00  0.00     0.214 C 
ATOM     19  O   ACE d   1      22.038  13.854   5.333  0.00  0.00    -0.274 OA
ATOM     20  H4  ILE d   1      24.314  12.088   6.439  0.00  0.00     0.163 HD
BRANCH  18  21
ATOM     21  CH3 ACE d   1      24.038  13.151   4.233  0.00  0.00    -0.003 C 
ATOM     22  H1  ACE d   1      25.000  12.708   4.529  0.00  0.00     0.040 H 
ATOM     23  H2  ACE d   1      24.216  14.120   3.743  0.00  0.00     0.040 H 
ATOM     24  H3  ACE d   1      23.523  12.475   3.534  0.00  0.00     0.040 H 
ENDBRANCH  18  21
ENDBRANCH  15  17
BRANCH  15  25
ATOM     25  CB  ILE d   1      22.274  11.149   7.998  0.00  0.00    -0.030 C 
ATOM     26  H6  ILE d   1      23.205  10.565   7.969  0.00  0.00     0.043 H 
BRANCH  25  27
ATOM     27  CG1 ILE d   1      21.322  10.531   6.926  0.00  0.00    -0.063 C 
ATOM     28  H7  ILE d   1      21.201  11.238   6.092  0.00  0.00     0.033 H 
ATOM     29  H8  ILE d   1      20.341  10.328   7.380  0.00  0.00     0.033 H 
BRANCH  27  30
ATOM     30  CD1 ILE d   1      21.912   9.246   6.412  0.00  0.00    -0.076 C 
ATOM     31  H12 ILE d   1      21.241   8.811   5.657  0.00  0.00     0.027 H 
ATOM     32  H13 ILE d   1      22.033   8.539   7.246  0.00  0.00     0.027 H 
ATOM     33  H14 ILE d   1      22.893   9.449   5.958  0.00  0.00     0.027 H 
ENDBRANCH  27  30
ENDBRANCH  25  27
BRANCH  25  34
ATOM     34  CG2 ILE d   1      21.679  10.928   9.366  0.00  0.00    -0.071 C 
ATOM     35  H9  ILE d   1      22.343  11.360  10.129  0.00  0.00     0.028 H 
ATOM     36  H10 ILE d   1      21.566   9.849   9.547  0.00  0.00     0.028 H 
ATOM     37  H11 ILE d   1      20.694  11.414   9.420  0.00  0.00     0.028 H 
ENDBRANCH  25  34
ENDBRANCH  15  25
ENDBRANCH   1  15
BRANCH   4  38
ATOM     38  C   PRO d   1      24.462  13.416  11.661  0.00  0.00     0.241 C 
ATOM     39  O   PRO d   1      23.950  12.350  11.963  0.00  0.00    -0.271 OA
ATOM     40  N   PHL d   1      25.678  13.796  12.053  0.00  0.00    -0.344 N 
ATOM     41  H22 PHL d   1      26.040  14.646  11.671  0.00  0.00     0.163 HD
BRANCH  40  42
ATOM     42  CA  PHL d   1      26.517  13.073  12.990  0.00  0.00     0.100 C 
ATOM     43  H23 PHL d   1      26.087  12.070  13.127  0.00  0.00     0.090 H 
BRANCH  42  44
ATOM     44  C   PHL d   1      26.508  13.765  14.373  0.00  0.00     0.197 C 
ATOM     45  O   PHL d   1      27.274  13.162  15.311  0.00  0.00    -0.646 OA
ATOM     46  OXT PHL d   1      25.735  14.873  14.445  0.00  0.00    -0.646 OA
ENDBRANCH  42  44
BRANCH  42  47
ATOM     47  CB  PHL d   1      27.897  12.895  12.400  0.00  0.00    -0.013 C 
ATOM     48  H24 PHL d   1      28.554  12.544  13.209  0.00  0.00     0.043 H 
ATOM     49  H25 PHL d   1      28.234  13.884  12.056  0.00  0.00     0.043 H 
BRANCH  47  50
ATOM     50  CG  PHL d   1      28.061  11.949  11.255  0.00  0.00    -0.056 A 
ATOM     51  CD1 PHL d   1      29.043  12.180  10.289  0.00  0.00    -0.077 A 
ATOM     52  CE1 PHL d   1      29.236  11.286   9.266  0.00  0.00    -0.082 A 
ATOM     53  H26 PHL d   1      29.657  13.072  10.348  0.00  0.00     0.084 H 
ATOM     54  CZ  PHL d   1      28.464  10.166   9.141  0.00  0.00    -0.083 A 
ATOM     55  H28 PHL d   1      30.019  11.473   8.540  0.00  0.00     0.083 H 
ATOM     56  CE2 PHL d   1      27.515   9.885  10.090  0.00  0.00    -0.082 A 
ATOM     57  H30 PHL d   1      28.601   9.502   8.295  0.00  0.00     0.083 H 
ATOM     58  CD2 PHL d   1      27.330  10.769  11.157  0.00  0.00    -0.077 A 
ATOM     59  H29 PHL d   1      26.914   8.986  10.014  0.00  0.00     0.083 H 
ATOM     60  H27 PHL d   1      26.602  10.530  11.924  0.00  0.00     0.084 H 
ENDBRANCH  47  50
ENDBRANCH  42  47
ENDBRANCH  40  42
ENDBRANCH   4  38
TORSDOF 12
