REMARK  7 active torsions:
REMARK  status: ('A' for Active; 'I' for Inactive)
REMARK    1  A    between atoms: C5_2  and  S6_25 
REMARK    2  A    between atoms: S6_25  and  C7_3 
REMARK    3  A    between atoms: C10_5  and  C11_13 
REMARK    4  A    between atoms: C16_15  and  C17_7 
REMARK    5  A    between atoms: C17_7  and  C18_16 
REMARK    6  A    between atoms: O2_24  and  C1_12 
REMARK       I    between atoms: C11_13  and  N13_22 
REMARK    7  A    between atoms: C3_20  and  O2_24 
ROOT
ATOM      1  C15 J8S d   1     -21.425   1.167 -23.311  0.00  0.00    -0.046 C 
ATOM      2  C24 J8S d   1     -20.715  -0.598 -21.658  0.00  0.00    -0.046 C 
ATOM      3  C11 J8S d   1     -19.744  -1.536 -24.971  0.00  0.00     0.256 C 
ATOM      4  C14 J8S d   1     -20.237   0.759 -24.157  0.00  0.00    -0.002 C 
ATOM      5  C16 J8S d   1     -21.152   0.862 -21.846  0.00  0.00    -0.047 C 
ATOM      6  C25 J8S d   1     -19.576  -1.013 -22.567  0.00  0.00    -0.002 C 
ATOM      7  N13 J8S d   1     -19.912  -0.657 -23.930  0.00  0.00    -0.348 N 
ATOM      8  O12 J8S d   1     -20.001  -1.286 -26.135  0.00  0.00    -0.267 OA
ATOM      9  H6  J8S d   1     -22.314   0.609 -23.639  0.00  0.00     0.035 H 
ATOM     10  H7  J8S d   1     -21.604   2.246 -23.431  0.00  0.00     0.035 H 
ATOM     11  H13 J8S d   1     -21.578  -1.248 -21.863  0.00  0.00     0.035 H 
ATOM     12  H14 J8S d   1     -20.394  -0.733 -20.615  0.00  0.00     0.035 H 
ATOM     13  H18 J8S d   1     -19.369   1.378 -23.887  0.00  0.00     0.064 H 
ATOM     14  H19 J8S d   1     -20.479   0.910 -25.219  0.00  0.00     0.064 H 
ATOM     15  H20 J8S d   1     -20.342   1.519 -21.495  0.00  0.00     0.040 H 
ATOM     16  H23 J8S d   1     -19.424  -2.100 -22.496  0.00  0.00     0.064 H 
ATOM     17  H24 J8S d   1     -18.655  -0.493 -22.266  0.00  0.00     0.064 H 
ENDROOT
BRANCH   3  18
ATOM     18  C10 J8S d   1     -19.292  -2.916 -24.628  0.00  0.00     0.065 A 
ATOM     19  C3  J8S d   1     -18.078  -3.193 -24.031  0.00  0.00     0.085 A 
ATOM     20  C4  J8S d   1     -17.722  -4.504 -23.731  0.00  0.00    -0.034 A 
ATOM     21  C5  J8S d   1     -18.603  -5.509 -24.035  0.00  0.00     0.002 A 
ATOM     22  H1  J8S d   1     -16.768  -4.726 -23.267  0.00  0.00     0.089 H 
ATOM     23  C8  J8S d   1     -19.813  -5.225 -24.635  0.00  0.00    -0.066 A 
ATOM     24  C9  J8S d   1     -20.161  -3.928 -24.944  0.00  0.00    -0.064 A 
ATOM     25  H5  J8S d   1     -20.498  -6.032 -24.866  0.00  0.00     0.085 H 
ATOM     26  H25 J8S d   1     -21.106  -3.712 -25.429  0.00  0.00     0.085 H 
BRANCH  19  27
ATOM     27  O2  J8S d   1     -17.263  -2.118 -23.776  0.00  0.00    -0.355 OA
BRANCH  27  28
ATOM     28  C1  J8S d   1     -16.107  -2.367 -22.961  0.00  0.00     0.010 C 
ATOM     29  H15 J8S d   1     -15.541  -1.433 -22.832  0.00  0.00     0.066 H 
ATOM     30  H16 J8S d   1     -15.469  -3.118 -23.450  0.00  0.00     0.066 H 
ATOM     31  H17 J8S d   1     -16.426  -2.741 -21.977  0.00  0.00     0.066 H 
ENDBRANCH  27  28
ENDBRANCH  19  27
BRANCH  21  32
ATOM     32  S6  J8S d   1     -18.251  -7.213 -23.693  0.00  0.00    -0.134 SA
BRANCH  32  33
ATOM     33  C7  J8S d   1     -16.725  -7.238 -22.760  0.00  0.00    -0.030 C 
ATOM     34  H2  J8S d   1     -16.459  -8.278 -22.520  0.00  0.00     0.042 H 
ATOM     35  H3  J8S d   1     -16.856  -6.669 -21.828  0.00  0.00     0.042 H 
ATOM     36  H4  J8S d   1     -15.922  -6.783 -23.358  0.00  0.00     0.042 H 
ENDBRANCH  32  33
ENDBRANCH  21  32
ENDBRANCH   3  18
BRANCH   5  37
ATOM     37  C17 J8S d   1     -22.414   1.139 -21.012  0.00  0.00    -0.037 C 
ATOM     38  H8  J8S d   1     -22.194   0.957 -19.950  0.00  0.00     0.040 H 
ATOM     39  H9  J8S d   1     -23.220   0.467 -21.340  0.00  0.00     0.040 H 
BRANCH  37  40
ATOM     40  C18 J8S d   1     -22.863   2.592 -21.193  0.00  0.00    -0.058 A 
ATOM     41  C19 J8S d   1     -22.121   3.680 -20.769  0.00  0.00    -0.077 A 
ATOM     42  C20 J8S d   1     -22.597   4.977 -20.954  0.00  0.00    -0.082 A 
ATOM     43  H21 J8S d   1     -21.162   3.523 -20.289  0.00  0.00     0.084 H 
ATOM     44  C21 J8S d   1     -23.831   5.201 -21.559  0.00  0.00    -0.083 A 
ATOM     45  H10 J8S d   1     -22.001   5.820 -20.624  0.00  0.00     0.083 H 
ATOM     46  C22 J8S d   1     -24.575   4.122 -21.966  0.00  0.00    -0.082 A 
ATOM     47  H11 J8S d   1     -24.198   6.210 -21.706  0.00  0.00     0.083 H 
ATOM     48  C23 J8S d   1     -24.096   2.837 -21.772  0.00  0.00    -0.077 A 
ATOM     49  H12 J8S d   1     -25.538   4.276 -22.439  0.00  0.00     0.083 H 
ATOM     50  H22 J8S d   1     -24.706   1.997 -22.083  0.00  0.00     0.084 H 
ENDBRANCH  37  40
ENDBRANCH   5  37
TORSDOF 7
