REMARK  14 active torsions:
REMARK  status: ('A' for Active; 'I' for Inactive)
REMARK    1  A    between atoms: CA_1  and  CB_2 
REMARK    2  A    between atoms: C_5  and  CA_1 
REMARK    3  A    between atoms: CB_2  and  CG1_3 
REMARK    4  A    between atoms: CB_2  and  CG2_4 
REMARK       I    between atoms: N_7  and  C_5 
REMARK    5  A    between atoms: CA_8  and  N_7 
REMARK    6  A    between atoms: C_9  and  CA_8 
REMARK    7  A    between atoms: CA_8  and  CB_11 
REMARK       I    between atoms: N_20  and  C_9 
REMARK    8  A    between atoms: CB_11  and  CG_12 
REMARK    9  A    between atoms: CZ_17  and  OH_18 
REMARK   10  A    between atoms: CA_22  and  C_19 
REMARK   11  A    between atoms: CA_22  and  N_20 
REMARK   12  A    between atoms: CB_23  and  CA_22 
REMARK   13  A    between atoms: CG_24  and  CB_23 
REMARK   14  A    between atoms: CZ_26  and  OH_25 
ROOT
ATOM      1  CA  TYR d   1      23.881  13.938  10.822  0.00  0.00     0.093 C 
ATOM      2  H11 TYR d   1      24.447  14.785  10.408  0.00  0.00     0.088 H 
ENDROOT
BRANCH   1   3
ATOM      3  N   TYR d   1      23.344  13.168   9.705  0.00  0.00    -0.347 N 
ATOM      4  C   IVA d   1      24.127  12.832   8.674  0.00  0.00     0.218 C 
ATOM      5  O   IVA d   1      25.333  13.054   8.675  0.00  0.00    -0.274 OA
ATOM      6  H10 TYR d   1      22.384  12.889   9.710  0.00  0.00     0.163 HD
BRANCH   4   7
ATOM      7  CA  IVA d   1      23.452  12.163   7.476  0.00  0.00     0.012 C 
ATOM      8  H1  IVA d   1      23.760  11.108   7.421  0.00  0.00     0.047 H 
ATOM      9  H2  IVA d   1      22.359  12.220   7.590  0.00  0.00     0.047 H 
BRANCH   7  10
ATOM     10  CB  IVA d   1      23.876  12.893   6.186  0.00  0.00    -0.053 C 
ATOM     11  H3  IVA d   1      24.973  12.980   6.194  0.00  0.00     0.039 H 
BRANCH  10  12
ATOM     12  CG1 IVA d   1      23.460  12.107   4.941  0.00  0.00    -0.073 C 
ATOM     13  H4  IVA d   1      23.776  12.653   4.040  0.00  0.00     0.028 H 
ATOM     14  H5  IVA d   1      22.367  11.986   4.932  0.00  0.00     0.028 H 
ATOM     15  H6  IVA d   1      23.938  11.116   4.956  0.00  0.00     0.028 H 
ENDBRANCH  10  12
BRANCH  10  16
ATOM     16  CG2 IVA d   1      23.286  14.291   6.093  0.00  0.00    -0.073 C 
ATOM     17  H7  IVA d   1      23.576  14.871   6.982  0.00  0.00     0.028 H 
ATOM     18  H8  IVA d   1      22.189  14.223   6.041  0.00  0.00     0.028 H 
ATOM     19  H9  IVA d   1      23.666  14.790   5.189  0.00  0.00     0.028 H 
ENDBRANCH  10  16
ENDBRANCH   7  10
ENDBRANCH   4   7
ENDBRANCH   1   3
BRANCH   1  20
ATOM     20  C   TYR d   1      24.821  13.114  11.696  0.00  0.00     0.241 C 
ATOM     21  O   TYR d   1      24.511  11.967  12.043  0.00  0.00    -0.271 OA
ATOM     22  N   TYE d   1      25.950  13.738  12.058  0.00  0.00    -0.344 N 
ATOM     23  H19 TYE d   1      26.193  14.632  11.680  0.00  0.00     0.163 HD
BRANCH  22  24
ATOM     24  CA  TYE d   1      26.816  13.063  13.028  0.00  0.00     0.100 C 
ATOM     25  H20 TYE d   1      26.470  12.026  13.149  0.00  0.00     0.090 H 
BRANCH  24  26
ATOM     26  C   TYE d   1      26.715  13.770  14.390  0.00  0.00     0.197 C 
ATOM     27  O   TYE d   1      27.601  13.181  15.369  0.00  0.00    -0.646 OA
ATOM     28  OXT TYE d   1      25.758  14.854  14.364  0.00  0.00    -0.646 OA
ENDBRANCH  24  26
BRANCH  24  29
ATOM     29  CB  TYE d   1      28.254  13.032  12.511  0.00  0.00    -0.013 C 
ATOM     30  H21 TYE d   1      28.918  12.763  13.345  0.00  0.00     0.043 H 
ATOM     31  H22 TYE d   1      28.514  14.036  12.145  0.00  0.00     0.043 H 
BRANCH  29  32
ATOM     32  CG  TYE d   1      28.474  12.032  11.376  0.00  0.00    -0.056 A 
ATOM     33  CD1 TYE d   1      29.374  12.302  10.346  0.00  0.00    -0.074 A 
ATOM     34  CE1 TYE d   1      29.578  11.385   9.307  0.00  0.00    -0.051 A 
ATOM     35  H24 TYE d   1      29.924  13.236  10.349  0.00  0.00     0.084 H 
ATOM     36  CZ  TYE d   1      28.869  10.204   9.314  0.00  0.00     0.065 A 
ATOM     37  H26 TYE d   1      30.282  11.601   8.511  0.00  0.00     0.087 H 
ATOM     38  CE2 TYE d   1      27.973   9.906  10.323  0.00  0.00    -0.051 A 
ATOM     39  CD2 TYE d   1      27.782  10.826  11.350  0.00  0.00    -0.074 A 
ATOM     40  H27 TYE d   1      27.427   8.970  10.315  0.00  0.00     0.087 H 
ATOM     41  H25 TYE d   1      27.081  10.598  12.145  0.00  0.00     0.084 H 
BRANCH  36  42
ATOM     42  OH  TYE d   1      29.063   9.282   8.292  0.00  0.00    -0.361 OA
ATOM     43  H23 TYE d   1      29.973   9.009   8.282  0.00  0.00     0.217 HD
ENDBRANCH  36  42
ENDBRANCH  29  32
ENDBRANCH  24  29
ENDBRANCH  22  24
ENDBRANCH   1  20
BRANCH   1  44
ATOM     44  CB  TYR d   1      22.750  14.487  11.701  0.00  0.00    -0.014 C 
ATOM     45  H12 TYR d   1      23.209  15.123  12.472  0.00  0.00     0.043 H 
ATOM     46  H13 TYR d   1      22.257  13.628  12.180  0.00  0.00     0.043 H 
BRANCH  44  47
ATOM     47  CG  TYR d   1      21.682  15.301  11.020  0.00  0.00    -0.056 A 
ATOM     48  CD1 TYR d   1      21.992  16.111   9.954  0.00  0.00    -0.074 A 
ATOM     49  CE1 TYR d   1      21.061  16.886   9.287  0.00  0.00    -0.051 A 
ATOM     50  H14 TYR d   1      23.022  16.144   9.618  0.00  0.00     0.084 H 
ATOM     51  CZ  TYR d   1      19.751  16.843   9.716  0.00  0.00     0.065 A 
ATOM     52  H16 TYR d   1      21.353  17.510   8.450  0.00  0.00     0.087 H 
ATOM     53  CE2 TYR d   1      19.395  16.046  10.779  0.00  0.00    -0.051 A 
ATOM     54  CD2 TYR d   1      20.351  15.279  11.431  0.00  0.00    -0.074 A 
ATOM     55  H17 TYR d   1      18.363  16.017  11.109  0.00  0.00     0.087 H 
ATOM     56  H15 TYR d   1      20.059  14.656  12.269  0.00  0.00     0.084 H 
BRANCH  51  57
ATOM     57  OH  TYR d   1      18.824  17.607   9.049  0.00  0.00    -0.361 OA
ATOM     58  H18 TYR d   1      18.425  18.220   9.655  0.00  0.00     0.217 HD
ENDBRANCH  51  57
ENDBRANCH  44  47
ENDBRANCH   1  44
TORSDOF 14
