REMARK  15 active torsions:
REMARK  status: ('A' for Active; 'I' for Inactive)
REMARK    1  A    between atoms: CD2_2  and  NH_4 
REMARK    2  A    between atoms: CB_5  and  CA_9 
REMARK    3  A    between atoms: CA_9  and  N_8 
REMARK    4  A    between atoms: CA_9  and  C_10 
REMARK       I    between atoms: C_10  and  N_12 
REMARK    5  A    between atoms: N_12  and  CA_13 
REMARK    6  A    between atoms: CA_13  and  C_14 
REMARK    7  A    between atoms: CA_13  and  CB_16 
REMARK       I    between atoms: C_14  and  N_20 
REMARK    8  A    between atoms: CB_16  and  CG_17 
REMARK    9  A    between atoms: CG_17  and  CD1_18 
REMARK   10  A    between atoms: CG_17  and  CD2_19 
REMARK   11  A    between atoms: N_20  and  CA_21 
REMARK   12  A    between atoms: CA_21  and  C_22 
REMARK   13  A    between atoms: CA_21  and  CB_24 
REMARK   14  A    between atoms: C_22  and  O_23 
REMARK   15  A    between atoms: CB_24  and  CG_25 
ROOT
ATOM      1  CA  LEU d   1      23.799  14.175  10.638  0.00  0.00     0.089 C 
ATOM      2  H15 LEU d   1      24.361  14.987  10.153  0.00  0.00     0.087 H 
ENDROOT
BRANCH   1   3
ATOM      3  N   LEU d   1      23.254  13.303   9.601  0.00  0.00    -0.346 N 
ATOM      4  C   CSI d   1      24.002  12.896   8.575  0.00  0.00     0.251 C 
ATOM      5  O   CSI d   1      25.189  13.220   8.467  0.00  0.00    -0.271 OA
ATOM      6  H14 LEU d   1      22.301  13.005   9.662  0.00  0.00     0.163 HD
BRANCH   4   7
ATOM      7  CA  CSI d   1      23.305  11.999   7.542  0.00  0.00     0.195 C 
ATOM      8  H13 CSI d   1      23.950  11.114   7.440  0.00  0.00     0.102 H 
BRANCH   7   9
ATOM      9  CB  CSI d   1      23.005  12.545   6.135  0.00  0.00     0.063 C 
ATOM     10  CG1 CSI d   1      24.093  13.514   5.685  0.00  0.00    -0.028 C 
ATOM     11  CD1 CSI d   1      23.588  14.305   4.475  0.00  0.00     0.011 C 
ATOM     12  H7  CSI d   1      24.331  14.207   6.505  0.00  0.00     0.038 H 
ATOM     13  H8  CSI d   1      24.996  12.951   5.407  0.00  0.00     0.038 H 
ATOM     14  NE  CSI d   1      23.533  13.216   3.512  0.00  0.00    -0.227 N 
ATOM     15  H2  CSI d   1      22.598  14.750   4.655  0.00  0.00     0.065 H 
ATOM     16  H3  CSI d   1      24.294  15.092   4.171  0.00  0.00     0.065 H 
ATOM     17  CD2 CSI d   1      23.205  11.877   3.900  0.00  0.00     0.667 C 
ATOM     18  H1  CSI d   1      23.736  13.414   2.522  0.00  0.00     0.177 HD
ATOM     19  NG2 CSI d   1      22.957  11.413   5.231  0.00  0.00    -0.220 N 
ATOM     20  H9  CSI d   1      22.775  10.436   5.502  0.00  0.00     0.178 HD
ATOM     21  H6  CSI d   1      22.035  13.064   6.138  0.00  0.00     0.077 H 
BRANCH  17  22
ATOM     22  NH  CSI d   1      23.170  11.082   2.712  0.00  0.00    -0.235 N 
ATOM     23  H4  CSI d   1      22.950  10.078   2.771  0.00  0.00     0.174 HD
ATOM     24  H5  CSI d   1      23.365  11.514   1.797  0.00  0.00     0.174 HD
ENDBRANCH  17  22
ENDBRANCH   7   9
BRANCH   7  25
ATOM     25  N   CSI d   1      21.948  11.575   7.913  0.00  0.00    -0.064 N 
ATOM     26  H10 CSI d   1      21.961  11.179   8.840  0.00  0.00     0.275 HD
ATOM     27  H11 CSI d   1      21.621  10.883   7.257  0.00  0.00     0.275 HD
ATOM     28  H12 CSI d   1      21.331  12.372   7.897  0.00  0.00     0.275 HD
ENDBRANCH   7  25
ENDBRANCH   4   7
ENDBRANCH   1   3
BRANCH   1  29
ATOM     29  C   LEU d   1      24.755  13.377  11.512  0.00  0.00     0.240 C 
ATOM     30  O   LEU d   1      24.538  12.207  11.830  0.00  0.00    -0.271 OA
ATOM     31  N   PHL d   1      25.860  13.985  11.936  0.00  0.00    -0.352 N 
ATOM     32  H25 PHL d   1      26.084  14.920  11.661  0.00  0.00     0.163 HD
BRANCH  31  33
ATOM     33  CA  PHL d   1      26.731  13.214  12.826  0.00  0.00     0.036 C 
ATOM     34  H26 PHL d   1      26.337  12.190  12.908  0.00  0.00     0.076 H 
BRANCH  33  35
ATOM     35  C   PHL d   1      26.734  13.843  14.215  0.00  0.00     0.036 C 
ATOM     36  H27 PHL d   1      25.680  13.939  14.515  0.00  0.00     0.077 H 
ATOM     37  H28 PHL d   1      27.176  14.844  14.102  0.00  0.00     0.077 H 
BRANCH  35  38
ATOM     38  O   PHL d   1      27.318  13.310  15.162  0.00  0.00    -0.399 OA
ATOM     39  H29 PHL d   1      26.950  12.448  15.315  0.00  0.00     0.209 HD
ENDBRANCH  35  38
ENDBRANCH  33  35
BRANCH  33  40
ATOM     40  CB  PHL d   1      28.125  13.144  12.244  0.00  0.00    -0.020 C 
ATOM     41  H30 PHL d   1      28.820  13.030  13.089  0.00  0.00     0.043 H 
ATOM     42  H31 PHL d   1      28.312  14.105  11.743  0.00  0.00     0.043 H 
BRANCH  40  43
ATOM     43  CG  PHL d   1      28.461  12.056  11.248  0.00  0.00    -0.056 A 
ATOM     44  CD1 PHL d   1      29.486  12.280  10.330  0.00  0.00    -0.077 A 
ATOM     45  CE1 PHL d   1      29.844  11.321   9.404  0.00  0.00    -0.082 A 
ATOM     46  H32 PHL d   1      30.013  13.227  10.344  0.00  0.00     0.084 H 
ATOM     47  CZ  PHL d   1      29.173  10.107   9.378  0.00  0.00    -0.083 A 
ATOM     48  H34 PHL d   1      30.645  11.515   8.701  0.00  0.00     0.083 H 
ATOM     49  CE2 PHL d   1      28.154   9.874  10.287  0.00  0.00    -0.082 A 
ATOM     50  H36 PHL d   1      29.444   9.348   8.653  0.00  0.00     0.083 H 
ATOM     51  CD2 PHL d   1      27.803  10.841  11.212  0.00  0.00    -0.077 A 
ATOM     52  H35 PHL d   1      27.628   8.927  10.273  0.00  0.00     0.083 H 
ATOM     53  H33 PHL d   1      27.003  10.644  11.916  0.00  0.00     0.084 H 
ENDBRANCH  40  43
ENDBRANCH  33  40
ENDBRANCH  31  33
ENDBRANCH   1  29
BRANCH   1  54
ATOM     54  CB  LEU d   1      22.686  14.798  11.473  0.00  0.00    -0.035 C 
ATOM     55  H16 LEU d   1      23.139  15.091  12.431  0.00  0.00     0.037 H 
ATOM     56  H17 LEU d   1      21.943  14.006  11.646  0.00  0.00     0.037 H 
BRANCH  54  57
ATOM     57  CG  LEU d   1      21.917  16.013  10.966  0.00  0.00    -0.059 C 
ATOM     58  H18 LEU d   1      22.173  16.863  11.615  0.00  0.00     0.038 H 
BRANCH  57  59
ATOM     59  CD1 LEU d   1      22.274  16.389   9.537  0.00  0.00    -0.073 C 
ATOM     60  H19 LEU d   1      21.688  17.269   9.232  0.00  0.00     0.028 H 
ATOM     61  H20 LEU d   1      22.045  15.546   8.868  0.00  0.00     0.028 H 
ATOM     62  H21 LEU d   1      23.347  16.624   9.477  0.00  0.00     0.028 H 
ENDBRANCH  57  59
BRANCH  57  63
ATOM     63  CD2 LEU d   1      20.410  15.776  11.052  0.00  0.00    -0.073 C 
ATOM     64  H22 LEU d   1      20.140  15.503  12.083  0.00  0.00     0.028 H 
ATOM     65  H23 LEU d   1      20.128  14.960  10.371  0.00  0.00     0.028 H 
ATOM     66  H24 LEU d   1      19.877  16.695  10.764  0.00  0.00     0.028 H 
ENDBRANCH  57  63
ENDBRANCH  54  57
ENDBRANCH   1  54
TORSDOF 15
