REMARK  20 active torsions:
REMARK  status: ('A' for Active; 'I' for Inactive)
REMARK    1  A    between atoms: CA_1  and  CB_2 
REMARK    2  A    between atoms: C_5  and  CA_1 
REMARK    3  A    between atoms: CB_2  and  CG1_3 
REMARK    4  A    between atoms: CB_2  and  CG2_4 
REMARK       I    between atoms: N_7  and  C_5 
REMARK    5  A    between atoms: CA_8  and  N_7 
REMARK    6  A    between atoms: C_9  and  CA_8 
REMARK    7  A    between atoms: CA_8  and  CB_11 
REMARK       I    between atoms: N_19  and  C_9 
REMARK    8  A    between atoms: CB_11  and  CG_12 
REMARK    9  A    between atoms: CZ_17  and  OH_18 
REMARK   10  A    between atoms: CA_20  and  N_19 
REMARK   11  A    between atoms: C_21  and  CA_20 
REMARK   12  A    between atoms: CA_20  and  CB_23 
REMARK       I    between atoms: N_28  and  C_21 
REMARK   13  A    between atoms: CB_23  and  CG_24 
REMARK   14  A    between atoms: CG_24  and  CD1_25 
REMARK   15  A    between atoms: CG_24  and  CD2_26 
REMARK   16  A    between atoms: CA_30  and  C_27 
REMARK   17  A    between atoms: CA_30  and  N_28 
REMARK   18  A    between atoms: CB_31  and  CA_30 
REMARK   19  A    between atoms: CG_32  and  CB_31 
REMARK   20  A    between atoms: CZ_34  and  OH_33 
ROOT
ATOM      1  CA  LEU d   1      23.889  14.043  10.910  0.00  0.00     0.089 C 
ATOM      2  H20 LEU d   1      24.580  14.725  10.392  0.00  0.00     0.087 H 
ENDROOT
BRANCH   1   3
ATOM      3  N   LEU d   1      23.332  13.088   9.960  0.00  0.00    -0.346 N 
ATOM      4  C   TYR d   1      24.102  12.683   8.963  0.00  0.00     0.241 C 
ATOM      5  O   TYR d   1      25.214  13.134   8.735  0.00  0.00    -0.271 OA
ATOM      6  H19 LEU d   1      22.396  12.749  10.059  0.00  0.00     0.163 HD
BRANCH   4   7
ATOM      7  CA  TYR d   1      23.505  11.608   8.093  0.00  0.00     0.093 C 
ATOM      8  H11 TYR d   1      22.409  11.686   8.148  0.00  0.00     0.088 H 
BRANCH   7   9
ATOM      9  N   TYR d   1      23.913  11.750   6.706  0.00  0.00    -0.347 N 
ATOM     10  C   IVA d   1      23.042  12.004   5.735  0.00  0.00     0.218 C 
ATOM     11  O   IVA d   1      21.832  12.155   5.931  0.00  0.00    -0.274 OA
ATOM     12  H10 TYR d   1      24.881  11.653   6.474  0.00  0.00     0.163 HD
BRANCH  10  13
ATOM     13  CA  IVA d   1      23.644  12.107   4.345  0.00  0.00     0.012 C 
ATOM     14  H1  IVA d   1      24.734  11.970   4.407  0.00  0.00     0.047 H 
ATOM     15  H2  IVA d   1      23.212  11.327   3.700  0.00  0.00     0.047 H 
BRANCH  13  16
ATOM     16  CB  IVA d   1      23.332  13.503   3.747  0.00  0.00    -0.053 C 
ATOM     17  H3  IVA d   1      22.260  13.717   3.866  0.00  0.00     0.039 H 
BRANCH  16  18
ATOM     18  CG1 IVA d   1      24.114  14.567   4.478  0.00  0.00    -0.073 C 
ATOM     19  H4  IVA d   1      23.885  15.552   4.046  0.00  0.00     0.028 H 
ATOM     20  H5  IVA d   1      25.191  14.364   4.379  0.00  0.00     0.028 H 
ATOM     21  H6  IVA d   1      23.836  14.560   5.542  0.00  0.00     0.028 H 
ENDBRANCH  16  18
BRANCH  16  22
ATOM     22  CG2 IVA d   1      23.662  13.463   2.260  0.00  0.00    -0.073 C 
ATOM     23  H7  IVA d   1      23.069  12.675   1.774  0.00  0.00     0.028 H 
ATOM     24  H8  IVA d   1      24.733  13.250   2.128  0.00  0.00     0.028 H 
ATOM     25  H9  IVA d   1      23.422  14.435   1.805  0.00  0.00     0.028 H 
ENDBRANCH  16  22
ENDBRANCH  13  16
ENDBRANCH  10  13
ENDBRANCH   7   9
BRANCH   7  26
ATOM     26  CB  TYR d   1      23.928  10.233   8.587  0.00  0.00    -0.014 C 
ATOM     27  H12 TYR d   1      23.634  10.116   9.640  0.00  0.00     0.043 H 
ATOM     28  H13 TYR d   1      25.020  10.132   8.498  0.00  0.00     0.043 H 
BRANCH  26  29
ATOM     29  CG  TYR d   1      23.252   9.160   7.752  0.00  0.00    -0.056 A 
ATOM     30  CD1 TYR d   1      23.980   8.462   6.817  0.00  0.00    -0.074 A 
ATOM     31  CE1 TYR d   1      23.406   7.480   6.038  0.00  0.00    -0.051 A 
ATOM     32  H14 TYR d   1      25.032   8.690   6.689  0.00  0.00     0.084 H 
ATOM     33  CZ  TYR d   1      22.063   7.189   6.215  0.00  0.00     0.065 A 
ATOM     34  H16 TYR d   1      23.994   6.946   5.301  0.00  0.00     0.087 H 
ATOM     35  CE2 TYR d   1      21.309   7.876   7.153  0.00  0.00    -0.051 A 
ATOM     36  CD2 TYR d   1      21.911   8.862   7.917  0.00  0.00    -0.074 A 
ATOM     37  H17 TYR d   1      20.259   7.644   7.287  0.00  0.00     0.087 H 
ATOM     38  H15 TYR d   1      21.326   9.405   8.651  0.00  0.00     0.084 H 
BRANCH  33  39
ATOM     39  OH  TYR d   1      21.451   6.207   5.460  0.00  0.00    -0.361 OA
ATOM     40  H18 TYR d   1      22.085   5.826   4.864  0.00  0.00     0.217 HD
ENDBRANCH  33  39
ENDBRANCH  26  29
ENDBRANCH   7  26
ENDBRANCH   4   7
ENDBRANCH   1   3
BRANCH   1  41
ATOM     41  C   LEU d   1      24.659  13.292  11.983  0.00  0.00     0.241 C 
ATOM     42  O   LEU d   1      24.132  12.365  12.585  0.00  0.00    -0.271 OA
ATOM     43  N   TYE d   1      25.892  13.761  12.191  0.00  0.00    -0.344 N 
ATOM     44  H30 TYE d   1      26.221  14.564  11.694  0.00  0.00     0.163 HD
BRANCH  43  45
ATOM     45  CA  TYE d   1      26.754  13.081  13.159  0.00  0.00     0.100 C 
ATOM     46  H31 TYE d   1      26.381  12.056  13.300  0.00  0.00     0.090 H 
BRANCH  45  47
ATOM     47  C   TYE d   1      26.733  13.763  14.526  0.00  0.00     0.197 C 
ATOM     48  O   TYE d   1      27.576  13.198  15.469  0.00  0.00    -0.646 OA
ATOM     49  OXT TYE d   1      25.874  14.846  14.621  0.00  0.00    -0.646 OA
ENDBRANCH  45  47
BRANCH  45  50
ATOM     50  CB  TYE d   1      28.136  13.003  12.545  0.00  0.00    -0.013 C 
ATOM     51  H32 TYE d   1      28.840  12.720  13.341  0.00  0.00     0.043 H 
ATOM     52  H33 TYE d   1      28.392  14.004  12.168  0.00  0.00     0.043 H 
BRANCH  50  53
ATOM     53  CG  TYE d   1      28.313  12.021  11.402  0.00  0.00    -0.056 A 
ATOM     54  CD1 TYE d   1      29.304  12.271  10.455  0.00  0.00    -0.074 A 
ATOM     55  CE1 TYE d   1      29.502  11.394   9.390  0.00  0.00    -0.051 A 
ATOM     56  H35 TYE d   1      29.926  13.154  10.547  0.00  0.00     0.084 H 
ATOM     57  CZ  TYE d   1      28.711  10.249   9.280  0.00  0.00     0.065 A 
ATOM     58  H37 TYE d   1      30.267  11.600   8.650  0.00  0.00     0.087 H 
ATOM     59  CE2 TYE d   1      27.728   9.990  10.221  0.00  0.00    -0.051 A 
ATOM     60  CD2 TYE d   1      27.538  10.884  11.270  0.00  0.00    -0.074 A 
ATOM     61  H38 TYE d   1      27.113   9.101  10.141  0.00  0.00     0.087 H 
ATOM     62  H36 TYE d   1      26.763  10.684  12.002  0.00  0.00     0.084 H 
BRANCH  57  63
ATOM     63  OH  TYE d   1      28.909   9.356   8.228  0.00  0.00    -0.361 OA
ATOM     64  H34 TYE d   1      29.796   9.018   8.264  0.00  0.00     0.217 HD
ENDBRANCH  57  63
ENDBRANCH  50  53
ENDBRANCH  45  50
ENDBRANCH  43  45
ENDBRANCH   1  41
BRANCH   1  65
ATOM     65  CB  LEU d   1      22.722  14.847  11.473  0.00  0.00    -0.035 C 
ATOM     66  H21 LEU d   1      23.147  15.644  12.101  0.00  0.00     0.037 H 
ATOM     67  H22 LEU d   1      22.127  14.165  12.099  0.00  0.00     0.037 H 
BRANCH  65  68
ATOM     68  CG  LEU d   1      21.756  15.514  10.479  0.00  0.00    -0.059 C 
ATOM     69  H23 LEU d   1      21.301  14.728   9.859  0.00  0.00     0.038 H 
BRANCH  68  70
ATOM     70  CD1 LEU d   1      20.648  16.230  11.188  0.00  0.00    -0.073 C 
ATOM     71  H24 LEU d   1      19.979  16.694  10.448  0.00  0.00     0.028 H 
ATOM     72  H25 LEU d   1      21.072  17.009  11.838  0.00  0.00     0.028 H 
ATOM     73  H26 LEU d   1      20.079  15.513  11.798  0.00  0.00     0.028 H 
ENDBRANCH  68  70
BRANCH  68  74
ATOM     74  CD2 LEU d   1      22.551  16.437   9.566  0.00  0.00    -0.073 C 
ATOM     75  H27 LEU d   1      23.349  15.864   9.071  0.00  0.00     0.028 H 
ATOM     76  H28 LEU d   1      22.996  17.247  10.162  0.00  0.00     0.028 H 
ATOM     77  H29 LEU d   1      21.882  16.866   8.806  0.00  0.00     0.028 H 
ENDBRANCH  68  74
ENDBRANCH  65  68
ENDBRANCH   1  65
TORSDOF 20
