REMARK  4 active torsions:
REMARK  status: ('A' for Active; 'I' for Inactive)
REMARK    1  A    between atoms: C5_2  and  N6_24 
REMARK    2  A    between atoms: N6_24  and  C7_3 
REMARK    3  A    between atoms: C12_10  and  C13_6 
REMARK    4  A    between atoms: N11_22  and  C12_10 
ROOT
ATOM      1  C7  J9G d   1      21.386  -0.756 -21.786  0.00  0.00     0.052 A 
ATOM      2  C8  J9G d   1      20.529   0.272 -21.450  0.00  0.00     0.030 A 
ATOM      3  C10 J9G d   1      19.901   0.580 -23.546  0.00  0.00     0.161 A 
ATOM      4  C24 J9G d   1      21.496  -1.130 -23.106  0.00  0.00    -0.026 A 
ATOM      5  C19 J9G d   1      19.692   0.387 -25.803  0.00  0.00     0.329 A 
ATOM      6  C23 J9G d   1      20.716  -0.419 -23.981  0.00  0.00     0.085 A 
ATOM      7  N11 J9G d   1      19.275   1.072 -24.684  0.00  0.00    -0.278 N 
ATOM      8  N21 J9G d   1      20.604  -0.555 -25.364  0.00  0.00    -0.305 N 
ATOM      9  N9  J9G d   1      19.759   0.978 -22.285  0.00  0.00    -0.238 NA
ATOM     10  O20 J9G d   1      19.329   0.574 -26.955  0.00  0.00    -0.246 OA
ATOM     11  H2  J9G d   1      20.474   0.535 -20.400  0.00  0.00     0.118 H 
ATOM     12  H5  J9G d   1      22.152  -1.929 -23.430  0.00  0.00     0.090 H 
ATOM     13  H13 J9G d   1      21.094  -1.214 -25.935  0.00  0.00     0.171 HD
ENDROOT
BRANCH   7  14
ATOM     14  C12 J9G d   1      18.316   2.143 -24.647  0.00  0.00     0.030 C 
ATOM     15  H6  J9G d   1      17.530   1.938 -25.389  0.00  0.00     0.072 H 
ATOM     16  H7  J9G d   1      17.870   2.182 -23.642  0.00  0.00     0.072 H 
BRANCH  14  17
ATOM     17  C13 J9G d   1      18.924   3.466 -24.950  0.00  0.00    -0.040 A 
ATOM     18  C14 J9G d   1      20.080   3.556 -25.688  0.00  0.00    -0.075 A 
ATOM     19  C15 J9G d   1      20.627   4.787 -25.961  0.00  0.00    -0.082 A 
ATOM     20  H8  J9G d   1      20.560   2.656 -26.055  0.00  0.00     0.084 H 
ATOM     21  C16 J9G d   1      20.020   5.930 -25.497  0.00  0.00    -0.083 A 
ATOM     22  H3  J9G d   1      21.539   4.857 -26.543  0.00  0.00     0.083 H 
ATOM     23  C17 J9G d   1      18.865   5.842 -24.759  0.00  0.00    -0.082 A 
ATOM     24  H9  J9G d   1      20.453   6.900 -25.713  0.00  0.00     0.083 H 
ATOM     25  C18 J9G d   1      18.319   4.610 -24.487  0.00  0.00    -0.075 A 
ATOM     26  H4  J9G d   1      18.385   6.742 -24.392  0.00  0.00     0.083 H 
ATOM     27  H10 J9G d   1      17.407   4.540 -23.905  0.00  0.00     0.084 H 
ENDBRANCH  14  17
ENDBRANCH   7  14
BRANCH   1  28
ATOM     28  N6  J9G d   1      22.128  -1.399 -20.789  0.00  0.00    -0.353 N 
ATOM     29  H14 J9G d   1      22.282  -0.929 -19.886  0.00  0.00     0.166 HD
BRANCH  28  30
ATOM     30  C5  J9G d   1      22.663  -2.673 -21.005  0.00  0.00     0.071 A 
ATOM     31  C4  J9G d   1      21.977  -3.795 -20.605  0.00  0.00    -0.051 A 
ATOM     32  C3  J9G d   1      22.506  -5.047 -20.815  0.00  0.00    -0.043 A 
ATOM     33  H1  J9G d   1      21.013  -3.692 -20.121  0.00  0.00     0.087 H 
ATOM     34  C2  J9G d   1      23.730  -5.174 -21.427  0.00  0.00     0.119 A 
ATOM     35  H12 J9G d   1      21.960  -5.929 -20.500  0.00  0.00     0.088 H 
ATOM     36  C27 J9G d   1      24.430  -4.063 -21.830  0.00  0.00    -0.006 A 
ATOM     37  F1  J9G d   1      24.247  -6.396 -21.633  0.00  0.00    -0.206 F 
ATOM     38  C25 J9G d   1      23.887  -2.820 -21.614  0.00  0.00     0.145 A 
ATOM     39  H11 J9G d   1      25.396  -4.166 -22.311  0.00  0.00     0.093 H 
ATOM     40  F26 J9G d   1      24.563  -1.729 -22.005  0.00  0.00    -0.204 F 
ENDBRANCH  28  30
ENDBRANCH   1  28
TORSDOF 4
