REMARK  17 active torsions:
REMARK  status: ('A' for Active; 'I' for Inactive)
REMARK    1  A    between atoms: C01_1  and  C02_2 
REMARK    2  A    between atoms: C02_2  and  C03_3 
REMARK    3  A    between atoms: C03_3  and  C04_4 
REMARK    4  A    between atoms: C04_4  and  C05_5 
REMARK    5  A    between atoms: C05_5  and  C06_6 
REMARK    6  A    between atoms: C05_5  and  C07_7 
REMARK    7  A    between atoms: C05_5  and  O26_26 
REMARK    8  A    between atoms: C07_7  and  C08_8 
REMARK    9  A    between atoms: C09_9  and  C10_10 
REMARK   10  A    between atoms: C11_11  and  O25_25 
REMARK   11  A    between atoms: C15_14  and  C16_15 
REMARK   12  A    between atoms: C16_15  and  C17_16 
REMARK   13  A    between atoms: C17_16  and  C18_17 
REMARK   14  A    between atoms: C18_17  and  C19_18 
REMARK   15  A    between atoms: C19_18  and  C20_19 
REMARK   16  A    between atoms: C20_19  and  C21_20 
REMARK   17  A    between atoms: C21_20  and  C22_21 
ROOT
ATOM      1  C10 J9P d   1     130.501  -5.766 153.576  0.00  0.00    -0.003 C 
ATOM      2  C11 J9P d   1     131.659  -4.895 152.739  0.00  0.00     0.049 C 
ATOM      3  C12 J9P d   1     132.607  -4.536 153.685  0.00  0.00     0.015 C 
ATOM      4  C13 J9P d   1     131.851  -4.551 155.066  0.00  0.00     0.134 C 
ATOM      5  C15 J9P d   1     130.422  -5.107 154.822  0.00  0.00     0.013 C 
ATOM      6  O14 J9P d   1     132.307  -4.199 156.109  0.00  0.00    -0.297 OA
ATOM      7  H17 J9P d   1     130.789  -6.821 153.695  0.00  0.00     0.051 H 
ATOM      8  H18 J9P d   1     131.218  -4.005 152.268  0.00  0.00     0.084 H 
ATOM      9  H19 J9P d   1     133.000  -3.531 153.473  0.00  0.00     0.048 H 
ATOM     10  H20 J9P d   1     133.435  -5.260 153.693  0.00  0.00     0.048 H 
ATOM     11  H21 J9P d   1     129.721  -4.264 154.735  0.00  0.00     0.052 H 
ENDROOT
BRANCH   1  12
ATOM     12  C09 J9P d   1     129.204  -5.656 152.853  0.00  0.00    -0.099 C 
ATOM     13  C08 J9P d   1     128.465  -6.717 152.613  0.00  0.00    -0.103 C 
ATOM     14  H15 J9P d   1     128.795  -7.705 152.931  0.00  0.00     0.076 H 
ATOM     15  H16 J9P d   1     128.861  -4.679 152.517  0.00  0.00     0.077 H 
BRANCH  13  16
ATOM     16  C07 J9P d   1     127.134  -6.541 151.880  0.00  0.00    -0.022 C 
ATOM     17  H13 J9P d   1     126.324  -6.562 152.624  0.00  0.00     0.043 H 
ATOM     18  H14 J9P d   1     127.144  -5.563 151.376  0.00  0.00     0.043 H 
BRANCH  16  19
ATOM     19  C05 J9P d   1     126.850  -7.623 150.827  0.00  0.00     0.057 C 
BRANCH  19  20
ATOM     20  C04 J9P d   1     126.987  -9.075 151.320  0.00  0.00    -0.036 C 
ATOM     21  H8  J9P d   1     126.804  -9.726 150.453  0.00  0.00     0.037 H 
ATOM     22  H9  J9P d   1     128.026  -9.201 151.660  0.00  0.00     0.037 H 
BRANCH  20  23
ATOM     23  C03 J9P d   1     126.083  -9.576 152.453  0.00  0.00    -0.063 C 
ATOM     24  H6  J9P d   1     126.507  -9.271 153.421  0.00  0.00     0.033 H 
ATOM     25  H7  J9P d   1     125.079  -9.141 152.339  0.00  0.00     0.033 H 
BRANCH  23  26
ATOM     26  C02 J9P d   1     125.985 -11.098 152.400  0.00  0.00    -0.068 C 
ATOM     27  H4  J9P d   1     125.300 -11.376 151.585  0.00  0.00     0.032 H 
ATOM     28  H5  J9P d   1     126.986 -11.505 152.193  0.00  0.00     0.032 H 
BRANCH  26  29
ATOM     29  C01 J9P d   1     125.471 -11.713 153.693  0.00  0.00    -0.077 C 
ATOM     30  H1  J9P d   1     125.425 -12.807 153.586  0.00  0.00     0.027 H 
ATOM     31  H2  J9P d   1     124.465 -11.324 153.910  0.00  0.00     0.027 H 
ATOM     32  H3  J9P d   1     126.151 -11.453 154.518  0.00  0.00     0.027 H 
ENDBRANCH  26  29
ENDBRANCH  23  26
ENDBRANCH  20  23
ENDBRANCH  19  20
BRANCH  19  33
ATOM     33  C06 J9P d   1     125.442  -7.371 150.307  0.00  0.00    -0.048 C 
ATOM     34  H10 J9P d   1     125.360  -6.331 149.959  0.00  0.00     0.031 H 
ATOM     35  H11 J9P d   1     124.716  -7.545 151.115  0.00  0.00     0.031 H 
ATOM     36  H12 J9P d   1     125.232  -8.055 149.471  0.00  0.00     0.031 H 
ENDBRANCH  19  33
BRANCH  19  37
ATOM     37  O26 J9P d   1     127.735  -7.454 149.753  0.00  0.00    -0.390 OA
ATOM     38  H35 J9P d   1     128.625  -7.606 150.050  0.00  0.00     0.210 HD
ENDBRANCH  19  37
ENDBRANCH  16  19
ENDBRANCH  13  16
ENDBRANCH   1  12
BRANCH   2  39
ATOM     39  O25 J9P d   1     132.233  -5.696 151.788  0.00  0.00    -0.394 OA
ATOM     40  H34 J9P d   1     131.579  -5.939 151.143  0.00  0.00     0.210 HD
ENDBRANCH   2  39
BRANCH   5  41
ATOM     41  C16 J9P d   1     129.905  -6.024 155.987  0.00  0.00    -0.055 C 
ATOM     42  H22 J9P d   1     128.904  -6.391 155.716  0.00  0.00     0.034 H 
ATOM     43  H23 J9P d   1     129.838  -5.414 156.900  0.00  0.00     0.034 H 
BRANCH  41  44
ATOM     44  C17 J9P d   1     130.792  -7.234 156.286  0.00  0.00    -0.064 C 
ATOM     45  H24 J9P d   1     131.730  -6.877 156.737  0.00  0.00     0.033 H 
ATOM     46  H25 J9P d   1     131.013  -7.748 155.339  0.00  0.00     0.033 H 
BRANCH  44  47
ATOM     47  C18 J9P d   1     130.145  -8.236 157.242  0.00  0.00    -0.065 C 
ATOM     48  H26 J9P d   1     130.583  -9.228 157.058  0.00  0.00     0.033 H 
ATOM     49  H27 J9P d   1     129.065  -8.268 157.036  0.00  0.00     0.033 H 
BRANCH  47  50
ATOM     50  C19 J9P d   1     130.348  -7.882 158.715  0.00  0.00    -0.065 C 
ATOM     51  H28 J9P d   1     129.599  -8.428 159.306  0.00  0.00     0.033 H 
ATOM     52  H29 J9P d   1     130.190  -6.800 158.833  0.00  0.00     0.033 H 
BRANCH  50  53
ATOM     53  C20 J9P d   1     131.730  -8.225 159.263  0.00  0.00    -0.056 C 
ATOM     54  H30 J9P d   1     132.482  -8.058 158.477  0.00  0.00     0.033 H 
ATOM     55  H31 J9P d   1     131.746  -9.282 159.567  0.00  0.00     0.033 H 
BRANCH  53  56
ATOM     56  C21 J9P d   1     132.063  -7.351 160.469  0.00  0.00     0.016 C 
ATOM     57  H32 J9P d   1     131.523  -7.747 161.341  0.00  0.00     0.049 H 
ATOM     58  H33 J9P d   1     131.719  -6.328 160.258  0.00  0.00     0.049 H 
BRANCH  56  59
ATOM     59  C22 J9P d   1     133.553  -7.294 160.814  0.00  0.00     0.172 C 
ATOM     60  O23 J9P d   1     133.919  -7.460 162.009  0.00  0.00    -0.648 OA
ATOM     61  O24 J9P d   1     134.416  -7.066 159.922  0.00  0.00    -0.648 OA
ENDBRANCH  56  59
ENDBRANCH  53  56
ENDBRANCH  50  53
ENDBRANCH  47  50
ENDBRANCH  44  47
ENDBRANCH  41  44
ENDBRANCH   5  41
TORSDOF 17
