REMARK  11 active torsions:
REMARK  status: ('A' for Active; 'I' for Inactive)
REMARK    1  A    between atoms: C03_9  and  C20_3 
REMARK    2  A    between atoms: C21_4  and  O22_24 
REMARK    3  A    between atoms: C03_9  and  C02_8 
REMARK       I    between atoms: C02_8  and  N28_28 
REMARK    4  A    between atoms: N04_10  and  C03_9 
REMARK    5  A    between atoms: S05_11  and  N04_10 
REMARK    6  A    between atoms: C06_12  and  S05_11 
REMARK    7  A    between atoms: O22_24  and  C23_25 
REMARK    8  A    between atoms: N28_28  and  C29_29 
REMARK    9  A    between atoms: N28_28  and  C33_33 
REMARK   10  A    between atoms: C29_29  and  C30_30 
REMARK   11  A    between atoms: C33_33  and  C34_34 
ROOT
ATOM      1  C03 JA4 d   1     -31.672   0.442   4.975  0.00  0.00     0.125 C 
ATOM      2  H4  JA4 d   1     -32.302   0.738   4.123  0.00  0.00     0.096 H 
ENDROOT
BRANCH   1   3
ATOM      3  C20 JA4 d   1     -31.703   1.664   5.989  0.00  0.00     0.007 A 
ATOM      4  C21 JA4 d   1     -32.030   3.011   5.613  0.00  0.00     0.077 A 
ATOM      5  C24 JA4 d   1     -32.028   4.048   6.566  0.00  0.00    -0.050 A 
ATOM      6  C25 JA4 d   1     -31.704   3.794   7.915  0.00  0.00    -0.080 A 
ATOM      7  H2  JA4 d   1     -32.279   5.056   6.258  0.00  0.00     0.087 H 
ATOM      8  C26 JA4 d   1     -31.373   2.491   8.328  0.00  0.00    -0.082 A 
ATOM      9  H13 JA4 d   1     -31.710   4.604   8.635  0.00  0.00     0.083 H 
ATOM     10  C27 JA4 d   1     -31.373   1.448   7.366  0.00  0.00    -0.072 A 
ATOM     11  H3  JA4 d   1     -31.122   2.287   9.363  0.00  0.00     0.083 H 
ATOM     12  H14 JA4 d   1     -31.112   0.446   7.687  0.00  0.00     0.084 H 
BRANCH   4  13
ATOM     13  O22 JA4 d   1     -32.350   3.261   4.275  0.00  0.00    -0.355 OA
BRANCH  13  14
ATOM     14  C23 JA4 d   1     -32.810   4.565   3.883  0.00  0.00     0.010 C 
ATOM     15  H10 JA4 d   1     -33.011   4.573   2.801  0.00  0.00     0.066 H 
ATOM     16  H11 JA4 d   1     -32.038   5.312   4.118  0.00  0.00     0.066 H 
ATOM     17  H12 JA4 d   1     -33.733   4.808   4.429  0.00  0.00     0.066 H 
ENDBRANCH  13  14
ENDBRANCH   4  13
ENDBRANCH   1   3
BRANCH   1  18
ATOM     18  C02 JA4 d   1     -32.348  -0.924   5.598  0.00  0.00     0.248 C 
ATOM     19  O01 JA4 d   1     -31.497  -1.691   6.074  0.00  0.00    -0.271 OA
ATOM     20  N28 JA4 d   1     -33.742  -1.278   5.615  0.00  0.00    -0.335 N 
BRANCH  20  21
ATOM     21  C29 JA4 d   1     -34.182  -2.584   6.230  0.00  0.00     0.078 C 
ATOM     22  H15 JA4 d   1     -33.298  -3.232   6.326  0.00  0.00     0.081 H 
ATOM     23  H16 JA4 d   1     -34.909  -3.054   5.551  0.00  0.00     0.081 H 
BRANCH  21  24
ATOM     24  C30 JA4 d   1     -34.862  -2.452   7.675  0.00  0.00     0.191 C 
ATOM     25  O31 JA4 d   1     -34.719  -1.371   8.300  0.00  0.00    -0.647 OA
ATOM     26  O32 JA4 d   1     -35.504  -3.455   8.115  0.00  0.00    -0.647 OA
ENDBRANCH  21  24
ENDBRANCH  20  21
BRANCH  20  27
ATOM     27  C33 JA4 d   1     -34.858  -0.413   5.059  0.00  0.00     0.028 C 
ATOM     28  H17 JA4 d   1     -34.785   0.562   5.562  0.00  0.00     0.072 H 
ATOM     29  H18 JA4 d   1     -35.805  -0.899   5.337  0.00  0.00     0.072 H 
BRANCH  27  30
ATOM     30  C34 JA4 d   1     -34.935  -0.118   3.493  0.00  0.00     0.000 A 
ATOM     31  C35 JA4 d   1     -34.334   0.813   2.676  0.00  0.00    -0.068 A 
ATOM     32  C36 JA4 d   1     -34.691   0.754   1.228  0.00  0.00    -0.076 A 
ATOM     33  H19 JA4 d   1     -33.636   1.553   3.065  0.00  0.00     0.085 H 
ATOM     34  C37 JA4 d   1     -35.588  -0.224   0.922  0.00  0.00    -0.044 A 
ATOM     35  H20 JA4 d   1     -34.273   1.431   0.484  0.00  0.00     0.084 H 
ATOM     36  S38 JA4 d   1     -35.991  -1.076   2.409  0.00  0.00    -0.105 SA
ATOM     37  H21 JA4 d   1     -35.986  -0.441  -0.068  0.00  0.00     0.095 H 
ENDBRANCH  27  30
ENDBRANCH  20  27
ENDBRANCH   1  18
BRANCH   1  38
ATOM     38  N04 JA4 d   1     -30.298   0.174   4.412  0.00  0.00    -0.297 N 
ATOM     39  H5  JA4 d   1     -29.515   0.270   5.027  0.00  0.00     0.173 HD
BRANCH  38  40
ATOM     40  S05 JA4 d   1     -29.986  -0.288   2.773  0.00  0.00     0.261 S 
ATOM     41  O18 JA4 d   1     -30.498   0.625   1.843  0.00  0.00    -0.200 OA
ATOM     42  O19 JA4 d   1     -28.599  -0.486   2.609  0.00  0.00    -0.200 OA
BRANCH  40  43
ATOM     43  C06 JA4 d   1     -30.936  -2.034   2.485  0.00  0.00     0.102 A 
ATOM     44  C13 JA4 d   1     -30.547  -3.231   3.113  0.00  0.00     0.059 A 
ATOM     45  C12 JA4 d   1     -31.160  -4.491   2.969  0.00  0.00    -0.034 A 
ATOM     46 CL1  JA4 d   1     -29.080  -3.121   4.233  0.00  0.00    -0.083 Cl
ATOM     47  C11 JA4 d   1     -32.329  -4.642   2.092  0.00  0.00     0.047 A 
ATOM     48  H8  JA4 d   1     -30.770  -5.349   3.505  0.00  0.00     0.089 H 
ATOM     49  C08 JA4 d   1     -32.796  -3.482   1.417  0.00  0.00    -0.008 A 
ATOM     50  N15 JA4 d   1     -33.010  -5.919   1.897  0.00  0.00    -0.323 N 
ATOM     51  C07 JA4 d   1     -32.075  -2.209   1.643  0.00  0.00    -0.046 A 
ATOM     52  C09 JA4 d   1     -33.999  -3.618   0.509  0.00  0.00    -0.066 A 
ATOM     53  H6  JA4 d   1     -32.445  -1.333   1.123  0.00  0.00     0.087 H 
ATOM     54  C10 JA4 d   1     -34.655  -4.833   0.319  0.00  0.00    -0.017 A 
ATOM     55  H7  JA4 d   1     -34.365  -2.736  -0.014  0.00  0.00     0.085 H 
ATOM     56  C16 JA4 d   1     -34.166  -6.051   1.027  0.00  0.00     0.245 A 
ATOM     57  H1  JA4 d   1     -35.519  -4.892  -0.342  0.00  0.00     0.092 H 
ATOM     58  O17 JA4 d   1     -34.709  -7.165   0.899  0.00  0.00    -0.268 OA
ATOM     59  H9  JA4 d   1     -32.670  -6.728   2.377  0.00  0.00     0.169 HD
ENDBRANCH  40  43
ENDBRANCH  38  40
ENDBRANCH   1  38
TORSDOF 11
