REMARK  3 active torsions:
REMARK  status: ('A' for Active; 'I' for Inactive)
REMARK    1  A    between atoms: C11_8  and  O4_19 
REMARK    2  A    between atoms: C12_9  and  O3_11 
REMARK    3  A    between atoms: C9_17  and  O5_18 
ROOT
ATOM      1  C2  MOL d   1      14.681  -9.279 -24.996  0.00  0.00    -0.082 A 
ATOM      2  C3  MOL d   1      13.953 -10.235 -25.708  0.00  0.00    -0.068 A 
ATOM      3  C4  MOL d   1      12.977  -9.852 -26.676  0.00  0.00     0.029 A 
ATOM      4  C5  MOL d   1      12.724  -8.484 -26.925  0.00  0.00     0.029 A 
ATOM      5  C6  MOL d   1      13.487  -7.523 -26.206  0.00  0.00    -0.068 A 
ATOM      6  C7  MOL d   1      11.683  -8.079 -27.970  0.00  0.00     0.197 A 
ATOM      7  C10 MOL d   1       9.155  -9.857 -30.407  0.00  0.00    -0.015 A 
ATOM      8  C11 MOL d   1       9.436 -11.181 -30.120  0.00  0.00     0.102 A 
ATOM      9  C12 MOL d   1      10.415 -11.520 -29.131  0.00  0.00     0.114 A 
ATOM     10  C14 MOL d   1      12.208 -10.906 -27.410  0.00  0.00     0.197 A 
ATOM     11  C13 MOL d   1      11.150 -10.518 -28.455  0.00  0.00     0.068 A 
ATOM     12  O2  MOL d   1      12.435 -12.059 -27.175  0.00  0.00    -0.286 OA
ATOM     13  C1  MOL d   1      14.444  -7.934 -25.240  0.00  0.00    -0.082 A 
ATOM     14  O1  MOL d   1      11.487  -6.909 -28.197  0.00  0.00    -0.286 OA
ATOM     15  C8  MOL d   1      10.901  -9.167 -28.724  0.00  0.00     0.065 A 
ATOM     16  C9  MOL d   1       9.888  -8.853 -29.717  0.00  0.00     0.083 A 
ATOM     17  H1  MOL d   1      15.420  -9.583 -24.264  0.00  0.00     0.083 H 
ATOM     18  H2  MOL d   1      14.133 -11.288 -25.522  0.00  0.00     0.085 H 
ATOM     19  H3  MOL d   1      13.337  -6.467 -26.397  0.00  0.00     0.085 H 
ATOM     20  H4  MOL d   1       8.398  -9.593 -31.137  0.00  0.00     0.092 H 
ATOM     21  H6  MOL d   1      14.998  -7.185 -24.685  0.00  0.00     0.083 H 
ENDROOT
BRANCH   8  22
ATOM     22  O4  MOL d   1       8.775 -12.177 -30.753  0.00  0.00    -0.358 OA
ATOM     23  H8  MOL d   1       8.163 -11.803 -31.376  0.00  0.00     0.217 HD
ENDBRANCH   8  22
BRANCH   9  24
ATOM     24  O3  MOL d   1      10.631 -12.845 -28.920  0.00  0.00    -0.357 OA
ATOM     25  H5  MOL d   1      11.295 -12.954 -28.249  0.00  0.00     0.217 HD
ENDBRANCH   9  24
BRANCH  16  26
ATOM     26  O5  MOL d   1       9.575  -7.590 -30.033  0.00  0.00    -0.360 OA
ATOM     27  H7  MOL d   1      10.347  -7.148 -30.367  0.00  0.00     0.217 HD
ENDBRANCH  16  26
TORSDOF 3
