REMARK  13 active torsions:
REMARK  status: ('A' for Active; 'I' for Inactive)
REMARK    1  A    between atoms: C17_4  and  N18_33 
REMARK    2  A    between atoms: C23_20  and  C24_7 
REMARK    3  A    between atoms: O02_37  and  C01_9 
REMARK    4  A    between atoms: C03_10  and  O02_37 
REMARK    5  A    between atoms: C04_11  and  O05_38 
REMARK    6  A    between atoms: C06_12  and  C07_13 
REMARK    7  A    between atoms: O05_38  and  C06_12 
REMARK    8  A    between atoms: C07_13  and  C08_14 
REMARK    9  A    between atoms: C08_14  and  N09_32 
REMARK   10  A    between atoms: N18_33  and  C19_19 
REMARK   11  A    between atoms: C23_20  and  C25_21 
REMARK   12  A    between atoms: N22_34  and  C23_20 
REMARK   13  A    between atoms: C30_24  and  C31_25 
ROOT
ATOM      1  C15 JDG d   1     -13.455  10.045   6.880  0.00  0.00     0.041 A 
ATOM      2  C17 JDG d   1     -10.981   9.291   6.695  0.00  0.00     0.280 C 
ATOM      3  C03 JDG d   1     -12.617  12.589   7.832  0.00  0.00     0.102 A 
ATOM      4  C04 JDG d   1     -14.001  12.318   7.678  0.00  0.00     0.104 A 
ATOM      5  C14 JDG d   1     -14.417  11.062   7.212  0.00  0.00    -0.022 A 
ATOM      6  C16 JDG d   1     -12.104  10.331   7.027  0.00  0.00     0.028 A 
ATOM      7  C29 JDG d   1     -12.108   6.917   6.634  0.00  0.00     0.103 C 
ATOM      8  C30 JDG d   1     -13.563   7.386   6.772  0.00  0.00     0.036 C 
ATOM      9  C38 JDG d   1     -11.672  11.602   7.508  0.00  0.00    -0.036 A 
ATOM     10  N28 JDG d   1     -11.144   7.901   7.145  0.00  0.00    -0.040 N 
ATOM     11  N37 JDG d   1     -13.921   8.736   6.381  0.00  0.00    -0.383 N 
ATOM     12  H4  JDG d   1     -10.356   9.582   7.552  0.00  0.00     0.138 H 
ATOM     13  H26 JDG d   1     -15.475  10.855   7.101  0.00  0.00     0.091 H 
ATOM     14  H34 JDG d   1     -11.896   6.737   5.570  0.00  0.00     0.079 H 
ATOM     15  H35 JDG d   1     -11.986   5.980   7.197  0.00  0.00     0.079 H 
ATOM     16  H36 JDG d   1     -13.534   7.584   7.854  0.00  0.00     0.075 H 
ATOM     17  H48 JDG d   1     -10.614  11.806   7.624  0.00  0.00     0.089 H 
ATOM     18  H52 JDG d   1     -11.338   7.968   8.132  0.00  0.00     0.280 HD
ATOM     19  H53 JDG d   1     -10.241   7.475   7.009  0.00  0.00     0.280 HD
ATOM     20  H54 JDG d   1     -14.620   8.791   5.626  0.00  0.00     0.160 HD
ENDROOT
BRANCH   2  21
ATOM     21  N18 JDG d   1      -9.896   9.606   5.664  0.00  0.00    -0.037 N 
ATOM     22  H49 JDG d   1      -9.110   9.985   6.168  0.00  0.00     0.280 HD
ATOM     23  H50 JDG d   1     -10.270  10.309   5.046  0.00  0.00     0.280 HD
BRANCH  21  24
ATOM     24  C19 JDG d   1      -9.371   8.489   4.799  0.00  0.00     0.108 C 
ATOM     25  C20 JDG d   1     -10.317   8.295   3.714  0.00  0.00    -0.015 C 
ATOM     26  C21 JDG d   1      -9.756   7.494   2.533  0.00  0.00     0.086 C 
ATOM     27  H5  JDG d   1     -11.193   7.760   4.110  0.00  0.00     0.038 H 
ATOM     28  H6  JDG d   1     -10.627   9.284   3.345  0.00  0.00     0.038 H 
ATOM     29  N22 JDG d   1      -8.481   8.017   2.119  0.00  0.00    -0.067 N 
ATOM     30  H7  JDG d   1     -10.460   7.553   1.690  0.00  0.00     0.076 H 
ATOM     31  H8  JDG d   1      -9.633   6.444   2.836  0.00  0.00     0.076 H 
ATOM     32  C26 JDG d   1      -7.526   7.977   3.202  0.00  0.00     0.086 C 
ATOM     33  H51 JDG d   1      -8.656   9.002   1.998  0.00  0.00     0.280 HD
ATOM     34  C27 JDG d   1      -8.026   8.822   4.380  0.00  0.00    -0.015 C 
ATOM     35  H12 JDG d   1      -7.394   6.936   3.532  0.00  0.00     0.076 H 
ATOM     36  H13 JDG d   1      -6.562   8.376   2.852  0.00  0.00     0.076 H 
ATOM     37  H32 JDG d   1      -8.006   9.881   4.082  0.00  0.00     0.038 H 
ATOM     38  H33 JDG d   1      -7.348   8.668   5.232  0.00  0.00     0.038 H 
ATOM     39  H27 JDG d   1      -9.325   7.560   5.386  0.00  0.00     0.084 H 
BRANCH  29  40
ATOM     40  C23 JDG d   1      -8.085   7.678   1.000  0.00  0.00     0.097 C 
ATOM     41  H28 JDG d   1      -8.380   8.524   0.362  0.00  0.00     0.083 H 
BRANCH  40  42
ATOM     42  C24 JDG d   1      -8.810   6.466   0.362  0.00  0.00    -0.050 C 
ATOM     43  H9  JDG d   1      -8.375   6.258  -0.627  0.00  0.00     0.030 H 
ATOM     44  H10 JDG d   1      -9.880   6.696   0.251  0.00  0.00     0.030 H 
ATOM     45  H11 JDG d   1      -8.689   5.585   1.009  0.00  0.00     0.030 H 
ENDBRANCH  40  42
BRANCH  40  46
ATOM     46  C25 JDG d   1      -6.553   7.606   0.834  0.00  0.00    -0.050 C 
ATOM     47  H29 JDG d   1      -6.091   8.487   1.303  0.00  0.00     0.030 H 
ATOM     48  H30 JDG d   1      -6.301   7.586  -0.236  0.00  0.00     0.030 H 
ATOM     49  H31 JDG d   1      -6.174   6.693   1.317  0.00  0.00     0.030 H 
ENDBRANCH  40  46
ENDBRANCH  29  40
ENDBRANCH  21  24
ENDBRANCH   2  21
BRANCH   3  50
ATOM     50  O02 JDG d   1     -12.170  13.839   8.303  0.00  0.00    -0.353 OA
BRANCH  50  51
ATOM     51  C01 JDG d   1     -11.264  14.494   7.421  0.00  0.00     0.010 C 
ATOM     52  H14 JDG d   1     -10.962  15.458   7.856  0.00  0.00     0.066 H 
ATOM     53  H15 JDG d   1     -11.756  14.667   6.452  0.00  0.00     0.066 H 
ATOM     54  H16 JDG d   1     -10.375  13.863   7.274  0.00  0.00     0.066 H 
ENDBRANCH  50  51
ENDBRANCH   3  50
BRANCH   8  55
ATOM     55  C31 JDG d   1     -14.662   6.248   6.824  0.00  0.00    -0.033 C 
ATOM     56  C32 JDG d   1     -15.256   6.419   5.425  0.00  0.00    -0.060 C 
ATOM     57  C33 JDG d   1     -16.279   5.318   5.132  0.00  0.00    -0.065 C 
ATOM     58  H38 JDG d   1     -14.447   6.368   4.681  0.00  0.00     0.033 H 
ATOM     59  H39 JDG d   1     -15.752   7.399   5.361  0.00  0.00     0.033 H 
ATOM     60  C34 JDG d   1     -17.350   5.201   6.225  0.00  0.00    -0.065 C 
ATOM     61  H40 JDG d   1     -15.749   4.357   5.053  0.00  0.00     0.033 H 
ATOM     62  H41 JDG d   1     -16.774   5.543   4.176  0.00  0.00     0.033 H 
ATOM     63  C35 JDG d   1     -16.765   5.143   7.642  0.00  0.00    -0.065 C 
ATOM     64  H42 JDG d   1     -17.930   4.283   6.049  0.00  0.00     0.033 H 
ATOM     65  H43 JDG d   1     -18.015   6.074   6.157  0.00  0.00     0.033 H 
ATOM     66  C36 JDG d   1     -15.754   6.260   7.898  0.00  0.00    -0.060 C 
ATOM     67  H44 JDG d   1     -16.263   4.174   7.778  0.00  0.00     0.033 H 
ATOM     68  H45 JDG d   1     -17.586   5.236   8.368  0.00  0.00     0.033 H 
ATOM     69  H46 JDG d   1     -16.273   7.230   7.877  0.00  0.00     0.033 H 
ATOM     70  H47 JDG d   1     -15.293   6.112   8.886  0.00  0.00     0.033 H 
ATOM     71  H37 JDG d   1     -14.154   5.276   6.912  0.00  0.00     0.043 H 
ENDBRANCH   8  55
BRANCH   4  72
ATOM     72  O05 JDG d   1     -14.983  13.307   8.012  0.00  0.00    -0.348 OA
BRANCH  72  73
ATOM     73  C06 JDG d   1     -15.040  14.452   7.189  0.00  0.00     0.027 C 
ATOM     74  H17 JDG d   1     -14.050  14.930   7.143  0.00  0.00     0.075 H 
ATOM     75  H18 JDG d   1     -15.357  14.168   6.175  0.00  0.00     0.075 H 
BRANCH  73  76
ATOM     76  C07 JDG d   1     -16.080  15.441   7.815  0.00  0.00    -0.034 C 
ATOM     77  H19 JDG d   1     -15.638  15.891   8.716  0.00  0.00     0.037 H 
ATOM     78  H20 JDG d   1     -16.980  14.873   8.093  0.00  0.00     0.037 H 
BRANCH  76  79
ATOM     79  C08 JDG d   1     -16.495  16.585   6.842  0.00  0.00    -0.015 C 
ATOM     80  H21 JDG d   1     -16.406  16.227   5.806  0.00  0.00     0.056 H 
ATOM     81  H22 JDG d   1     -15.826  17.445   6.991  0.00  0.00     0.056 H 
BRANCH  79  82
ATOM     82  N09 JDG d   1     -17.612  16.923   7.041  0.00  0.00    -0.293 NA
ATOM     83  C10 JDG d   1     -18.459  16.795   5.706  0.00  0.00    -0.046 C 
ATOM     84  C11 JDG d   1     -19.495  17.609   5.845  0.00  0.00    -0.092 C 
ATOM     85  H1  JDG d   1     -18.234  16.164   4.847  0.00  0.00     0.101 H 
ATOM     86  C12 JDG d   1     -19.065  18.641   6.802  0.00  0.00    -0.038 C 
ATOM     87  H23 JDG d   1     -20.463  17.531   5.353  0.00  0.00     0.078 H 
ATOM     88  C13 JDG d   1     -17.707  18.128   7.395  0.00  0.00    -0.014 C 
ATOM     89  H24 JDG d   1     -18.921  19.604   6.289  0.00  0.00     0.040 H 
ATOM     90  H25 JDG d   1     -19.812  18.759   7.601  0.00  0.00     0.040 H 
ATOM     91  H2  JDG d   1     -17.714  18.206   8.492  0.00  0.00     0.056 H 
ATOM     92  H3  JDG d   1     -16.867  18.713   6.992  0.00  0.00     0.056 H 
ENDBRANCH  79  82
ENDBRANCH  76  79
ENDBRANCH  73  76
ENDBRANCH  72  73
ENDBRANCH   4  72
TORSDOF 13
