REMARK  13 active torsions:
REMARK  status: ('A' for Active; 'I' for Inactive)
REMARK    1  A    between atoms: C17_4  and  N18_33 
REMARK    2  A    between atoms: C23_20  and  C24_7 
REMARK    3  A    between atoms: O02_37  and  C01_9 
REMARK    4  A    between atoms: C03_10  and  O02_37 
REMARK    5  A    between atoms: C04_11  and  O05_38 
REMARK    6  A    between atoms: C06_12  and  C07_13 
REMARK    7  A    between atoms: O05_38  and  C06_12 
REMARK    8  A    between atoms: C07_13  and  C08_14 
REMARK    9  A    between atoms: C08_14  and  N09_32 
REMARK   10  A    between atoms: N18_33  and  C19_19 
REMARK   11  A    between atoms: C23_20  and  C25_21 
REMARK   12  A    between atoms: N22_34  and  C23_20 
REMARK   13  A    between atoms: C30_24  and  C31_25 
ROOT
ATOM      1  C15 JDG d   1     -23.638  21.268  23.092  0.00  0.00     0.041 A 
ATOM      2  C17 JDG d   1     -21.586  19.758  23.814  0.00  0.00     0.280 C 
ATOM      3  C03 JDG d   1     -22.449  21.477  20.520  0.00  0.00     0.102 A 
ATOM      4  C04 JDG d   1     -23.673  22.123  20.771  0.00  0.00     0.104 A 
ATOM      5  C14 JDG d   1     -24.272  22.031  22.038  0.00  0.00    -0.022 A 
ATOM      6  C16 JDG d   1     -22.426  20.625  22.812  0.00  0.00     0.028 A 
ATOM      7  C29 JDG d   1     -22.910  19.740  26.014  0.00  0.00     0.103 C 
ATOM      8  C30 JDG d   1     -23.847  20.909  25.750  0.00  0.00     0.036 C 
ATOM      9  C38 JDG d   1     -21.824  20.728  21.525  0.00  0.00    -0.036 A 
ATOM     10  N28 JDG d   1     -21.688  19.932  25.257  0.00  0.00    -0.040 N 
ATOM     11  N37 JDG d   1     -24.322  21.202  24.404  0.00  0.00    -0.383 N 
ATOM     12  H4  JDG d   1     -22.353  18.970  23.810  0.00  0.00     0.138 H 
ATOM     13  H26 JDG d   1     -25.213  22.534  22.227  0.00  0.00     0.091 H 
ATOM     14  H34 JDG d   1     -23.393  18.802  25.702  0.00  0.00     0.079 H 
ATOM     15  H35 JDG d   1     -22.675  19.692  27.087  0.00  0.00     0.079 H 
ATOM     16  H36 JDG d   1     -23.096  21.712  25.784  0.00  0.00     0.075 H 
ATOM     17  H48 JDG d   1     -20.884  20.227  21.324  0.00  0.00     0.089 H 
ATOM     18  H52 JDG d   1     -21.401  20.881  25.439  0.00  0.00     0.280 HD
ATOM     19  H53 JDG d   1     -21.017  19.295  25.657  0.00  0.00     0.280 HD
ATOM     20  H54 JDG d   1     -25.331  21.402  24.355  0.00  0.00     0.160 HD
ENDROOT
BRANCH   2  21
ATOM     21  N18 JDG d   1     -20.509  18.800  23.336  0.00  0.00    -0.037 N 
ATOM     22  H49 JDG d   1     -19.801  19.347  22.872  0.00  0.00     0.280 HD
ATOM     23  H50 JDG d   1     -20.935  18.171  22.674  0.00  0.00     0.280 HD
BRANCH  21  24
ATOM     24  C19 JDG d   1     -19.821  17.961  24.381  0.00  0.00     0.108 C 
ATOM     25  C20 JDG d   1     -20.569  16.727  24.586  0.00  0.00    -0.015 C 
ATOM     26  C21 JDG d   1     -19.794  15.670  25.393  0.00  0.00     0.086 C 
ATOM     27  H5  JDG d   1     -21.497  16.967  25.126  0.00  0.00     0.038 H 
ATOM     28  H6  JDG d   1     -20.817  16.302  23.602  0.00  0.00     0.038 H 
ATOM     29  N22 JDG d   1     -18.442  15.494  24.917  0.00  0.00    -0.067 N 
ATOM     30  H7  JDG d   1     -20.323  14.709  25.316  0.00  0.00     0.076 H 
ATOM     31  H8  JDG d   1     -19.759  15.986  26.446  0.00  0.00     0.076 H 
ATOM     32  C26 JDG d   1     -17.722  16.740  24.819  0.00  0.00     0.086 C 
ATOM     33  H51 JDG d   1     -18.522  15.131  23.980  0.00  0.00     0.280 HD
ATOM     34  C27 JDG d   1     -18.464  17.750  23.942  0.00  0.00    -0.015 C 
ATOM     35  H12 JDG d   1     -17.601  17.163  25.827  0.00  0.00     0.076 H 
ATOM     36  H13 JDG d   1     -16.732  16.547  24.381  0.00  0.00     0.076 H 
ATOM     37  H32 JDG d   1     -18.481  17.376  22.908  0.00  0.00     0.038 H 
ATOM     38  H33 JDG d   1     -17.928  18.710  23.976  0.00  0.00     0.038 H 
ATOM     39  H27 JDG d   1     -19.799  18.510  25.334  0.00  0.00     0.084 H 
BRANCH  29  40
ATOM     40  C23 JDG d   1     -17.791  14.672  25.553  0.00  0.00     0.097 C 
ATOM     41  H28 JDG d   1     -16.759  14.731  25.178  0.00  0.00     0.083 H 
BRANCH  40  42
ATOM     42  C24 JDG d   1     -18.281  13.234  25.280  0.00  0.00    -0.050 C 
ATOM     43  H9  JDG d   1     -17.677  12.524  25.864  0.00  0.00     0.030 H 
ATOM     44  H10 JDG d   1     -18.177  13.008  24.208  0.00  0.00     0.030 H 
ATOM     45  H11 JDG d   1     -19.338  13.145  25.573  0.00  0.00     0.030 H 
ENDBRANCH  40  42
BRANCH  40  46
ATOM     46  C25 JDG d   1     -17.726  14.993  27.058  0.00  0.00    -0.050 C 
ATOM     47  H29 JDG d   1     -17.372  16.025  27.198  0.00  0.00     0.030 H 
ATOM     48  H30 JDG d   1     -17.031  14.298  27.552  0.00  0.00     0.030 H 
ATOM     49  H31 JDG d   1     -18.728  14.886  27.500  0.00  0.00     0.030 H 
ENDBRANCH  40  46
ENDBRANCH  29  40
ENDBRANCH  21  24
ENDBRANCH   2  21
BRANCH   3  50
ATOM     50  O02 JDG d   1     -21.876  21.586  19.243  0.00  0.00    -0.353 OA
BRANCH  50  51
ATOM     51  C01 JDG d   1     -20.782  20.705  19.019  0.00  0.00     0.010 C 
ATOM     52  H14 JDG d   1     -20.394  20.854  18.001  0.00  0.00     0.066 H 
ATOM     53  H15 JDG d   1     -21.120  19.664  19.134  0.00  0.00     0.066 H 
ATOM     54  H16 JDG d   1     -19.986  20.915  19.749  0.00  0.00     0.066 H 
ENDBRANCH  50  51
ENDBRANCH   3  50
BRANCH   8  55
ATOM     55  C31 JDG d   1     -24.662  21.333  27.023  0.00  0.00    -0.033 C 
ATOM     56  C32 JDG d   1     -25.813  20.336  26.845  0.00  0.00    -0.060 C 
ATOM     57  C33 JDG d   1     -26.917  20.564  27.880  0.00  0.00    -0.065 C 
ATOM     58  H38 JDG d   1     -25.422  19.314  26.959  0.00  0.00     0.033 H 
ATOM     59  H39 JDG d   1     -26.237  20.456  25.837  0.00  0.00     0.033 H 
ATOM     60  C34 JDG d   1     -26.495  21.552  28.974  0.00  0.00    -0.065 C 
ATOM     61  H40 JDG d   1     -27.166  19.601  28.350  0.00  0.00     0.033 H 
ATOM     62  H41 JDG d   1     -27.805  20.962  27.368  0.00  0.00     0.033 H 
ATOM     63  C35 JDG d   1     -26.064  22.906  28.401  0.00  0.00    -0.065 C 
ATOM     64  H42 JDG d   1     -25.652  21.121  29.534  0.00  0.00     0.033 H 
ATOM     65  H43 JDG d   1     -27.345  21.710  29.654  0.00  0.00     0.033 H 
ATOM     66  C36 JDG d   1     -25.147  22.772  27.187  0.00  0.00    -0.060 C 
ATOM     67  H44 JDG d   1     -25.530  23.465  29.184  0.00  0.00     0.033 H 
ATOM     68  H45 JDG d   1     -26.964  23.463  28.101  0.00  0.00     0.033 H 
ATOM     69  H46 JDG d   1     -25.700  23.070  26.284  0.00  0.00     0.033 H 
ATOM     70  H47 JDG d   1     -24.277  23.432  27.319  0.00  0.00     0.033 H 
ATOM     71  H37 JDG d   1     -24.076  21.100  27.924  0.00  0.00     0.043 H 
ENDBRANCH   8  55
BRANCH   4  72
ATOM     72  O05 JDG d   1     -24.228  22.866  19.680  0.00  0.00    -0.348 OA
BRANCH  72  73
ATOM     73  C06 JDG d   1     -25.535  23.365  19.822  0.00  0.00     0.027 C 
ATOM     74  H17 JDG d   1     -26.240  22.540  20.003  0.00  0.00     0.075 H 
ATOM     75  H18 JDG d   1     -25.582  24.078  20.659  0.00  0.00     0.075 H 
BRANCH  73  76
ATOM     76  C07 JDG d   1     -25.879  24.087  18.475  0.00  0.00    -0.034 C 
ATOM     77  H19 JDG d   1     -25.194  24.938  18.351  0.00  0.00     0.037 H 
ATOM     78  H20 JDG d   1     -26.914  24.455  18.531  0.00  0.00     0.037 H 
BRANCH  76  79
ATOM     79  C08 JDG d   1     -25.750  23.161  17.223  0.00  0.00    -0.015 C 
ATOM     80  H21 JDG d   1     -24.820  22.582  17.317  0.00  0.00     0.056 H 
ATOM     81  H22 JDG d   1     -25.697  23.797  16.327  0.00  0.00     0.056 H 
BRANCH  79  82
ATOM     82  N09 JDG d   1     -26.658  22.393  17.084  0.00  0.00    -0.293 NA
ATOM     83  C10 JDG d   1     -26.405  21.531  15.770  0.00  0.00    -0.046 C 
ATOM     84  C11 JDG d   1     -27.587  21.050  15.379  0.00  0.00    -0.092 C 
ATOM     85  H1  JDG d   1     -25.446  21.365  15.281  0.00  0.00     0.101 H 
ATOM     86  C12 JDG d   1     -28.609  21.835  16.102  0.00  0.00    -0.038 C 
ATOM     87  H23 JDG d   1     -27.763  20.242  14.670  0.00  0.00     0.078 H 
ATOM     88  C13 JDG d   1     -27.794  22.932  16.880  0.00  0.00    -0.014 C 
ATOM     89  H24 JDG d   1     -29.311  22.302  15.395  0.00  0.00     0.040 H 
ATOM     90  H25 JDG d   1     -29.165  21.195  16.803  0.00  0.00     0.040 H 
ATOM     91  H2  JDG d   1     -28.285  23.180  17.833  0.00  0.00     0.056 H 
ATOM     92  H3  JDG d   1     -27.690  23.844  16.273  0.00  0.00     0.056 H 
ENDBRANCH  79  82
ENDBRANCH  76  79
ENDBRANCH  73  76
ENDBRANCH  72  73
ENDBRANCH   4  72
TORSDOF 13
