REMARK  5 active torsions:
REMARK  status: ('A' for Active; 'I' for Inactive)
REMARK    1  A    between atoms: C03_5  and  C02_4 
REMARK       I    between atoms: C02_4  and  N31_31 
REMARK    2  A    between atoms: C10_12  and  C11_13 
REMARK    3  A    between atoms: N16_18  and  C15_17 
REMARK    4  A    between atoms: C17_19  and  N16_18 
REMARK    5  A    between atoms: C18_20  and  C17_19 
ROOT
ATOM      1  C03 JDP d   1      67.996  28.418  57.062  0.00  0.00     0.044 A 
ATOM      2  C04 JDP d   1      67.117  28.988  57.971  0.00  0.00    -0.067 A 
ATOM      3  C05 JDP d   1      67.275  28.835  59.354  0.00  0.00    -0.080 A 
ATOM      4  C06 JDP d   1      68.302  28.119  59.905  0.00  0.00    -0.055 A 
ATOM      5  C07 JDP d   1      69.155  27.560  59.007  0.00  0.00     0.068 A 
ATOM      6  C08 JDP d   1      69.041  27.666  57.603  0.00  0.00     0.009 A 
ATOM      7  C09 JDP d   1      70.128  26.922  57.029  0.00  0.00    -0.047 A 
ATOM      8  C10 JDP d   1      70.828  26.413  58.058  0.00  0.00     0.032 A 
ATOM      9  N12 JDP d   1      70.227  26.790  59.295  0.00  0.00    -0.147 N 
ATOM     10  C13 JDP d   1      70.571  26.485  60.572  0.00  0.00     0.736 A 
ATOM     11  N14 JDP d   1      70.467  27.477  61.430  0.00  0.00    -0.044 NA
ATOM     12  C15 JDP d   1      70.785  27.238  62.691  0.00  0.00     0.153 A 
ATOM     13  C24 JDP d   1      71.198  25.950  63.092  0.00  0.00     0.037 A 
ATOM     14  C25 JDP d   1      71.598  25.650  64.531  0.00  0.00     0.049 C 
ATOM     15  O26 JDP d   1      72.612  24.632  64.574  0.00  0.00    -0.386 OA
ATOM     16  C27 JDP d   1      72.331  23.427  63.769  0.00  0.00     0.025 C 
ATOM     17  C28 JDP d   1      71.648  23.588  62.378  0.00  0.00    -0.004 C 
ATOM     18  C29 JDP d   1      71.235  24.994  62.096  0.00  0.00     0.068 A 
ATOM     19  N30 JDP d   1      70.907  25.236  60.842  0.00  0.00    -0.066 NA
ATOM     20  H3  JDP d   1      66.282  29.570  57.599  0.00  0.00     0.085 H 
ATOM     21  H4  JDP d   1      66.554  29.303  60.015  0.00  0.00     0.083 H 
ATOM     22  H5  JDP d   1      68.426  28.006  60.976  0.00  0.00     0.087 H 
ATOM     23  H6  JDP d   1      70.343  26.795  55.969  0.00  0.00     0.087 H 
ATOM     24  H16 JDP d   1      70.714  25.303  65.087  0.00  0.00     0.082 H 
ATOM     25  H17 JDP d   1      71.987  26.567  64.996  0.00  0.00     0.082 H 
ATOM     26  H18 JDP d   1      71.679  22.780  64.375  0.00  0.00     0.074 H 
ATOM     27  H19 JDP d   1      73.293  22.922  63.599  0.00  0.00     0.074 H 
ATOM     28  H20 JDP d   1      70.755  22.947  62.349  0.00  0.00     0.045 H 
ATOM     29  H21 JDP d   1      72.356  23.267  61.600  0.00  0.00     0.045 H 
ENDROOT
BRANCH   8  30
ATOM     30  C11 JDP d   1      72.064  25.567  57.933  0.00  0.00    -0.036 C 
ATOM     31  H7  JDP d   1      72.308  25.430  56.869  0.00  0.00     0.035 H 
ATOM     32  H8  JDP d   1      71.885  24.586  58.397  0.00  0.00     0.035 H 
ATOM     33  H9  JDP d   1      72.903  26.066  58.441  0.00  0.00     0.035 H 
ENDBRANCH   8  30
BRANCH  12  34
ATOM     34  N16 JDP d   1      70.789  28.324  63.504  0.00  0.00    -0.369 N 
ATOM     35  H10 JDP d   1      71.392  29.093  63.179  0.00  0.00     0.161 HD
BRANCH  34  36
ATOM     36  C17 JDP d   1      70.102  28.593  64.738  0.00  0.00     0.018 C 
ATOM     37  H11 JDP d   1      70.597  29.384  65.320  0.00  0.00     0.071 H 
ATOM     38  H12 JDP d   1      70.002  27.690  65.358  0.00  0.00     0.071 H 
BRANCH  36  39
ATOM     39  C18 JDP d   1      68.792  29.041  64.194  0.00  0.00    -0.041 A 
ATOM     40  C19 JDP d   1      68.362  30.338  64.390  0.00  0.00    -0.075 A 
ATOM     41  C20 JDP d   1      67.123  30.699  63.849  0.00  0.00    -0.082 A 
ATOM     42  H13 JDP d   1      68.963  31.051  64.943  0.00  0.00     0.084 H 
ATOM     43  C21 JDP d   1      66.341  29.795  63.111  0.00  0.00    -0.083 A 
ATOM     44  H14 JDP d   1      66.755  31.707  64.004  0.00  0.00     0.083 H 
ATOM     45  C22 JDP d   1      66.818  28.498  62.914  0.00  0.00    -0.082 A 
ATOM     46  H2  JDP d   1      65.384  30.099  62.702  0.00  0.00     0.083 H 
ATOM     47  C23 JDP d   1      68.038  28.128  63.444  0.00  0.00    -0.075 A 
ATOM     48  H1  JDP d   1      66.232  27.784  62.347  0.00  0.00     0.083 H 
ATOM     49  H15 JDP d   1      68.415  27.125  63.279  0.00  0.00     0.084 H 
ENDBRANCH  36  39
ENDBRANCH  34  36
ENDBRANCH  12  34
BRANCH   1  50
ATOM     50  C02 JDP d   1      67.791  28.572  55.595  0.00  0.00     0.250 C 
ATOM     51  O01 JDP d   1      68.481  27.968  54.787  0.00  0.00    -0.268 OA
ATOM     52  N31 JDP d   1      66.759  29.369  55.193  0.00  0.00    -0.366 N 
ATOM     53  H22 JDP d   1      66.208  29.854  55.872  0.00  0.00     0.159 HD
ATOM     54  H23 JDP d   1      66.554  29.468  54.219  0.00  0.00     0.159 HD
ENDBRANCH   1  50
TORSDOF 5
