REMARK  7 active torsions:
REMARK  status: ('A' for Active; 'I' for Inactive)
REMARK    1  A    between atoms: C2_2  and  S1_27 
REMARK    2  A    between atoms: C7_16  and  C11_5 
REMARK    3  A    between atoms: C11_5  and  N4_25 
REMARK    4  A    between atoms: S1_27  and  C12_6 
REMARK    5  A    between atoms: C16_10  and  C17_11 
REMARK    6  A    between atoms: C7_16  and  C10_12 
REMARK    7  A    between atoms: N3_24  and  C4_13 
ROOT
ATOM      1  C5  JE1 d   1      25.782  40.196   2.506  0.00  0.00     0.012 C 
ATOM      2  C6  JE1 d   1      26.976  40.889   3.212  0.00  0.00    -0.041 C 
ATOM      3  C7  JE1 d   1      27.307  42.339   2.692  0.00  0.00    -0.018 C 
ATOM      4  C8  JE1 d   1      25.992  43.166   2.503  0.00  0.00    -0.041 C 
ATOM      5  C9  JE1 d   1      24.873  42.394   1.761  0.00  0.00     0.012 C 
ATOM      6  N3  JE1 d   1      24.640  41.125   2.493  0.00  0.00    -0.216 N 
ATOM      7  H10 JE1 d   1      25.509  39.281   3.052  0.00  0.00     0.065 H 
ATOM      8  H11 JE1 d   1      26.061  39.938   1.474  0.00  0.00     0.065 H 
ATOM      9  H12 JE1 d   1      27.869  40.263   3.067  0.00  0.00     0.036 H 
ATOM     10  H13 JE1 d   1      26.745  40.956   4.285  0.00  0.00     0.036 H 
ATOM     11  H14 JE1 d   1      26.231  44.071   1.926  0.00  0.00     0.036 H 
ATOM     12  H15 JE1 d   1      25.616  43.453   3.496  0.00  0.00     0.036 H 
ATOM     13  H16 JE1 d   1      25.187  42.179   0.729  0.00  0.00     0.065 H 
ATOM     14  H17 JE1 d   1      23.951  42.993   1.746  0.00  0.00     0.065 H 
ENDROOT
BRANCH   6  15
ATOM     15  C4  JE1 d   1      23.546  40.954   3.344  0.00  0.00     0.704 A 
ATOM     16  N1  JE1 d   1      22.569  41.857   3.295  0.00  0.00    -0.165 N 
ATOM     17  C1  JE1 d   1      21.620  41.764   4.229  0.00  0.00     0.212 A 
ATOM     18  H18 JE1 d   1      22.547  42.569   2.594  0.00  0.00     0.186 HD
ATOM     19  C2  JE1 d   1      21.595  40.740   5.213  0.00  0.00     0.078 A 
ATOM     20  O1  JE1 d   1      20.589  42.617   4.154  0.00  0.00    -0.170 OA
ATOM     21  C3  JE1 d   1      22.661  39.835   5.160  0.00  0.00     0.042 A 
ATOM     22  N2  JE1 d   1      23.640  39.975   4.248  0.00  0.00    -0.075 NA
ATOM     23  H1  JE1 d   1      22.699  39.007   5.866  0.00  0.00     0.118 H 
BRANCH  19  24
ATOM     24  S1  JE1 d   1      20.359  40.698   6.479  0.00  0.00    -0.082 SA
BRANCH  24  25
ATOM     25  C12 JE1 d   1      18.777  40.558   5.676  0.00  0.00     0.039 A 
ATOM     26  C13 JE1 d   1      18.718  40.115   4.329  0.00  0.00    -0.063 A 
ATOM     27  C14 JE1 d   1      17.487  40.061   3.645  0.00  0.00    -0.065 A 
ATOM     28  H4  JE1 d   1      19.628  39.816   3.822  0.00  0.00     0.085 H 
ATOM     29  C15 JE1 d   1      16.328  40.406   4.345  0.00  0.00     0.003 A 
ATOM     30  H5  JE1 d   1      17.441  39.760   2.605  0.00  0.00     0.085 H 
ATOM     31  N5  JE1 d   1      16.352  40.812   5.634  0.00  0.00    -0.255 NA
ATOM     32  H6  JE1 d   1      15.373  40.346   3.835  0.00  0.00     0.114 H 
ATOM     33  C16 JE1 d   1      17.538  40.884   6.309  0.00  0.00     0.157 A 
BRANCH  33  34
ATOM     34  C17 JE1 d   1      17.423  41.297   7.779  0.00  0.00     0.435 C 
ATOM     35  F1  JE1 d   1      16.192  41.040   8.184  0.00  0.00    -0.165 F 
ATOM     36  F2  JE1 d   1      18.245  40.567   8.539  0.00  0.00    -0.165 F 
ATOM     37  F3  JE1 d   1      17.640  42.607   7.999  0.00  0.00    -0.165 F 
ENDBRANCH  33  34
ENDBRANCH  24  25
ENDBRANCH  19  24
ENDBRANCH   6  15
BRANCH   3  38
ATOM     38  C11 JE1 d   1      28.310  43.011   3.671  0.00  0.00     0.086 C 
ATOM     39  H2  JE1 d   1      28.745  43.887   3.168  0.00  0.00     0.076 H 
ATOM     40  H3  JE1 d   1      29.106  42.286   3.898  0.00  0.00     0.076 H 
BRANCH  38  41
ATOM     41  N4  JE1 d   1      27.728  43.453   4.929  0.00  0.00    -0.079 N 
ATOM     42  H19 JE1 d   1      28.443  43.874   5.500  0.00  0.00     0.274 HD
ATOM     43  H20 JE1 d   1      27.334  42.662   5.413  0.00  0.00     0.274 HD
ATOM     44  H21 JE1 d   1      27.003  44.129   4.745  0.00  0.00     0.274 HD
ENDBRANCH  38  41
ENDBRANCH   3  38
BRANCH   3  45
ATOM     45  C10 JE1 d   1      28.048  42.227   1.324  0.00  0.00    -0.067 C 
ATOM     46  H7  JE1 d   1      27.384  41.755   0.585  0.00  0.00     0.028 H 
ATOM     47  H8  JE1 d   1      28.953  41.615   1.446  0.00  0.00     0.028 H 
ATOM     48  H9  JE1 d   1      28.329  43.232   0.976  0.00  0.00     0.028 H 
ENDBRANCH   3  45
TORSDOF 7
