REMARK  5 active torsions:
REMARK  status: ('A' for Active; 'I' for Inactive)
REMARK    1  A    between atoms: N3_22  and  C3_3 
REMARK    2  A    between atoms: C8_18  and  C11_5 
REMARK    3  A    between atoms: C12_6  and  C13_7 
REMARK    4  A    between atoms: N2_21  and  C5_15 
REMARK    5  A    between atoms: C8_18  and  N4_23 
ROOT
ATOM      1  C1  JE4 d   1      21.837  40.584   4.384  0.00  0.00     0.110 A 
ATOM      2  C2  JE4 d   1      23.074  39.978   4.622  0.00  0.00     0.155 A 
ATOM      3  C3  JE4 d   1      24.054  41.151   2.864  0.00  0.00     0.686 A 
ATOM      4  O1  JE4 d   1      20.587  42.123   3.126  0.00  0.00    -0.266 OA
ATOM      5  C12 JE4 d   1      20.950  40.069   5.264  0.00  0.00     0.108 A 
ATOM      6  C4  JE4 d   1      21.675  41.574   3.289  0.00  0.00     0.278 A 
ATOM      7  N1  JE4 d   1      24.186  40.275   3.838  0.00  0.00    -0.174 N 
ATOM      8  N2  JE4 d   1      22.783  41.775   2.521  0.00  0.00    -0.151 N 
ATOM      9  N5  JE4 d   1      23.033  39.157   5.631  0.00  0.00    -0.261 N 
ATOM     10  N6  JE4 d   1      21.744  39.240   6.034  0.00  0.00    -0.171 NA
ATOM     11  H18 JE4 d   1      25.092  39.819   4.016  0.00  0.00     0.186 HD
ATOM     12  H22 JE4 d   1      23.794  38.585   6.025  0.00  0.00     0.191 HD
ENDROOT
BRANCH   3  13
ATOM     13  N3  JE4 d   1      25.200  41.442   2.102  0.00  0.00    -0.217 N 
ATOM     14  C10 JE4 d   1      25.408  42.747   1.438  0.00  0.00     0.014 C 
ATOM     15  C9  JE4 d   1      26.840  43.308   1.366  0.00  0.00    -0.019 C 
ATOM     16  H7  JE4 d   1      25.044  42.648   0.405  0.00  0.00     0.065 H 
ATOM     17  H8  JE4 d   1      24.795  43.487   1.974  0.00  0.00     0.065 H 
ATOM     18  C8  JE4 d   1      28.011  42.304   1.470  0.00  0.00     0.123 C 
ATOM     19  H16 JE4 d   1      26.952  44.030   2.189  0.00  0.00     0.039 H 
ATOM     20  H17 JE4 d   1      26.940  43.831   0.403  0.00  0.00     0.039 H 
ATOM     21  C7  JE4 d   1      27.672  40.965   2.197  0.00  0.00    -0.019 C 
ATOM     22  C6  JE4 d   1      26.254  40.428   1.925  0.00  0.00     0.014 C 
ATOM     23  H14 JE4 d   1      28.396  40.204   1.869  0.00  0.00     0.039 H 
ATOM     24  H15 JE4 d   1      27.776  41.127   3.280  0.00  0.00     0.039 H 
ATOM     25  H12 JE4 d   1      26.057  39.596   2.618  0.00  0.00     0.065 H 
ATOM     26  H13 JE4 d   1      26.213  40.060   0.889  0.00  0.00     0.065 H 
BRANCH  18  27
ATOM     27  C11 JE4 d   1      28.597  42.058   0.076  0.00  0.00    -0.045 C 
ATOM     28  H1  JE4 d   1      29.430  41.344   0.149  0.00  0.00     0.030 H 
ATOM     29  H2  JE4 d   1      28.964  43.008  -0.340  0.00  0.00     0.030 H 
ATOM     30  H3  JE4 d   1      27.818  41.646  -0.582  0.00  0.00     0.030 H 
ENDBRANCH  18  27
BRANCH  18  31
ATOM     31  N4  JE4 d   1      29.054  42.966   2.233  0.00  0.00    -0.071 N 
ATOM     32  H19 JE4 d   1      29.844  42.348   2.329  0.00  0.00     0.275 HD
ATOM     33  H20 JE4 d   1      28.702  43.205   3.147  0.00  0.00     0.275 HD
ATOM     34  H21 JE4 d   1      29.340  43.805   1.753  0.00  0.00     0.275 HD
ENDBRANCH  18  31
ENDBRANCH   3  13
BRANCH   8  35
ATOM     35  C5  JE4 d   1      22.600  42.696   1.373  0.00  0.00     0.006 C 
ATOM     36  H9  JE4 d   1      23.548  42.788   0.822  0.00  0.00     0.058 H 
ATOM     37  H10 JE4 d   1      22.293  43.685   1.742  0.00  0.00     0.058 H 
ATOM     38  H11 JE4 d   1      21.824  42.297   0.703  0.00  0.00     0.058 H 
ENDBRANCH   8  35
BRANCH   5  39
ATOM     39  C13 JE4 d   1      19.506  40.270   5.438  0.00  0.00     0.019 A 
ATOM     40  C14 JE4 d   1      18.950  40.685   6.654  0.00  0.00     0.068 A 
ATOM     41  C15 JE4 d   1      17.560  40.881   6.799  0.00  0.00     0.056 A 
ATOM     42 CL2  JE4 d   1      20.010  41.007   7.964  0.00  0.00    -0.082 Cl
ATOM     43  C16 JE4 d   1      16.676  40.682   5.717  0.00  0.00    -0.060 A 
ATOM     44 CL1  JE4 d   1      16.970  41.467   8.303  0.00  0.00    -0.083 Cl
ATOM     45  C17 JE4 d   1      17.215  40.237   4.488  0.00  0.00    -0.080 A 
ATOM     46  H4  JE4 d   1      15.613  40.865   5.825  0.00  0.00     0.086 H 
ATOM     47  C18 JE4 d   1      18.615  40.028   4.353  0.00  0.00    -0.069 A 
ATOM     48  H5  JE4 d   1      16.558  40.054   3.645  0.00  0.00     0.083 H 
ATOM     49  H6  JE4 d   1      19.012  39.678   3.407  0.00  0.00     0.085 H 
ENDBRANCH   5  39
TORSDOF 5
