REMARK  7 active torsions:
REMARK  status: ('A' for Active; 'I' for Inactive)
REMARK    1  A    between atoms: C11_6  and  C13_8 
REMARK    2  A    between atoms: C12_7  and  N4_29 
REMARK    3  A    between atoms: N1_26  and  C14_9 
REMARK    4  A    between atoms: C15_10  and  C16_11 
REMARK    5  A    between atoms: C18_13  and  N8_33 
REMARK    6  A    between atoms: N8_33  and  C21_16 
REMARK    7  A    between atoms: N3_28  and  C4_20 
ROOT
ATOM      1  C1  JEA d   1      22.504  40.130   5.153  0.00  0.00     0.155 A 
ATOM      2  C2  JEA d   1      21.335  40.897   5.145  0.00  0.00     0.110 A 
ATOM      3  C3  JEA d   1      21.115  41.919   4.088  0.00  0.00     0.278 C 
ATOM      4  O2  JEA d   1      20.087  42.599   4.088  0.00  0.00    -0.266 OA
ATOM      5  C15 JEA d   1      20.617  40.523   6.234  0.00  0.00     0.108 A 
ATOM      6  C4  JEA d   1      23.309  41.183   3.270  0.00  0.00     0.686 C 
ATOM      7  N1  JEA d   1      22.111  42.001   3.150  0.00  0.00    -0.151 N 
ATOM      8  N2  JEA d   1      23.524  40.343   4.253  0.00  0.00    -0.174 N 
ATOM      9  N5  JEA d   1      21.436  39.590   6.819  0.00  0.00    -0.171 NA
ATOM     10  N6  JEA d   1      22.609  39.355   6.184  0.00  0.00    -0.261 N 
ATOM     11  H26 JEA d   1      24.427  39.858   4.349  0.00  0.00     0.186 HD
ATOM     12  H30 JEA d   1      23.380  38.726   6.451  0.00  0.00     0.191 HD
ENDROOT
BRANCH   6  13
ATOM     13  N3  JEA d   1      24.401  41.407   2.436  0.00  0.00    -0.217 N 
ATOM     14  C5  JEA d   1      24.793  42.744   1.985  0.00  0.00     0.012 C 
ATOM     15  C6  JEA d   1      25.952  43.221   2.889  0.00  0.00    -0.038 C 
ATOM     16  H18 JEA d   1      25.127  42.704   0.938  0.00  0.00     0.065 H 
ATOM     17  H19 JEA d   1      23.941  43.434   2.072  0.00  0.00     0.065 H 
ATOM     18  C7  JEA d   1      27.152  42.205   2.951  0.00  0.00     0.015 C 
ATOM     19  H20 JEA d   1      25.564  43.365   3.908  0.00  0.00     0.036 H 
ATOM     20  H21 JEA d   1      26.326  44.180   2.500  0.00  0.00     0.036 H 
ATOM     21  C12 JEA d   1      28.186  42.523   4.061  0.00  0.00     0.133 C 
ATOM     22  C10 JEA d   1      28.011  42.409   1.676  0.00  0.00     0.029 C 
ATOM     23  C8  JEA d   1      26.655  40.714   3.078  0.00  0.00    -0.038 C 
ATOM     24  C11 JEA d   1      29.534  42.278   3.347  0.00  0.00     0.063 C 
ATOM     25  H2  JEA d   1      28.070  41.805   4.886  0.00  0.00     0.089 H 
ATOM     26  O1  JEA d   1      29.264  42.887   2.117  0.00  0.00    -0.383 OA
ATOM     27  H1  JEA d   1      29.707  41.196   3.247  0.00  0.00     0.086 H 
ATOM     28  H16 JEA d   1      28.133  41.455   1.142  0.00  0.00     0.075 H 
ATOM     29  H17 JEA d   1      27.536  43.144   1.010  0.00  0.00     0.075 H 
ATOM     30  C9  JEA d   1      25.406  40.370   2.210  0.00  0.00     0.012 C 
ATOM     31  H22 JEA d   1      26.403  40.525   4.132  0.00  0.00     0.036 H 
ATOM     32  H23 JEA d   1      27.478  40.051   2.773  0.00  0.00     0.036 H 
ATOM     33  H24 JEA d   1      25.004  39.390   2.506  0.00  0.00     0.065 H 
ATOM     34  H25 JEA d   1      25.685  40.346   1.146  0.00  0.00     0.065 H 
BRANCH  21  35
ATOM     35  N4  JEA d   1      28.057  43.888   4.639  0.00  0.00    -0.072 N 
ATOM     36  H27 JEA d   1      28.759  44.020   5.350  0.00  0.00     0.274 HD
ATOM     37  H28 JEA d   1      27.142  43.995   5.047  0.00  0.00     0.274 HD
ATOM     38  H29 JEA d   1      28.183  44.574   3.912  0.00  0.00     0.274 HD
ENDBRANCH  21  35
BRANCH  24  39
ATOM     39  C13 JEA d   1      30.810  42.918   3.901  0.00  0.00    -0.050 C 
ATOM     40  H3  JEA d   1      31.056  42.464   4.872  0.00  0.00     0.031 H 
ATOM     41  H4  JEA d   1      30.651  43.999   4.032  0.00  0.00     0.031 H 
ATOM     42  H5  JEA d   1      31.639  42.752   3.197  0.00  0.00     0.031 H 
ENDBRANCH  24  39
ENDBRANCH   6  13
BRANCH   7  43
ATOM     43  C14 JEA d   1      21.863  42.894   1.983  0.00  0.00     0.006 C 
ATOM     44  H6  JEA d   1      20.899  43.408   2.113  0.00  0.00     0.058 H 
ATOM     45  H7  JEA d   1      21.837  42.294   1.061  0.00  0.00     0.058 H 
ATOM     46  H8  JEA d   1      22.670  43.639   1.913  0.00  0.00     0.058 H 
ENDBRANCH   7  43
BRANCH   5  47
ATOM     47  C16 JEA d   1      19.300  40.875   6.764  0.00  0.00     0.022 A 
ATOM     48  C17 JEA d   1      18.108  40.784   5.997  0.00  0.00     0.092 A 
ATOM     49  C18 JEA d   1      16.880  41.178   6.593  0.00  0.00     0.146 A 
ATOM     50 CL1  JEA d   1      18.098  40.171   4.375  0.00  0.00    -0.079 Cl
ATOM     51  N7  JEA d   1      16.816  41.632   7.867  0.00  0.00    -0.242 NA
ATOM     52  C19 JEA d   1      17.951  41.703   8.600  0.00  0.00     0.005 A 
ATOM     53  C20 JEA d   1      19.205  41.299   8.101  0.00  0.00    -0.052 A 
ATOM     54  H9  JEA d   1      17.893  42.086   9.612  0.00  0.00     0.114 H 
ATOM     55  H10 JEA d   1      20.082  41.315   8.738  0.00  0.00     0.087 H 
BRANCH  49  56
ATOM     56  N8  JEA d   1      15.703  41.091   5.828  0.00  0.00    -0.369 N 
ATOM     57  H31 JEA d   1      15.760  40.704   4.875  0.00  0.00     0.161 HD
BRANCH  56  58
ATOM     58  C21 JEA d   1      14.398  41.529   6.332  0.00  0.00     0.011 A 
ATOM     59  C22 JEA d   1      13.344  42.015   5.367  0.00  0.00    -0.044 A 
ATOM     60  C23 JEA d   1      14.034  42.998   6.290  0.00  0.00    -0.044 A 
ATOM     61  H12 JEA d   1      12.287  41.756   5.530  0.00  0.00     0.036 H 
ATOM     62  H13 JEA d   1      13.554  42.034   4.287  0.00  0.00     0.036 H 
ATOM     63  H14 JEA d   1      14.746  43.730   5.881  0.00  0.00     0.036 H 
ATOM     64  H15 JEA d   1      13.479  43.452   7.125  0.00  0.00     0.036 H 
ATOM     65  H11 JEA d   1      14.111  40.913   7.197  0.00  0.00     0.072 H 
ENDBRANCH  56  58
ENDBRANCH  49  56
ENDBRANCH   5  47
TORSDOF 7
