REMARK  3 active torsions:
REMARK  status: ('A' for Active; 'I' for Inactive)
REMARK    1  A    between atoms: S10_17  and  C12_3 
REMARK    2  A    between atoms: C7_10  and  S10_17 
REMARK    3  A    between atoms: C8_11  and  N11_13 
ROOT
ATOM      1  C1  JE7 d   1      22.462  41.681   3.793  0.00  0.00     0.173 A 
ATOM      2  C2  JE7 d   1      23.451  40.695   3.778  0.00  0.00     0.122 A 
ATOM      3  C5  JE7 d   1      23.424  39.567   4.620  0.00  0.00    -0.048 A 
ATOM      4  C7  JE7 d   1      21.369  40.512   5.509  0.00  0.00     0.100 A 
ATOM      5  C8  JE7 d   1      23.949  42.210   2.349  0.00  0.00     0.700 A 
ATOM      6  C9  JE7 d   1      22.346  39.499   5.521  0.00  0.00    -0.046 A 
ATOM      7  N3  JE7 d   1      21.428  41.582   4.666  0.00  0.00    -0.221 NA
ATOM      8  N4  JE7 d   1      22.825  42.619   2.880  0.00  0.00    -0.171 N 
ATOM      9  N6  JE7 d   1      24.310  41.086   2.827  0.00  0.00    -0.061 NA
ATOM     10  H4  JE7 d   1      24.187  38.798   4.577  0.00  0.00     0.087 H 
ATOM     11  H5  JE7 d   1      22.268  38.673   6.219  0.00  0.00     0.087 H 
ATOM     12  H8  JE7 d   1      22.315  43.484   2.650  0.00  0.00     0.186 HD
ENDROOT
BRANCH   4  13
ATOM     13  S10 JE7 d   1      20.067  40.471   6.694  0.00  0.00    -0.069 SA
BRANCH  13  14
ATOM     14  C12 JE7 d   1      18.587  40.468   5.711  0.00  0.00     0.030 A 
ATOM     15  C13 JE7 d   1      17.424  40.914   6.353  0.00  0.00     0.072 A 
ATOM     16  C15 JE7 d   1      16.221  40.972   5.653  0.00  0.00     0.057 A 
ATOM     17 CL2  JE7 d   1      17.468  41.457   8.022  0.00  0.00    -0.081 Cl
ATOM     18  C18 JE7 d   1      16.176  40.593   4.297  0.00  0.00    -0.060 A 
ATOM     19 CL1  JE7 d   1      14.821  41.583   6.508  0.00  0.00    -0.083 Cl
ATOM     20  C17 JE7 d   1      17.327  40.081   3.660  0.00  0.00    -0.080 A 
ATOM     21  H3  JE7 d   1      15.252  40.695   3.739  0.00  0.00     0.086 H 
ATOM     22  C14 JE7 d   1      18.537  40.014   4.369  0.00  0.00    -0.065 A 
ATOM     23  H2  JE7 d   1      17.277  39.742   2.631  0.00  0.00     0.083 H 
ATOM     24  H1  JE7 d   1      19.427  39.618   3.893  0.00  0.00     0.085 H 
ENDBRANCH  13  14
ENDBRANCH   4  13
BRANCH   5  25
ATOM     25  N11 JE7 d   1      24.611  42.857   1.428  0.00  0.00    -0.233 N 
ATOM     26  H6  JE7 d   1      24.263  43.764   1.085  0.00  0.00     0.174 HD
ATOM     27  H7  JE7 d   1      25.481  42.461   1.045  0.00  0.00     0.174 HD
ENDBRANCH   5  25
TORSDOF 3
