REMARK  3 active torsions:
REMARK  status: ('A' for Active; 'I' for Inactive)
REMARK    1  A    between atoms: C10_11  and  C19_21 
REMARK    2  A    between atoms: C13_14  and  C18_20 
REMARK    3  A    between atoms: C17_18  and  O17_19 
ROOT
ATOM      1  C1  TES d   1      33.024  16.724  92.813  0.00  0.00    -0.048 C 
ATOM      2  C2  TES d   1      34.080  17.737  93.251  0.00  0.00    -0.005 C 
ATOM      3  C3  TES d   1      35.230  17.065  93.922  0.00  0.00     0.149 C 
ATOM      4  O3  TES d   1      35.883  17.623  94.796  0.00  0.00    -0.293 OA
ATOM      5  C4  TES d   1      35.539  15.714  93.484  0.00  0.00    -0.036 C 
ATOM      6  C5  TES d   1      34.867  15.068  92.521  0.00  0.00    -0.068 C 
ATOM      7  C6  TES d   1      35.387  13.772  91.966  0.00  0.00    -0.043 C 
ATOM      8  C7  TES d   1      34.303  12.704  91.883  0.00  0.00    -0.058 C 
ATOM      9  C8  TES d   1      33.083  13.210  91.115  0.00  0.00    -0.045 C 
ATOM     10  C9  TES d   1      32.523  14.477  91.782  0.00  0.00    -0.040 C 
ATOM     11  C10 TES d   1      33.583  15.616  91.902  0.00  0.00    -0.016 C 
ATOM     12  C11 TES d   1      31.200  14.940  91.148  0.00  0.00    -0.060 C 
ATOM     13  C12 TES d   1      30.161  13.829  90.985  0.00  0.00    -0.055 C 
ATOM     14  C13 TES d   1      30.724  12.610  90.247  0.00  0.00    -0.014 C 
ATOM     15  C14 TES d   1      31.977  12.152  91.022  0.00  0.00    -0.041 C 
ATOM     16  C15 TES d   1      32.284  10.767  90.431  0.00  0.00    -0.058 C 
ATOM     17  C16 TES d   1      30.900  10.190  90.073  0.00  0.00    -0.040 C 
ATOM     18  C17 TES d   1      29.892  11.319  90.330  0.00  0.00     0.043 C 
ATOM     19  H1  TES d   1      32.233  17.259  92.267  0.00  0.00     0.035 H 
ATOM     20  H2  TES d   1      32.597  16.255  93.711  0.00  0.00     0.035 H 
ATOM     21  H3  TES d   1      33.623  18.451  93.953  0.00  0.00     0.044 H 
ATOM     22  H4  TES d   1      34.447  18.277  92.366  0.00  0.00     0.044 H 
ATOM     23  H5  TES d   1      36.366  15.196  93.967  0.00  0.00     0.089 H 
ATOM     24  H6  TES d   1      36.195  13.407  92.617  0.00  0.00     0.039 H 
ATOM     25  H7  TES d   1      35.784  13.953  90.956  0.00  0.00     0.039 H 
ATOM     26  H8  TES d   1      33.995  12.426  92.902  0.00  0.00     0.034 H 
ATOM     27  H9  TES d   1      34.709  11.820  91.369  0.00  0.00     0.034 H 
ATOM     28  H10 TES d   1      33.404  13.463  90.094  0.00  0.00     0.041 H 
ATOM     29  H11 TES d   1      32.276  14.190  92.815  0.00  0.00     0.042 H 
ATOM     30  H12 TES d   1      31.421  15.355  90.153  0.00  0.00     0.033 H 
ATOM     31  H13 TES d   1      30.768  15.726  91.785  0.00  0.00     0.033 H 
ATOM     32  H14 TES d   1      29.307  14.224  90.415  0.00  0.00     0.034 H 
ATOM     33  H15 TES d   1      29.822  13.513  91.982  0.00  0.00     0.034 H 
ATOM     34  H16 TES d   1      31.676  11.982  92.066  0.00  0.00     0.042 H 
ATOM     35  H17 TES d   1      32.791  10.131  91.171  0.00  0.00     0.033 H 
ATOM     36  H18 TES d   1      32.913  10.857  89.533  0.00  0.00     0.033 H 
ATOM     37  H19 TES d   1      30.672   9.322  90.709  0.00  0.00     0.036 H 
ATOM     38  H20 TES d   1      30.874   9.887  89.016  0.00  0.00     0.036 H 
ATOM     39  H21 TES d   1      29.487  11.224  91.348  0.00  0.00     0.084 H 
ENDROOT
BRANCH  11  40
ATOM     40  C19 TES d   1      33.936  16.219  90.527  0.00  0.00    -0.065 C 
ATOM     41  H26 TES d   1      34.684  17.015  90.657  0.00  0.00     0.028 H 
ATOM     42  H27 TES d   1      33.029  16.639  90.067  0.00  0.00     0.028 H 
ATOM     43  H28 TES d   1      34.347  15.433  89.876  0.00  0.00     0.028 H 
ENDBRANCH  11  40
BRANCH  14  44
ATOM     44  C18 TES d   1      31.016  12.954  88.774  0.00  0.00    -0.066 C 
ATOM     45  H23 TES d   1      31.611  13.878  88.724  0.00  0.00     0.028 H 
ATOM     46  H24 TES d   1      30.067  13.099  88.236  0.00  0.00     0.028 H 
ATOM     47  H25 TES d   1      31.578  12.130  88.310  0.00  0.00     0.028 H 
ENDBRANCH  14  44
BRANCH  18  48
ATOM     48  O17 TES d   1      28.788  11.253  89.422  0.00  0.00    -0.395 OA
ATOM     49  H22 TES d   1      28.342  10.421  89.528  0.00  0.00     0.210 HD
ENDBRANCH  18  48
TORSDOF 3
