REMARK WARNING: 32 MAX_TORS EXCEEDED!!!
REMARK  38 active torsions:
REMARK  status: ('A' for Active; 'I' for Inactive)
REMARK    1  A    between atoms: N_1  and  CA_2 
REMARK    2  A    between atoms: CA_2  and  C_3 
REMARK    3  A    between atoms: CA_2  and  CB_5 
REMARK       I    between atoms: C_3  and  N_6 
REMARK    4  A    between atoms: N_6  and  CA_7 
REMARK    5  A    between atoms: CA_7  and  C_8 
REMARK    6  A    between atoms: CA_7  and  CB_10 
REMARK       I    between atoms: C_8  and  N_13 
REMARK    7  A    between atoms: CB_10  and  CG1_11 
REMARK    8  A    between atoms: CB_10  and  CG2_12 
REMARK    9  A    between atoms: N_13  and  CA_14 
REMARK   10  A    between atoms: CA_14  and  C_15 
REMARK       I    between atoms: C_15  and  N_17 
REMARK   11  A    between atoms: N_17  and  CA_18 
REMARK   12  A    between atoms: CA_18  and  C_19 
REMARK   13  A    between atoms: CA_18  and  CB_21 
REMARK       I    between atoms: C_19  and  N_25 
REMARK   14  A    between atoms: CB_21  and  CG_22 
REMARK   15  A    between atoms: CG_22  and  CD1_23 
REMARK   16  A    between atoms: CG_22  and  CD2_24 
REMARK   17  A    between atoms: N_25  and  CA_26 
REMARK   18  A    between atoms: CA_26  and  C_27 
REMARK       I    between atoms: C_27  and  N_29 
REMARK   19  A    between atoms: N_29  and  CA_30 
REMARK   20  A    between atoms: CA_30  and  C_31 
REMARK   21  A    between atoms: CA_30  and  CB_33 
REMARK       I    between atoms: C_31  and  N_34 
REMARK   22  A    between atoms: N_34  and  CA_35 
REMARK   23  A    between atoms: CA_35  and  C_36 
REMARK   24  A    between atoms: CA_35  and  CB_38 
REMARK       I    between atoms: C_36  and  N_41 
REMARK   25  A    between atoms: CB_38  and  CG1_39 
REMARK   26  A    between atoms: CB_38  and  CG2_40 
REMARK   27  A    between atoms: N_41  and  CA_42 
REMARK   28  A    between atoms: CA_42  and  C_43 
REMARK   29  A    between atoms: CA_42  and  CB_45 
REMARK       I    between atoms: C_43  and  N_52 
REMARK   30  A    between atoms: CB_45  and  CG_46 
REMARK   31  A    between atoms: N_52  and  CA_53 
REMARK   32  A    between atoms: CA_53  and  C_54 
REMARK   33  A    between atoms: CA_53  and  CB_56 
REMARK       I    between atoms: C_54  and  N_60 
REMARK   34  A    between atoms: CB_56  and  CG_57 
REMARK   35  A    between atoms: CG_57  and  CD1_58 
REMARK   36  A    between atoms: CG_57  and  CD2_59 
REMARK   37  A    between atoms: N_60  and  CA_61 
REMARK   38  A    between atoms: CA_61  and  C_62 
ROOT
ATOM      1  CA  ALA d   1      19.355  -5.150   8.788  0.00  0.00     0.086 C 
ATOM      2  H35 ALA d   1      18.430  -4.738   9.218  0.00  0.00     0.086 H 
ENDROOT
BRANCH   1   3
ATOM      3  N   ALA d   1      20.443  -4.883   9.715  0.00  0.00    -0.347 N 
ATOM      4  C   ALA d   1      20.339  -5.152  11.014  0.00  0.00     0.236 C 
ATOM      5  O   ALA d   1      19.407  -5.806  11.497  0.00  0.00    -0.272 OA
ATOM      6  H34 ALA d   1      21.292  -4.487   9.367  0.00  0.00     0.163 HD
BRANCH   4   7
ATOM      7  CA  ALA d   1      21.479  -4.608  11.854  0.00  0.00     0.069 C 
ATOM      8  H32 ALA d   1      22.429  -4.944  11.414  0.00  0.00     0.078 H 
ATOM      9  H33 ALA d   1      21.434  -3.509  11.834  0.00  0.00     0.078 H 
BRANCH   7  10
ATOM     10  N   ALA d   1      21.430  -5.045  13.229  0.00  0.00    -0.351 N 
ATOM     11  C   ALA d   1      21.954  -6.209  13.585  0.00  0.00     0.240 C 
ATOM     12  O   ALA d   1      22.438  -6.991  12.761  0.00  0.00    -0.271 OA
ATOM     13  H31 ALA d   1      20.997  -4.465  13.919  0.00  0.00     0.163 HD
BRANCH  11  14
ATOM     14  CA  ALA d   1      21.941  -6.584  15.062  0.00  0.00     0.089 C 
ATOM     15  H21 ALA d   1      22.923  -6.325  15.485  0.00  0.00     0.087 H 
BRANCH  14  16
ATOM     16  N   ALA d   1      20.928  -5.852  15.815  0.00  0.00    -0.346 N 
ATOM     17  C   ALA d   1      21.227  -5.168  16.924  0.00  0.00     0.236 C 
ATOM     18  O   ALA d   1      22.377  -5.043  17.358  0.00  0.00    -0.272 OA
ATOM     19  H20 ALA d   1      19.982  -5.862  15.492  0.00  0.00     0.163 HD
BRANCH  17  20
ATOM     20  CA  ALA d   1      20.046  -4.534  17.624  0.00  0.00     0.069 C 
ATOM     21  H18 ALA d   1      19.724  -3.652  17.050  0.00  0.00     0.078 H 
ATOM     22  H19 ALA d   1      19.224  -5.264  17.666  0.00  0.00     0.078 H 
BRANCH  20  23
ATOM     23  N   ALA d   1      20.376  -4.120  18.975  0.00  0.00    -0.351 N 
ATOM     24  C   ALA d   1      19.434  -3.985  19.908  0.00  0.00     0.241 C 
ATOM     25  O   ALA d   1      18.246  -4.248  19.696  0.00  0.00    -0.271 OA
ATOM     26  H17 ALA d   1      21.329  -3.932  19.211  0.00  0.00     0.163 HD
BRANCH  24  27
ATOM     27  CA  ALA d   1      19.924  -3.507  21.272  0.00  0.00     0.092 C 
ATOM     28  H9  ALA d   1      20.688  -2.731  21.114  0.00  0.00     0.088 H 
BRANCH  27  29
ATOM     29  N   ALA d   1      18.821  -2.924  22.028  0.00  0.00    -0.346 N 
ATOM     30  C   ALA d   1      18.266  -1.769  21.653  0.00  0.00     0.248 C 
ATOM     31  O   ALA d   1      18.652  -1.121  20.678  0.00  0.00    -0.271 OA
ATOM     32  H8  ALA d   1      18.476  -3.396  22.839  0.00  0.00     0.163 HD
BRANCH  30  33
ATOM     33  CA  ALA d   1      17.099  -1.282  22.507  0.00  0.00     0.172 C 
ATOM     34  H4  ALA d   1      17.425  -1.266  23.558  0.00  0.00     0.098 H 
BRANCH  33  35
ATOM     35  N   ALA d   1      16.705   0.072  22.131  0.00  0.00    -0.067 N 
ATOM     36  H1  ALA d   1      15.934   0.370  22.708  0.00  0.00     0.275 HD
ATOM     37  H2  ALA d   1      16.424   0.084  21.163  0.00  0.00     0.275 HD
ATOM     38  H3  ALA d   1      17.485   0.697  22.262  0.00  0.00     0.275 HD
ENDBRANCH  33  35
BRANCH  33  39
ATOM     39  CB  ALA d   1      15.906  -2.244  22.386  0.00  0.00    -0.042 C 
ATOM     40  H5  ALA d   1      16.222  -3.258  22.673  0.00  0.00     0.030 H 
ATOM     41  H6  ALA d   1      15.546  -2.253  21.347  0.00  0.00     0.030 H 
ATOM     42  H7  ALA d   1      15.097  -1.910  23.052  0.00  0.00     0.030 H 
ENDBRANCH  33  39
ENDBRANCH  30  33
ENDBRANCH  27  29
BRANCH  27  43
ATOM     43  CB  ALA d   1      20.562  -4.660  22.061  0.00  0.00    -0.033 C 
ATOM     44  H10 ALA d   1      21.372  -5.093  21.456  0.00  0.00     0.042 H 
BRANCH  43  45
ATOM     45  CG1 ALA d   1      21.156  -4.145  23.365  0.00  0.00    -0.071 C 
ATOM     46  H11 ALA d   1      21.608  -4.982  23.918  0.00  0.00     0.028 H 
ATOM     47  H12 ALA d   1      20.362  -3.689  23.975  0.00  0.00     0.028 H 
ATOM     48  H13 ALA d   1      21.927  -3.392  23.145  0.00  0.00     0.028 H 
ENDBRANCH  43  45
BRANCH  43  49
ATOM     49  CG2 ALA d   1      19.526  -5.746  22.330  0.00  0.00    -0.071 C 
ATOM     50  H14 ALA d   1      19.112  -6.102  21.375  0.00  0.00     0.028 H 
ATOM     51  H15 ALA d   1      18.716  -5.335  22.951  0.00  0.00     0.028 H 
ATOM     52  H16 ALA d   1      20.003  -6.585  22.858  0.00  0.00     0.028 H 
ENDBRANCH  43  49
ENDBRANCH  27  43
ENDBRANCH  24  27
ENDBRANCH  20  23
ENDBRANCH  17  20
ENDBRANCH  14  16
BRANCH  14  53
ATOM     53  CB  ALA d   1      21.740  -8.095  15.208  0.00  0.00    -0.035 C 
ATOM     54  H22 ALA d   1      22.048  -8.562  14.261  0.00  0.00     0.037 H 
ATOM     55  H23 ALA d   1      20.667  -8.271  15.372  0.00  0.00     0.037 H 
BRANCH  53  56
ATOM     56  CG  ALA d   1      22.497  -8.796  16.333  0.00  0.00    -0.059 C 
ATOM     57  H24 ALA d   1      22.110  -8.429  17.295  0.00  0.00     0.038 H 
BRANCH  56  58
ATOM     58  CD1 ALA d   1      22.273 -10.300  16.268  0.00  0.00    -0.073 C 
ATOM     59  H25 ALA d   1      22.825 -10.789  17.085  0.00  0.00     0.028 H 
ATOM     60  H26 ALA d   1      22.633 -10.683  15.302  0.00  0.00     0.028 H 
ATOM     61  H27 ALA d   1      21.199 -10.516  16.371  0.00  0.00     0.028 H 
ENDBRANCH  56  58
BRANCH  56  62
ATOM     62  CD2 ALA d   1      23.978  -8.471  16.257  0.00  0.00    -0.073 C 
ATOM     63  H28 ALA d   1      24.117  -7.381  16.306  0.00  0.00     0.028 H 
ATOM     64  H29 ALA d   1      24.389  -8.851  15.310  0.00  0.00     0.028 H 
ATOM     65  H30 ALA d   1      24.501  -8.945  17.100  0.00  0.00     0.028 H 
ENDBRANCH  56  62
ENDBRANCH  53  56
ENDBRANCH  14  53
ENDBRANCH  11  14
ENDBRANCH   7  10
ENDBRANCH   4   7
ENDBRANCH   1   3
BRANCH   1  66
ATOM     66  C   ALA d   1      19.157  -6.645   8.567  0.00  0.00     0.240 C 
ATOM     67  O   ALA d   1      20.079  -7.453   8.714  0.00  0.00    -0.271 OA
ATOM     68  N   ALA d   1      17.925  -7.000   8.202  0.00  0.00    -0.346 N 
ATOM     69  H39 ALA d   1      17.222  -6.290   8.171  0.00  0.00     0.163 HD
BRANCH  68  70
ATOM     70  CA  ALA d   1      17.541  -8.356   7.846  0.00  0.00     0.092 C 
ATOM     71  H40 ALA d   1      18.452  -8.962   7.733  0.00  0.00     0.088 H 
BRANCH  70  72
ATOM     72  C   ALA d   1      16.812  -8.303   6.508  0.00  0.00     0.241 C 
ATOM     73  O   ALA d   1      16.522  -7.232   5.977  0.00  0.00    -0.271 OA
ATOM     74  N   ALA d   1      16.515  -9.482   5.968  0.00  0.00    -0.346 N 
ATOM     75  H48 ALA d   1      16.759 -10.319   6.458  0.00  0.00     0.163 HD
BRANCH  74  76
ATOM     76  CA  ALA d   1      15.842  -9.583   4.678  0.00  0.00     0.093 C 
ATOM     77  H49 ALA d   1      16.277  -8.840   3.994  0.00  0.00     0.088 H 
BRANCH  76  78
ATOM     78  C   ALA d   1      14.357  -9.278   4.848  0.00  0.00     0.241 C 
ATOM     79  O   ALA d   1      13.654  -9.977   5.584  0.00  0.00    -0.271 OA
ATOM     80  N   ALA d   1      13.883  -8.237   4.169  0.00  0.00    -0.346 N 
ATOM     81  H57 ALA d   1      14.504  -7.731   3.570  0.00  0.00     0.163 HD
BRANCH  80  82
ATOM     82  CA  ALA d   1      12.496  -7.805   4.263  0.00  0.00     0.089 C 
ATOM     83  H58 ALA d   1      12.094  -8.151   5.227  0.00  0.00     0.087 H 
BRANCH  82  84
ATOM     84  C   ALA d   1      11.659  -8.422   3.148  0.00  0.00     0.240 C 
ATOM     85  O   ALA d   1      12.172  -8.961   2.163  0.00  0.00    -0.271 OA
ATOM     86  N   ALA d   1      10.347  -8.329   3.320  0.00  0.00    -0.349 N 
ATOM     87  H68 ALA d   1       9.998  -7.807   4.098  0.00  0.00     0.163 HD
BRANCH  86  88
ATOM     88  CA  ALA d   1       9.402  -8.957   2.419  0.00  0.00     0.075 C 
ATOM     89  H69 ALA d   1       9.872  -9.838   1.957  0.00  0.00     0.080 H 
ATOM     90  H70 ALA d   1       9.117  -8.240   1.635  0.00  0.00     0.080 H 
BRANCH  88  91
ATOM     91  C   ALA d   1       8.162  -9.391   3.173  0.00  0.00     0.191 C 
ATOM     92  O   ALA d   1       7.313 -10.096   2.635  0.00  0.00    -0.647 OA
ATOM     93  OXT ALA d   1       7.981  -9.047   4.337  0.00  0.00    -0.647 OA
ENDBRANCH  88  91
ENDBRANCH  86  88
ENDBRANCH  82  84
BRANCH  82  94
ATOM     94  CB  ALA d   1      12.396  -6.276   4.223  0.00  0.00    -0.035 C 
ATOM     95  H59 ALA d   1      11.410  -6.019   3.808  0.00  0.00     0.037 H 
ATOM     96  H60 ALA d   1      13.185  -5.910   3.550  0.00  0.00     0.037 H 
BRANCH  94  97
ATOM     97  CG  ALA d   1      12.544  -5.534   5.554  0.00  0.00    -0.059 C 
ATOM     98  H61 ALA d   1      13.537  -5.759   5.969  0.00  0.00     0.038 H 
BRANCH  97  99
ATOM     99  CD1 ALA d   1      12.442  -4.036   5.335  0.00  0.00    -0.073 C 
ATOM    100  H62 ALA d   1      12.550  -3.516   6.298  0.00  0.00     0.028 H 
ATOM    101  H63 ALA d   1      11.462  -3.795   4.896  0.00  0.00     0.028 H 
ATOM    102  H64 ALA d   1      13.240  -3.710   4.651  0.00  0.00     0.028 H 
ENDBRANCH  97  99
BRANCH  97 103
ATOM    103  CD2 ALA d   1      11.491  -6.000   6.548  0.00  0.00    -0.073 C 
ATOM    104  H65 ALA d   1      11.580  -7.087   6.694  0.00  0.00     0.028 H 
ATOM    105  H66 ALA d   1      10.490  -5.763   6.159  0.00  0.00     0.028 H 
ATOM    106  H67 ALA d   1      11.642  -5.487   7.509  0.00  0.00     0.028 H 
ENDBRANCH  97 103
ENDBRANCH  94  97
ENDBRANCH  82  94
ENDBRANCH  80  82
ENDBRANCH  76  78
BRANCH  76 107
ATOM    107  CB  ALA d   1      16.047 -10.973   4.078  0.00  0.00    -0.014 C 
ATOM    108  H50 ALA d   1      15.543 -11.707   4.725  0.00  0.00     0.043 H 
ATOM    109  H51 ALA d   1      17.126 -11.184   4.055  0.00  0.00     0.043 H 
BRANCH 107 110
ATOM    110  CG  ALA d   1      15.505 -11.122   2.681  0.00  0.00    -0.056 A 
ATOM    111  CD1 ALA d   1      15.988 -10.332   1.648  0.00  0.00    -0.077 A 
ATOM    112  CE1 ALA d   1      15.495 -10.467   0.361  0.00  0.00    -0.082 A 
ATOM    113  H52 ALA d   1      16.761  -9.600   1.851  0.00  0.00     0.084 H 
ATOM    114  CZ  ALA d   1      14.514 -11.404   0.094  0.00  0.00    -0.083 A 
ATOM    115  H54 ALA d   1      15.877  -9.839  -0.436  0.00  0.00     0.083 H 
ATOM    116  CE2 ALA d   1      14.029 -12.202   1.114  0.00  0.00    -0.082 A 
ATOM    117  H56 ALA d   1      14.126 -11.513  -0.912  0.00  0.00     0.083 H 
ATOM    118  CD2 ALA d   1      14.525 -12.059   2.400  0.00  0.00    -0.077 A 
ATOM    119  H55 ALA d   1      13.261 -12.939   0.908  0.00  0.00     0.083 H 
ATOM    120  H53 ALA d   1      14.141 -12.688   3.195  0.00  0.00     0.084 H 
ENDBRANCH 107 110
ENDBRANCH  76 107
ENDBRANCH  74  76
ENDBRANCH  70  72
BRANCH  70 121
ATOM    121  CB  ALA d   1      16.657  -9.015   8.926  0.00  0.00    -0.033 C 
ATOM    122  H41 ALA d   1      16.266  -9.962   8.526  0.00  0.00     0.042 H 
BRANCH 121 123
ATOM    123  CG1 ALA d   1      17.475  -9.321  10.174  0.00  0.00    -0.071 C 
ATOM    124  H42 ALA d   1      16.828  -9.789  10.931  0.00  0.00     0.028 H 
ATOM    125  H43 ALA d   1      17.893  -8.387  10.577  0.00  0.00     0.028 H 
ATOM    126  H44 ALA d   1      18.294 -10.008   9.916  0.00  0.00     0.028 H 
ENDBRANCH 121 123
BRANCH 121 127
ATOM    127  CG2 ALA d   1      15.479  -8.113   9.270  0.00  0.00    -0.071 C 
ATOM    128  H45 ALA d   1      14.900  -7.902   8.359  0.00  0.00     0.028 H 
ATOM    129  H46 ALA d   1      15.852  -7.169   9.694  0.00  0.00     0.028 H 
ATOM    130  H47 ALA d   1      14.835  -8.616  10.006  0.00  0.00     0.028 H 
ENDBRANCH 121 127
ENDBRANCH  70 121
ENDBRANCH  68  70
ENDBRANCH   1  66
BRANCH   1 131
ATOM    131  CB  ALA d   1      19.614  -4.467   7.446  0.00  0.00    -0.049 C 
ATOM    132  H36 ALA d   1      18.782  -4.680   6.759  0.00  0.00     0.030 H 
ATOM    133  H37 ALA d   1      20.552  -4.848   7.015  0.00  0.00     0.030 H 
ATOM    134  H38 ALA d   1      19.695  -3.381   7.597  0.00  0.00     0.030 H 
ENDBRANCH   1 131
TORSDOF 38
