REMARK  5 active torsions:
REMARK  status: ('A' for Active; 'I' for Inactive)
REMARK    1  A    between atoms: C5_18  and  C4_1 
REMARK    2  A    between atoms: C4_1  and  N1_19 
REMARK    3  A    between atoms: C3_2  and  C2_3 
REMARK       I    between atoms: N1_19  and  C3_2 
REMARK    4  A    between atoms: C2_3  and  C1_5 
REMARK    5  A    between atoms: C6_17  and  C5_18 
ROOT
ATOM      1  O1  JEV d   1      28.975 -24.447  48.367  0.00  0.00    -0.322 OA
ATOM      2  C7  JEV d   1      23.186 -24.789  46.842  0.00  0.00    -0.054 C 
ATOM      3  C8  JEV d   1      23.615 -25.803  47.890  0.00  0.00    -0.040 C 
ATOM      4  C9  JEV d   1      24.980 -25.623  48.119  0.00  0.00    -0.050 A 
ATOM      5  C10 JEV d   1      25.845 -26.376  48.911  0.00  0.00    -0.074 A 
ATOM      6  C11 JEV d   1      27.198 -26.045  48.999  0.00  0.00    -0.049 A 
ATOM      7  C12 JEV d   1      27.701 -24.922  48.345  0.00  0.00     0.085 A 
ATOM      8  C15 JEV d   1      29.080 -23.523  47.263  0.00  0.00     0.020 C 
ATOM      9  C14 JEV d   1      27.663 -23.053  47.012  0.00  0.00    -0.048 C 
ATOM     10  C13 JEV d   1      26.840 -24.163  47.575  0.00  0.00     0.007 A 
ATOM     11  C16 JEV d   1      25.476 -24.497  47.454  0.00  0.00    -0.035 A 
ATOM     12  C6  JEV d   1      24.353 -23.843  46.691  0.00  0.00    -0.025 C 
ATOM     13  H8  JEV d   1      22.291 -24.244  47.178  0.00  0.00     0.034 H 
ATOM     14  H9  JEV d   1      22.973 -25.291  45.887  0.00  0.00     0.034 H 
ATOM     15  H10 JEV d   1      23.428 -26.823  47.523  0.00  0.00     0.040 H 
ATOM     16  H11 JEV d   1      23.054 -25.639  48.822  0.00  0.00     0.040 H 
ATOM     17  H12 JEV d   1      25.463 -27.227  49.464  0.00  0.00     0.084 H 
ATOM     18  H13 JEV d   1      27.865 -26.669  49.583  0.00  0.00     0.087 H 
ATOM     19  H14 JEV d   1      29.981 -23.228  46.728  0.00  0.00     0.123 H 
ATOM     20  H15 JEV d   1      27.327 -22.132  46.538  0.00  0.00     0.087 H 
ATOM     21  H16 JEV d   1      24.621 -23.705  45.633  0.00  0.00     0.047 H 
ENDROOT
BRANCH  12  22
ATOM     22  C5  JEV d   1      23.995 -22.496  47.326  0.00  0.00    -0.043 C 
ATOM     23  H17 JEV d   1      22.913 -22.460  47.519  0.00  0.00     0.036 H 
ATOM     24  H18 JEV d   1      24.541 -22.384  48.275  0.00  0.00     0.036 H 
BRANCH  22  25
ATOM     25  C4  JEV d   1      24.378 -21.359  46.386  0.00  0.00    -0.004 C 
ATOM     26  H1  JEV d   1      24.576 -21.760  45.381  0.00  0.00     0.064 H 
ATOM     27  H2  JEV d   1      25.279 -20.854  46.763  0.00  0.00     0.064 H 
BRANCH  25  28
ATOM     28  N1  JEV d   1      23.258 -20.399  46.327  0.00  0.00    -0.361 N 
ATOM     29  C3  JEV d   1      23.213 -19.185  46.931  0.00  0.00     0.217 C 
ATOM     30  O2  JEV d   1      22.235 -18.442  46.847  0.00  0.00    -0.274 OA
ATOM     31  H19 JEV d   1      22.458 -20.669  45.792  0.00  0.00     0.162 HD
BRANCH  29  32
ATOM     32  C2  JEV d   1      24.432 -18.756  47.770  0.00  0.00     0.006 C 
ATOM     33  H3  JEV d   1      25.268 -19.443  47.569  0.00  0.00     0.046 H 
ATOM     34  H4  JEV d   1      24.169 -18.800  48.837  0.00  0.00     0.046 H 
BRANCH  32  35
ATOM     35  C1  JEV d   1      24.859 -17.329  47.417  0.00  0.00    -0.068 C 
ATOM     36  H5  JEV d   1      25.729 -17.045  48.027  0.00  0.00     0.028 H 
ATOM     37  H6  JEV d   1      24.028 -16.637  47.619  0.00  0.00     0.028 H 
ATOM     38  H7  JEV d   1      25.127 -17.279  46.351  0.00  0.00     0.028 H 
ENDBRANCH  32  35
ENDBRANCH  29  32
ENDBRANCH  25  28
ENDBRANCH  22  25
ENDBRANCH  12  22
TORSDOF 5
