REMARK  7 active torsions:
REMARK  status: ('A' for Active; 'I' for Inactive)
REMARK    1  A    between atoms: C4_1  and  C3_2 
REMARK    2  A    between atoms: C5_19  and  C4_1 
REMARK    3  A    between atoms: C3_2  and  N1_7 
REMARK    4  A    between atoms: C2_3  and  C1_5 
REMARK       I    between atoms: N1_7  and  C2_3 
REMARK    5  A    between atoms: C10_8  and  O1_6 
REMARK    6  A    between atoms: O1_6  and  C13_11 
REMARK    7  A    between atoms: C6_20  and  C19_17 
ROOT
ATOM      1  C10 JEY d   1      28.135 -24.928  48.192  0.00  0.00     0.069 A 
ATOM      2  C11 JEY d   1      27.087 -24.270  47.536  0.00  0.00    -0.038 A 
ATOM      3  C12 JEY d   1      25.785 -24.774  47.551  0.00  0.00     0.002 A 
ATOM      4  N2  JEY d   1      24.171 -26.252  48.047  0.00  0.00    -0.354 N 
ATOM      5  C5  JEY d   1      24.577 -24.306  47.013  0.00  0.00    -0.016 A 
ATOM      6  C6  JEY d   1      23.573 -25.204  47.385  0.00  0.00     0.050 A 
ATOM      7  C7  JEY d   1      25.519 -25.968  48.214  0.00  0.00     0.043 A 
ATOM      8  C8  JEY d   1      26.564 -26.636  48.866  0.00  0.00    -0.054 A 
ATOM      9  C9  JEY d   1      27.874 -26.140  48.838  0.00  0.00    -0.049 A 
ATOM     10  H9  JEY d   1      27.291 -23.348  47.004  0.00  0.00     0.089 H 
ATOM     11  H18 JEY d   1      23.695 -27.108  48.367  0.00  0.00     0.166 HD
ATOM     12  H19 JEY d   1      26.355 -27.554  49.403  0.00  0.00     0.087 H 
ATOM     13  H20 JEY d   1      28.678 -26.691  49.313  0.00  0.00     0.087 H 
ENDROOT
BRANCH   5  14
ATOM     14  C4  JEY d   1      24.434 -22.984  46.304  0.00  0.00    -0.023 C 
ATOM     15  H1  JEY d   1      25.194 -22.903  45.513  0.00  0.00     0.042 H 
ATOM     16  H2  JEY d   1      23.431 -22.909  45.858  0.00  0.00     0.042 H 
BRANCH  14  17
ATOM     17  C3  JEY d   1      24.629 -21.866  47.319  0.00  0.00    -0.001 C 
ATOM     18  H3  JEY d   1      25.666 -21.894  47.686  0.00  0.00     0.064 H 
ATOM     19  H4  JEY d   1      23.938 -22.023  48.160  0.00  0.00     0.064 H 
BRANCH  17  20
ATOM     20  N1  JEY d   1      24.372 -20.562  46.736  0.00  0.00    -0.361 N 
ATOM     21  C2  JEY d   1      23.930 -19.514  47.454  0.00  0.00     0.213 C 
ATOM     22  O2  JEY d   1      23.671 -19.556  48.663  0.00  0.00    -0.274 OA
ATOM     23  H8  JEY d   1      24.531 -20.437  45.757  0.00  0.00     0.162 HD
BRANCH  21  24
ATOM     24  C1  JEY d   1      23.715 -18.245  46.664  0.00  0.00    -0.003 C 
ATOM     25  H5  JEY d   1      24.003 -18.413  45.616  0.00  0.00     0.040 H 
ATOM     26  H6  JEY d   1      24.332 -17.439  47.089  0.00  0.00     0.040 H 
ATOM     27  H7  JEY d   1      22.654 -17.959  46.712  0.00  0.00     0.040 H 
ENDBRANCH  21  24
ENDBRANCH  17  20
ENDBRANCH  14  17
ENDBRANCH   5  14
BRANCH   6  28
ATOM     28  C19 JEY d   1      22.165 -25.199  46.957  0.00  0.00    -0.009 A 
ATOM     29  C14 JEY d   1      21.336 -24.076  47.136  0.00  0.00    -0.071 A 
ATOM     30  C15 JEY d   1      20.007 -24.107  46.670  0.00  0.00    -0.082 A 
ATOM     31  H13 JEY d   1      21.719 -23.191  47.631  0.00  0.00     0.084 H 
ATOM     32  C16 JEY d   1      19.485 -25.260  46.052  0.00  0.00    -0.083 A 
ATOM     33  H14 JEY d   1      19.378 -23.232  46.789  0.00  0.00     0.083 H 
ATOM     34  C17 JEY d   1      20.302 -26.391  45.895  0.00  0.00    -0.082 A 
ATOM     35  H15 JEY d   1      18.460 -25.274  45.700  0.00  0.00     0.083 H 
ATOM     36  C18 JEY d   1      21.640 -26.349  46.335  0.00  0.00    -0.071 A 
ATOM     37  H16 JEY d   1      19.906 -27.291  45.438  0.00  0.00     0.083 H 
ATOM     38  H17 JEY d   1      22.276 -27.215  46.193  0.00  0.00     0.084 H 
ENDBRANCH   6  28
BRANCH   1  39
ATOM     39  O1  JEY d   1      29.408 -24.424  48.163  0.00  0.00    -0.356 OA
BRANCH  39  40
ATOM     40  C13 JEY d   1      29.520 -23.077  47.673  0.00  0.00     0.010 C 
ATOM     41  H10 JEY d   1      30.575 -22.767  47.690  0.00  0.00     0.066 H 
ATOM     42  H11 JEY d   1      28.930 -22.404  48.313  0.00  0.00     0.066 H 
ATOM     43  H12 JEY d   1      29.140 -23.029  46.642  0.00  0.00     0.066 H 
ENDBRANCH  39  40
ENDBRANCH   1  39
TORSDOF 7
