REMARK  12 active torsions:
REMARK  status: ('A' for Active; 'I' for Inactive)
REMARK    1  A    between atoms: O01_1  and  C02_2 
REMARK    2  A    between atoms: C07_7  and  N08_8 
REMARK    3  A    between atoms: N08_8  and  C09_9 
REMARK    4  A    between atoms: C10_10  and  C11_11 
REMARK    5  A    between atoms: C14_14  and  C15_15 
REMARK    6  A    between atoms: C15_15  and  N16_16 
REMARK    7  A    between atoms: N19_19  and  C20_20 
REMARK    8  A    between atoms: C27_27  and  N28_28 
REMARK    9  A    between atoms: N28_28  and  C29_29 
REMARK   10  A    between atoms: C32_32  and  C33_33 
REMARK   11  A    between atoms: C34_34  and  C35_35 
REMARK   12  A    between atoms: C39_39  and  C40_40 
ROOT
ATOM      1  C09 MOL d   1     -15.784   5.652 -17.551  0.00  0.00     0.155 A 
ATOM      2  C10 MOL d   1     -16.291   4.790 -18.544  0.00  0.00     0.039 A 
ATOM      3  C25 MOL d   1     -16.667   3.483 -18.208  0.00  0.00     0.035 A 
ATOM      4  N26 MOL d   1     -16.540   3.087 -16.920  0.00  0.00    -0.074 NA
ATOM      5  C27 MOL d   1     -16.079   3.893 -16.012  0.00  0.00     0.728 A 
ATOM      6  N48 MOL d   1     -15.695   5.171 -16.302  0.00  0.00    -0.044 NA
ATOM      7  H32 MOL d   1     -17.051   2.805 -18.962  0.00  0.00     0.117 H 
ENDROOT
BRANCH   2   8
ATOM      8  C11 MOL d   1     -16.455   5.165 -20.046  0.00  0.00    -0.021 A 
ATOM      9  C12 MOL d   1     -15.312   5.407 -20.826  0.00  0.00    -0.071 A 
ATOM     10  C13 MOL d   1     -15.450   5.722 -22.190  0.00  0.00    -0.074 A 
ATOM     11  H13 MOL d   1     -14.326   5.351 -20.378  0.00  0.00     0.084 H 
ATOM     12  C14 MOL d   1     -16.724   5.776 -22.774  0.00  0.00    -0.033 A 
ATOM     13  H14 MOL d   1     -14.570   5.923 -22.791  0.00  0.00     0.084 H 
ATOM     14  C23 MOL d   1     -17.861   5.519 -22.008  0.00  0.00    -0.074 A 
ATOM     15  C24 MOL d   1     -17.717   5.203 -20.617  0.00  0.00    -0.071 A 
ATOM     16  H30 MOL d   1     -18.845   5.558 -22.461  0.00  0.00     0.084 H 
ATOM     17  H31 MOL d   1     -18.593   4.994 -20.014  0.00  0.00     0.084 H 
BRANCH  12  18
ATOM     18  C15 MOL d   1     -16.834   6.114 -24.295  0.00  0.00     0.107 C 
ATOM     19  H15 MOL d   1     -16.607   7.178 -24.460  0.00  0.00     0.083 H 
ATOM     20  H16 MOL d   1     -17.851   5.896 -24.655  0.00  0.00     0.083 H 
BRANCH  18  21
ATOM     21  N16 MOL d   1     -15.960   5.363 -24.937  0.00  0.00    -0.064 N 
ATOM     22  C17 MOL d   1     -15.822   5.712 -26.234  0.00  0.00     0.106 C 
ATOM     23  C18 MOL d   1     -14.629   4.948 -26.807  0.00  0.00     0.105 C 
ATOM     24  H18 MOL d   1     -15.644   6.795 -26.312  0.00  0.00     0.078 H 
ATOM     25  H19 MOL d   1     -16.734   5.450 -26.790  0.00  0.00     0.078 H 
ATOM     26  N19 MOL d   1     -14.794   3.576 -26.761  0.00  0.00    -0.072 N 
ATOM     27  H20 MOL d   1     -13.732   5.213 -26.228  0.00  0.00     0.078 H 
ATOM     28  H21 MOL d   1     -14.491   5.250 -27.856  0.00  0.00     0.078 H 
ATOM     29  C21 MOL d   1     -15.859   3.156 -26.018  0.00  0.00     0.105 C 
ATOM     30  H22 MOL d   1     -13.969   3.201 -26.320  0.00  0.00     0.279 HD
ATOM     31  C22 MOL d   1     -16.137   3.997 -24.763  0.00  0.00     0.106 C 
ATOM     32  H26 MOL d   1     -15.669   2.120 -25.701  0.00  0.00     0.078 H 
ATOM     33  H27 MOL d   1     -16.755   3.186 -26.656  0.00  0.00     0.078 H 
ATOM     34  H28 MOL d   1     -17.178   3.821 -24.455  0.00  0.00     0.078 H 
ATOM     35  H29 MOL d   1     -15.457   3.661 -23.966  0.00  0.00     0.078 H 
ATOM     36  H17 MOL d   1     -15.072   5.569 -24.508  0.00  0.00     0.280 HD
BRANCH  26  37
ATOM     37  C20 MOL d   1     -14.853   3.088 -27.944  0.00  0.00     0.066 C 
ATOM     38  H23 MOL d   1     -14.984   1.998 -27.885  0.00  0.00     0.068 H 
ATOM     39  H24 MOL d   1     -13.921   3.316 -28.482  0.00  0.00     0.068 H 
ATOM     40  H25 MOL d   1     -15.704   3.531 -28.481  0.00  0.00     0.068 H 
ENDBRANCH  26  37
ENDBRANCH  18  21
ENDBRANCH  12  18
ENDBRANCH   2   8
BRANCH   1  41
ATOM     41  N08 MOL d   1     -15.361   7.045 -17.876  0.00  0.00    -0.369 N 
ATOM     42  H12 MOL d   1     -15.091   7.282 -18.842  0.00  0.00     0.161 HD
BRANCH  41  43
ATOM     43  C07 MOL d   1     -15.323   8.097 -16.826  0.00  0.00     0.011 C 
ATOM     44  C04 MOL d   1     -13.891   8.178 -16.247  0.00  0.00    -0.044 C 
ATOM     45  C03 MOL d   1     -13.664   9.398 -15.335  0.00  0.00    -0.039 C 
ATOM     46  H5  MOL d   1     -13.700   7.266 -15.662  0.00  0.00     0.036 H 
ATOM     47  H6  MOL d   1     -13.180   8.232 -17.084  0.00  0.00     0.036 H 
ATOM     48  C02 MOL d   1     -14.156  10.694 -15.914  0.00  0.00     0.035 C 
ATOM     49  H3  MOL d   1     -14.190   9.222 -14.385  0.00  0.00     0.036 H 
ATOM     50  H4  MOL d   1     -12.585   9.492 -15.145  0.00  0.00     0.036 H 
ATOM     51  C05 MOL d   1     -15.561  10.622 -16.559  0.00  0.00    -0.039 C 
ATOM     52  H2  MOL d   1     -14.190  11.438 -15.105  0.00  0.00     0.082 H 
ATOM     53  C06 MOL d   1     -15.789   9.382 -17.448  0.00  0.00    -0.044 C 
ATOM     54  H7  MOL d   1     -15.702  11.520 -17.178  0.00  0.00     0.036 H 
ATOM     55  H8  MOL d   1     -16.310  10.611 -15.753  0.00  0.00     0.036 H 
ATOM     56  H9  MOL d   1     -15.245   9.527 -18.393  0.00  0.00     0.036 H 
ATOM     57  H10 MOL d   1     -16.866   9.297 -17.655  0.00  0.00     0.036 H 
ATOM     58  H11 MOL d   1     -16.013   7.830 -16.012  0.00  0.00     0.072 H 
BRANCH  48  59
ATOM     59  O01 MOL d   1     -13.237  11.117 -16.903  0.00  0.00    -0.396 OA
ATOM     60  H1  MOL d   1     -13.534  11.937 -17.280  0.00  0.00     0.210 HD
ENDBRANCH  48  59
ENDBRANCH  41  43
ENDBRANCH   1  41
BRANCH   5  61
ATOM     61  N28 MOL d   1     -15.990   3.333 -14.637  0.00  0.00    -0.188 N 
ATOM     62  H33 MOL d   1     -16.478   2.452 -14.422  0.00  0.00     0.184 HD
BRANCH  61  63
ATOM     63  C29 MOL d   1     -15.197   4.027 -13.541  0.00  0.00     0.049 A 
ATOM     64  C30 MOL d   1     -13.994   4.686 -13.790  0.00  0.00    -0.056 A 
ATOM     65  C31 MOL d   1     -13.301   5.307 -12.733  0.00  0.00    -0.071 A 
ATOM     66  H34 MOL d   1     -13.592   4.720 -14.796  0.00  0.00     0.087 H 
ATOM     67  C32 MOL d   1     -13.847   5.258 -11.442  0.00  0.00    -0.036 A 
ATOM     68  H35 MOL d   1     -12.361   5.815 -12.914  0.00  0.00     0.084 H 
ATOM     69  C46 MOL d   1     -15.042   4.578 -11.204  0.00  0.00    -0.071 A 
ATOM     70  C47 MOL d   1     -15.725   3.967 -12.243  0.00  0.00    -0.056 A 
ATOM     71  H44 MOL d   1     -15.440   4.527 -10.197  0.00  0.00     0.084 H 
ATOM     72  H45 MOL d   1     -16.658   3.448 -12.055  0.00  0.00     0.087 H 
BRANCH  67  73
ATOM     73  C33 MOL d   1     -13.235   5.823 -10.244  0.00  0.00    -0.071 C 
ATOM     74  C34 MOL d   1     -12.825   4.853  -9.435  0.00  0.00    -0.054 C 
ATOM     75  H37 MOL d   1     -12.957   3.845  -9.827  0.00  0.00     0.087 H 
ATOM     76  H36 MOL d   1     -13.130   6.888 -10.042  0.00  0.00     0.084 H 
BRANCH  74  77
ATOM     77  C35 MOL d   1     -12.199   4.922  -8.044  0.00  0.00     0.057 A 
ATOM     78  N36 MOL d   1     -11.212   5.685  -7.572  0.00  0.00    -0.261 NA
ATOM     79  C37 MOL d   1     -10.812   5.577  -6.311  0.00  0.00     0.004 A 
ATOM     80  C38 MOL d   1     -11.422   4.646  -5.439  0.00  0.00    -0.055 A 
ATOM     81  H38 MOL d   1     -10.010   6.209  -5.946  0.00  0.00     0.114 H 
ATOM     82  C39 MOL d   1     -12.459   3.839  -5.934  0.00  0.00     0.001 A 
ATOM     83  H39 MOL d   1     -11.096   4.557  -4.409  0.00  0.00     0.086 H 
ATOM     84  C45 MOL d   1     -12.825   3.993  -7.232  0.00  0.00    -0.044 A 
ATOM     85  H43 MOL d   1     -13.620   3.379  -7.639  0.00  0.00     0.088 H 
BRANCH  82  86
ATOM     86  C40 MOL d   1     -13.273   2.769  -5.229  0.00  0.00     0.167 A 
ATOM     87  O41 MOL d   1     -13.105   1.485  -5.474  0.00  0.00    -0.326 OA
ATOM     88  C42 MOL d   1     -13.998   0.795  -4.745  0.00  0.00     0.037 A 
ATOM     89  C43 MOL d   1     -14.760   1.749  -4.041  0.00  0.00     0.037 A 
ATOM     90  H41 MOL d   1     -14.111  -0.287  -4.706  0.00  0.00     0.125 H 
ATOM     91  O44 MOL d   1     -14.271   2.963  -4.399  0.00  0.00    -0.326 OA
ATOM     92  H42 MOL d   1     -15.577   1.552  -3.349  0.00  0.00     0.125 H 
ATOM     93  H40 MOL d   1     -12.543   2.763  -4.406  0.00  0.00     0.138 H 
ENDBRANCH  82  86
ENDBRANCH  74  77
ENDBRANCH  67  73
ENDBRANCH  61  63
ENDBRANCH   5  61
TORSDOF 12
