REMARK  5 active torsions:
REMARK  status: ('A' for Active; 'I' for Inactive)
REMARK    1  A    between atoms: C09_3  and  C02_1 
REMARK       I    between atoms: C02_1  and  N03_16 
REMARK    2  A    between atoms: N03_16  and  C04_2 
REMARK    3  A    between atoms: C09_3  and  C17_10 
REMARK    4  A    between atoms: N10_21  and  C09_3 
REMARK    5  A    between atoms: C11_4  and  N10_21 
ROOT
ATOM      1  C09 O5E d   1      42.691  22.456  28.105  0.00  0.00     0.114 C 
ATOM      2  H1  O5E d   1      42.234  21.598  27.591  0.00  0.00     0.095 H 
ENDROOT
BRANCH   1   3
ATOM      3  C02 O5E d   1      43.732  23.127  27.219  0.00  0.00     0.263 C 
ATOM      4  N03 O5E d   1      43.917  24.553  27.367  0.00  0.00    -0.151 N 
ATOM      5  H12 O5E d   1      43.349  25.046  28.026  0.00  0.00     0.187 HD
ATOM      6  O01 O5E d   1      44.373  22.492  26.448  0.00  0.00    -0.270 OA
BRANCH   4   7
ATOM      7  C04 O5E d   1      44.895  25.294  26.597  0.00  0.00     0.761 A 
ATOM      8  N05 O5E d   1      45.585  24.856  25.558  0.00  0.00     0.035 NA
ATOM      9  N06 O5E d   1      46.404  25.861  25.132  0.00  0.00     0.037 NA
ATOM     10  N07 O5E d   1      46.194  26.922  25.962  0.00  0.00    -0.185 N 
ATOM     11  N08 O5E d   1      45.249  26.535  26.862  0.00  0.00     0.034 NA
ATOM     12  H13 O5E d   1      46.660  27.839  25.917  0.00  0.00     0.208 HD
ENDBRANCH   4   7
ENDBRANCH   1   3
BRANCH   1  13
ATOM     13  C17 O5E d   1      43.418  22.004  29.365  0.00  0.00    -0.026 A 
ATOM     14  C18 O5E d   1      43.573  20.654  29.634  0.00  0.00    -0.074 A 
ATOM     15  C19 O5E d   1      44.243  20.258  30.779  0.00  0.00    -0.082 A 
ATOM     16  H7  O5E d   1      43.172  19.912  28.952  0.00  0.00     0.084 H 
ATOM     17  C20 O5E d   1      44.758  21.205  31.654  0.00  0.00    -0.083 A 
ATOM     18  H8  O5E d   1      44.366  19.203  30.994  0.00  0.00     0.083 H 
ATOM     19  C21 O5E d   1      44.607  22.554  31.381  0.00  0.00    -0.082 A 
ATOM     20  H9  O5E d   1      45.278  20.888  32.551  0.00  0.00     0.083 H 
ATOM     21  C22 O5E d   1      43.938  22.953  30.237  0.00  0.00    -0.074 A 
ATOM     22  H10 O5E d   1      45.011  23.295  32.061  0.00  0.00     0.083 H 
ATOM     23  H11 O5E d   1      43.819  24.009  30.021  0.00  0.00     0.084 H 
ENDBRANCH   1  13
BRANCH   1  24
ATOM     24  N10 O5E d   1      41.677  23.430  28.455  0.00  0.00    -0.373 N 
ATOM     25  H14 O5E d   1      41.740  23.949  29.343  0.00  0.00     0.161 HD
BRANCH  24  26
ATOM     26  C11 O5E d   1      40.566  23.670  27.539  0.00  0.00     0.028 A 
ATOM     27  C12 O5E d   1      40.610  23.199  26.232  0.00  0.00    -0.058 A 
ATOM     28  C13 O5E d   1      39.538  23.426  25.382  0.00  0.00    -0.081 A 
ATOM     29  H2  O5E d   1      41.479  22.656  25.878  0.00  0.00     0.086 H 
ATOM     30  C14 O5E d   1      38.422  24.114  25.828  0.00  0.00    -0.083 A 
ATOM     31  H3  O5E d   1      39.574  23.062  24.361  0.00  0.00     0.083 H 
ATOM     32  C15 O5E d   1      38.376  24.576  27.133  0.00  0.00    -0.081 A 
ATOM     33  H4  O5E d   1      37.588  24.290  25.159  0.00  0.00     0.083 H 
ATOM     34  C16 O5E d   1      39.449  24.355  27.982  0.00  0.00    -0.058 A 
ATOM     35  H5  O5E d   1      37.502  25.110  27.490  0.00  0.00     0.083 H 
ATOM     36  H6  O5E d   1      39.413  24.722  29.001  0.00  0.00     0.086 H 
ENDBRANCH  24  26
ENDBRANCH   1  24
TORSDOF 5
