REMARK  4 active torsions:
REMARK  status: ('A' for Active; 'I' for Inactive)
REMARK    1  A    between atoms: C1_7  and  C2_2 
REMARK       I    between atoms: N_5  and  C_6 
REMARK    2  A    between atoms: C8_9  and  N_5 
REMARK    3  A    between atoms: C_6  and  C1_7 
REMARK    4  A    between atoms: C10_13  and  C9_12 
ROOT
ATOM      1  N1  JRM d   1      24.435   6.650  11.201  0.00  0.00    -0.223 NA
ATOM      2  C8  JRM d   1      24.928   5.504  11.579  0.00  0.00     0.173 A 
ATOM      3  S1  JRM d   1      25.348   5.367  13.255  0.00  0.00    -0.061 SA
ATOM      4  C16 JRM d   1      24.748   6.963  13.469  0.00  0.00    -0.013 A 
ATOM      5  C9  JRM d   1      24.297   7.490  12.299  0.00  0.00     0.076 A 
ATOM      6  H9  JRM d   1      24.731   7.487  14.423  0.00  0.00     0.098 H 
ENDROOT
BRANCH   2   7
ATOM      7  N   JRM d   1      24.900   4.421  10.732  0.00  0.00    -0.306 N 
ATOM      8  C   JRM d   1      25.956   3.538  10.585  0.00  0.00     0.223 C 
ATOM      9  O   JRM d   1      26.816   3.439  11.442  0.00  0.00    -0.273 OA
ATOM     10  H6  JRM d   1      24.072   4.263  10.193  0.00  0.00     0.171 HD
BRANCH   8  11
ATOM     11  C1  JRM d   1      25.975   2.701   9.329  0.00  0.00     0.006 C 
ATOM     12  H7  JRM d   1      24.943   2.573   8.971  0.00  0.00     0.046 H 
ATOM     13  H8  JRM d   1      26.567   3.223   8.563  0.00  0.00     0.046 H 
BRANCH  11  14
ATOM     14  C2  JRM d   1      26.580   1.341   9.570  0.00  0.00    -0.068 C 
ATOM     15  H1  JRM d   1      26.574   0.766   8.632  0.00  0.00     0.028 H 
ATOM     16  H2  JRM d   1      25.991   0.807  10.331  0.00  0.00     0.028 H 
ATOM     17  H3  JRM d   1      27.616   1.458   9.922  0.00  0.00     0.028 H 
ENDBRANCH  11  14
ENDBRANCH   8  11
ENDBRANCH   2   7
BRANCH   5  18
ATOM     18  C10 JRM d   1      23.611   8.783  12.116  0.00  0.00    -0.007 A 
ATOM     19  C15 JRM d   1      23.622   9.749  13.125  0.00  0.00    -0.071 A 
ATOM     20  C14 JRM d   1      22.935  10.942  12.963  0.00  0.00    -0.082 A 
ATOM     21  H5  JRM d   1      24.172   9.564  14.041  0.00  0.00     0.084 H 
ATOM     22  C13 JRM d   1      22.253  11.201  11.792  0.00  0.00    -0.083 A 
ATOM     23  H10 JRM d   1      22.934  11.676  13.761  0.00  0.00     0.083 H 
ATOM     24  C12 JRM d   1      22.237  10.257  10.785  0.00  0.00    -0.082 A 
ATOM     25  H11 JRM d   1      21.732  12.143  11.663  0.00  0.00     0.083 H 
ATOM     26  C11 JRM d   1      22.906   9.054  10.941  0.00  0.00    -0.071 A 
ATOM     27  H4  JRM d   1      21.698  10.458   9.867  0.00  0.00     0.083 H 
ATOM     28  H12 JRM d   1      22.882   8.318  10.146  0.00  0.00     0.084 H 
ENDBRANCH   5  18
TORSDOF 4
