REMARK  7 active torsions:
REMARK  status: ('A' for Active; 'I' for Inactive)
REMARK    1  A    between atoms: C_2  and  C1_3 
REMARK       I    between atoms: C_2  and  N_5 
REMARK    2  A    between atoms: C1_3  and  C2_4 
REMARK    3  A    between atoms: N_5  and  C5_6 
REMARK    4  A    between atoms: N_5  and  C10_13 
REMARK    5  A    between atoms: C5_6  and  C6_7 
REMARK    6  A    between atoms: C8_10  and  C9_11 
REMARK    7  A    between atoms: C11_16  and  C12_18 
ROOT
ATOM      1  O   JRD d   1      28.462   3.952  10.363  0.00  0.00    -0.273 OA
ATOM      2  C   JRD d   1      27.592   4.113   9.520  0.00  0.00     0.225 C 
ATOM      3  N   JRD d   1      26.772   5.259   9.574  0.00  0.00    -0.290 N 
ENDROOT
BRANCH   3   4
ATOM      4  C5  JRD d   1      26.424   5.900   8.305  0.00  0.00     0.051 C 
ATOM      5  H6  JRD d   1      26.675   5.211   7.485  0.00  0.00     0.075 H 
ATOM      6  H7  JRD d   1      27.017   6.821   8.204  0.00  0.00     0.075 H 
BRANCH   4   7
ATOM      7  C6  JRD d   1      24.982   6.253   8.201  0.00  0.00     0.099 A 
ATOM      8  O1  JRD d   1      24.603   7.538   8.354  0.00  0.00    -0.216 OA
ATOM      9  N1  JRD d   1      23.186   7.596   8.285  0.00  0.00    -0.133 NA
ATOM     10  C8  JRD d   1      22.780   6.322   8.084  0.00  0.00     0.060 A 
ATOM     11  C7  JRD d   1      23.903   5.481   8.019  0.00  0.00    -0.025 A 
ATOM     12  H11 JRD d   1      23.897   4.405   7.852  0.00  0.00     0.090 H 
BRANCH  10  13
ATOM     13  C9  JRD d   1      21.331   5.953   7.998  0.00  0.00    -0.033 C 
ATOM     14  H8  JRD d   1      21.238   4.870   7.832  0.00  0.00     0.035 H 
ATOM     15  H9  JRD d   1      20.864   6.493   7.161  0.00  0.00     0.035 H 
ATOM     16  H10 JRD d   1      20.827   6.225   8.937  0.00  0.00     0.035 H 
ENDBRANCH  10  13
ENDBRANCH   4   7
ENDBRANCH   3   4
BRANCH   3  17
ATOM     17  C10 JRD d   1      26.589   5.993  10.746  0.00  0.00     0.176 A 
ATOM     18  S1  JRD d   1      26.937   5.366  12.331  0.00  0.00    -0.061 SA
ATOM     19  C18 JRD d   1      26.175   6.769  12.978  0.00  0.00    -0.013 A 
ATOM     20  C11 JRD d   1      25.729   7.593  11.992  0.00  0.00     0.076 A 
ATOM     21  H12 JRD d   1      26.064   6.971  14.042  0.00  0.00     0.098 H 
ATOM     22  N2  JRD d   1      25.998   7.154  10.716  0.00  0.00    -0.223 NA
BRANCH  20  23
ATOM     23  C12 JRD d   1      24.921   8.815  12.144  0.00  0.00    -0.007 A 
ATOM     24  C17 JRD d   1      23.992   8.926  13.176  0.00  0.00    -0.071 A 
ATOM     25  C16 JRD d   1      23.070   9.959  13.180  0.00  0.00    -0.082 A 
ATOM     26  H13 JRD d   1      23.991   8.200  13.980  0.00  0.00     0.084 H 
ATOM     27  C15 JRD d   1      23.116  10.940  12.212  0.00  0.00    -0.083 A 
ATOM     28  H14 JRD d   1      22.307   9.997  13.949  0.00  0.00     0.083 H 
ATOM     29  C14 JRD d   1      24.057  10.867  11.208  0.00  0.00    -0.082 A 
ATOM     30  H15 JRD d   1      22.414  11.766  12.241  0.00  0.00     0.083 H 
ATOM     31  C13 JRD d   1      24.948   9.809  11.161  0.00  0.00    -0.071 A 
ATOM     32  H16 JRD d   1      24.100  11.642  10.451  0.00  0.00     0.083 H 
ATOM     33  H17 JRD d   1      25.672   9.751  10.356  0.00  0.00     0.084 H 
ENDBRANCH  20  23
ENDBRANCH   3  17
BRANCH   2  34
ATOM     34  C1  JRD d   1      27.402   3.126   8.388  0.00  0.00     0.006 C 
ATOM     35  H1  JRD d   1      27.758   3.587   7.455  0.00  0.00     0.046 H 
ATOM     36  H2  JRD d   1      26.330   2.895   8.297  0.00  0.00     0.046 H 
BRANCH  34  37
ATOM     37  C2  JRD d   1      28.160   1.835   8.612  0.00  0.00    -0.068 C 
ATOM     38  H3  JRD d   1      27.988   1.157   7.763  0.00  0.00     0.028 H 
ATOM     39  H4  JRD d   1      27.808   1.359   9.539  0.00  0.00     0.028 H 
ATOM     40  H5  JRD d   1      29.235   2.051   8.696  0.00  0.00     0.028 H 
ENDBRANCH  34  37
ENDBRANCH   2  34
TORSDOF 7
