REMARK  17 active torsions:
REMARK  status: ('A' for Active; 'I' for Inactive)
REMARK    1  A    between atoms: C1'_1  and  N9_25 
REMARK    2  A    between atoms: C10_2  and  C17_9 
REMARK    3  A    between atoms: C10_2  and  C18_10 
REMARK    4  A    between atoms: C13_5  and  C12_4 
REMARK    5  A    between atoms: S2_39  and  C13_5 
REMARK    6  A    between atoms: C14_6  and  C15_7 
REMARK    7  A    between atoms: C14_6  and  C16_8 
REMARK    8  A    between atoms: C2'_12  and  O2'_28 
REMARK    9  A    between atoms: C3'_13  and  O3'_31 
REMARK   10  A    between atoms: C5'_17  and  C4'_15 
REMARK   11  A    between atoms: O5'_34  and  C5'_17 
REMARK   12  A    between atoms: N10_21  and  O6_35 
REMARK   13  A    between atoms: O3A_32  and  PA_36 
REMARK   14  A    between atoms: PB_37  and  O3A_32 
REMARK   15  A    between atoms: PA_36  and  O5'_34 
REMARK   16  A    between atoms: S1_38  and  PB_37 
REMARK   17  A    between atoms: S1_38  and  S2_39 
ROOT
ATOM      1  O3A JSJ d   1      15.625  17.068  63.224  0.00  0.00    -0.194 OA
ENDROOT
BRANCH   1   2
ATOM      2  PA  JSJ d   1      15.367  16.254  61.871  0.00  0.00     0.416 P 
ATOM      3  O1A JSJ d   1      16.703  15.688  61.498  0.00  0.00    -0.624 OA
ATOM      4  O2A JSJ d   1      14.192  15.340  62.090  0.00  0.00    -0.624 OA
BRANCH   2   5
ATOM      5  O5' JSJ d   1      14.986  17.394  60.793  0.00  0.00    -0.287 OA
BRANCH   5   6
ATOM      6  C5' JSJ d   1      13.689  17.994  60.705  0.00  0.00     0.058 C 
ATOM      7  H21 JSJ d   1      12.970  17.251  60.330  0.00  0.00     0.079 H 
ATOM      8  H22 JSJ d   1      13.378  18.333  61.704  0.00  0.00     0.079 H 
BRANCH   6   9
ATOM      9  C4' JSJ d   1      13.721  19.189  59.754  0.00  0.00     0.089 C 
ATOM     10  C3' JSJ d   1      12.561  20.151  59.964  0.00  0.00     0.091 C 
ATOM     11  C2' JSJ d   1      11.536  19.763  58.937  0.00  0.00     0.105 C 
ATOM     12  H19 JSJ d   1      12.165  20.080  60.988  0.00  0.00     0.091 H 
ATOM     13  C1' JSJ d   1      12.335  19.047  57.871  0.00  0.00     0.139 C 
ATOM     14  H18 JSJ d   1      10.764  19.109  59.369  0.00  0.00     0.093 H 
ATOM     15  O4' JSJ d   1      13.603  18.708  58.423  0.00  0.00    -0.353 OA
ATOM     16  H1  JSJ d   1      12.442  19.650  56.958  0.00  0.00     0.122 H 
ATOM     17  H20 JSJ d   1      14.672  19.727  59.885  0.00  0.00     0.090 H 
BRANCH  10  18
ATOM     18  O3' JSJ d   1      12.959  21.490  59.663  0.00  0.00    -0.390 OA
ATOM     19  H28 JSJ d   1      12.224  22.076  59.799  0.00  0.00     0.210 HD
ENDBRANCH  10  18
BRANCH  11  20
ATOM     20  O2' JSJ d   1      10.935  20.935  58.374  0.00  0.00    -0.388 OA
ATOM     21  H27 JSJ d   1      11.606  21.466  57.961  0.00  0.00     0.210 HD
ENDBRANCH  11  20
BRANCH  13  22
ATOM     22  N9  JSJ d   1      11.597  17.805  57.629  0.00  0.00    -0.294 N 
ATOM     23  C4  JSJ d   1      10.317  17.745  57.292  0.00  0.00     0.167 A 
ATOM     24  C5  JSJ d   1       9.995  16.331  57.173  0.00  0.00     0.149 A 
ATOM     25  N3  JSJ d   1       9.359  18.655  57.043  0.00  0.00    -0.222 NA
ATOM     26  C6  JSJ d   1       8.601  16.007  56.788  0.00  0.00     0.155 A 
ATOM     27  N7  JSJ d   1      11.129  15.664  57.466  0.00  0.00    -0.236 NA
ATOM     28  N1  JSJ d   1       7.747  17.018  56.571  0.00  0.00    -0.222 NA
ATOM     29  N6  JSJ d   1       8.165  14.736  56.647  0.00  0.00    -0.382 N 
ATOM     30  C2  JSJ d   1       8.124  18.289  56.699  0.00  0.00     0.091 A 
ATOM     31  H17 JSJ d   1       7.390  19.065  56.514  0.00  0.00     0.146 H 
ATOM     32  H25 JSJ d   1       7.188  14.554  56.378  0.00  0.00     0.157 HD
ATOM     33  H26 JSJ d   1       8.810  13.949  56.809  0.00  0.00     0.157 HD
ATOM     34  C8  JSJ d   1      12.090  16.572  57.748  0.00  0.00     0.071 A 
ATOM     35  H23 JSJ d   1      13.114  16.332  58.030  0.00  0.00     0.144 H 
ENDBRANCH  13  22
ENDBRANCH   6   9
ENDBRANCH   5   6
ENDBRANCH   2   5
ENDBRANCH   1   2
BRANCH   1  36
ATOM     36  PB  JSJ d   1      15.173  16.377  64.594  0.00  0.00     0.336 P 
ATOM     37  O1B JSJ d   1      13.679  16.552  64.523  0.00  0.00    -0.638 OA
ATOM     38  O2B JSJ d   1      15.631  14.963  64.393  0.00  0.00    -0.638 OA
BRANCH  36  39
ATOM     39  S1  JSJ d   1      16.082  17.287  65.963  0.00  0.00     0.032 SA
BRANCH  39  40
ATOM     40  S2  JSJ d   1      15.232  19.166  66.028  0.00  0.00    -0.081 SA
BRANCH  40  41
ATOM     41  C13 JSJ d   1      14.419  19.951  67.314  0.00  0.00     0.010 C 
ATOM     42  H3  JSJ d   1      14.247  19.196  68.095  0.00  0.00     0.057 H 
ATOM     43  H4  JSJ d   1      15.097  20.728  67.697  0.00  0.00     0.057 H 
BRANCH  41  44
ATOM     44  C12 JSJ d   1      13.382  20.471  67.102  0.00  0.00    -0.028 A 
ATOM     45  C11 JSJ d   1      13.454  21.257  66.023  0.00  0.00    -0.056 A 
ATOM     46  C10 JSJ d   1      12.172  22.040  65.830  0.00  0.00     0.180 A 
ATOM     47  H2  JSJ d   1      14.321  21.325  65.368  0.00  0.00     0.082 H 
ATOM     48  N10 JSJ d   1      11.338  21.587  66.961  0.00  0.00    -0.039 N 
ATOM     49  C14 JSJ d   1      12.049  20.613  67.814  0.00  0.00     0.186 A 
ATOM     50  H24 JSJ d   1      10.944  20.845  66.404  0.00  0.00     0.347 HD
BRANCH  46  51
ATOM     51  C17 JSJ d   1      12.465  23.534  65.898  0.00  0.00    -0.036 C 
ATOM     52  H11 JSJ d   1      13.087  23.825  65.039  0.00  0.00     0.032 H 
ATOM     53  H12 JSJ d   1      13.001  23.761  66.832  0.00  0.00     0.032 H 
ATOM     54  H13 JSJ d   1      11.519  24.095  65.873  0.00  0.00     0.032 H 
ENDBRANCH  46  51
BRANCH  46  55
ATOM     55  C18 JSJ d   1      11.514  21.660  64.509  0.00  0.00    -0.036 C 
ATOM     56  H14 JSJ d   1      11.318  20.578  64.495  0.00  0.00     0.032 H 
ATOM     57  H15 JSJ d   1      12.184  21.922  63.677  0.00  0.00     0.032 H 
ATOM     58  H16 JSJ d   1      10.565  22.206  64.401  0.00  0.00     0.032 H 
ENDBRANCH  46  55
BRANCH  48  59
ATOM     59  O6  JSJ d   1       9.977  22.076  67.221  0.00  0.00    -0.195 OA
ATOM     60  H29 JSJ d   1       9.728  22.693  66.543  0.00  0.00     0.257 HD
ENDBRANCH  48  59
BRANCH  49  61
ATOM     61  C15 JSJ d   1      11.277  19.302  67.852  0.00  0.00    -0.035 C 
ATOM     62  H5  JSJ d   1      11.811  18.581  68.488  0.00  0.00     0.032 H 
ATOM     63  H6  JSJ d   1      11.190  18.898  66.833  0.00  0.00     0.032 H 
ATOM     64  H7  JSJ d   1      10.272  19.480  68.263  0.00  0.00     0.032 H 
ENDBRANCH  49  61
BRANCH  49  65
ATOM     65  C16 JSJ d   1      12.250  21.179  69.220  0.00  0.00    -0.035 C 
ATOM     66  H8  JSJ d   1      12.810  22.124  69.158  0.00  0.00     0.032 H 
ATOM     67  H9  JSJ d   1      12.815  20.457  69.829  0.00  0.00     0.032 H 
ATOM     68  H10 JSJ d   1      11.270  21.363  69.685  0.00  0.00     0.032 H 
ENDBRANCH  49  65
ENDBRANCH  41  44
ENDBRANCH  40  41
ENDBRANCH  39  40
ENDBRANCH  36  39
ENDBRANCH   1  36
TORSDOF 17
