REMARK  2 active torsions:
REMARK  status: ('A' for Active; 'I' for Inactive)
REMARK    1  A    between atoms: N7_3  and  C6_4 
REMARK    2  A    between atoms: C6_4  and  C3_5 
ROOT
ATOM      1  O20 Q1C d   1     -30.001 -19.124 -12.586  0.00  0.00    -0.267 OA
ATOM      2  C12 Q1C d   1     -29.723 -19.126 -13.795  0.00  0.00     0.262 A 
ATOM      3  N7  Q1C d   1     -30.091 -18.054 -14.585  0.00  0.00    -0.301 N 
ATOM      4  C11 Q1C d   1     -29.042 -20.205 -14.406  0.00  0.00     0.075 A 
ATOM      5  C13 Q1C d   1     -28.556 -21.417 -13.838  0.00  0.00    -0.026 A 
ATOM      6  C16 Q1C d   1     -28.623 -21.927 -12.378  0.00  0.00    -0.039 C 
ATOM      7  C17 Q1C d   1     -28.314 -23.383 -12.223  0.00  0.00    -0.061 C 
ATOM      8  C18 Q1C d   1     -27.101 -23.808 -13.045  0.00  0.00    -0.061 C 
ATOM      9  C19 Q1C d   1     -27.308 -23.590 -14.509  0.00  0.00    -0.034 C 
ATOM     10  C14 Q1C d   1     -27.903 -22.256 -14.857  0.00  0.00    -0.008 A 
ATOM     11  S15 Q1C d   1     -28.021 -21.370 -16.333  0.00  0.00    -0.073 SA
ATOM     12  C10 Q1C d   1     -28.786 -20.081 -15.834  0.00  0.00     0.115 A 
ATOM     13  N9  Q1C d   1     -29.178 -18.994 -16.508  0.00  0.00    -0.235 NA
ATOM     14  C8  Q1C d   1     -29.804 -18.023 -15.907  0.00  0.00     0.070 A 
ATOM     15  H4  Q1C d   1     -29.639 -21.747 -11.996  0.00  0.00     0.040 H 
ATOM     16  H5  Q1C d   1     -27.899 -21.355 -11.779  0.00  0.00     0.040 H 
ATOM     17  H6  Q1C d   1     -29.186 -23.967 -12.552  0.00  0.00     0.033 H 
ATOM     18  H7  Q1C d   1     -28.113 -23.591 -11.162  0.00  0.00     0.033 H 
ATOM     19  H8  Q1C d   1     -26.911 -24.877 -12.869  0.00  0.00     0.033 H 
ATOM     20  H9  Q1C d   1     -26.229 -23.222 -12.719  0.00  0.00     0.033 H 
ATOM     21  H10 Q1C d   1     -27.981 -24.375 -14.883  0.00  0.00     0.040 H 
ATOM     22  H11 Q1C d   1     -26.333 -23.674 -15.011  0.00  0.00     0.040 H 
ATOM     23  H12 Q1C d   1     -30.108 -17.154 -16.490  0.00  0.00     0.144 H 
ENDROOT
BRANCH   3  24
ATOM     24  C6  Q1C d   1     -30.798 -16.912 -13.956  0.00  0.00     0.063 C 
ATOM     25  H1  Q1C d   1     -30.401 -15.979 -14.383  0.00  0.00     0.077 H 
ATOM     26  H2  Q1C d   1     -30.599 -16.933 -12.874  0.00  0.00     0.077 H 
BRANCH  24  27
ATOM     27  C3  Q1C d   1     -32.310 -16.935 -14.169  0.00  0.00     0.183 A 
ATOM     28  N2  Q1C d   1     -32.918 -16.871 -15.354  0.00  0.00    -0.140 NA
ATOM     29  N1  Q1C d   1     -34.246 -16.917 -15.094  0.00  0.00     0.021 NA
ATOM     30  N5  Q1C d   1     -34.433 -17.004 -13.778  0.00  0.00    -0.200 N 
ATOM     31  N4  Q1C d   1     -33.213 -17.015 -13.188  0.00  0.00    -0.142 NA
ATOM     32  H3  Q1C d   1     -35.342 -17.054 -13.296  0.00  0.00     0.208 HD
ENDBRANCH  24  27
ENDBRANCH   3  24
TORSDOF 2
