REMARK WARNING: 32 MAX_TORS EXCEEDED!!!
REMARK  40 active torsions:
REMARK  status: ('A' for Active; 'I' for Inactive)
REMARK    1  A    between atoms: CA_2  and  N_1 
REMARK    2  A    between atoms: C_3  and  CA_2 
REMARK    3  A    between atoms: CA_2  and  CB_5 
REMARK       I    between atoms: N_10  and  C_3 
REMARK    4  A    between atoms: CB_5  and  CG_6 
REMARK    5  A    between atoms: CG_6  and  CD_7 
REMARK    6  A    between atoms: CD_7  and  CE_8 
REMARK    7  A    between atoms: CE_8  and  NZ_9 
REMARK    8  A    between atoms: CA_11  and  N_10 
REMARK    9  A    between atoms: C_12  and  CA_11 
REMARK   10  A    between atoms: CA_11  and  CB_14 
REMARK       I    between atoms: N_19  and  C_12 
REMARK   11  A    between atoms: CB_14  and  CG_15 
REMARK   12  A    between atoms: CG_15  and  CD_16 
REMARK       I    between atoms: CD_16  and  NE2_18 
REMARK   13  A    between atoms: CA_20  and  N_19 
REMARK   14  A    between atoms: C_21  and  CA_20 
REMARK   15  A    between atoms: CA_20  and  CB_23 
REMARK       I    between atoms: N_26  and  C_21 
REMARK   16  A    between atoms: CB_23  and  OG1_24 
REMARK   17  A    between atoms: CB_23  and  CG2_25 
REMARK   18  A    between atoms: CA_27  and  N_26 
REMARK   19  A    between atoms: C_28  and  CA_27 
REMARK   20  A    between atoms: CA_27  and  CB_30 
REMARK       I    between atoms: N_31  and  C_28 
REMARK   21  A    between atoms: CA_32  and  N_31 
REMARK   22  A    between atoms: C_33  and  CA_32 
REMARK   23  A    between atoms: CA_32  and  CB_35 
REMARK       I    between atoms: N_43  and  C_33 
REMARK   24  A    between atoms: CB_35  and  CG_36 
REMARK   25  A    between atoms: CG_36  and  CD_37 
REMARK   26  A    between atoms: CD_37  and  NE_38 
REMARK       I    between atoms: NE_38  and  CZ_39 
REMARK       I    between atoms: CZ_39  and  NH1_40 
REMARK   27  A    between atoms: CA_45  and  C_42 
REMARK       I    between atoms: C_42  and  N_56 
REMARK   28  A    between atoms: CA_45  and  N_43 
REMARK   29  A    between atoms: CB_46  and  CA_45 
REMARK   30  A    between atoms: CG_49  and  CB_46 
REMARK   31  A    between atoms: CE_48  and  CD_47 
REMARK   32  A    between atoms: CD_47  and  CG_49 
REMARK   33  A    between atoms: NZ_50  and  CE_48 
REMARK       I    between atoms: CAN_55  and  NZ_50 
REMARK   34  A    between atoms: CAF_53  and  CAA_51 
REMARK   35  A    between atoms: CAJ_54  and  CAF_53 
REMARK   36  A    between atoms: CAJ_54  and  CAN_55 
REMARK   37  A    between atoms: N_56  and  CA_57 
REMARK   38  A    between atoms: CA_57  and  C_58 
REMARK   39  A    between atoms: CA_57  and  CB_60 
REMARK   40  A    between atoms: CB_60  and  OG_61 
ROOT
ATOM      1  C   ALA d   1      15.714 -39.352 -14.098  0.00  0.00     0.240 C 
ATOM      2  O   ALA d   1      16.288 -38.985 -13.070  0.00  0.00    -0.271 OA
ATOM      3  N   ARG d   1      14.536 -39.953 -14.087  0.00  0.00    -0.346 N 
ATOM      4  H36 ARG d   1      14.161 -40.310 -14.943  0.00  0.00     0.163 HD
ENDROOT
BRANCH   3   5
ATOM      5  CA  ARG d   1      13.772 -40.107 -12.854  0.00  0.00     0.089 C 
ATOM      6  H37 ARG d   1      14.407 -39.786 -12.015  0.00  0.00     0.087 H 
BRANCH   5   7
ATOM      7  C   ARG d   1      13.369 -41.554 -12.619  0.00  0.00     0.241 C 
ATOM      8  O   ARG d   1      13.225 -42.329 -13.556  0.00  0.00    -0.271 OA
ATOM      9  N   BTK d   1      13.192 -41.912 -11.356  0.00  0.00    -0.346 N 
ATOM     10  H49 BTK d   1      13.456 -41.280 -10.627  0.00  0.00     0.163 HD
BRANCH   9  11
ATOM     11  CA  BTK d   1      12.627 -43.194 -11.007  0.00  0.00     0.089 C 
ATOM     12  H50 BTK d   1      12.645 -43.806 -11.921  0.00  0.00     0.087 H 
BRANCH  11  13
ATOM     13  C   BTK d   1      11.175 -43.087 -10.539  0.00  0.00     0.241 C 
ATOM     14  O   BTK d   1      10.702 -42.070 -10.010  0.00  0.00    -0.271 OA
ATOM     15  N   SER d   1      10.436 -44.175 -10.755  0.00  0.00    -0.343 N 
ATOM     16  H67 SER d   1      10.789 -44.891 -11.357  0.00  0.00     0.163 HD
BRANCH  15  17
ATOM     17  CA  SER d   1       9.121 -44.350 -10.135  0.00  0.00     0.116 C 
ATOM     18  H68 SER d   1       9.154 -43.901  -9.131  0.00  0.00     0.093 H 
BRANCH  17  19
ATOM     19  C   SER d   1       8.784 -45.829  -9.992  0.00  0.00     0.198 C 
ATOM     20  O   SER d   1       9.161 -46.644 -10.835  0.00  0.00    -0.646 OA
ATOM     21  OXT SER d   1       8.129 -46.234  -9.031  0.00  0.00    -0.646 OA
ENDBRANCH  17  19
BRANCH  17  22
ATOM     22  CB  SER d   1       8.027 -43.651 -10.937  0.00  0.00     0.045 C 
ATOM     23  H69 SER d   1       8.008 -44.057 -11.959  0.00  0.00     0.077 H 
ATOM     24  H70 SER d   1       8.235 -42.572 -10.975  0.00  0.00     0.077 H 
BRANCH  22  25
ATOM     25  OG  SER d   1       6.768 -43.866 -10.322  0.00  0.00    -0.398 OA
ATOM     26  H71 SER d   1       6.588 -44.798 -10.290  0.00  0.00     0.209 HD
ENDBRANCH  22  25
ENDBRANCH  17  22
ENDBRANCH  15  17
ENDBRANCH  11  13
BRANCH  11  27
ATOM     27  CB  BTK d   1      13.406 -43.958  -9.919  0.00  0.00    -0.038 C 
ATOM     28  H51 BTK d   1      13.801 -44.883 -10.364  0.00  0.00     0.036 H 
ATOM     29  H52 BTK d   1      12.706 -44.211  -9.109  0.00  0.00     0.036 H 
BRANCH  27  30
ATOM     30  CG  BTK d   1      14.566 -43.187  -9.320  0.00  0.00    -0.061 C 
ATOM     31  H57 BTK d   1      14.181 -42.302  -8.792  0.00  0.00     0.033 H 
ATOM     32  H58 BTK d   1      15.245 -42.867 -10.124  0.00  0.00     0.033 H 
BRANCH  30  33
ATOM     33  CD  BTK d   1      15.326 -44.067  -8.340  0.00  0.00    -0.050 C 
ATOM     34  H53 BTK d   1      14.660 -44.333  -7.506  0.00  0.00     0.035 H 
ATOM     35  H54 BTK d   1      15.650 -44.982  -8.857  0.00  0.00     0.035 H 
BRANCH  33  36
ATOM     36  CE  BTK d   1      16.557 -43.344  -7.785  0.00  0.00    -0.005 C 
ATOM     37  H55 BTK d   1      16.205 -42.453  -7.245  0.00  0.00     0.064 H 
ATOM     38  H56 BTK d   1      17.175 -43.034  -8.640  0.00  0.00     0.064 H 
BRANCH  36  39
ATOM     39  NZ  BTK d   1      17.399 -44.095  -6.886  0.00  0.00    -0.361 N 
ATOM     40  CAN BTK d   1      18.717 -43.717  -6.636  0.00  0.00     0.217 C 
ATOM     41  OAD BTK d   1      19.202 -42.714  -7.198  0.00  0.00    -0.274 OA
ATOM     42  H59 BTK d   1      17.029 -44.905  -6.432  0.00  0.00     0.162 HD
BRANCH  40  43
ATOM     43  CAJ BTK d   1      19.564 -44.547  -5.681  0.00  0.00     0.009 C 
ATOM     44  H65 BTK d   1      20.516 -44.786  -6.178  0.00  0.00     0.047 H 
ATOM     45  H66 BTK d   1      19.761 -43.948  -4.780  0.00  0.00     0.047 H 
BRANCH  43  46
ATOM     46  CAF BTK d   1      18.905 -45.843  -5.260  0.00  0.00    -0.061 C 
ATOM     47  H63 BTK d   1      17.898 -45.630  -4.872  0.00  0.00     0.033 H 
ATOM     48  H64 BTK d   1      18.828 -46.511  -6.130  0.00  0.00     0.033 H 
BRANCH  46  49
ATOM     49  CAA BTK d   1      19.719 -46.514  -4.188  0.00  0.00    -0.076 C 
ATOM     50  H60 BTK d   1      19.230 -47.454  -3.891  0.00  0.00     0.027 H 
ATOM     51  H61 BTK d   1      19.796 -45.849  -3.315  0.00  0.00     0.027 H 
ATOM     52  H62 BTK d   1      20.726 -46.730  -4.574  0.00  0.00     0.027 H 
ENDBRANCH  46  49
ENDBRANCH  43  46
ENDBRANCH  40  43
ENDBRANCH  36  39
ENDBRANCH  33  36
ENDBRANCH  30  33
ENDBRANCH  27  30
ENDBRANCH  11  27
ENDBRANCH   9  11
ENDBRANCH   5   7
BRANCH   5  53
ATOM     53  CB  ARG d   1      12.522 -39.213 -12.889  0.00  0.00    -0.036 C 
ATOM     54  H38 ARG d   1      11.912 -39.435 -12.001  0.00  0.00     0.036 H 
ATOM     55  H39 ARG d   1      11.949 -39.454 -13.797  0.00  0.00     0.036 H 
BRANCH  53  56
ATOM     56  CG  ARG d   1      12.829 -37.729 -12.898  0.00  0.00    -0.048 C 
ATOM     57  H40 ARG d   1      13.427 -37.493 -13.791  0.00  0.00     0.035 H 
ATOM     58  H41 ARG d   1      13.404 -37.477 -11.995  0.00  0.00     0.035 H 
BRANCH  56  59
ATOM     59  CD  ARG d   1      11.576 -36.912 -12.921  0.00  0.00     0.009 C 
ATOM     60  H42 ARG d   1      10.949 -37.241 -13.763  0.00  0.00     0.064 H 
ATOM     61  H43 ARG d   1      11.841 -35.853 -13.053  0.00  0.00     0.064 H 
BRANCH  59  62
ATOM     62  NE  ARG d   1      10.818 -37.062 -11.674  0.00  0.00    -0.227 N 
ATOM     63  CZ  ARG d   1      10.912 -36.235 -10.639  0.00  0.00     0.665 C 
ATOM     64  NH1 ARG d   1      11.731 -35.188 -10.686  0.00  0.00    -0.235 N 
ATOM     65  NH2 ARG d   1      10.174 -36.447  -9.557  0.00  0.00    -0.235 N 
ATOM     66  H45 ARG d   1      11.799 -34.551  -9.880  0.00  0.00     0.174 HD
ATOM     67  H46 ARG d   1      12.297 -35.014 -11.529  0.00  0.00     0.174 HD
ATOM     68  H47 ARG d   1       9.539 -37.257  -9.517  0.00  0.00     0.174 HD
ATOM     69  H48 ARG d   1      10.236 -35.802  -8.757  0.00  0.00     0.174 HD
ATOM     70  H44 ARG d   1      10.171 -37.860 -11.596  0.00  0.00     0.177 HD
ENDBRANCH  59  62
ENDBRANCH  56  59
ENDBRANCH  53  56
ENDBRANCH   5  53
ENDBRANCH   3   5
BRANCH   1  71
ATOM     71  CA  ALA d   1      16.334 -39.166 -15.484  0.00  0.00     0.086 C 
ATOM     72  H32 ALA d   1      15.568 -38.759 -16.160  0.00  0.00     0.086 H 
BRANCH  71  73
ATOM     73  N   ALA d   1      17.432 -38.220 -15.411  0.00  0.00    -0.346 N 
ATOM     74  C   THR d   1      17.197 -36.950 -15.111  0.00  0.00     0.243 C 
ATOM     75  O   THR d   1      16.050 -36.486 -15.041  0.00  0.00    -0.271 OA
ATOM     76  H31 ALA d   1      18.367 -38.526 -15.587  0.00  0.00     0.163 HD
BRANCH  74  77
ATOM     77  CA  THR d   1      18.436 -36.105 -14.813  0.00  0.00     0.113 C 
ATOM     78  H25 THR d   1      19.126 -36.154 -15.668  0.00  0.00     0.091 H 
BRANCH  77  79
ATOM     79  N   THR d   1      18.046 -34.715 -14.598  0.00  0.00    -0.344 N 
ATOM     80  C   GLN d   1      17.554 -33.954 -15.580  0.00  0.00     0.241 C 
ATOM     81  O   GLN d   1      17.624 -34.260 -16.774  0.00  0.00    -0.271 OA
ATOM     82  H24 THR d   1      18.151 -34.319 -13.686  0.00  0.00     0.163 HD
BRANCH  80  83
ATOM     83  CA  GLN d   1      16.893 -32.661 -15.127  0.00  0.00     0.090 C 
ATOM     84  H17 GLN d   1      17.459 -32.244 -14.281  0.00  0.00     0.087 H 
BRANCH  83  85
ATOM     85  N   GLN d   1      16.884 -31.685 -16.203  0.00  0.00    -0.346 N 
ATOM     86  C   LYS d   1      17.966 -30.953 -16.454  0.00  0.00     0.248 C 
ATOM     87  O   LYS d   1      18.945 -30.928 -15.699  0.00  0.00    -0.271 OA
ATOM     88  H16 GLN d   1      16.061 -31.563 -16.757  0.00  0.00     0.163 HD
BRANCH  86  89
ATOM     89  CA  LYS d   1      17.956 -30.127 -17.744  0.00  0.00     0.176 C 
ATOM     90  H4  LYS d   1      19.001 -29.971 -18.049  0.00  0.00     0.099 H 
BRANCH  89  91
ATOM     91  N   LYS d   1      17.273 -30.797 -18.854  0.00  0.00    -0.067 N 
ATOM     92  H1  LYS d   1      17.300 -30.206 -19.671  0.00  0.00     0.275 HD
ATOM     93  H2  LYS d   1      16.314 -30.976 -18.600  0.00  0.00     0.275 HD
ATOM     94  H3  LYS d   1      17.735 -31.670 -19.055  0.00  0.00     0.275 HD
ENDBRANCH  89  91
BRANCH  89  95
ATOM     95  CB  LYS d   1      17.336 -28.763 -17.464  0.00  0.00    -0.030 C 
ATOM     96  H5  LYS d   1      16.340 -28.907 -17.021  0.00  0.00     0.036 H 
ATOM     97  H6  LYS d   1      17.240 -28.212 -18.411  0.00  0.00     0.036 H 
BRANCH  95  98
ATOM     98  CG  LYS d   1      18.186 -27.958 -16.511  0.00  0.00    -0.061 C 
ATOM     99  H7  LYS d   1      19.243 -28.203 -16.690  0.00  0.00     0.033 H 
ATOM    100  H8  LYS d   1      17.915 -28.233 -15.481  0.00  0.00     0.033 H 
BRANCH  98 101
ATOM    101  CD  LYS d   1      18.001 -26.468 -16.678  0.00  0.00    -0.043 C 
ATOM    102  H9  LYS d   1      16.935 -26.218 -16.571  0.00  0.00     0.035 H 
ATOM    103  H10 LYS d   1      18.350 -26.166 -17.677  0.00  0.00     0.035 H 
BRANCH 101 104
ATOM    104  CE  LYS d   1      18.802 -25.729 -15.619  0.00  0.00     0.080 C 
ATOM    105  H11 LYS d   1      19.860 -25.721 -15.921  0.00  0.00     0.075 H 
ATOM    106  H12 LYS d   1      18.698 -26.263 -14.663  0.00  0.00     0.075 H 
BRANCH 104 107
ATOM    107  NZ  LYS d   1      18.351 -24.325 -15.430  0.00  0.00    -0.079 N 
ATOM    108  H13 LYS d   1      18.914 -23.884 -14.720  0.00  0.00     0.274 HD
ATOM    109  H14 LYS d   1      17.384 -24.318 -15.145  0.00  0.00     0.274 HD
ATOM    110  H15 LYS d   1      18.449 -23.821 -16.297  0.00  0.00     0.274 HD
ENDBRANCH 104 107
ENDBRANCH 101 104
ENDBRANCH  98 101
ENDBRANCH  95  98
ENDBRANCH  89  95
ENDBRANCH  86  89
ENDBRANCH  83  85
BRANCH  83 111
ATOM    111  CB  GLN d   1      15.469 -32.985 -14.663  0.00  0.00    -0.030 C 
ATOM    112  H18 GLN d   1      15.409 -34.068 -14.482  0.00  0.00     0.037 H 
ATOM    113  H19 GLN d   1      14.777 -32.709 -15.473  0.00  0.00     0.037 H 
BRANCH 111 114
ATOM    114  CG  GLN d   1      15.028 -32.290 -13.428  0.00  0.00     0.011 C 
ATOM    115  H20 GLN d   1      14.909 -31.217 -13.639  0.00  0.00     0.047 H 
ATOM    116  H21 GLN d   1      15.787 -32.428 -12.644  0.00  0.00     0.047 H 
BRANCH 114 117
ATOM    117  CD  GLN d   1      13.704 -32.854 -12.945  0.00  0.00     0.215 C 
ATOM    118  OE1 GLN d   1      13.599 -34.047 -12.627  0.00  0.00    -0.274 OA
ATOM    119  NE2 GLN d   1      12.677 -32.016 -12.936  0.00  0.00    -0.370 N 
ATOM    120  H22 GLN d   1      11.779 -32.329 -12.628  0.00  0.00     0.159 HD
ATOM    121  H23 GLN d   1      12.801 -31.070 -13.237  0.00  0.00     0.159 HD
ENDBRANCH 114 117
ENDBRANCH 111 114
ENDBRANCH  83 111
ENDBRANCH  80  83
ENDBRANCH  77  79
BRANCH  77 122
ATOM    122  CB  THR d   1      19.129 -36.671 -13.577  0.00  0.00     0.060 C 
ATOM    123  H26 THR d   1      19.590 -37.638 -13.827  0.00  0.00     0.086 H 
BRANCH 122 124
ATOM    124  OG1 THR d   1      18.138 -36.855 -12.542  0.00  0.00    -0.393 OA
ATOM    125  H27 THR d   1      17.472 -37.460 -12.847  0.00  0.00     0.210 HD
ENDBRANCH 122 124
BRANCH 122 126
ATOM    126  CG2 THR d   1      20.207 -35.715 -13.075  0.00  0.00    -0.050 C 
ATOM    127  H28 THR d   1      20.692 -36.144 -12.185  0.00  0.00     0.031 H 
ATOM    128  H29 THR d   1      19.748 -34.750 -12.814  0.00  0.00     0.031 H 
ATOM    129  H30 THR d   1      20.958 -35.562 -13.864  0.00  0.00     0.031 H 
ENDBRANCH 122 126
ENDBRANCH  77 122
ENDBRANCH  74  77
ENDBRANCH  71  73
BRANCH  71 130
ATOM    130  CB  ALA d   1      16.803 -40.512 -16.039  0.00  0.00    -0.049 C 
ATOM    131  H33 ALA d   1      15.952 -41.207 -16.083  0.00  0.00     0.030 H 
ATOM    132  H34 ALA d   1      17.582 -40.928 -15.383  0.00  0.00     0.030 H 
ATOM    133  H35 ALA d   1      17.212 -40.369 -17.050  0.00  0.00     0.030 H 
ENDBRANCH  71 130
ENDBRANCH   1  71
TORSDOF 40
