REMARK  32 active torsions:
REMARK  status: ('A' for Active; 'I' for Inactive)
REMARK    1  A    between atoms: N_1  and  CA_2 
REMARK    2  A    between atoms: CA_2  and  C_3 
REMARK    3  A    between atoms: CA_2  and  CB_5 
REMARK       I    between atoms: C_3  and  N_10 
REMARK    4  A    between atoms: CB_5  and  CG_6 
REMARK    5  A    between atoms: CG_6  and  CD_7 
REMARK       I    between atoms: CD_7  and  NE2_9 
REMARK    6  A    between atoms: N_10  and  CA_11 
REMARK    7  A    between atoms: CA_11  and  C_12 
REMARK    8  A    between atoms: CA_11  and  CB_14 
REMARK       I    between atoms: C_12  and  N_17 
REMARK    9  A    between atoms: CB_14  and  OG1_15 
REMARK   10  A    between atoms: CB_14  and  CG2_16 
REMARK   11  A    between atoms: N_17  and  CA_18 
REMARK   12  A    between atoms: CA_18  and  C_19 
REMARK   13  A    between atoms: CA_18  and  CB_21 
REMARK       I    between atoms: C_19  and  N_22 
REMARK   14  A    between atoms: N_22  and  CA_23 
REMARK   15  A    between atoms: CA_23  and  C_24 
REMARK   16  A    between atoms: CA_23  and  CB_26 
REMARK       I    between atoms: C_24  and  N_33 
REMARK   17  A    between atoms: CB_26  and  CG_27 
REMARK   18  A    between atoms: CG_27  and  CD_28 
REMARK   19  A    between atoms: CD_28  and  NE_29 
REMARK       I    between atoms: NE_29  and  CZ_30 
REMARK       I    between atoms: CZ_30  and  NH1_31 
REMARK   20  A    between atoms: N_33  and  CA_34 
REMARK   21  A    between atoms: CA_34  and  CB_35 
REMARK   22  A    between atoms: CA_34  and  C_45 
REMARK   23  A    between atoms: CB_35  and  CG_36 
REMARK   24  A    between atoms: CG_36  and  CD_37 
REMARK   25  A    between atoms: CD_37  and  CE_38 
REMARK   26  A    between atoms: CE_38  and  NZ_39 
REMARK       I    between atoms: NZ_39  and  CH_40 
REMARK   27  A    between atoms: CH_40  and  CX_42 
REMARK   28  A    between atoms: CY_43  and  CH3_44 
REMARK       I    between atoms: C_45  and  N_47 
REMARK   29  A    between atoms: N_47  and  CA_48 
REMARK   30  A    between atoms: CA_48  and  C_49 
REMARK   31  A    between atoms: CA_48  and  CB_51 
REMARK   32  A    between atoms: CB_51  and  OG_52 
ROOT
ATOM      1  CA  ARG d   1      19.881   0.100  -9.446  0.00  0.00     0.089 C 
ATOM      2  H24 ARG d   1      19.405  -0.875  -9.267  0.00  0.00     0.087 H 
ENDROOT
BRANCH   1   3
ATOM      3  N   ARG d   1      19.553   0.981  -8.316  0.00  0.00    -0.346 N 
ATOM      4  C   ALA d   1      18.764   0.555  -7.327  0.00  0.00     0.240 C 
ATOM      5  O   ALA d   1      18.176  -0.535  -7.361  0.00  0.00    -0.271 OA
ATOM      6  H23 ARG d   1      19.925   1.909  -8.288  0.00  0.00     0.163 HD
BRANCH   4   7
ATOM      7  CA  ALA d   1      18.693   1.460  -6.104  0.00  0.00     0.086 C 
ATOM      8  H19 ALA d   1      18.684   2.511  -6.429  0.00  0.00     0.086 H 
BRANCH   7   9
ATOM      9  N   ALA d   1      17.482   1.191  -5.339  0.00  0.00    -0.346 N 
ATOM     10  C   THR d   1      16.262   1.379  -5.858  0.00  0.00     0.243 C 
ATOM     11  O   THR d   1      16.082   1.966  -6.936  0.00  0.00    -0.271 OA
ATOM     12  H18 ALA d   1      17.564   0.857  -4.400  0.00  0.00     0.163 HD
BRANCH  10  13
ATOM     13  CA  THR d   1      15.095   0.851  -5.008  0.00  0.00     0.113 C 
ATOM     14  H12 THR d   1      15.052   1.433  -4.075  0.00  0.00     0.091 H 
BRANCH  13  15
ATOM     15  N   THR d   1      13.826   1.014  -5.707  0.00  0.00    -0.344 N 
ATOM     16  C   GLN d   1      13.289   2.214  -5.939  0.00  0.00     0.249 C 
ATOM     17  O   GLN d   1      13.886   3.271  -5.711  0.00  0.00    -0.271 OA
ATOM     18  H11 THR d   1      13.341   0.199  -6.024  0.00  0.00     0.163 HD
BRANCH  16  19
ATOM     19  CA  GLN d   1      11.873   2.234  -6.519  0.00  0.00     0.176 C 
ATOM     20  H4  GLN d   1      11.264   1.521  -5.943  0.00  0.00     0.099 H 
BRANCH  19  21
ATOM     21  N   GLN d   1      11.250   3.546  -6.407  0.00  0.00    -0.066 N 
ATOM     22  H1  GLN d   1      10.322   3.512  -6.800  0.00  0.00     0.275 HD
ATOM     23  H2  GLN d   1      11.803   4.224  -6.908  0.00  0.00     0.275 HD
ATOM     24  H3  GLN d   1      11.194   3.809  -5.436  0.00  0.00     0.275 HD
ENDBRANCH  19  21
BRANCH  19  25
ATOM     25  CB  GLN d   1      11.885   1.781  -7.980  0.00  0.00    -0.022 C 
ATOM     26  H5  GLN d   1      10.879   1.939  -8.396  0.00  0.00     0.037 H 
ATOM     27  H6  GLN d   1      12.127   0.708  -8.004  0.00  0.00     0.037 H 
BRANCH  25  28
ATOM     28  CG  GLN d   1      12.859   2.494  -8.845  0.00  0.00     0.011 C 
ATOM     29  H7  GLN d   1      13.834   2.527  -8.337  0.00  0.00     0.047 H 
ATOM     30  H8  GLN d   1      12.502   3.520  -9.020  0.00  0.00     0.047 H 
BRANCH  28  31
ATOM     31  CD  GLN d   1      13.016   1.796 -10.167  0.00  0.00     0.215 C 
ATOM     32  OE1 GLN d   1      13.902   0.960 -10.339  0.00  0.00    -0.274 OA
ATOM     33  NE2 GLN d   1      12.147   2.125 -11.114  0.00  0.00    -0.370 N 
ATOM     34  H9  GLN d   1      12.202   1.694 -12.014  0.00  0.00     0.159 HD
ATOM     35  H10 GLN d   1      11.437   2.804 -10.927  0.00  0.00     0.159 HD
ENDBRANCH  28  31
ENDBRANCH  25  28
ENDBRANCH  19  25
ENDBRANCH  16  19
ENDBRANCH  13  15
BRANCH  13  36
ATOM     36  CB  THR d   1      15.340  -0.621  -4.652  0.00  0.00     0.060 C 
ATOM     37  H13 THR d   1      16.216  -0.670  -3.989  0.00  0.00     0.086 H 
BRANCH  36  38
ATOM     38  OG1 THR d   1      15.620  -1.386  -5.844  0.00  0.00    -0.393 OA
ATOM     39  H14 THR d   1      16.395  -1.036  -6.269  0.00  0.00     0.210 HD
ENDBRANCH  36  38
BRANCH  36  40
ATOM     40  CG2 THR d   1      14.143  -1.252  -3.918  0.00  0.00    -0.050 C 
ATOM     41  H15 THR d   1      14.368  -2.304  -3.686  0.00  0.00     0.031 H 
ATOM     42  H16 THR d   1      13.251  -1.201  -4.560  0.00  0.00     0.031 H 
ATOM     43  H17 THR d   1      13.955  -0.703  -2.984  0.00  0.00     0.031 H 
ENDBRANCH  36  40
ENDBRANCH  13  36
ENDBRANCH  10  13
ENDBRANCH   7   9
BRANCH   7  44
ATOM     44  CB  ALA d   1      19.921   1.209  -5.246  0.00  0.00    -0.049 C 
ATOM     45  H20 ALA d   1      20.828   1.415  -5.834  0.00  0.00     0.030 H 
ATOM     46  H21 ALA d   1      19.929   0.160  -4.915  0.00  0.00     0.030 H 
ATOM     47  H22 ALA d   1      19.896   1.870  -4.367  0.00  0.00     0.030 H 
ENDBRANCH   7  44
ENDBRANCH   4   7
ENDBRANCH   1   3
BRANCH   1  48
ATOM     48  C   ARG d   1      21.388  -0.123  -9.595  0.00  0.00     0.241 C 
ATOM     49  O   ARG d   1      22.182   0.732  -9.206  0.00  0.00    -0.271 OA
ATOM     50  N   KCR d   1      21.550  -1.407 -10.153  0.00  0.00    -0.346 N 
ATOM     51  H36 KCR d   1      20.835  -2.061 -10.400  0.00  0.00     0.163 HD
BRANCH  50  52
ATOM     52  CA  KCR d   1      23.010  -1.570 -10.292  0.00  0.00     0.089 C 
ATOM     53  H37 KCR d   1      23.520  -0.714  -9.827  0.00  0.00     0.087 H 
BRANCH  52  54
ATOM     54  CB  KCR d   1      23.446  -2.856  -9.602  0.00  0.00    -0.038 C 
ATOM     55  H38 KCR d   1      23.712  -2.632  -8.559  0.00  0.00     0.036 H 
ATOM     56  H39 KCR d   1      24.323  -3.265 -10.125  0.00  0.00     0.036 H 
BRANCH  54  57
ATOM     57  CG  KCR d   1      22.329  -3.892  -9.619  0.00  0.00    -0.061 C 
ATOM     58  H40 KCR d   1      21.913  -3.956 -10.635  0.00  0.00     0.033 H 
ATOM     59  H41 KCR d   1      21.540  -3.581  -8.918  0.00  0.00     0.033 H 
BRANCH  57  60
ATOM     60  CD  KCR d   1      22.849  -5.264  -9.207  0.00  0.00    -0.050 C 
ATOM     61  H42 KCR d   1      23.779  -5.139  -8.633  0.00  0.00     0.035 H 
ATOM     62  H43 KCR d   1      23.053  -5.857 -10.110  0.00  0.00     0.035 H 
BRANCH  60  63
ATOM     63  CE  KCR d   1      21.828  -6.000  -8.348  0.00  0.00    -0.004 C 
ATOM     64  H44 KCR d   1      20.934  -6.250  -8.939  0.00  0.00     0.064 H 
ATOM     65  H45 KCR d   1      21.536  -5.386  -7.483  0.00  0.00     0.064 H 
BRANCH  63  66
ATOM     66  NZ  KCR d   1      22.506  -7.211  -7.910  0.00  0.00    -0.358 N 
ATOM     67  CH  KCR d   1      22.057  -8.111  -7.040  0.00  0.00     0.240 C 
ATOM     68  OH  KCR d   1      20.974  -8.016  -6.485  0.00  0.00    -0.269 OA
ATOM     69  H46 KCR d   1      23.407  -7.385  -8.306  0.00  0.00     0.162 HD
BRANCH  67  70
ATOM     70  CX  KCR d   1      22.942  -9.258  -6.764  0.00  0.00    -0.022 C 
ATOM     71  CY  KCR d   1      22.440 -10.374  -6.242  0.00  0.00    -0.102 C 
ATOM     72  H48 KCR d   1      21.376 -10.441  -6.019  0.00  0.00     0.076 H 
ATOM     73  H47 KCR d   1      24.006  -9.191  -6.987  0.00  0.00     0.091 H 
BRANCH  71  74
ATOM     74  CH3 KCR d   1      23.346 -11.548  -5.959  0.00  0.00    -0.059 C 
ATOM     75  H49 KCR d   1      22.756 -12.372  -5.533  0.00  0.00     0.032 H 
ATOM     76  H50 KCR d   1      24.125 -11.246  -5.243  0.00  0.00     0.032 H 
ATOM     77  H51 KCR d   1      23.818 -11.881  -6.895  0.00  0.00     0.032 H 
ENDBRANCH  71  74
ENDBRANCH  67  70
ENDBRANCH  63  66
ENDBRANCH  60  63
ENDBRANCH  57  60
ENDBRANCH  54  57
ENDBRANCH  52  54
BRANCH  52  78
ATOM     78  C   KCR d   1      23.372  -1.637 -11.756  0.00  0.00     0.241 C 
ATOM     79  O   KCR d   1      22.518  -1.871 -12.595  0.00  0.00    -0.271 OA
ATOM     80  N   SER d   1      24.568  -1.326 -12.179  0.00  0.00    -0.343 N 
ATOM     81  H52 SER d   1      25.254  -1.038 -11.511  0.00  0.00     0.163 HD
BRANCH  80  82
ATOM     82  CA  SER d   1      24.941  -1.383 -13.589  0.00  0.00     0.116 C 
ATOM     83  H53 SER d   1      24.058  -1.693 -14.168  0.00  0.00     0.093 H 
BRANCH  82  84
ATOM     84  C   SER d   1      26.045  -2.412 -13.806  0.00  0.00     0.198 C 
ATOM     85  O   SER d   1      26.056  -3.116 -14.817  0.00  0.00    -0.646 OA
ATOM     86  OXT SER d   1      26.942  -2.554 -12.973  0.00  0.00    -0.646 OA
ENDBRANCH  82  84
BRANCH  82  87
ATOM     87  CB  SER d   1      25.387  -0.009 -14.092  0.00  0.00     0.045 C 
ATOM     88  H54 SER d   1      26.368   0.231 -13.656  0.00  0.00     0.077 H 
ATOM     89  H55 SER d   1      24.651   0.745 -13.776  0.00  0.00     0.077 H 
BRANCH  87  90
ATOM     90  OG  SER d   1      25.492   0.012 -15.507  0.00  0.00    -0.398 OA
ATOM     91  H56 SER d   1      25.770   0.875 -15.790  0.00  0.00     0.209 HD
ENDBRANCH  87  90
ENDBRANCH  82  87
ENDBRANCH  80  82
ENDBRANCH  52  78
ENDBRANCH  50  52
ENDBRANCH   1  48
BRANCH   1  92
ATOM     92  CB  ARG d   1      19.332   0.678 -10.735  0.00  0.00    -0.036 C 
ATOM     93  H25 ARG d   1      19.086  -0.149 -11.417  0.00  0.00     0.036 H 
ATOM     94  H26 ARG d   1      20.103   1.314 -11.194  0.00  0.00     0.036 H 
BRANCH  92  95
ATOM     95  CG  ARG d   1      18.105   1.497 -10.513  0.00  0.00    -0.048 C 
ATOM     96  H27 ARG d   1      18.241   2.497 -10.950  0.00  0.00     0.035 H 
ATOM     97  H28 ARG d   1      17.911   1.592  -9.434  0.00  0.00     0.035 H 
BRANCH  95  98
ATOM     98  CD  ARG d   1      16.990   0.827 -11.156  0.00  0.00     0.009 C 
ATOM     99  H29 ARG d   1      16.133   1.513 -11.222  0.00  0.00     0.064 H 
ATOM    100  H30 ARG d   1      16.705  -0.062 -10.574  0.00  0.00     0.064 H 
BRANCH  98 101
ATOM    101  NE  ARG d   1      17.403   0.427 -12.493  0.00  0.00    -0.227 N 
ATOM    102  CZ  ARG d   1      16.651  -0.322 -13.280  0.00  0.00     0.665 C 
ATOM    103  NH1 ARG d   1      15.466  -0.745 -12.852  0.00  0.00    -0.235 N 
ATOM    104  NH2 ARG d   1      17.077  -0.645 -14.480  0.00  0.00    -0.235 N 
ATOM    105  H32 ARG d   1      14.877  -1.329 -13.462  0.00  0.00     0.174 HD
ATOM    106  H33 ARG d   1      15.137  -0.489 -11.910  0.00  0.00     0.174 HD
ATOM    107  H34 ARG d   1      17.996  -0.314 -14.806  0.00  0.00     0.174 HD
ATOM    108  H35 ARG d   1      16.492  -1.229 -15.094  0.00  0.00     0.174 HD
ATOM    109  H31 ARG d   1      18.320   0.741 -12.841  0.00  0.00     0.177 HD
ENDBRANCH  98 101
ENDBRANCH  95  98
ENDBRANCH  92  95
ENDBRANCH   1  92
TORSDOF 32
