REMARK WARNING: 32 MAX_TORS EXCEEDED!!!
REMARK  33 active torsions:
REMARK  status: ('A' for Active; 'I' for Inactive)
REMARK    1  A    between atoms: C_1  and  CH3_3 
REMARK       I    between atoms: C_1  and  N_4 
REMARK    2  A    between atoms: N_4  and  CA_5 
REMARK    3  A    between atoms: CA_5  and  C_6 
REMARK    4  A    between atoms: CA_5  and  CB_8 
REMARK       I    between atoms: C_6  and  N_13 
REMARK    5  A    between atoms: CB_8  and  CG_9 
REMARK    6  A    between atoms: CG_9  and  CD_10 
REMARK       I    between atoms: CD_10  and  NE2_12 
REMARK    7  A    between atoms: N_13  and  CA_14 
REMARK    8  A    between atoms: CA_14  and  C_15 
REMARK    9  A    between atoms: CA_14  and  CB_17 
REMARK       I    between atoms: C_15  and  N_20 
REMARK   10  A    between atoms: CB_17  and  OG1_18 
REMARK   11  A    between atoms: CB_17  and  CG2_19 
REMARK   12  A    between atoms: N_20  and  CA_21 
REMARK   13  A    between atoms: CA_21  and  C_22 
REMARK   14  A    between atoms: CA_21  and  CB_24 
REMARK       I    between atoms: C_22  and  N_25 
REMARK   15  A    between atoms: N_25  and  CA_26 
REMARK   16  A    between atoms: CA_26  and  C_27 
REMARK   17  A    between atoms: CA_26  and  CB_29 
REMARK       I    between atoms: C_27  and  N_36 
REMARK   18  A    between atoms: CB_29  and  CG_30 
REMARK   19  A    between atoms: CG_30  and  CD_31 
REMARK   20  A    between atoms: CD_31  and  NE_32 
REMARK       I    between atoms: NE_32  and  CZ_33 
REMARK       I    between atoms: CZ_33  and  NH1_34 
REMARK   21  A    between atoms: N_36  and  CA_37 
REMARK   22  A    between atoms: CA_37  and  CB_38 
REMARK   23  A    between atoms: CA_37  and  C_48 
REMARK   24  A    between atoms: CB_38  and  CG_39 
REMARK   25  A    between atoms: CG_39  and  CD_40 
REMARK   26  A    between atoms: CD_40  and  CE_41 
REMARK   27  A    between atoms: CE_41  and  NZ_42 
REMARK       I    between atoms: NZ_42  and  CH_43 
REMARK   28  A    between atoms: CH_43  and  CX_45 
REMARK   29  A    between atoms: CY_46  and  CH3_47 
REMARK       I    between atoms: C_48  and  N_50 
REMARK   30  A    between atoms: N_50  and  CA_51 
REMARK   31  A    between atoms: CA_51  and  C_52 
REMARK   32  A    between atoms: CA_51  and  CB_54 
REMARK   33  A    between atoms: CB_54  and  OG_55 
ROOT
ATOM      1  CA  ARG d   1       4.193  47.768  11.216  0.00  0.00     0.089 C 
ATOM      2  H25 ARG d   1       3.685  47.764  10.240  0.00  0.00     0.087 H 
ENDROOT
BRANCH   1   3
ATOM      3  N   ARG d   1       5.610  47.462  10.991  0.00  0.00    -0.346 N 
ATOM      4  C   ALA d   1       6.025  46.761   9.935  0.00  0.00     0.240 C 
ATOM      5  O   ALA d   1       5.256  46.332   9.069  0.00  0.00    -0.271 OA
ATOM      6  H24 ARG d   1       6.287  47.789  11.651  0.00  0.00     0.163 HD
BRANCH   4   7
ATOM      7  CA  ALA d   1       7.523  46.490   9.853  0.00  0.00     0.086 C 
ATOM      8  H20 ALA d   1       7.978  46.740  10.822  0.00  0.00     0.086 H 
BRANCH   7   9
ATOM      9  N   ALA d   1       7.778  45.081   9.569  0.00  0.00    -0.346 N 
ATOM     10  C   THR d   1       7.328  44.119  10.378  0.00  0.00     0.243 C 
ATOM     11  O   THR d   1       6.705  44.362  11.416  0.00  0.00    -0.271 OA
ATOM     12  H19 ALA d   1       8.300  44.832   8.753  0.00  0.00     0.163 HD
BRANCH  10  13
ATOM     13  CA  THR d   1       7.613  42.669  10.005  0.00  0.00     0.113 C 
ATOM     14  H13 THR d   1       6.662  42.205   9.703  0.00  0.00     0.091 H 
BRANCH  13  15
ATOM     15  N   THR d   1       8.539  42.542   8.886  0.00  0.00    -0.344 N 
ATOM     16  C   GLN d   1       8.118  42.292   7.646  0.00  0.00     0.241 C 
ATOM     17  O   GLN d   1       6.924  42.116   7.376  0.00  0.00    -0.271 OA
ATOM     18  H12 THR d   1       9.519  42.645   9.054  0.00  0.00     0.163 HD
BRANCH  16  19
ATOM     19  CA  GLN d   1       9.152  42.242   6.526  0.00  0.00     0.089 C 
ATOM     20  H5  GLN d   1       8.730  42.769   5.657  0.00  0.00     0.087 H 
BRANCH  19  21
ATOM     21  N   GLN d   1      10.400  42.905   6.886  0.00  0.00    -0.348 N 
ATOM     22  C   ACE d   1      10.444  44.232   7.027  0.00  0.00     0.214 C 
ATOM     23  O   ACE d   1       9.463  44.953   6.864  0.00  0.00    -0.274 OA
ATOM     24  H4  GLN d   1      11.228  42.362   7.028  0.00  0.00     0.163 HD
BRANCH  22  25
ATOM     25  CH3 ACE d   1      11.797  44.827   7.404  0.00  0.00    -0.003 C 
ATOM     26  H1  ACE d   1      12.538  44.020   7.502  0.00  0.00     0.040 H 
ATOM     27  H2  ACE d   1      11.709  45.362   8.361  0.00  0.00     0.040 H 
ATOM     28  H3  ACE d   1      12.120  45.528   6.621  0.00  0.00     0.040 H 
ENDBRANCH  22  25
ENDBRANCH  19  21
BRANCH  19  29
ATOM     29  CB  GLN d   1       9.426  40.793   6.120  0.00  0.00    -0.030 C 
ATOM     30  H6  GLN d   1       8.467  40.256   6.083  0.00  0.00     0.037 H 
ATOM     31  H7  GLN d   1      10.073  40.335   6.882  0.00  0.00     0.037 H 
BRANCH  29  32
ATOM     32  CG  GLN d   1      10.108  40.655   4.764  0.00  0.00     0.011 C 
ATOM     33  H8  GLN d   1      11.001  41.297   4.752  0.00  0.00     0.047 H 
ATOM     34  H9  GLN d   1       9.408  40.986   3.982  0.00  0.00     0.047 H 
BRANCH  32  35
ATOM     35  CD  GLN d   1      10.531  39.228   4.466  0.00  0.00     0.215 C 
ATOM     36  OE1 GLN d   1      10.334  38.729   3.359  0.00  0.00    -0.274 OA
ATOM     37  NE2 GLN d   1      11.121  38.564   5.457  0.00  0.00    -0.370 N 
ATOM     38  H10 GLN d   1      11.421  37.620   5.318  0.00  0.00     0.159 HD
ATOM     39  H11 GLN d   1      11.264  39.009   6.341  0.00  0.00     0.159 HD
ENDBRANCH  32  35
ENDBRANCH  29  32
ENDBRANCH  19  29
ENDBRANCH  16  19
ENDBRANCH  13  15
BRANCH  13  40
ATOM     40  CB  THR d   1       8.142  41.924  11.236  0.00  0.00     0.060 C 
ATOM     41  H14 THR d   1       7.350  41.889  11.999  0.00  0.00     0.086 H 
BRANCH  40  42
ATOM     42  OG1 THR d   1       9.280  42.613  11.769  0.00  0.00    -0.393 OA
ATOM     43  H15 THR d   1       9.027  43.494  12.019  0.00  0.00     0.210 HD
ENDBRANCH  40  42
BRANCH  40  44
ATOM     44  CG2 THR d   1       8.543  40.504  10.873  0.00  0.00    -0.050 C 
ATOM     45  H16 THR d   1       8.919  39.989  11.769  0.00  0.00     0.031 H 
ATOM     46  H17 THR d   1       9.332  40.530  10.107  0.00  0.00     0.031 H 
ATOM     47  H18 THR d   1       7.668  39.965  10.480  0.00  0.00     0.031 H 
ENDBRANCH  40  44
ENDBRANCH  13  40
ENDBRANCH  10  13
ENDBRANCH   7   9
BRANCH   7  48
ATOM     48  CB  ALA d   1       8.156  47.367   8.773  0.00  0.00    -0.049 C 
ATOM     49  H21 ALA d   1       7.957  48.425   8.997  0.00  0.00     0.030 H 
ATOM     50  H22 ALA d   1       7.724  47.112   7.794  0.00  0.00     0.030 H 
ATOM     51  H23 ALA d   1       9.242  47.194   8.751  0.00  0.00     0.030 H 
ENDBRANCH   7  48
ENDBRANCH   4   7
ENDBRANCH   1   3
BRANCH   1  52
ATOM     52  C   ARG d   1       4.000  49.148  11.851  0.00  0.00     0.241 C 
ATOM     53  O   ARG d   1       4.842  49.598  12.630  0.00  0.00    -0.271 OA
ATOM     54  N   KCR d   1       2.891  49.808  11.523  0.00  0.00    -0.346 N 
ATOM     55  H37 KCR d   1       2.262  49.399  10.862  0.00  0.00     0.163 HD
BRANCH  54  56
ATOM     56  CA  KCR d   1       2.563  51.112  12.099  0.00  0.00     0.089 C 
ATOM     57  H38 KCR d   1       3.508  51.643  12.289  0.00  0.00     0.087 H 
BRANCH  56  58
ATOM     58  CB  KCR d   1       1.695  51.968  11.171  0.00  0.00    -0.038 C 
ATOM     59  H39 KCR d   1       1.765  53.019  11.489  0.00  0.00     0.036 H 
ATOM     60  H40 KCR d   1       0.651  51.630  11.250  0.00  0.00     0.036 H 
BRANCH  58  61
ATOM     61  CG  KCR d   1       2.135  51.866   9.719  0.00  0.00    -0.061 C 
ATOM     62  H41 KCR d   1       1.655  50.996   9.246  0.00  0.00     0.033 H 
ATOM     63  H42 KCR d   1       3.228  51.754   9.670  0.00  0.00     0.033 H 
BRANCH  61  64
ATOM     64  CD  KCR d   1       1.716  53.140   8.996  0.00  0.00    -0.050 C 
ATOM     65  H43 KCR d   1       2.158  54.016   9.493  0.00  0.00     0.035 H 
ATOM     66  H44 KCR d   1       0.620  53.230   8.999  0.00  0.00     0.035 H 
BRANCH  64  67
ATOM     67  CE  KCR d   1       2.225  53.043   7.566  0.00  0.00    -0.004 C 
ATOM     68  H45 KCR d   1       1.663  52.264   7.030  0.00  0.00     0.064 H 
ATOM     69  H46 KCR d   1       3.294  52.783   7.576  0.00  0.00     0.064 H 
BRANCH  67  70
ATOM     70  NZ  KCR d   1       2.045  54.314   6.894  0.00  0.00    -0.358 N 
ATOM     71  CH  KCR d   1       2.826  54.608   5.705  0.00  0.00     0.240 C 
ATOM     72  OH  KCR d   1       3.604  53.814   5.288  0.00  0.00    -0.269 OA
ATOM     73  H47 KCR d   1       1.389  54.982   7.245  0.00  0.00     0.162 HD
BRANCH  71  74
ATOM     74  CX  KCR d   1       2.631  55.950   5.002  0.00  0.00    -0.022 C 
ATOM     75  CY  KCR d   1       2.857  56.068   3.713  0.00  0.00    -0.102 C 
ATOM     76  H49 KCR d   1       3.189  55.208   3.133  0.00  0.00     0.076 H 
ATOM     77  H48 KCR d   1       2.302  56.816   5.574  0.00  0.00     0.091 H 
BRANCH  75  78
ATOM     78  CH3 KCR d   1       2.651  57.420   3.035  0.00  0.00    -0.059 C 
ATOM     79  H50 KCR d   1       2.885  57.333   1.964  0.00  0.00     0.032 H 
ATOM     80  H51 KCR d   1       3.315  58.166   3.496  0.00  0.00     0.032 H 
ATOM     81  H52 KCR d   1       1.604  57.736   3.156  0.00  0.00     0.032 H 
ENDBRANCH  75  78
ENDBRANCH  71  74
ENDBRANCH  67  70
ENDBRANCH  64  67
ENDBRANCH  61  64
ENDBRANCH  58  61
ENDBRANCH  56  58
BRANCH  56  82
ATOM     82  C   KCR d   1       1.797  50.973  13.417  0.00  0.00     0.241 C 
ATOM     83  O   KCR d   1       1.122  49.938  13.662  0.00  0.00    -0.271 OA
ATOM     84  N   SER d   1       1.880  52.011  14.246  0.00  0.00    -0.343 N 
ATOM     85  H53 SER d   1       2.462  52.784  13.993  0.00  0.00     0.163 HD
BRANCH  84  86
ATOM     86  CA  SER d   1       1.154  52.063  15.508  0.00  0.00     0.116 C 
ATOM     87  H54 SER d   1       1.252  51.084  16.000  0.00  0.00     0.093 H 
BRANCH  86  88
ATOM     88  C   SER d   1      -0.334  52.338  15.280  0.00  0.00     0.198 C 
ATOM     89  O   SER d   1      -0.713  52.965  14.291  0.00  0.00    -0.646 OA
ATOM     90  OXT SER d   1      -1.177  51.937  16.082  0.00  0.00    -0.646 OA
ENDBRANCH  86  88
BRANCH  86  91
ATOM     91  CB  SER d   1       1.752  53.129  16.431  0.00  0.00     0.045 C 
ATOM     92  H55 SER d   1       1.740  54.099  15.913  0.00  0.00     0.077 H 
ATOM     93  H56 SER d   1       2.790  52.854  16.671  0.00  0.00     0.077 H 
BRANCH  91  94
ATOM     94  OG  SER d   1       1.013  53.239  17.635  0.00  0.00    -0.398 OA
ATOM     95  H57 SER d   1       0.116  53.480  17.434  0.00  0.00     0.209 HD
ENDBRANCH  91  94
ENDBRANCH  86  91
ENDBRANCH  84  86
ENDBRANCH  56  82
ENDBRANCH  54  56
ENDBRANCH   1  52
BRANCH   1  96
ATOM     96  CB  ARG d   1       3.546  46.702  12.104  0.00  0.00    -0.036 C 
ATOM     97  H26 ARG d   1       2.481  46.953  12.216  0.00  0.00     0.036 H 
ATOM     98  H27 ARG d   1       4.036  46.736  13.088  0.00  0.00     0.036 H 
BRANCH  96  99
ATOM     99  CG  ARG d   1       3.642  45.279  11.579  0.00  0.00    -0.048 C 
ATOM    100  H28 ARG d   1       4.695  44.960  11.588  0.00  0.00     0.035 H 
ATOM    101  H29 ARG d   1       3.258  45.247  10.549  0.00  0.00     0.035 H 
BRANCH  99 102
ATOM    102  CD  ARG d   1       2.830  44.340  12.442  0.00  0.00     0.009 C 
ATOM    103  H30 ARG d   1       3.300  44.265  13.434  0.00  0.00     0.064 H 
ATOM    104  H31 ARG d   1       2.807  43.346  11.971  0.00  0.00     0.064 H 
BRANCH 102 105
ATOM    105  NE  ARG d   1       1.463  44.827  12.597  0.00  0.00    -0.227 N 
ATOM    106  CZ  ARG d   1       0.492  44.610  11.715  0.00  0.00     0.665 C 
ATOM    107  NH1 ARG d   1       0.738  43.908  10.615  0.00  0.00    -0.235 N 
ATOM    108  NH2 ARG d   1      -0.724  45.093  11.935  0.00  0.00    -0.235 N 
ATOM    109  H33 ARG d   1      -0.015  43.740   9.932  0.00  0.00     0.174 HD
ATOM    110  H34 ARG d   1       1.681  43.531  10.445  0.00  0.00     0.174 HD
ATOM    111  H35 ARG d   1      -0.915  45.638  12.788  0.00  0.00     0.174 HD
ATOM    112  H36 ARG d   1      -1.477  44.923  11.253  0.00  0.00     0.174 HD
ATOM    113  H32 ARG d   1       1.237  45.372  13.441  0.00  0.00     0.177 HD
ENDBRANCH 102 105
ENDBRANCH  99 102
ENDBRANCH  96  99
ENDBRANCH   1  96
TORSDOF 33
