REMARK WARNING: 32 MAX_TORS EXCEEDED!!!
REMARK  58 active torsions:
REMARK  status: ('A' for Active; 'I' for Inactive)
REMARK    1  A    between atoms: O1_27  and  C1_1 
REMARK    2  A    between atoms: C3_3  and  C2_2 
REMARK    3  A    between atoms: C2_2  and  O6_31 
REMARK    4  A    between atoms: C4_4  and  O4_32 
REMARK    5  A    between atoms: C5_5  and  O3_29 
REMARK    6  A    between atoms: C6_6  and  O5_28 
REMARK    7  A    between atoms: CBS_8  and  CBT_7 
REMARK    8  A    between atoms: CBR_9  and  CBS_8 
REMARK    9  A    between atoms: CBQ_10  and  CBR_9 
REMARK   10  A    between atoms: CBP_11  and  CBQ_10 
REMARK   11  A    between atoms: CBO_12  and  CBP_11 
REMARK   12  A    between atoms: CBN_13  and  CBO_12 
REMARK   13  A    between atoms: CBM_14  and  CBN_13 
REMARK   14  A    between atoms: CBL_15  and  CBM_14 
REMARK   15  A    between atoms: CBK_16  and  CBL_15 
REMARK   16  A    between atoms: CBJ_17  and  CBK_16 
REMARK   17  A    between atoms: CBI_18  and  CBJ_17 
REMARK   18  A    between atoms: CBH_19  and  CBI_18 
REMARK   19  A    between atoms: CBG_20  and  CBH_19 
REMARK   20  A    between atoms: CAQ_21  and  CBG_20 
REMARK   21  A    between atoms: CAQ_21  and  OAR_22 
REMARK   22  A    between atoms: CAP_23  and  CAQ_21 
REMARK   23  A    between atoms: CAP_23  and  OAS_24 
REMARK   24  A    between atoms: CAN_25  and  CAP_23 
REMARK   25  A    between atoms: CAM_26  and  CAN_25 
REMARK   26  A    between atoms: CAN_25  and  NAO_44 
REMARK   27  A    between atoms: CAM_26  and  O1_27 
REMARK   28  A    between atoms: O4_32  and  CAT_33 
REMARK   29  A    between atoms: CAT_33  and  CAU_34 
REMARK   30  A    between atoms: CAX_37  and  CBA_38 
REMARK   31  A    between atoms: CBA_38  and  CBD_39 
REMARK   32  A    between atoms: CBA_38  and  CBB_40 
REMARK   33  A    between atoms: CBA_38  and  CBC_41 
REMARK       I    between atoms: NAO_44  and  CBE_45 
REMARK   34  A    between atoms: CBE_45  and  CBU_47 
REMARK   35  A    between atoms: CBU_47  and  CBV_48 
REMARK   36  A    between atoms: CBV_48  and  CBW_49 
REMARK   37  A    between atoms: CBW_49  and  CBX_50 
REMARK   38  A    between atoms: CBX_50  and  CBY_51 
REMARK   39  A    between atoms: CBY_51  and  CBZ_52 
REMARK   40  A    between atoms: CBZ_52  and  CCA_53 
REMARK   41  A    between atoms: CCA_53  and  CCB_54 
REMARK   42  A    between atoms: CCB_54  and  CCC_55 
REMARK   43  A    between atoms: CCC_55  and  CCD_56 
REMARK   44  A    between atoms: CCD_56  and  CCE_57 
REMARK   45  A    between atoms: CCE_57  and  CCF_58 
REMARK   46  A    between atoms: CCF_58  and  CCG_59 
REMARK   47  A    between atoms: CCG_59  and  CCH_60 
REMARK   48  A    between atoms: CCH_60  and  CCI_61 
REMARK   49  A    between atoms: CCI_61  and  CCJ_62 
REMARK   50  A    between atoms: CCJ_62  and  CCK_63 
REMARK   51  A    between atoms: CCK_63  and  CCL_64 
REMARK   52  A    between atoms: CCL_64  and  CCM_65 
REMARK   53  A    between atoms: CCM_65  and  CCN_66 
REMARK   54  A    between atoms: CCN_66  and  CCO_67 
REMARK   55  A    between atoms: CCO_67  and  CCP_68 
REMARK   56  A    between atoms: CCP_68  and  CCQ_69 
REMARK   57  A    between atoms: CCQ_69  and  CCR_70 
REMARK   58  A    between atoms: CCR_70  and  CCS_71 
ROOT
ATOM      1  CAN JU1 d   1      92.590  27.890 170.323  0.00  0.00     0.060 C 
ATOM      2  H41 JU1 d   1      91.582  27.935 170.761  0.00  0.00     0.080 H 
ENDROOT
BRANCH   1   3
ATOM      3  CAP JU1 d   1      92.564  28.578 168.969  0.00  0.00     0.081 C 
ATOM      4  H39 JU1 d   1      93.582  28.602 168.552  0.00  0.00     0.090 H 
BRANCH   3   5
ATOM      5  CAQ JU1 d   1      91.630  27.899 167.946  0.00  0.00     0.062 C 
ATOM      6  H37 JU1 d   1      91.984  26.874 167.763  0.00  0.00     0.086 H 
BRANCH   5   7
ATOM      7  CBG JU1 d   1      90.196  27.829 168.488  0.00  0.00    -0.039 C 
ATOM      8  H35 JU1 d   1      90.165  27.099 169.311  0.00  0.00     0.036 H 
ATOM      9  H36 JU1 d   1      89.913  28.822 168.867  0.00  0.00     0.036 H 
BRANCH   7  10
ATOM     10  CBH JU1 d   1      89.178  27.402 167.407  0.00  0.00    -0.063 C 
ATOM     11  H33 JU1 d   1      88.168  27.402 167.843  0.00  0.00     0.033 H 
ATOM     12  H34 JU1 d   1      89.217  28.118 166.573  0.00  0.00     0.033 H 
BRANCH  10  13
ATOM     13  CBI JU1 d   1      89.496  26.001 166.880  0.00  0.00    -0.065 C 
ATOM     14  H31 JU1 d   1      90.354  26.060 166.195  0.00  0.00     0.033 H 
ATOM     15  H32 JU1 d   1      89.747  25.346 167.727  0.00  0.00     0.033 H 
BRANCH  13  16
ATOM     16  CBJ JU1 d   1      88.284  25.409 166.124  0.00  0.00    -0.065 C 
ATOM     17  H29 JU1 d   1      88.457  24.337 165.950  0.00  0.00     0.033 H 
ATOM     18  H30 JU1 d   1      87.379  25.540 166.736  0.00  0.00     0.033 H 
BRANCH  16  19
ATOM     19  CBK JU1 d   1      88.082  26.112 164.770  0.00  0.00    -0.065 C 
ATOM     20  H27 JU1 d   1      87.767  27.152 164.937  0.00  0.00     0.033 H 
ATOM     21  H28 JU1 d   1      89.025  26.101 164.204  0.00  0.00     0.033 H 
BRANCH  19  22
ATOM     22  CBL JU1 d   1      86.987  25.358 163.972  0.00  0.00    -0.065 C 
ATOM     23  H25 JU1 d   1      87.155  24.275 164.069  0.00  0.00     0.033 H 
ATOM     24  H26 JU1 d   1      86.001  25.615 164.387  0.00  0.00     0.033 H 
BRANCH  22  25
ATOM     25  CBM JU1 d   1      87.017  25.736 162.486  0.00  0.00    -0.065 C 
ATOM     26  H23 JU1 d   1      88.045  25.980 162.180  0.00  0.00     0.033 H 
ATOM     27  H24 JU1 d   1      86.642  24.901 161.877  0.00  0.00     0.033 H 
BRANCH  25  28
ATOM     28  CBN JU1 d   1      86.120  26.950 162.314  0.00  0.00    -0.065 C 
ATOM     29  H21 JU1 d   1      85.107  26.699 162.662  0.00  0.00     0.033 H 
ATOM     30  H22 JU1 d   1      86.520  27.779 162.917  0.00  0.00     0.033 H 
BRANCH  28  31
ATOM     31  CBO JU1 d   1      86.049  27.387 160.856  0.00  0.00    -0.065 C 
ATOM     32  H19 JU1 d   1      87.056  27.464 160.421  0.00  0.00     0.033 H 
ATOM     33  H20 JU1 d   1      85.448  26.681 160.265  0.00  0.00     0.033 H 
BRANCH  31  34
ATOM     34  CBP JU1 d   1      85.380  28.749 160.916  0.00  0.00    -0.065 C 
ATOM     35  H17 JU1 d   1      84.377  28.632 161.352  0.00  0.00     0.033 H 
ATOM     36  H18 JU1 d   1      85.982  29.412 161.555  0.00  0.00     0.033 H 
BRANCH  34  37
ATOM     37  CBQ JU1 d   1      85.246  29.382 159.544  0.00  0.00    -0.065 C 
ATOM     38  H15 JU1 d   1      86.224  29.755 159.206  0.00  0.00     0.033 H 
ATOM     39  H16 JU1 d   1      84.867  28.641 158.825  0.00  0.00     0.033 H 
BRANCH  37  40
ATOM     40  CBR JU1 d   1      84.252  30.552 159.666  0.00  0.00    -0.065 C 
ATOM     41  H13 JU1 d   1      83.350  30.322 159.080  0.00  0.00     0.033 H 
ATOM     42  H14 JU1 d   1      83.979  30.686 160.723  0.00  0.00     0.033 H 
BRANCH  40  43
ATOM     43  CBS JU1 d   1      84.869  31.830 159.147  0.00  0.00    -0.069 C 
ATOM     44  H11 JU1 d   1      85.704  32.121 159.801  0.00  0.00     0.032 H 
ATOM     45  H12 JU1 d   1      85.243  31.664 158.126  0.00  0.00     0.032 H 
BRANCH  43  46
ATOM     46  CBT JU1 d   1      83.822  32.958 159.127  0.00  0.00    -0.077 C 
ATOM     47  H8  JU1 d   1      84.285  33.881 158.748  0.00  0.00     0.027 H 
ATOM     48  H9  JU1 d   1      83.447  33.128 160.147  0.00  0.00     0.027 H 
ATOM     49  H10 JU1 d   1      82.986  32.671 158.472  0.00  0.00     0.027 H 
ENDBRANCH  43  46
ENDBRANCH  40  43
ENDBRANCH  37  40
ENDBRANCH  34  37
ENDBRANCH  31  34
ENDBRANCH  28  31
ENDBRANCH  25  28
ENDBRANCH  22  25
ENDBRANCH  19  22
ENDBRANCH  16  19
ENDBRANCH  13  16
ENDBRANCH  10  13
ENDBRANCH   7  10
ENDBRANCH   5   7
BRANCH   5  50
ATOM     50  OAR JU1 d   1      91.685  28.652 166.690  0.00  0.00    -0.393 OA
ATOM     51  H38 JU1 d   1      91.373  29.537 166.839  0.00  0.00     0.210 HD
ENDBRANCH   5  50
ENDBRANCH   3   5
BRANCH   3  52
ATOM     52  OAS JU1 d   1      92.108  29.895 169.228  0.00  0.00    -0.391 OA
ATOM     53  H40 JU1 d   1      92.109  30.394 168.419  0.00  0.00     0.210 HD
ENDBRANCH   3  52
ENDBRANCH   1   3
BRANCH   1  54
ATOM     54  CAM JU1 d   1      93.590  28.613 171.251  0.00  0.00     0.044 C 
ATOM     55  H42 JU1 d   1      93.612  28.127 172.238  0.00  0.00     0.077 H 
ATOM     56  H43 JU1 d   1      93.303  29.669 171.369  0.00  0.00     0.077 H 
BRANCH  54  57
ATOM     57  O1  JU1 d   1      94.862  28.518 170.631  0.00  0.00    -0.356 OA
BRANCH  57  58
ATOM     58  C1  JU1 d   1      95.934  29.109 171.358  0.00  0.00     0.158 C 
ATOM     59  C6  JU1 d   1      97.184  28.981 170.529  0.00  0.00     0.110 C 
ATOM     60  C5  JU1 d   1      97.528  27.523 170.326  0.00  0.00     0.092 C 
ATOM     61  H7  JU1 d   1      98.016  29.479 171.049  0.00  0.00     0.094 H 
ATOM     62  C4  JU1 d   1      97.675  26.848 171.673  0.00  0.00     0.093 C 
ATOM     63  H6  JU1 d   1      96.739  27.028 169.741  0.00  0.00     0.091 H 
ATOM     64  C3  JU1 d   1      96.406  27.057 172.486  0.00  0.00     0.089 C 
ATOM     65  H5  JU1 d   1      97.842  25.769 171.543  0.00  0.00     0.091 H 
ATOM     66  O2  JU1 d   1      96.111  28.451 172.623  0.00  0.00    -0.348 OA
ATOM     67  H4  JU1 d   1      95.576  26.531 171.993  0.00  0.00     0.090 H 
ATOM     68  H1  JU1 d   1      95.716  30.173 171.534  0.00  0.00     0.133 H 
BRANCH  59  69
ATOM     69  O5  JU1 d   1      96.978  29.604 169.264  0.00  0.00    -0.388 OA
ATOM     70  H44 JU1 d   1      96.264  29.171 168.811  0.00  0.00     0.210 HD
ENDBRANCH  59  69
BRANCH  60  71
ATOM     71  O3  JU1 d   1      98.768  27.441 169.642  0.00  0.00    -0.390 OA
ATOM     72  H45 JU1 d   1      98.694  27.876 168.801  0.00  0.00     0.210 HD
ENDBRANCH  60  71
BRANCH  62  73
ATOM     73  O4  JU1 d   1      98.827  27.444 172.286  0.00  0.00    -0.376 OA
BRANCH  73  74
ATOM     74  CAT JU1 d   1      99.619  26.470 173.035  0.00  0.00     0.044 C 
ATOM     75  H47 JU1 d   1      98.918  25.747 173.477  0.00  0.00     0.081 H 
ATOM     76  H48 JU1 d   1     100.138  27.015 173.837  0.00  0.00     0.081 H 
BRANCH  74  77
ATOM     77  CAU JU1 d   1     100.602  25.728 172.318  0.00  0.00    -0.035 A 
ATOM     78  CAV JU1 d   1     100.559  24.325 172.369  0.00  0.00    -0.074 A 
ATOM     79  CAW JU1 d   1     101.512  23.550 171.715  0.00  0.00    -0.076 A 
ATOM     80  H49 JU1 d   1      99.769  23.837 172.928  0.00  0.00     0.084 H 
ATOM     81  CAX JU1 d   1     102.561  24.137 170.991  0.00  0.00    -0.051 A 
ATOM     82  H50 JU1 d   1     101.442  22.469 171.766  0.00  0.00     0.084 H 
ATOM     83  CAY JU1 d   1     102.618  25.544 170.964  0.00  0.00    -0.076 A 
ATOM     84  CAZ JU1 d   1     101.653  26.335 171.622  0.00  0.00    -0.074 A 
ATOM     85  H60 JU1 d   1     103.423  26.031 170.425  0.00  0.00     0.084 H 
ATOM     86  H61 JU1 d   1     101.726  27.416 171.588  0.00  0.00     0.084 H 
BRANCH  81  87
ATOM     87  CBA JU1 d   1     103.554  23.331 170.316  0.00  0.00    -0.024 C 
BRANCH  87  88
ATOM     88  CBD JU1 d   1     103.376  23.381 168.794  0.00  0.00    -0.066 C 
ATOM     89  H51 JU1 d   1     104.146  22.759 168.314  0.00  0.00     0.028 H 
ATOM     90  H52 JU1 d   1     103.476  24.420 168.447  0.00  0.00     0.028 H 
ATOM     91  H53 JU1 d   1     102.379  23.000 168.529  0.00  0.00     0.028 H 
ENDBRANCH  87  88
BRANCH  87  92
ATOM     92  CBB JU1 d   1     103.495  21.850 170.740  0.00  0.00    -0.066 C 
ATOM     93  H54 JU1 d   1     103.620  21.776 171.830  0.00  0.00     0.028 H 
ATOM     94  H55 JU1 d   1     104.301  21.293 170.240  0.00  0.00     0.028 H 
ATOM     95  H56 JU1 d   1     102.522  21.425 170.452  0.00  0.00     0.028 H 
ENDBRANCH  87  92
BRANCH  87  96
ATOM     96  CBC JU1 d   1     104.976  23.839 170.628  0.00  0.00    -0.066 C 
ATOM     97  H57 JU1 d   1     105.059  24.897 170.339  0.00  0.00     0.028 H 
ATOM     98  H58 JU1 d   1     105.710  23.245 170.063  0.00  0.00     0.028 H 
ATOM     99  H59 JU1 d   1     105.174  23.737 171.705  0.00  0.00     0.028 H 
ENDBRANCH  87  96
ENDBRANCH  81  87
ENDBRANCH  74  77
ENDBRANCH  73  74
ENDBRANCH  62  73
BRANCH  64 100
ATOM    100  C2  JU1 d   1      96.555  26.578 173.941  0.00  0.00     0.043 C 
ATOM    101  H2  JU1 d   1      95.712  26.949 174.542  0.00  0.00     0.078 H 
ATOM    102  H3  JU1 d   1      97.499  26.955 174.361  0.00  0.00     0.078 H 
BRANCH 100 103
ATOM    103  O6  JU1 d   1      96.561  25.150 173.949  0.00  0.00    -0.398 OA
ATOM    104  H46 JU1 d   1      96.653  24.840 174.842  0.00  0.00     0.209 HD
ENDBRANCH 100 103
ENDBRANCH  64 100
ENDBRANCH  57  58
ENDBRANCH  54  57
ENDBRANCH   1  54
BRANCH   1 105
ATOM    105  NAO JU1 d   1      93.004  26.490 170.220  0.00  0.00    -0.352 N 
ATOM    106  CBE JU1 d   1      92.620  25.633 171.172  0.00  0.00     0.218 C 
ATOM    107  OBF JU1 d   1      91.866  25.932 172.104  0.00  0.00    -0.274 OA
ATOM    108  H62 JU1 d   1      93.564  26.180 169.452  0.00  0.00     0.163 HD
BRANCH 106 109
ATOM    109  CBU JU1 d   1      93.163  24.223 171.018  0.00  0.00     0.009 C 
ATOM    110  H63 JU1 d   1      93.946  24.057 171.772  0.00  0.00     0.047 H 
ATOM    111  H64 JU1 d   1      93.594  24.114 170.012  0.00  0.00     0.047 H 
BRANCH 109 112
ATOM    112  CBV JU1 d   1      92.061  23.174 171.205  0.00  0.00    -0.057 C 
ATOM    113  H65 JU1 d   1      91.466  23.441 172.090  0.00  0.00     0.033 H 
ATOM    114  H66 JU1 d   1      92.531  22.192 171.362  0.00  0.00     0.033 H 
BRANCH 112 115
ATOM    115  CBW JU1 d   1      91.130  23.084 169.997  0.00  0.00    -0.065 C 
ATOM    116  H67 JU1 d   1      91.697  22.759 169.112  0.00  0.00     0.033 H 
ATOM    117  H68 JU1 d   1      90.677  24.067 169.802  0.00  0.00     0.033 H 
BRANCH 115 118
ATOM    118  CBX JU1 d   1      90.024  22.051 170.319  0.00  0.00    -0.065 C 
ATOM    119  H69 JU1 d   1      89.530  22.345 171.257  0.00  0.00     0.033 H 
ATOM    120  H70 JU1 d   1      90.491  21.063 170.445  0.00  0.00     0.033 H 
BRANCH 118 121
ATOM    121  CBY JU1 d   1      88.964  21.954 169.217  0.00  0.00    -0.065 C 
ATOM    122  H71 JU1 d   1      89.430  21.637 168.272  0.00  0.00     0.033 H 
ATOM    123  H72 JU1 d   1      88.476  22.930 169.076  0.00  0.00     0.033 H 
BRANCH 121 124
ATOM    124  CBZ JU1 d   1      87.919  20.897 169.677  0.00  0.00    -0.065 C 
ATOM    125  H73 JU1 d   1      87.878  20.878 170.776  0.00  0.00     0.033 H 
ATOM    126  H74 JU1 d   1      88.214  19.905 169.304  0.00  0.00     0.033 H 
BRANCH 124 127
ATOM    127  CCA JU1 d   1      86.551  21.255 169.128  0.00  0.00    -0.065 C 
ATOM    128  H75 JU1 d   1      86.605  21.301 168.030  0.00  0.00     0.033 H 
ATOM    129  H76 JU1 d   1      86.252  22.237 169.522  0.00  0.00     0.033 H 
BRANCH 127 130
ATOM    130  CCB JU1 d   1      85.494  20.204 169.537  0.00  0.00    -0.065 C 
ATOM    131  H77 JU1 d   1      85.992  19.239 169.714  0.00  0.00     0.033 H 
ATOM    132  H78 JU1 d   1      84.759  20.094 168.726  0.00  0.00     0.033 H 
BRANCH 130 133
ATOM    133  CCC JU1 d   1      84.774  20.640 170.812  0.00  0.00    -0.065 C 
ATOM    134  H79 JU1 d   1      85.057  21.679 171.037  0.00  0.00     0.033 H 
ATOM    135  H80 JU1 d   1      85.094  19.986 171.637  0.00  0.00     0.033 H 
BRANCH 133 136
ATOM    136  CCD JU1 d   1      83.269  20.565 170.693  0.00  0.00    -0.065 C 
ATOM    137  H81 JU1 d   1      83.001  19.922 169.842  0.00  0.00     0.033 H 
ATOM    138  H82 JU1 d   1      82.864  21.575 170.531  0.00  0.00     0.033 H 
BRANCH 136 139
ATOM    139  CCE JU1 d   1      82.683  19.984 171.970  0.00  0.00    -0.065 C 
ATOM    140  H83 JU1 d   1      83.128  18.991 172.134  0.00  0.00     0.033 H 
ATOM    141  H84 JU1 d   1      81.596  19.881 171.836  0.00  0.00     0.033 H 
BRANCH 139 142
ATOM    142  CCF JU1 d   1      82.934  20.832 173.212  0.00  0.00    -0.065 C 
ATOM    143  H85 JU1 d   1      82.495  21.832 173.079  0.00  0.00     0.033 H 
ATOM    144  H86 JU1 d   1      84.016  20.927 173.389  0.00  0.00     0.033 H 
BRANCH 142 145
ATOM    145  CCG JU1 d   1      82.264  20.117 174.409  0.00  0.00    -0.065 C 
ATOM    146  H87 JU1 d   1      81.733  19.227 174.042  0.00  0.00     0.033 H 
ATOM    147  H88 JU1 d   1      81.546  20.804 174.880  0.00  0.00     0.033 H 
BRANCH 145 148
ATOM    148  CCH JU1 d   1      83.289  19.689 175.443  0.00  0.00    -0.065 C 
ATOM    149  H89 JU1 d   1      83.520  20.544 176.096  0.00  0.00     0.033 H 
ATOM    150  H90 JU1 d   1      84.205  19.363 174.928  0.00  0.00     0.033 H 
BRANCH 148 151
ATOM    151  CCI JU1 d   1      82.753  18.523 176.307  0.00  0.00    -0.065 C 
ATOM    152  H91 JU1 d   1      81.816  18.136 175.880  0.00  0.00     0.033 H 
ATOM    153  H92 JU1 d   1      82.572  18.868 177.336  0.00  0.00     0.033 H 
BRANCH 151 154
ATOM    154  CCJ JU1 d   1      83.824  17.429 176.301  0.00  0.00    -0.065 C 
ATOM    155  H93 JU1 d   1      84.743  17.838 176.746  0.00  0.00     0.033 H 
ATOM    156  H94 JU1 d   1      84.020  17.138 175.258  0.00  0.00     0.033 H 
BRANCH 154 157
ATOM    157  CCK JU1 d   1      83.418  16.180 177.086  0.00  0.00    -0.065 C 
ATOM    158  H95 JU1 d   1      82.650  15.630 176.523  0.00  0.00     0.033 H 
ATOM    159  H96 JU1 d   1      83.012  16.480 178.063  0.00  0.00     0.033 H 
BRANCH 157 160
ATOM    160  CCL JU1 d   1      84.640  15.273 177.300  0.00  0.00    -0.065 C 
ATOM    161  H97 JU1 d   1      84.364  14.478 178.008  0.00  0.00     0.033 H 
ATOM    162  H98 JU1 d   1      85.453  15.879 177.728  0.00  0.00     0.033 H 
BRANCH 160 163
ATOM    163  CCM JU1 d   1      85.155  14.612 175.998  0.00  0.00    -0.065 C 
ATOM    164  H99 JU1 d   1      84.521  14.919 175.153  0.00  0.00     0.033 H 
ATOM    165 0H10 JU1 d   1      85.121  13.518 176.102  0.00  0.00     0.033 H 
BRANCH 163 166
ATOM    166  CCN JU1 d   1      86.586  15.055 175.747  0.00  0.00    -0.065 C 
ATOM    167 1H10 JU1 d   1      87.067  15.235 176.720  0.00  0.00     0.033 H 
ATOM    168 2H10 JU1 d   1      86.561  15.992 175.172  0.00  0.00     0.033 H 
BRANCH 166 169
ATOM    169  CCO JU1 d   1      87.433  14.037 174.972  0.00  0.00    -0.065 C 
ATOM    170 3H10 JU1 d   1      87.342  13.058 175.465  0.00  0.00     0.033 H 
ATOM    171 4H10 JU1 d   1      88.483  14.364 174.997  0.00  0.00     0.033 H 
BRANCH 169 172
ATOM    172  CCP JU1 d   1      87.002  13.887 173.505  0.00  0.00    -0.065 C 
ATOM    173 5H10 JU1 d   1      85.969  13.511 173.477  0.00  0.00     0.033 H 
ATOM    174 6H10 JU1 d   1      87.669  13.163 173.013  0.00  0.00     0.033 H 
BRANCH 172 175
ATOM    175  CCQ JU1 d   1      87.063  15.195 172.748  0.00  0.00    -0.065 C 
ATOM    176 7H10 JU1 d   1      87.981  15.737 173.019  0.00  0.00     0.033 H 
ATOM    177 8H10 JU1 d   1      86.187  15.810 173.001  0.00  0.00     0.033 H 
BRANCH 175 178
ATOM    178  CCR JU1 d   1      87.066  14.896 171.252  0.00  0.00    -0.069 C 
ATOM    179 9H10 JU1 d   1      86.272  14.171 171.022  0.00  0.00     0.032 H 
ATOM    180 0H11 JU1 d   1      88.041  14.475 170.965  0.00  0.00     0.032 H 
BRANCH 178 181
ATOM    181  CCS JU1 d   1      86.819  16.184 170.471  0.00  0.00    -0.077 C 
ATOM    182 1H11 JU1 d   1      86.822  15.965 169.393  0.00  0.00     0.027 H 
ATOM    183 2H11 JU1 d   1      87.613  16.910 170.700  0.00  0.00     0.027 H 
ATOM    184 3H11 JU1 d   1      85.844  16.605 170.757  0.00  0.00     0.027 H 
ENDBRANCH 178 181
ENDBRANCH 175 178
ENDBRANCH 172 175
ENDBRANCH 169 172
ENDBRANCH 166 169
ENDBRANCH 163 166
ENDBRANCH 160 163
ENDBRANCH 157 160
ENDBRANCH 154 157
ENDBRANCH 151 154
ENDBRANCH 148 151
ENDBRANCH 145 148
ENDBRANCH 142 145
ENDBRANCH 139 142
ENDBRANCH 136 139
ENDBRANCH 133 136
ENDBRANCH 130 133
ENDBRANCH 127 130
ENDBRANCH 124 127
ENDBRANCH 121 124
ENDBRANCH 118 121
ENDBRANCH 115 118
ENDBRANCH 112 115
ENDBRANCH 109 112
ENDBRANCH 106 109
ENDBRANCH   1 105
TORSDOF 58
