REMARK WARNING: 32 MAX_TORS EXCEEDED!!!
REMARK  54 active torsions:
REMARK  status: ('A' for Active; 'I' for Inactive)
REMARK    1  A    between atoms: C3_1  and  C2_6 
REMARK    2  A    between atoms: C4_2  and  O4_32 
REMARK    3  A    between atoms: C5_3  and  O3_29 
REMARK    4  A    between atoms: C6_4  and  O5_28 
REMARK    5  A    between atoms: O1_27  and  C1_5 
REMARK    6  A    between atoms: C2_6  and  O6_31 
REMARK    7  A    between atoms: CBS_8  and  CBT_7 
REMARK    8  A    between atoms: CBR_9  and  CBS_8 
REMARK    9  A    between atoms: CBQ_10  and  CBR_9 
REMARK   10  A    between atoms: CBP_11  and  CBQ_10 
REMARK   11  A    between atoms: CBO_12  and  CBP_11 
REMARK   12  A    between atoms: CBN_13  and  CBO_12 
REMARK   13  A    between atoms: CBM_14  and  CBN_13 
REMARK   14  A    between atoms: CBL_15  and  CBM_14 
REMARK   15  A    between atoms: CBK_16  and  CBL_15 
REMARK   16  A    between atoms: CBJ_17  and  CBK_16 
REMARK   17  A    between atoms: CBI_18  and  CBJ_17 
REMARK   18  A    between atoms: CBH_19  and  CBI_18 
REMARK   19  A    between atoms: CBG_20  and  CBH_19 
REMARK   20  A    between atoms: CAQ_21  and  CBG_20 
REMARK   21  A    between atoms: CAQ_21  and  OAR_22 
REMARK   22  A    between atoms: CAP_23  and  CAQ_21 
REMARK   23  A    between atoms: CAP_23  and  OAS_24 
REMARK   24  A    between atoms: CAN_25  and  CAP_23 
REMARK   25  A    between atoms: CAM_26  and  CAN_25 
REMARK   26  A    between atoms: CAN_25  and  NAO_40 
REMARK   27  A    between atoms: CAM_26  and  O1_27 
REMARK   28  A    between atoms: O4_32  and  CAT_33 
REMARK   29  A    between atoms: CAT_33  and  CAU_34 
REMARK       I    between atoms: NAO_40  and  CBE_41 
REMARK   30  A    between atoms: CBE_41  and  CBU_43 
REMARK   31  A    between atoms: CBU_43  and  CBV_44 
REMARK   32  A    between atoms: CBV_44  and  CBW_45 
REMARK   33  A    between atoms: CBW_45  and  CBX_46 
REMARK   34  A    between atoms: CBX_46  and  CBY_47 
REMARK   35  A    between atoms: CBY_47  and  CBZ_48 
REMARK   36  A    between atoms: CBZ_48  and  CCA_49 
REMARK   37  A    between atoms: CCA_49  and  CCB_50 
REMARK   38  A    between atoms: CCB_50  and  CCC_51 
REMARK   39  A    between atoms: CCC_51  and  CCD_52 
REMARK   40  A    between atoms: CCD_52  and  CCE_53 
REMARK   41  A    between atoms: CCE_53  and  CCF_54 
REMARK   42  A    between atoms: CCF_54  and  CCG_55 
REMARK   43  A    between atoms: CCG_55  and  CCH_56 
REMARK   44  A    between atoms: CCH_56  and  CCI_57 
REMARK   45  A    between atoms: CCI_57  and  CCJ_58 
REMARK   46  A    between atoms: CCJ_58  and  CCK_59 
REMARK   47  A    between atoms: CCK_59  and  CCL_60 
REMARK   48  A    between atoms: CCL_60  and  CCM_61 
REMARK   49  A    between atoms: CCM_61  and  CCN_62 
REMARK   50  A    between atoms: CCN_62  and  CCO_63 
REMARK   51  A    between atoms: CCO_63  and  CCP_64 
REMARK   52  A    between atoms: CCP_64  and  CCQ_65 
REMARK   53  A    between atoms: CCQ_65  and  CCR_66 
REMARK   54  A    between atoms: CCR_66  and  CCS_67 
ROOT
ATOM      1  CAN JTV d   1     168.044  29.746 206.926  0.00  0.00     0.060 C 
ATOM      2  H41 JTV d   1     167.038  29.781 207.370  0.00  0.00     0.080 H 
ENDROOT
BRANCH   1   3
ATOM      3  CAP JTV d   1     168.028  30.469 205.565  0.00  0.00     0.081 C 
ATOM      4  H39 JTV d   1     169.065  30.537 205.204  0.00  0.00     0.090 H 
BRANCH   3   5
ATOM      5  CAQ JTV d   1     167.199  29.733 204.493  0.00  0.00     0.062 C 
ATOM      6  H37 JTV d   1     167.570  28.703 204.391  0.00  0.00     0.086 H 
BRANCH   5   7
ATOM      7  CBG JTV d   1     165.708  29.682 204.874  0.00  0.00    -0.039 C 
ATOM      8  H35 JTV d   1     165.569  28.934 205.668  0.00  0.00     0.036 H 
ATOM      9  H36 JTV d   1     165.401  30.671 205.244  0.00  0.00     0.036 H 
BRANCH   7  10
ATOM     10  CBH JTV d   1     164.823  29.303 203.672  0.00  0.00    -0.063 C 
ATOM     11  H33 JTV d   1     163.768  29.468 203.937  0.00  0.00     0.033 H 
ATOM     12  H34 JTV d   1     165.090  29.939 202.815  0.00  0.00     0.033 H 
BRANCH  10  13
ATOM     13  CBI JTV d   1     165.016  27.832 203.282  0.00  0.00    -0.065 C 
ATOM     14  H31 JTV d   1     165.897  27.744 202.629  0.00  0.00     0.033 H 
ATOM     15  H32 JTV d   1     165.173  27.235 204.192  0.00  0.00     0.033 H 
BRANCH  13  16
ATOM     16  CBJ JTV d   1     163.777  27.299 202.535  0.00  0.00    -0.065 C 
ATOM     17  H29 JTV d   1     163.878  26.212 202.403  0.00  0.00     0.033 H 
ATOM     18  H30 JTV d   1     162.879  27.514 203.132  0.00  0.00     0.033 H 
BRANCH  16  19
ATOM     19  CBK JTV d   1     163.631  27.961 201.151  0.00  0.00    -0.065 C 
ATOM     20  H27 JTV d   1     163.282  28.997 201.276  0.00  0.00     0.033 H 
ATOM     21  H28 JTV d   1     164.606  27.961 200.642  0.00  0.00     0.033 H 
BRANCH  19  22
ATOM     22  CBL JTV d   1     162.610  27.176 200.303  0.00  0.00    -0.065 C 
ATOM     23  H25 JTV d   1     162.890  26.112 200.298  0.00  0.00     0.033 H 
ATOM     24  H26 JTV d   1     161.611  27.290 200.749  0.00  0.00     0.033 H 
BRANCH  22  25
ATOM     25  CBM JTV d   1     162.575  27.693 198.853  0.00  0.00    -0.065 C 
ATOM     26  H23 JTV d   1     163.603  27.881 198.508  0.00  0.00     0.033 H 
ATOM     27  H24 JTV d   1     162.105  26.936 198.208  0.00  0.00     0.033 H 
BRANCH  25  28
ATOM     28  CBN JTV d   1     161.769  28.995 198.779  0.00  0.00    -0.065 C 
ATOM     29  H21 JTV d   1     160.770  28.825 199.206  0.00  0.00     0.033 H 
ATOM     30  H22 JTV d   1     162.288  29.774 199.357  0.00  0.00     0.033 H 
BRANCH  28  31
ATOM     31  CBO JTV d   1     161.622  29.462 197.326  0.00  0.00    -0.065 C 
ATOM     32  H19 JTV d   1     162.594  29.396 196.814  0.00  0.00     0.033 H 
ATOM     33  H20 JTV d   1     160.889  28.829 196.805  0.00  0.00     0.033 H 
BRANCH  31  34
ATOM     34  CBP JTV d   1     161.137  30.920 197.332  0.00  0.00    -0.065 C 
ATOM     35  H17 JTV d   1     160.398  31.052 198.136  0.00  0.00     0.033 H 
ATOM     36  H18 JTV d   1     161.994  31.585 197.510  0.00  0.00     0.033 H 
BRANCH  34  37
ATOM     37  CBQ JTV d   1     160.491  31.279 195.989  0.00  0.00    -0.065 C 
ATOM     38  H15 JTV d   1     161.281  31.490 195.253  0.00  0.00     0.033 H 
ATOM     39  H16 JTV d   1     159.884  30.430 195.642  0.00  0.00     0.033 H 
BRANCH  37  40
ATOM     40  CBR JTV d   1     159.591  32.518 196.133  0.00  0.00    -0.065 C 
ATOM     41  H13 JTV d   1     158.894  32.560 195.283  0.00  0.00     0.033 H 
ATOM     42  H14 JTV d   1     159.021  32.444 197.071  0.00  0.00     0.033 H 
BRANCH  40  43
ATOM     43  CBS JTV d   1     160.435  33.795 196.156  0.00  0.00    -0.069 C 
ATOM     44  H11 JTV d   1     160.924  33.891 197.136  0.00  0.00     0.032 H 
ATOM     45  H12 JTV d   1     161.201  33.741 195.368  0.00  0.00     0.032 H 
BRANCH  43  46
ATOM     46  CBT JTV d   1     159.539  35.017 195.912  0.00  0.00    -0.077 C 
ATOM     47  H8  JTV d   1     160.152  35.930 195.930  0.00  0.00     0.027 H 
ATOM     48  H9  JTV d   1     158.774  35.074 196.700  0.00  0.00     0.027 H 
ATOM     49  H10 JTV d   1     159.050  34.923 194.931  0.00  0.00     0.027 H 
ENDBRANCH  43  46
ENDBRANCH  40  43
ENDBRANCH  37  40
ENDBRANCH  34  37
ENDBRANCH  31  34
ENDBRANCH  28  31
ENDBRANCH  25  28
ENDBRANCH  22  25
ENDBRANCH  19  22
ENDBRANCH  16  19
ENDBRANCH  13  16
ENDBRANCH  10  13
ENDBRANCH   7  10
ENDBRANCH   5   7
BRANCH   5  50
ATOM     50  OAR JTV d   1     167.389  30.433 203.254  0.00  0.00    -0.393 OA
ATOM     51  H38 JTV d   1     167.065  31.322 203.341  0.00  0.00     0.210 HD
ENDBRANCH   5  50
ENDBRANCH   3   5
BRANCH   3  52
ATOM     52  OAS JTV d   1     167.512  31.794 205.739  0.00  0.00    -0.391 OA
ATOM     53  H40 JTV d   1     167.567  32.265 204.916  0.00  0.00     0.210 HD
ENDBRANCH   3  52
ENDBRANCH   1   3
BRANCH   1  54
ATOM     54  CAM JTV d   1     169.049  30.443 207.850  0.00  0.00     0.044 C 
ATOM     55  H42 JTV d   1     169.001  29.995 208.854  0.00  0.00     0.077 H 
ATOM     56  H43 JTV d   1     168.811  31.515 207.915  0.00  0.00     0.077 H 
BRANCH  54  57
ATOM     57  O1  JTV d   1     170.369  30.273 207.307  0.00  0.00    -0.356 OA
BRANCH  57  58
ATOM     58  C1  JTV d   1     171.393  30.943 208.065  0.00  0.00     0.158 C 
ATOM     59  C6  JTV d   1     172.695  30.876 207.312  0.00  0.00     0.110 C 
ATOM     60  C5  JTV d   1     173.132  29.425 207.149  0.00  0.00     0.092 C 
ATOM     61  H4  JTV d   1     173.468  31.428 207.867  0.00  0.00     0.094 H 
ATOM     62  C4  JTV d   1     173.217  28.698 208.488  0.00  0.00     0.093 C 
ATOM     63  H3  JTV d   1     172.408  28.902 206.508  0.00  0.00     0.091 H 
ATOM     64  C3  JTV d   1     171.918  28.951 209.303  0.00  0.00     0.089 C 
ATOM     65  H2  JTV d   1     173.303  27.616 208.307  0.00  0.00     0.091 H 
ATOM     66  O2  JTV d   1     171.598  30.349 209.351  0.00  0.00    -0.348 OA
ATOM     67  H1  JTV d   1     171.101  28.400 208.814  0.00  0.00     0.090 H 
ATOM     68  H5  JTV d   1     171.099  31.994 208.200  0.00  0.00     0.133 H 
BRANCH  59  69
ATOM     69  O5  JTV d   1     172.513  31.474 206.016  0.00  0.00    -0.388 OA
ATOM     70  H44 JTV d   1     171.841  30.999 205.541  0.00  0.00     0.210 HD
ENDBRANCH  59  69
BRANCH  60  71
ATOM     71  O3  JTV d   1     174.410  29.421 206.526  0.00  0.00    -0.390 OA
ATOM     72  H45 JTV d   1     174.349  29.844 205.678  0.00  0.00     0.210 HD
ENDBRANCH  60  71
BRANCH  62  73
ATOM     73  O4  JTV d   1     174.410  29.144 209.164  0.00  0.00    -0.376 OA
BRANCH  73  74
ATOM     74  CAT JTV d   1     175.101  28.120 209.920  0.00  0.00     0.044 C 
ATOM     75  H47 JTV d   1     174.370  27.358 210.229  0.00  0.00     0.081 H 
ATOM     76  H48 JTV d   1     175.548  28.583 210.812  0.00  0.00     0.081 H 
BRANCH  74  77
ATOM     77  CAU JTV d   1     176.118  27.492 209.185  0.00  0.00    -0.035 A 
ATOM     78  CAV JTV d   1     176.165  26.095 209.100  0.00  0.00    -0.075 A 
ATOM     79  CAW JTV d   1     177.182  25.463 208.381  0.00  0.00    -0.082 A 
ATOM     80  H49 JTV d   1     175.407  25.500 209.596  0.00  0.00     0.084 H 
ATOM     81  CAX JTV d   1     178.162  26.225 207.748  0.00  0.00    -0.083 A 
ATOM     82  H50 JTV d   1     177.209  24.381 208.315  0.00  0.00     0.083 H 
ATOM     83  CAY JTV d   1     178.123  27.617 207.835  0.00  0.00    -0.082 A 
ATOM     84  H51 JTV d   1     178.953  25.738 207.189  0.00  0.00     0.083 H 
ATOM     85  CAZ JTV d   1     177.107  28.248 208.554  0.00  0.00    -0.075 A 
ATOM     86  H52 JTV d   1     178.885  28.210 207.342  0.00  0.00     0.083 H 
ATOM     87  H53 JTV d   1     177.086  29.330 208.623  0.00  0.00     0.084 H 
ENDBRANCH  74  77
ENDBRANCH  73  74
ENDBRANCH  62  73
BRANCH  64  88
ATOM     88  C2  JTV d   1     172.004  28.519 210.779  0.00  0.00     0.043 C 
ATOM     89  H6  JTV d   1     171.150  28.942 211.329  0.00  0.00     0.078 H 
ATOM     90  H7  JTV d   1     172.942  28.897 211.211  0.00  0.00     0.078 H 
BRANCH  88  91
ATOM     91  O6  JTV d   1     171.976  27.092 210.895  0.00  0.00    -0.398 OA
ATOM     92  H46 JTV d   1     172.030  26.849 211.812  0.00  0.00     0.209 HD
ENDBRANCH  88  91
ENDBRANCH  64  88
ENDBRANCH  57  58
ENDBRANCH  54  57
ENDBRANCH   1  54
BRANCH   1  93
ATOM     93  NAO JTV d   1     168.469  28.342 206.772  0.00  0.00    -0.352 N 
ATOM     94  CBE JTV d   1     168.222  27.415 207.717  0.00  0.00     0.218 C 
ATOM     95  OBF JTV d   1     167.631  27.645 208.772  0.00  0.00    -0.274 OA
ATOM     96  H54 JTV d   1     168.955  28.070 205.941  0.00  0.00     0.163 HD
BRANCH  94  97
ATOM     97  CBU JTV d   1     168.743  26.005 207.394  0.00  0.00     0.009 C 
ATOM     98  H55 JTV d   1     169.622  25.797 208.022  0.00  0.00     0.047 H 
ATOM     99  H56 JTV d   1     169.033  25.966 206.334  0.00  0.00     0.047 H 
BRANCH  97 100
ATOM    100  CBV JTV d   1     167.680  24.933 207.657  0.00  0.00    -0.057 C 
ATOM    101  H57 JTV d   1     167.229  25.112 208.644  0.00  0.00     0.033 H 
ATOM    102  H58 JTV d   1     168.160  23.943 207.647  0.00  0.00     0.033 H 
BRANCH 100 103
ATOM    103  CBW JTV d   1     166.576  24.962 206.592  0.00  0.00    -0.065 C 
ATOM    104  H59 JTV d   1     166.966  24.585 205.635  0.00  0.00     0.033 H 
ATOM    105  H60 JTV d   1     166.209  25.990 206.459  0.00  0.00     0.033 H 
BRANCH 103 106
ATOM    106  CBX JTV d   1     165.441  24.060 207.087  0.00  0.00    -0.065 C 
ATOM    107  H61 JTV d   1     164.875  24.594 207.864  0.00  0.00     0.033 H 
ATOM    108  H62 JTV d   1     165.875  23.143 207.514  0.00  0.00     0.033 H 
BRANCH 106 109
ATOM    109  CBY JTV d   1     164.487  23.676 205.956  0.00  0.00    -0.065 C 
ATOM    110  H63 JTV d   1     165.060  23.311 205.091  0.00  0.00     0.033 H 
ATOM    111  H64 JTV d   1     163.890  24.550 205.657  0.00  0.00     0.033 H 
BRANCH 109 112
ATOM    112  CBZ JTV d   1     163.562  22.565 206.476  0.00  0.00    -0.065 C 
ATOM    113  H65 JTV d   1     163.249  22.806 207.502  0.00  0.00     0.033 H 
ATOM    114  H66 JTV d   1     164.107  21.610 206.474  0.00  0.00     0.033 H 
BRANCH 112 115
ATOM    115  CCA JTV d   1     162.320  22.438 205.587  0.00  0.00    -0.065 C 
ATOM    116  H67 JTV d   1     162.560  21.813 204.714  0.00  0.00     0.033 H 
ATOM    117  H68 JTV d   1     162.012  23.438 205.248  0.00  0.00     0.033 H 
BRANCH 115 118
ATOM    118  CCB JTV d   1     161.167  21.791 206.373  0.00  0.00    -0.065 C 
ATOM    119  H69 JTV d   1     161.571  21.002 207.025  0.00  0.00     0.033 H 
ATOM    120  H70 JTV d   1     160.449  21.351 205.666  0.00  0.00     0.033 H 
BRANCH 118 121
ATOM    121  CCC JTV d   1     160.448  22.844 207.237  0.00  0.00    -0.065 C 
ATOM    122  H71 JTV d   1     160.596  23.837 206.786  0.00  0.00     0.033 H 
ATOM    123  H72 JTV d   1     160.881  22.832 208.248  0.00  0.00     0.033 H 
BRANCH 121 124
ATOM    124  CCD JTV d   1     158.938  22.563 207.338  0.00  0.00    -0.065 C 
ATOM    125  H73 JTV d   1     158.631  21.945 206.481  0.00  0.00     0.033 H 
ATOM    126  H74 JTV d   1     158.394  23.519 207.315  0.00  0.00     0.033 H 
BRANCH 124 127
ATOM    127  CCE JTV d   1     158.592  21.822 208.638  0.00  0.00    -0.065 C 
ATOM    128  H75 JTV d   1     159.354  21.052 208.827  0.00  0.00     0.033 H 
ATOM    129  H76 JTV d   1     157.607  21.344 208.529  0.00  0.00     0.033 H 
BRANCH 127 130
ATOM    130  CCF JTV d   1     158.551  22.792 209.828  0.00  0.00    -0.065 C 
ATOM    131  H77 JTV d   1     157.942  23.669 209.563  0.00  0.00     0.033 H 
ATOM    132  H78 JTV d   1     159.574  23.116 210.070  0.00  0.00     0.033 H 
BRANCH 130 133
ATOM    133  CCG JTV d   1     157.934  22.092 211.051  0.00  0.00    -0.065 C 
ATOM    134  H79 JTV d   1     157.177  21.370 210.712  0.00  0.00     0.033 H 
ATOM    135  H80 JTV d   1     157.459  22.844 211.698  0.00  0.00     0.033 H 
BRANCH 133 136
ATOM    136  CCH JTV d   1     159.017  21.354 211.844  0.00  0.00    -0.065 C 
ATOM    137  H81 JTV d   1     159.416  22.024 212.619  0.00  0.00     0.033 H 
ATOM    138  H82 JTV d   1     159.827  21.060 211.161  0.00  0.00     0.033 H 
BRANCH 136 139
ATOM    139  CCI JTV d   1     158.443  20.099 212.512  0.00  0.00    -0.065 C 
ATOM    140  H83 JTV d   1     157.888  19.507 211.769  0.00  0.00     0.033 H 
ATOM    141  H84 JTV d   1     157.766  20.392 213.327  0.00  0.00     0.033 H 
BRANCH 139 142
ATOM    142  CCJ JTV d   1     159.595  19.264 213.077  0.00  0.00    -0.065 C 
ATOM    143  H85 JTV d   1     160.025  19.785 213.945  0.00  0.00     0.033 H 
ATOM    144  H86 JTV d   1     160.367  19.144 212.302  0.00  0.00     0.033 H 
BRANCH 142 145
ATOM    145  CCK JTV d   1     159.105  17.882 213.514  0.00  0.00    -0.065 C 
ATOM    146  H87 JTV d   1     158.470  17.451 212.726  0.00  0.00     0.033 H 
ATOM    147  H88 JTV d   1     158.524  17.975 214.443  0.00  0.00     0.033 H 
BRANCH 145 148
ATOM    148  CCL JTV d   1     160.316  16.969 213.755  0.00  0.00    -0.065 C 
ATOM    149  H89 JTV d   1     160.016  16.141 214.415  0.00  0.00     0.033 H 
ATOM    150  H90 JTV d   1     161.115  17.552 214.238  0.00  0.00     0.033 H 
BRANCH 148 151
ATOM    151  CCM JTV d   1     160.847  16.389 212.429  0.00  0.00    -0.065 C 
ATOM    152  H91 JTV d   1     160.331  16.875 211.588  0.00  0.00     0.033 H 
ATOM    153  H92 JTV d   1     160.653  15.307 212.402  0.00  0.00     0.033 H 
BRANCH 151 154
ATOM    154  CCN JTV d   1     162.355  16.635 212.308  0.00  0.00    -0.065 C 
ATOM    155  H93 JTV d   1     162.809  16.551 213.306  0.00  0.00     0.033 H 
ATOM    156  H94 JTV d   1     162.518  17.649 211.916  0.00  0.00     0.033 H 
BRANCH 154 157
ATOM    157  CCO JTV d   1     163.035  15.624 211.367  0.00  0.00    -0.065 C 
ATOM    158  H95 JTV d   1     162.865  14.610 211.758  0.00  0.00     0.033 H 
ATOM    159  H96 JTV d   1     164.115  15.833 211.347  0.00  0.00     0.033 H 
BRANCH 157 160
ATOM    160  CCP JTV d   1     162.495  15.693 209.933  0.00  0.00    -0.065 C 
ATOM    161  H97 JTV d   1     161.400  15.591 209.958  0.00  0.00     0.033 H 
ATOM    162  H98 JTV d   1     162.927  14.867 209.348  0.00  0.00     0.033 H 
BRANCH 160 163
ATOM    163  CCQ JTV d   1     162.855  17.016 209.263  0.00  0.00    -0.065 C 
ATOM    164  H99 JTV d   1     163.917  17.242 209.439  0.00  0.00     0.033 H 
ATOM    165 0H10 JTV d   1     162.235  17.822 209.681  0.00  0.00     0.033 H 
BRANCH 163 166
ATOM    166  CCR JTV d   1     162.597  16.898 207.757  0.00  0.00    -0.069 C 
ATOM    167 1H10 JTV d   1     161.574  16.529 207.590  0.00  0.00     0.032 H 
ATOM    168 2H10 JTV d   1     163.317  16.192 207.318  0.00  0.00     0.032 H 
BRANCH 166 169
ATOM    169  CCS JTV d   1     162.758  18.268 207.088  0.00  0.00    -0.077 C 
ATOM    170 3H10 JTV d   1     162.571  18.173 206.008  0.00  0.00     0.027 H 
ATOM    171 4H10 JTV d   1     163.781  18.638 207.252  0.00  0.00     0.027 H 
ATOM    172 5H10 JTV d   1     162.038  18.976 207.524  0.00  0.00     0.027 H 
ENDBRANCH 166 169
ENDBRANCH 163 166
ENDBRANCH 160 163
ENDBRANCH 157 160
ENDBRANCH 154 157
ENDBRANCH 151 154
ENDBRANCH 148 151
ENDBRANCH 145 148
ENDBRANCH 142 145
ENDBRANCH 139 142
ENDBRANCH 136 139
ENDBRANCH 133 136
ENDBRANCH 130 133
ENDBRANCH 127 130
ENDBRANCH 124 127
ENDBRANCH 121 124
ENDBRANCH 118 121
ENDBRANCH 115 118
ENDBRANCH 112 115
ENDBRANCH 109 112
ENDBRANCH 106 109
ENDBRANCH 103 106
ENDBRANCH 100 103
ENDBRANCH  97 100
ENDBRANCH  94  97
ENDBRANCH   1  93
TORSDOF 54
