REMARK WARNING: 32 MAX_TORS EXCEEDED!!!
REMARK  54 active torsions:
REMARK  status: ('A' for Active; 'I' for Inactive)
REMARK    1  A    between atoms: C4_1  and  O4_32 
REMARK    2  A    between atoms: C5_2  and  O3_29 
REMARK    3  A    between atoms: C6_3  and  O5_28 
REMARK    4  A    between atoms: C3_30  and  C2_5 
REMARK    5  A    between atoms: C2_5  and  O6_31 
REMARK    6  A    between atoms: CBS_7  and  CBT_6 
REMARK    7  A    between atoms: CBR_8  and  CBS_7 
REMARK    8  A    between atoms: CBQ_9  and  CBR_8 
REMARK    9  A    between atoms: CBP_10  and  CBQ_9 
REMARK   10  A    between atoms: CBO_11  and  CBP_10 
REMARK   11  A    between atoms: CBN_12  and  CBO_11 
REMARK   12  A    between atoms: CBM_13  and  CBN_12 
REMARK   13  A    between atoms: CBL_14  and  CBM_13 
REMARK   14  A    between atoms: CBK_15  and  CBL_14 
REMARK   15  A    between atoms: CBJ_16  and  CBK_15 
REMARK   16  A    between atoms: CBI_17  and  CBJ_16 
REMARK   17  A    between atoms: CBH_18  and  CBI_17 
REMARK   18  A    between atoms: CBG_19  and  CBH_18 
REMARK   19  A    between atoms: CAQ_20  and  CBG_19 
REMARK   20  A    between atoms: CAQ_20  and  OAR_21 
REMARK   21  A    between atoms: CAP_22  and  CAQ_20 
REMARK   22  A    between atoms: CAP_22  and  OAS_23 
REMARK   23  A    between atoms: CAN_24  and  CAP_22 
REMARK   24  A    between atoms: CAM_25  and  CAN_24 
REMARK   25  A    between atoms: CAN_24  and  NAO_42 
REMARK   26  A    between atoms: O1_26  and  CAM_25 
REMARK   27  A    between atoms: O1_26  and  C1_27 
REMARK   28  A    between atoms: O4_32  and  CAT_33 
REMARK   29  A    between atoms: CAT_33  and  CAU_34 
REMARK       I    between atoms: NAO_42  and  CBE_43 
REMARK   30  A    between atoms: CBE_43  and  CBU_45 
REMARK   31  A    between atoms: CBU_45  and  CBV_46 
REMARK   32  A    between atoms: CBV_46  and  CBW_47 
REMARK   33  A    between atoms: CBW_47  and  CBX_48 
REMARK   34  A    between atoms: CBX_48  and  CBY_49 
REMARK   35  A    between atoms: CBY_49  and  CBZ_50 
REMARK   36  A    between atoms: CBZ_50  and  CCA_51 
REMARK   37  A    between atoms: CCA_51  and  CCB_52 
REMARK   38  A    between atoms: CCB_52  and  CCC_53 
REMARK   39  A    between atoms: CCC_53  and  CCD_54 
REMARK   40  A    between atoms: CCD_54  and  CCE_55 
REMARK   41  A    between atoms: CCE_55  and  CCF_56 
REMARK   42  A    between atoms: CCF_56  and  CCG_57 
REMARK   43  A    between atoms: CCG_57  and  CCH_58 
REMARK   44  A    between atoms: CCH_58  and  CCI_59 
REMARK   45  A    between atoms: CCI_59  and  CCJ_60 
REMARK   46  A    between atoms: CCJ_60  and  CCK_61 
REMARK   47  A    between atoms: CCK_61  and  CCL_62 
REMARK   48  A    between atoms: CCL_62  and  CCM_63 
REMARK   49  A    between atoms: CCM_63  and  CCN_64 
REMARK   50  A    between atoms: CCN_64  and  CCO_65 
REMARK   51  A    between atoms: CCO_65  and  CCP_66 
REMARK   52  A    between atoms: CCP_66  and  CCQ_67 
REMARK   53  A    between atoms: CCQ_67  and  CCR_68 
REMARK   54  A    between atoms: CCR_68  and  CCS_69 
ROOT
ATOM      1  CAN JU4 d   1      92.558 219.065 321.545  0.00  0.00     0.060 C 
ATOM      2  H39 JU4 d   1      91.557 219.133 321.996  0.00  0.00     0.080 H 
ENDROOT
BRANCH   1   3
ATOM      3  CAP JU4 d   1      92.542 219.743 320.177  0.00  0.00     0.081 C 
ATOM      4  H37 JU4 d   1      93.563 219.733 319.767  0.00  0.00     0.090 H 
BRANCH   3   5
ATOM      5  CAQ JU4 d   1      91.610 219.043 319.168  0.00  0.00     0.062 C 
ATOM      6  H35 JU4 d   1      91.979 218.021 318.993  0.00  0.00     0.086 H 
BRANCH   5   7
ATOM      7  CBG JU4 d   1      90.169 218.955 319.694  0.00  0.00    -0.039 C 
ATOM      8  H33 JU4 d   1      90.125 218.200 320.492  0.00  0.00     0.036 H 
ATOM      9  H34 JU4 d   1      89.875 219.935 320.099  0.00  0.00     0.036 H 
BRANCH   7  10
ATOM     10  CBH JU4 d   1      89.182 218.558 318.569  0.00  0.00    -0.063 C 
ATOM     11  H31 JU4 d   1      88.157 218.576 318.968  0.00  0.00     0.033 H 
ATOM     12  H32 JU4 d   1      89.267 219.282 317.745  0.00  0.00     0.033 H 
BRANCH  10  13
ATOM     13  CBI JU4 d   1      89.487 217.150 318.033  0.00  0.00    -0.065 C 
ATOM     14  H29 JU4 d   1      90.344 217.206 317.345  0.00  0.00     0.033 H 
ATOM     15  H30 JU4 d   1      89.737 216.492 318.878  0.00  0.00     0.033 H 
BRANCH  13  16
ATOM     16  CBJ JU4 d   1      88.273 216.561 317.278  0.00  0.00    -0.065 C 
ATOM     17  H27 JU4 d   1      88.436 215.484 317.121  0.00  0.00     0.033 H 
ATOM     18  H28 JU4 d   1      87.367 216.711 317.883  0.00  0.00     0.033 H 
BRANCH  16  19
ATOM     19  CBK JU4 d   1      88.084 217.241 315.919  0.00  0.00    -0.065 C 
ATOM     20  H25 JU4 d   1      87.798 218.292 316.070  0.00  0.00     0.033 H 
ATOM     21  H26 JU4 d   1      89.024 217.194 315.350  0.00  0.00     0.033 H 
BRANCH  19  22
ATOM     22  CBL JU4 d   1      86.967 216.507 315.137  0.00  0.00    -0.065 C 
ATOM     23  H23 JU4 d   1      87.152 215.423 315.175  0.00  0.00     0.033 H 
ATOM     24  H24 JU4 d   1      85.995 216.729 315.601  0.00  0.00     0.033 H 
BRANCH  22  25
ATOM     25  CBM JU4 d   1      86.943 216.963 313.676  0.00  0.00    -0.065 C 
ATOM     26  H21 JU4 d   1      87.970 217.152 313.331  0.00  0.00     0.033 H 
ATOM     27  H22 JU4 d   1      86.485 216.181 313.053  0.00  0.00     0.033 H 
BRANCH  25  28
ATOM     28  CBN JU4 d   1      86.125 218.245 313.573  0.00  0.00    -0.065 C 
ATOM     29  H19 JU4 d   1      85.121 218.063 313.984  0.00  0.00     0.033 H 
ATOM     30  H20 JU4 d   1      86.622 219.035 314.155  0.00  0.00     0.033 H 
BRANCH  28  31
ATOM     31  CBO JU4 d   1      85.993 218.705 312.119  0.00  0.00    -0.065 C 
ATOM     32  H17 JU4 d   1      86.978 218.728 311.631  0.00  0.00     0.033 H 
ATOM     33  H18 JU4 d   1      85.323 218.034 311.561  0.00  0.00     0.033 H 
BRANCH  31  34
ATOM     34  CBP JU4 d   1      85.401 220.109 312.197  0.00  0.00    -0.065 C 
ATOM     35  H15 JU4 d   1      84.439 220.059 312.729  0.00  0.00     0.033 H 
ATOM     36  H16 JU4 d   1      86.095 220.755 312.755  0.00  0.00     0.033 H 
BRANCH  34  37
ATOM     37  CBQ JU4 d   1      85.168 220.713 310.823  0.00  0.00    -0.065 C 
ATOM     38  H13 JU4 d   1      86.120 221.083 310.413  0.00  0.00     0.033 H 
ATOM     39  H14 JU4 d   1      84.750 219.951 310.149  0.00  0.00     0.033 H 
BRANCH  37  40
ATOM     40  CBR JU4 d   1      84.178 221.878 310.967  0.00  0.00    -0.065 C 
ATOM     41  H11 JU4 d   1      83.226 221.605 310.489  0.00  0.00     0.033 H 
ATOM     42  H12 JU4 d   1      84.008 222.079 312.035  0.00  0.00     0.033 H 
BRANCH  40  43
ATOM     43  CBS JU4 d   1      84.730 223.127 310.305  0.00  0.00    -0.069 C 
ATOM     44  H9  JU4 d   1      85.681 223.402 310.785  0.00  0.00     0.032 H 
ATOM     45  H10 JU4 d   1      84.903 222.925 309.238  0.00  0.00     0.032 H 
BRANCH  43  46
ATOM     46  CBT JU4 d   1      83.736 224.290 310.446  0.00  0.00    -0.077 C 
ATOM     47  H6  JU4 d   1      84.150 225.187 309.962  0.00  0.00     0.027 H 
ATOM     48  H7  JU4 d   1      83.562 224.496 311.512  0.00  0.00     0.027 H 
ATOM     49  H8  JU4 d   1      82.785 224.020 309.965  0.00  0.00     0.027 H 
ENDBRANCH  43  46
ENDBRANCH  40  43
ENDBRANCH  37  40
ENDBRANCH  34  37
ENDBRANCH  31  34
ENDBRANCH  28  31
ENDBRANCH  25  28
ENDBRANCH  22  25
ENDBRANCH  19  22
ENDBRANCH  16  19
ENDBRANCH  13  16
ENDBRANCH  10  13
ENDBRANCH   7  10
ENDBRANCH   5   7
BRANCH   5  50
ATOM     50  OAR JU4 d   1      91.654 219.779 317.926  0.00  0.00    -0.393 OA
ATOM     51  H36 JU4 d   1      91.324 220.658 318.068  0.00  0.00     0.210 HD
ENDBRANCH   5  50
ENDBRANCH   3   5
BRANCH   3  52
ATOM     52  OAS JU4 d   1      92.126 221.089 320.368  0.00  0.00    -0.391 OA
ATOM     53  H38 JU4 d   1      92.159 221.550 319.538  0.00  0.00     0.210 HD
ENDBRANCH   3  52
ENDBRANCH   1   3
BRANCH   1  54
ATOM     54  CAM JU4 d   1      93.584 219.770 322.440  0.00  0.00     0.044 C 
ATOM     55  H40 JU4 d   1      93.576 219.322 323.445  0.00  0.00     0.077 H 
ATOM     56  H41 JU4 d   1      93.344 220.841 322.514  0.00  0.00     0.077 H 
BRANCH  54  57
ATOM     57  O1  JU4 d   1      94.871 219.600 321.841  0.00  0.00    -0.356 OA
BRANCH  57  58
ATOM     58  C1  JU4 d   1      95.919 220.262 322.545  0.00  0.00     0.158 C 
ATOM     59  C6  JU4 d   1      97.173 220.160 321.716  0.00  0.00     0.110 C 
ATOM     60  C5  JU4 d   1      97.547 218.684 321.570  0.00  0.00     0.092 C 
ATOM     61  H3  JU4 d   1      97.991 220.690 322.227  0.00  0.00     0.094 H 
ATOM     62  C4  JU4 d   1      97.774 218.087 322.957  0.00  0.00     0.093 C 
ATOM     63  H2  JU4 d   1      96.730 218.145 321.068  0.00  0.00     0.091 H 
ATOM     64  C3  JU4 d   1      96.487 218.263 323.784  0.00  0.00     0.089 C 
ATOM     65  H1  JU4 d   1      98.009 217.016 322.876  0.00  0.00     0.091 H 
ATOM     66  O2  JU4 d   1      96.123 219.639 323.838  0.00  0.00    -0.348 OA
ATOM     67  H45 JU4 d   1      95.684 217.685 323.303  0.00  0.00     0.090 H 
ATOM     68  H42 JU4 d   1      95.656 221.320 322.690  0.00  0.00     0.133 H 
BRANCH  59  69
ATOM     69  O5  JU4 d   1      96.958 220.770 320.418  0.00  0.00    -0.388 OA
ATOM     70  H43 JU4 d   1      96.250 220.321 319.972  0.00  0.00     0.210 HD
ENDBRANCH  59  69
BRANCH  60  71
ATOM     71  O3  JU4 d   1      98.740 218.573 320.789  0.00  0.00    -0.390 OA
ATOM     72  H44 JU4 d   1      98.591 218.950 319.930  0.00  0.00     0.210 HD
ENDBRANCH  60  71
BRANCH  62  73
ATOM     73  O4  JU4 d   1      98.894 218.784 323.545  0.00  0.00    -0.376 OA
BRANCH  73  74
ATOM     74  CAT JU4 d   1      99.775 218.030 324.408  0.00  0.00     0.044 C 
ATOM     75  H47 JU4 d   1      99.165 217.462 325.125  0.00  0.00     0.081 H 
ATOM     76  H48 JU4 d   1     100.422 218.733 324.953  0.00  0.00     0.081 H 
BRANCH  74  77
ATOM     77  CAU JU4 d   1     100.583 217.135 323.699  0.00  0.00    -0.033 A 
ATOM     78  CAV JU4 d   1     100.280 215.771 323.715  0.00  0.00    -0.052 A 
ATOM     79  CAW JU4 d   1     101.087 214.875 323.025  0.00  0.00     0.056 A 
ATOM     80  H49 JU4 d   1      99.417 215.413 324.265  0.00  0.00     0.087 H 
ATOM     81 CL1  JU4 d   1     100.709 213.182 323.038  0.00  0.00    -0.083 Cl
ATOM     82  CAX JU4 d   1     102.199 215.333 322.325  0.00  0.00     0.055 A 
ATOM     83 CL2  JU4 d   1     103.181 214.184 321.466  0.00  0.00    -0.083 Cl
ATOM     84  CAY JU4 d   1     102.508 216.692 322.309  0.00  0.00    -0.060 A 
ATOM     85  CAZ JU4 d   1     101.701 217.596 322.998  0.00  0.00    -0.073 A 
ATOM     86  H50 JU4 d   1     103.374 217.045 321.762  0.00  0.00     0.086 H 
ATOM     87  H51 JU4 d   1     101.940 218.653 322.990  0.00  0.00     0.084 H 
ENDBRANCH  74  77
ENDBRANCH  73  74
ENDBRANCH  62  73
BRANCH  64  88
ATOM     88  C2  JU4 d   1      96.635 217.801 325.248  0.00  0.00     0.043 C 
ATOM     89  H4  JU4 d   1      95.673 217.923 325.767  0.00  0.00     0.078 H 
ATOM     90  H5  JU4 d   1      97.401 218.412 325.747  0.00  0.00     0.078 H 
BRANCH  88  91
ATOM     91  O6  JU4 d   1      97.027 216.420 325.290  0.00  0.00    -0.398 OA
ATOM     92  H46 JU4 d   1      96.365 215.891 324.860  0.00  0.00     0.209 HD
ENDBRANCH  88  91
ENDBRANCH  64  88
ENDBRANCH  57  58
ENDBRANCH  54  57
ENDBRANCH   1  54
BRANCH   1  93
ATOM     93  NAO JU4 d   1      92.951 217.654 321.434  0.00  0.00    -0.352 N 
ATOM     94  CBE JU4 d   1      92.587 216.765 322.383  0.00  0.00     0.218 C 
ATOM     95  OBF JU4 d   1      91.885 217.035 323.361  0.00  0.00    -0.274 OA
ATOM     96  H52 JU4 d   1      93.492 217.350 320.650  0.00  0.00     0.163 HD
BRANCH  94  97
ATOM     97  CBU JU4 d   1      93.126 215.345 322.178  0.00  0.00     0.009 C 
ATOM     98  H53 JU4 d   1      93.949 215.167 322.885  0.00  0.00     0.047 H 
ATOM     99  H54 JU4 d   1      93.500 215.248 321.148  0.00  0.00     0.047 H 
BRANCH  97 100
ATOM    100  CBV JU4 d   1      92.031 214.302 322.413  0.00  0.00    -0.057 C 
ATOM    101  H55 JU4 d   1      91.448 214.586 323.301  0.00  0.00     0.033 H 
ATOM    102  H56 JU4 d   1      92.499 213.321 322.580  0.00  0.00     0.033 H 
BRANCH 100 103
ATOM    103  CBW JU4 d   1      91.098 214.211 321.213  0.00  0.00    -0.065 C 
ATOM    104  H57 JU4 d   1      91.646 213.831 320.339  0.00  0.00     0.033 H 
ATOM    105  H58 JU4 d   1      90.683 215.204 320.983  0.00  0.00     0.033 H 
BRANCH 103 106
ATOM    106  CBX JU4 d   1      89.966 213.243 321.584  0.00  0.00    -0.065 C 
ATOM    107  H59 JU4 d   1      89.444 213.626 322.473  0.00  0.00     0.033 H 
ATOM    108  H60 JU4 d   1      90.397 212.256 321.808  0.00  0.00     0.033 H 
BRANCH 106 109
ATOM    109  CBY JU4 d   1      88.964 213.100 320.442  0.00  0.00    -0.065 C 
ATOM    110  H61 JU4 d   1      89.476 212.754 319.532  0.00  0.00     0.033 H 
ATOM    111  H62 JU4 d   1      88.478 214.067 320.244  0.00  0.00     0.033 H 
BRANCH 109 112
ATOM    112  CBZ JU4 d   1      87.915 212.062 320.884  0.00  0.00    -0.065 C 
ATOM    113  H63 JU4 d   1      87.765 212.145 321.971  0.00  0.00     0.033 H 
ATOM    114  H64 JU4 d   1      88.283 211.054 320.640  0.00  0.00     0.033 H 
BRANCH 112 115
ATOM    115  CCA JU4 d   1      86.586 212.286 320.183  0.00  0.00    -0.065 C 
ATOM    116  H65 JU4 d   1      86.699 212.087 319.107  0.00  0.00     0.033 H 
ATOM    117  H66 JU4 d   1      86.262 213.327 320.331  0.00  0.00     0.033 H 
BRANCH 115 118
ATOM    118  CCB JU4 d   1      85.533 211.328 320.778  0.00  0.00    -0.065 C 
ATOM    119  H67 JU4 d   1      86.043 210.528 321.334  0.00  0.00     0.033 H 
ATOM    120  H68 JU4 d   1      84.940 210.888 319.963  0.00  0.00     0.033 H 
BRANCH 118 121
ATOM    121  CCC JU4 d   1      84.606 212.088 321.723  0.00  0.00    -0.065 C 
ATOM    122  H69 JU4 d   1      84.180 212.955 321.197  0.00  0.00     0.033 H 
ATOM    123  H70 JU4 d   1      85.179 212.434 322.596  0.00  0.00     0.033 H 
BRANCH 121 124
ATOM    124  CCD JU4 d   1      83.474 211.174 322.191  0.00  0.00    -0.065 C 
ATOM    125  H71 JU4 d   1      83.900 210.304 322.713  0.00  0.00     0.033 H 
ATOM    126  H72 JU4 d   1      82.898 210.832 321.318  0.00  0.00     0.033 H 
BRANCH 124 127
ATOM    127  CCE JU4 d   1      82.548 211.931 323.143  0.00  0.00    -0.065 C 
ATOM    128  H73 JU4 d   1      81.573 211.423 323.177  0.00  0.00     0.033 H 
ATOM    129  H74 JU4 d   1      82.414 212.959 322.774  0.00  0.00     0.033 H 
BRANCH 127 130
ATOM    130  CCF JU4 d   1      83.137 211.978 324.552  0.00  0.00    -0.065 C 
ATOM    131  H75 JU4 d   1      83.008 212.988 324.967  0.00  0.00     0.033 H 
ATOM    132  H76 JU4 d   1      84.209 211.733 324.507  0.00  0.00     0.033 H 
BRANCH 130 133
ATOM    133  CCG JU4 d   1      82.428 210.973 325.445  0.00  0.00    -0.065 C 
ATOM    134  H77 JU4 d   1      82.398 209.993 324.945  0.00  0.00     0.033 H 
ATOM    135  H78 JU4 d   1      81.401 211.316 325.642  0.00  0.00     0.033 H 
BRANCH 133 136
ATOM    136  CCH JU4 d   1      83.188 210.851 326.764  0.00  0.00    -0.065 C 
ATOM    137  H79 JU4 d   1      82.993 211.740 327.382  0.00  0.00     0.033 H 
ATOM    138  H80 JU4 d   1      84.266 210.776 326.559  0.00  0.00     0.033 H 
BRANCH 136 139
ATOM    139  CCI JU4 d   1      82.726 209.602 327.512  0.00  0.00    -0.065 C 
ATOM    140  H81 JU4 d   1      81.815 209.208 327.038  0.00  0.00     0.033 H 
ATOM    141  H82 JU4 d   1      82.512 209.861 328.559  0.00  0.00     0.033 H 
BRANCH 139 142
ATOM    142  CCJ JU4 d   1      83.825 208.539 327.465  0.00  0.00    -0.065 C 
ATOM    143  H83 JU4 d   1      84.731 208.933 327.949  0.00  0.00     0.033 H 
ATOM    144  H84 JU4 d   1      84.047 208.293 326.416  0.00  0.00     0.033 H 
BRANCH 142 145
ATOM    145  CCK JU4 d   1      83.372 207.270 328.197  0.00  0.00    -0.065 C 
ATOM    146  H85 JU4 d   1      82.622 206.748 327.585  0.00  0.00     0.033 H 
ATOM    147  H86 JU4 d   1      82.927 207.549 329.163  0.00  0.00     0.033 H 
BRANCH 145 148
ATOM    148  CCL JU4 d   1      84.560 206.338 328.441  0.00  0.00    -0.065 C 
ATOM    149  H87 JU4 d   1      84.235 205.511 329.089  0.00  0.00     0.033 H 
ATOM    150  H88 JU4 d   1      85.358 206.905 328.943  0.00  0.00     0.033 H 
BRANCH 148 151
ATOM    151  CCM JU4 d   1      85.117 205.751 327.124  0.00  0.00    -0.065 C 
ATOM    152  H89 JU4 d   1      84.398 205.933 326.312  0.00  0.00     0.033 H 
ATOM    153  H90 JU4 d   1      85.268 204.668 327.244  0.00  0.00     0.033 H 
BRANCH 151 154
ATOM    154  CCN JU4 d   1      86.448 206.410 326.776  0.00  0.00    -0.065 C 
ATOM    155  H91 JU4 d   1      86.860 206.868 327.687  0.00  0.00     0.033 H 
ATOM    156  H92 JU4 d   1      86.265 207.191 326.023  0.00  0.00     0.033 H 
BRANCH 154 157
ATOM    157  CCO JU4 d   1      87.485 205.423 326.214  0.00  0.00    -0.065 C 
ATOM    158  H93 JU4 d   1      87.475 204.517 326.838  0.00  0.00     0.033 H 
ATOM    159  H94 JU4 d   1      88.477 205.894 326.267  0.00  0.00     0.033 H 
BRANCH 157 160
ATOM    160  CCP JU4 d   1      87.222 205.011 324.757  0.00  0.00    -0.065 C 
ATOM    161  H95 JU4 d   1      86.393 204.288 324.740  0.00  0.00     0.033 H 
ATOM    162  H96 JU4 d   1      88.130 204.537 324.356  0.00  0.00     0.033 H 
BRANCH 160 163
ATOM    163  CCQ JU4 d   1      86.857 206.193 323.870  0.00  0.00    -0.065 C 
ATOM    164  H97 JU4 d   1      87.502 207.049 324.116  0.00  0.00     0.033 H 
ATOM    165  H98 JU4 d   1      85.805 206.467 324.038  0.00  0.00     0.033 H 
BRANCH 163 166
ATOM    166  CCR JU4 d   1      87.055 205.811 322.407  0.00  0.00    -0.069 C 
ATOM    167  H99 JU4 d   1      86.458 204.916 322.178  0.00  0.00     0.032 H 
ATOM    168 0H10 JU4 d   1      88.119 205.599 322.225  0.00  0.00     0.032 H 
BRANCH 166 169
ATOM    169  CCS JU4 d   1      86.606 206.964 321.512  0.00  0.00    -0.077 C 
ATOM    170 1H10 JU4 d   1      86.749 206.687 320.457  0.00  0.00     0.027 H 
ATOM    171 2H10 JU4 d   1      87.203 207.859 321.740  0.00  0.00     0.027 H 
ATOM    172 3H10 JU4 d   1      85.542 207.177 321.694  0.00  0.00     0.027 H 
ENDBRANCH 166 169
ENDBRANCH 163 166
ENDBRANCH 160 163
ENDBRANCH 157 160
ENDBRANCH 154 157
ENDBRANCH 151 154
ENDBRANCH 148 151
ENDBRANCH 145 148
ENDBRANCH 142 145
ENDBRANCH 139 142
ENDBRANCH 136 139
ENDBRANCH 133 136
ENDBRANCH 130 133
ENDBRANCH 127 130
ENDBRANCH 124 127
ENDBRANCH 121 124
ENDBRANCH 118 121
ENDBRANCH 115 118
ENDBRANCH 112 115
ENDBRANCH 109 112
ENDBRANCH 106 109
ENDBRANCH 103 106
ENDBRANCH 100 103
ENDBRANCH  97 100
ENDBRANCH  94  97
ENDBRANCH   1  93
TORSDOF 54
