REMARK WARNING: 32 MAX_TORS EXCEEDED!!!
REMARK  55 active torsions:
REMARK  status: ('A' for Active; 'I' for Inactive)
REMARK    1  A    between atoms: O1_8  and  C1_1 
REMARK    2  A    between atoms: C5_2  and  O3_9 
REMARK    3  A    between atoms: C4_3  and  O4_7 
REMARK    4  A    between atoms: C3_4  and  C2_5 
REMARK    5  A    between atoms: C2_5  and  O6_32 
REMARK    6  A    between atoms: C6_6  and  O5_30 
REMARK    7  A    between atoms: O4_7  and  CAT_33 
REMARK    8  A    between atoms: CAM_29  and  O1_8 
REMARK    9  A    between atoms: CBS_11  and  CBT_10 
REMARK   10  A    between atoms: CBR_12  and  CBS_11 
REMARK   11  A    between atoms: CBQ_13  and  CBR_12 
REMARK   12  A    between atoms: CBP_14  and  CBQ_13 
REMARK   13  A    between atoms: CBO_15  and  CBP_14 
REMARK   14  A    between atoms: CBN_16  and  CBO_15 
REMARK   15  A    between atoms: CBM_17  and  CBN_16 
REMARK   16  A    between atoms: CBL_18  and  CBM_17 
REMARK   17  A    between atoms: CBK_19  and  CBL_18 
REMARK   18  A    between atoms: CBJ_20  and  CBK_19 
REMARK   19  A    between atoms: CBI_21  and  CBJ_20 
REMARK   20  A    between atoms: CBH_22  and  CBI_21 
REMARK   21  A    between atoms: CBG_23  and  CBH_22 
REMARK   22  A    between atoms: CAQ_24  and  CBG_23 
REMARK   23  A    between atoms: CAQ_24  and  OAR_25 
REMARK   24  A    between atoms: CAP_26  and  CAQ_24 
REMARK   25  A    between atoms: CAP_26  and  OAS_27 
REMARK   26  A    between atoms: CAN_28  and  CAP_26 
REMARK   27  A    between atoms: CAN_28  and  CAM_29 
REMARK   28  A    between atoms: CAN_28  and  NAO_44 
REMARK   29  A    between atoms: CAT_33  and  CAU_34 
REMARK   30  A    between atoms: CAX_37  and  CBA_38 
REMARK       I    between atoms: NAO_44  and  CBE_45 
REMARK   31  A    between atoms: CBE_45  and  CBU_47 
REMARK   32  A    between atoms: CBU_47  and  CBV_48 
REMARK   33  A    between atoms: CBV_48  and  CBW_49 
REMARK   34  A    between atoms: CBW_49  and  CBX_50 
REMARK   35  A    between atoms: CBX_50  and  CBY_51 
REMARK   36  A    between atoms: CBY_51  and  CBZ_52 
REMARK   37  A    between atoms: CBZ_52  and  CCA_53 
REMARK   38  A    between atoms: CCA_53  and  CCB_54 
REMARK   39  A    between atoms: CCB_54  and  CCC_55 
REMARK   40  A    between atoms: CCC_55  and  CCD_56 
REMARK   41  A    between atoms: CCD_56  and  CCE_57 
REMARK   42  A    between atoms: CCE_57  and  CCF_58 
REMARK   43  A    between atoms: CCF_58  and  CCG_59 
REMARK   44  A    between atoms: CCG_59  and  CCH_60 
REMARK   45  A    between atoms: CCH_60  and  CCI_61 
REMARK   46  A    between atoms: CCI_61  and  CCJ_62 
REMARK   47  A    between atoms: CCJ_62  and  CCK_63 
REMARK   48  A    between atoms: CCK_63  and  CCL_64 
REMARK   49  A    between atoms: CCL_64  and  CCM_65 
REMARK   50  A    between atoms: CCM_65  and  CCN_66 
REMARK   51  A    between atoms: CCN_66  and  CCO_67 
REMARK   52  A    between atoms: CCO_67  and  CCP_68 
REMARK   53  A    between atoms: CCP_68  and  CCQ_69 
REMARK   54  A    between atoms: CCQ_69  and  CCR_70 
REMARK   55  A    between atoms: CCR_70  and  CCS_71 
ROOT
ATOM      1  CAN JUD d   1     -53.059 -30.961 207.676  0.00  0.00     0.060 C 
ATOM      2  H42 JUD d   1     -52.053 -31.072 208.106  0.00  0.00     0.080 H 
ENDROOT
BRANCH   1   3
ATOM      3  CAP JUD d   1     -53.085 -31.599 206.272  0.00  0.00     0.081 C 
ATOM      4  H40 JUD d   1     -54.111 -31.528 205.882  0.00  0.00     0.090 H 
BRANCH   3   5
ATOM      5  CAQ JUD d   1     -52.142 -30.890 205.279  0.00  0.00     0.062 C 
ATOM      6  H38 JUD d   1     -52.435 -29.833 205.199  0.00  0.00     0.086 H 
BRANCH   5   7
ATOM      7  CBG JUD d   1     -50.672 -30.961 205.734  0.00  0.00    -0.039 C 
ATOM      8  H36 JUD d   1     -50.526 -30.274 206.581  0.00  0.00     0.036 H 
ATOM      9  H37 JUD d   1     -50.446 -31.989 206.053  0.00  0.00     0.036 H 
BRANCH   7  10
ATOM     10  CBH JUD d   1     -49.711 -30.566 204.597  0.00  0.00    -0.063 C 
ATOM     11  H34 JUD d   1     -48.675 -30.628 204.962  0.00  0.00     0.033 H 
ATOM     12  H35 JUD d   1     -49.844 -31.260 203.754  0.00  0.00     0.033 H 
BRANCH  10  13
ATOM     13  CBI JUD d   1     -49.993 -29.132 204.119  0.00  0.00    -0.065 C 
ATOM     14  H32 JUD d   1     -50.855 -29.142 203.436  0.00  0.00     0.033 H 
ATOM     15  H33 JUD d   1     -50.222 -28.500 204.989  0.00  0.00     0.033 H 
BRANCH  13  16
ATOM     16  CBJ JUD d   1     -48.773 -28.555 203.383  0.00  0.00    -0.065 C 
ATOM     17  H30 JUD d   1     -48.862 -27.459 203.338  0.00  0.00     0.033 H 
ATOM     18  H31 JUD d   1     -47.858 -28.827 203.930  0.00  0.00     0.033 H 
BRANCH  16  19
ATOM     19  CBK JUD d   1     -48.694 -29.115 201.956  0.00  0.00    -0.065 C 
ATOM     20  H28 JUD d   1     -48.475 -30.192 201.996  0.00  0.00     0.033 H 
ATOM     21  H29 JUD d   1     -49.655 -28.955 201.446  0.00  0.00     0.033 H 
BRANCH  19  22
ATOM     22  CBL JUD d   1     -47.579 -28.395 201.185  0.00  0.00    -0.065 C 
ATOM     23  H26 JUD d   1     -47.751 -27.309 201.231  0.00  0.00     0.033 H 
ATOM     24  H27 JUD d   1     -46.609 -28.633 201.646  0.00  0.00     0.033 H 
BRANCH  22  25
ATOM     25  CBM JUD d   1     -47.562 -28.841 199.716  0.00  0.00    -0.065 C 
ATOM     26  H24 JUD d   1     -48.579 -29.128 199.411  0.00  0.00     0.033 H 
ATOM     27  H25 JUD d   1     -47.211 -28.010 199.087  0.00  0.00     0.033 H 
BRANCH  25  28
ATOM     28  CBN JUD d   1     -46.624 -30.038 199.544  0.00  0.00    -0.065 C 
ATOM     29  H22 JUD d   1     -45.613 -29.761 199.878  0.00  0.00     0.033 H 
ATOM     30  H23 JUD d   1     -46.992 -30.880 200.149  0.00  0.00     0.033 H 
BRANCH  28  31
ATOM     31  CBO JUD d   1     -46.576 -30.454 198.069  0.00  0.00    -0.065 C 
ATOM     32  H20 JUD d   1     -47.526 -30.936 197.793  0.00  0.00     0.033 H 
ATOM     33  H21 JUD d   1     -46.421 -29.563 197.442  0.00  0.00     0.033 H 
BRANCH  31  34
ATOM     34  CBP JUD d   1     -45.420 -31.441 197.849  0.00  0.00    -0.065 C 
ATOM     35  H18 JUD d   1     -44.592 -30.923 197.344  0.00  0.00     0.033 H 
ATOM     36  H19 JUD d   1     -45.076 -31.820 198.823  0.00  0.00     0.033 H 
BRANCH  34  37
ATOM     37  CBQ JUD d   1     -45.885 -32.618 196.983  0.00  0.00    -0.065 C 
ATOM     38  H16 JUD d   1     -46.704 -33.145 197.494  0.00  0.00     0.033 H 
ATOM     39  H17 JUD d   1     -46.240 -32.239 196.013  0.00  0.00     0.033 H 
BRANCH  37  40
ATOM     40  CBR JUD d   1     -44.719 -33.591 196.753  0.00  0.00    -0.065 C 
ATOM     41  H14 JUD d   1     -44.252 -33.376 195.780  0.00  0.00     0.033 H 
ATOM     42  H15 JUD d   1     -43.975 -33.464 197.553  0.00  0.00     0.033 H 
BRANCH  40  43
ATOM     43  CBS JUD d   1     -45.233 -35.036 196.762  0.00  0.00    -0.069 C 
ATOM     44  H12 JUD d   1     -45.723 -35.243 197.725  0.00  0.00     0.032 H 
ATOM     45  H13 JUD d   1     -45.958 -35.171 195.946  0.00  0.00     0.032 H 
BRANCH  43  46
ATOM     46  CBT JUD d   1     -44.062 -36.005 196.568  0.00  0.00    -0.077 C 
ATOM     47  H9  JUD d   1     -44.437 -37.039 196.575  0.00  0.00     0.027 H 
ATOM     48  H10 JUD d   1     -43.337 -35.872 197.384  0.00  0.00     0.027 H 
ATOM     49  H11 JUD d   1     -43.572 -35.800 195.605  0.00  0.00     0.027 H 
ENDBRANCH  43  46
ENDBRANCH  40  43
ENDBRANCH  37  40
ENDBRANCH  34  37
ENDBRANCH  31  34
ENDBRANCH  28  31
ENDBRANCH  25  28
ENDBRANCH  22  25
ENDBRANCH  19  22
ENDBRANCH  16  19
ENDBRANCH  13  16
ENDBRANCH  10  13
ENDBRANCH   7  10
ENDBRANCH   5   7
BRANCH   5  50
ATOM     50  OAR JUD d   1     -52.289 -31.522 204.003  0.00  0.00    -0.393 OA
ATOM     51  H39 JUD d   1     -52.025 -32.432 204.069  0.00  0.00     0.210 HD
ENDBRANCH   5  50
ENDBRANCH   3   5
BRANCH   3  52
ATOM     52  OAS JUD d   1     -52.720 -32.980 206.366  0.00  0.00    -0.391 OA
ATOM     53  H41 JUD d   1     -52.795 -33.385 205.510  0.00  0.00     0.210 HD
ENDBRANCH   3  52
ENDBRANCH   1   3
BRANCH   1  54
ATOM     54  CAM JUD d   1     -54.086 -31.657 208.580  0.00  0.00     0.044 C 
ATOM     55  H43 JUD d   1     -53.893 -32.740 208.594  0.00  0.00     0.077 H 
ATOM     56  H44 JUD d   1     -54.009 -31.258 209.602  0.00  0.00     0.077 H 
BRANCH  54  57
ATOM     57  O1  JUD d   1     -55.398 -31.409 208.064  0.00  0.00    -0.356 OA
BRANCH  57  58
ATOM     58  C1  JUD d   1     -56.446 -31.996 208.857  0.00  0.00     0.158 C 
ATOM     59  C6  JUD d   1     -57.760 -31.843 208.116  0.00  0.00     0.110 C 
ATOM     60  C5  JUD d   1     -58.108 -30.365 207.964  0.00  0.00     0.092 C 
ATOM     61  H7  JUD d   1     -58.558 -32.351 208.678  0.00  0.00     0.094 H 
ATOM     62  C4  JUD d   1     -58.118 -29.654 209.321  0.00  0.00     0.093 C 
ATOM     63  H2  JUD d   1     -57.361 -29.884 207.316  0.00  0.00     0.091 H 
ATOM     64  C3  JUD d   1     -56.793 -29.949 210.059  0.00  0.00     0.089 C 
ATOM     65  H3  JUD d   1     -58.196 -28.569 209.161  0.00  0.00     0.091 H 
ATOM     66  O2  JUD d   1     -56.572 -31.373 210.149  0.00  0.00    -0.348 OA
ATOM     67  H4  JUD d   1     -55.973 -29.494 209.484  0.00  0.00     0.090 H 
ATOM     68  H1  JUD d   1     -56.226 -33.064 208.999  0.00  0.00     0.133 H 
BRANCH  59  69
ATOM     69  O5  JUD d   1     -57.637 -32.432 206.816  0.00  0.00    -0.388 OA
ATOM     70  H45 JUD d   1     -56.949 -31.989 206.333  0.00  0.00     0.210 HD
ENDBRANCH  59  69
BRANCH  60  71
ATOM     71  O3  JUD d   1     -59.398 -30.262 207.359  0.00  0.00    -0.390 OA
ATOM     72  H8  JUD d   1     -59.381 -30.681 206.506  0.00  0.00     0.210 HD
ENDBRANCH  60  71
BRANCH  62  73
ATOM     73  O4  JUD d   1     -59.274 -30.095 210.078  0.00  0.00    -0.376 OA
BRANCH  73  74
ATOM     74  CAT JUD d   1     -59.983 -29.029 210.746  0.00  0.00     0.044 C 
ATOM     75  H47 JUD d   1     -59.270 -28.227 210.989  0.00  0.00     0.081 H 
ATOM     76  H48 JUD d   1     -60.422 -29.423 211.674  0.00  0.00     0.081 H 
BRANCH  74  77
ATOM     77  CAU JUD d   1     -61.010 -28.495 209.952  0.00  0.00    -0.035 A 
ATOM     78  CAV JUD d   1     -61.138 -27.112 209.801  0.00  0.00    -0.074 A 
ATOM     79  CAW JUD d   1     -62.163 -26.574 209.023  0.00  0.00    -0.068 A 
ATOM     80  H49 JUD d   1     -60.434 -26.451 210.293  0.00  0.00     0.084 H 
ATOM     81  CAX JUD d   1     -63.083 -27.410 208.381  0.00  0.00     0.047 A 
ATOM     82  H50 JUD d   1     -62.248 -25.499 208.915  0.00  0.00     0.084 H 
ATOM     83  CAY JUD d   1     -62.958 -28.795 208.543  0.00  0.00    -0.068 A 
ATOM     84  CAZ JUD d   1     -61.931 -29.331 209.322  0.00  0.00    -0.074 A 
ATOM     85  H51 JUD d   1     -63.666 -29.458 208.059  0.00  0.00     0.084 H 
ATOM     86  H52 JUD d   1     -61.849 -30.406 209.438  0.00  0.00     0.084 H 
BRANCH  81  87
ATOM     87  CBA JUD d   1     -64.123 -26.867 207.598  0.00  0.00     0.417 C 
ATOM     88  FBS JUD d   1     -63.722 -25.686 207.024  0.00  0.00    -0.166 F 
ATOM     89  FBT JUD d   1     -65.207 -26.630 208.392  0.00  0.00    -0.166 F 
ATOM     90  FBR JUD d   1     -64.488 -27.741 206.591  0.00  0.00    -0.166 F 
ENDBRANCH  81  87
ENDBRANCH  74  77
ENDBRANCH  73  74
ENDBRANCH  62  73
BRANCH  64  91
ATOM     91  C2  JUD d   1     -56.769 -29.377 211.484  0.00  0.00     0.043 C 
ATOM     92  H5  JUD d   1     -55.910 -29.793 212.030  0.00  0.00     0.078 H 
ATOM     93  H6  JUD d   1     -57.700 -29.649 212.003  0.00  0.00     0.078 H 
BRANCH  91  94
ATOM     94  O6  JUD d   1     -56.654 -27.953 211.432  0.00  0.00    -0.398 OA
ATOM     95  H46 JUD d   1     -56.640 -27.605 212.316  0.00  0.00     0.209 HD
ENDBRANCH  91  94
ENDBRANCH  64  91
ENDBRANCH  57  58
ENDBRANCH  54  57
ENDBRANCH   1  54
BRANCH   1  96
ATOM     96  NAO JUD d   1     -53.405 -29.530 207.595  0.00  0.00    -0.352 N 
ATOM     97  CBE JUD d   1     -53.111 -28.673 208.589  0.00  0.00     0.218 C 
ATOM     98  OBF JUD d   1     -52.547 -28.997 209.634  0.00  0.00    -0.274 OA
ATOM     99  H53 JUD d   1     -53.871 -29.188 206.779  0.00  0.00     0.163 HD
BRANCH  97 100
ATOM    100  CBU JUD d   1     -53.560 -27.223 208.355  0.00  0.00     0.009 C 
ATOM    101  H54 JUD d   1     -54.426 -27.008 208.998  0.00  0.00     0.047 H 
ATOM    102  H55 JUD d   1     -53.847 -27.102 207.300  0.00  0.00     0.047 H 
BRANCH 100 103
ATOM    103  CBV JUD d   1     -52.435 -26.232 208.684  0.00  0.00    -0.057 C 
ATOM    104  H56 JUD d   1     -51.822 -26.641 209.501  0.00  0.00     0.033 H 
ATOM    105  H57 JUD d   1     -52.878 -25.276 209.001  0.00  0.00     0.033 H 
BRANCH 103 106
ATOM    106  CBW JUD d   1     -51.544 -25.991 207.460  0.00  0.00    -0.065 C 
ATOM    107  H58 JUD d   1     -52.170 -25.809 206.574  0.00  0.00     0.033 H 
ATOM    108  H59 JUD d   1     -50.907 -26.871 207.285  0.00  0.00     0.033 H 
BRANCH 106 109
ATOM    109  CBX JUD d   1     -50.668 -24.764 207.736  0.00  0.00    -0.065 C 
ATOM    110  H60 JUD d   1     -50.290 -24.818 208.768  0.00  0.00     0.033 H 
ATOM    111  H61 JUD d   1     -51.276 -23.855 207.616  0.00  0.00     0.033 H 
BRANCH 109 112
ATOM    112  CBY JUD d   1     -49.479 -24.701 206.771  0.00  0.00    -0.065 C 
ATOM    113  H62 JUD d   1     -49.767 -24.149 205.864  0.00  0.00     0.033 H 
ATOM    114  H63 JUD d   1     -49.169 -25.720 206.497  0.00  0.00     0.033 H 
BRANCH 112 115
ATOM    115  CBZ JUD d   1     -48.323 -23.981 207.468  0.00  0.00    -0.065 C 
ATOM    116  H64 JUD d   1     -47.900 -24.637 208.243  0.00  0.00     0.033 H 
ATOM    117  H65 JUD d   1     -48.697 -23.057 207.934  0.00  0.00     0.033 H 
BRANCH 115 118
ATOM    118  CCA JUD d   1     -47.232 -23.630 206.450  0.00  0.00    -0.065 C 
ATOM    119  H66 JUD d   1     -47.620 -22.878 205.748  0.00  0.00     0.033 H 
ATOM    120  H67 JUD d   1     -46.948 -24.537 205.896  0.00  0.00     0.033 H 
BRANCH 118 121
ATOM    121  CCB JUD d   1     -45.995 -23.065 207.165  0.00  0.00    -0.065 C 
ATOM    122  H68 JUD d   1     -46.305 -22.255 207.841  0.00  0.00     0.033 H 
ATOM    123  H69 JUD d   1     -45.292 -22.670 206.417  0.00  0.00     0.033 H 
BRANCH 121 124
ATOM    124  CCC JUD d   1     -45.302 -24.168 207.979  0.00  0.00    -0.065 C 
ATOM    125  H70 JUD d   1     -45.474 -25.136 207.486  0.00  0.00     0.033 H 
ATOM    126  H71 JUD d   1     -45.734 -24.189 208.990  0.00  0.00     0.033 H 
BRANCH 124 127
ATOM    127  CCD JUD d   1     -43.792 -23.927 208.088  0.00  0.00    -0.065 C 
ATOM    128  H72 JUD d   1     -43.402 -23.631 207.103  0.00  0.00     0.033 H 
ATOM    129  H73 JUD d   1     -43.301 -24.856 208.413  0.00  0.00     0.033 H 
BRANCH 127 130
ATOM    130  CCE JUD d   1     -43.490 -22.820 209.100  0.00  0.00    -0.065 C 
ATOM    131  H74 JUD d   1     -44.278 -22.054 209.046  0.00  0.00     0.033 H 
ATOM    132  H75 JUD d   1     -42.518 -22.364 208.859  0.00  0.00     0.033 H 
BRANCH 130 133
ATOM    133  CCF JUD d   1     -43.441 -23.394 210.520  0.00  0.00    -0.065 C 
ATOM    134  H76 JUD d   1     -42.703 -24.209 210.563  0.00  0.00     0.033 H 
ATOM    135  H77 JUD d   1     -44.433 -23.782 210.796  0.00  0.00     0.033 H 
BRANCH 133 136
ATOM    136  CCG JUD d   1     -43.036 -22.283 211.492  0.00  0.00    -0.065 C 
ATOM    137  H78 JUD d   1     -43.483 -21.333 211.164  0.00  0.00     0.033 H 
ATOM    138  H79 JUD d   1     -41.940 -22.189 211.500  0.00  0.00     0.033 H 
BRANCH 136 139
ATOM    139  CCH JUD d   1     -43.526 -22.611 212.905  0.00  0.00    -0.065 C 
ATOM    140  H80 JUD d   1     -42.992 -23.494 213.284  0.00  0.00     0.033 H 
ATOM    141  H81 JUD d   1     -44.606 -22.818 212.881  0.00  0.00     0.033 H 
BRANCH 139 142
ATOM    142  CCI JUD d   1     -43.253 -21.414 213.821  0.00  0.00    -0.065 C 
ATOM    143  H82 JUD d   1     -42.357 -20.882 213.469  0.00  0.00     0.033 H 
ATOM    144  H83 JUD d   1     -43.088 -21.771 214.848  0.00  0.00     0.033 H 
BRANCH 142 145
ATOM    145  CCJ JUD d   1     -44.452 -20.460 213.800  0.00  0.00    -0.065 C 
ATOM    146  H84 JUD d   1     -45.187 -20.782 214.552  0.00  0.00     0.033 H 
ATOM    147  H85 JUD d   1     -44.916 -20.479 212.803  0.00  0.00     0.033 H 
BRANCH 145 148
ATOM    148  CCK JUD d   1     -43.989 -19.034 214.119  0.00  0.00    -0.065 C 
ATOM    149  H86 JUD d   1     -43.423 -18.635 213.264  0.00  0.00     0.033 H 
ATOM    150  H87 JUD d   1     -43.344 -19.051 215.010  0.00  0.00     0.033 H 
BRANCH 148 151
ATOM    151  CCL JUD d   1     -45.203 -18.138 214.388  0.00  0.00    -0.065 C 
ATOM    152  H88 JUD d   1     -44.891 -17.280 215.002  0.00  0.00     0.033 H 
ATOM    153  H89 JUD d   1     -45.967 -18.716 214.927  0.00  0.00     0.033 H 
BRANCH 151 154
ATOM    154  CCM JUD d   1     -45.797 -17.624 213.066  0.00  0.00    -0.065 C 
ATOM    155  H90 JUD d   1     -45.421 -18.238 212.234  0.00  0.00     0.033 H 
ATOM    156  H91 JUD d   1     -45.496 -16.577 212.914  0.00  0.00     0.033 H 
BRANCH 154 157
ATOM    157  CCN JUD d   1     -47.329 -17.712 213.110  0.00  0.00    -0.065 C 
ATOM    158  H92 JUD d   1     -47.667 -17.525 214.140  0.00  0.00     0.033 H 
ATOM    159  H93 JUD d   1     -47.636 -18.722 212.801  0.00  0.00     0.033 H 
BRANCH 157 160
ATOM    160  CCO JUD d   1     -47.990 -16.682 212.175  0.00  0.00    -0.065 C 
ATOM    161  H94 JUD d   1     -47.782 -15.673 212.560  0.00  0.00     0.033 H 
ATOM    162  H95 JUD d   1     -49.076 -16.856 212.172  0.00  0.00     0.033 H 
BRANCH 160 163
ATOM    163  CCP JUD d   1     -47.474 -16.772 210.729  0.00  0.00    -0.065 C 
ATOM    164  H96 JUD d   1     -46.393 -16.571 210.720  0.00  0.00     0.033 H 
ATOM    165  H97 JUD d   1     -47.992 -16.020 210.116  0.00  0.00     0.033 H 
BRANCH 163 166
ATOM    166  CCQ JUD d   1     -47.728 -18.158 210.138  0.00  0.00    -0.065 C 
ATOM    167  H98 JUD d   1     -48.745 -18.489 210.397  0.00  0.00     0.033 H 
ATOM    168  H99 JUD d   1     -46.996 -18.872 210.544  0.00  0.00     0.033 H 
BRANCH 166 169
ATOM    169  CCR JUD d   1     -47.585 -18.086 208.617  0.00  0.00    -0.069 C 
ATOM    170 0H10 JUD d   1     -46.640 -17.585 208.362  0.00  0.00     0.032 H 
ATOM    171 1H10 JUD d   1     -48.427 -17.517 208.197  0.00  0.00     0.032 H 
BRANCH 169 172
ATOM    172  CCS JUD d   1     -47.585 -19.502 208.032  0.00  0.00    -0.077 C 
ATOM    173 2H10 JUD d   1     -47.482 -19.447 206.938  0.00  0.00     0.027 H 
ATOM    174 3H10 JUD d   1     -48.530 -20.004 208.286  0.00  0.00     0.027 H 
ATOM    175 4H10 JUD d   1     -46.743 -20.072 208.451  0.00  0.00     0.027 H 
ENDBRANCH 169 172
ENDBRANCH 166 169
ENDBRANCH 163 166
ENDBRANCH 160 163
ENDBRANCH 157 160
ENDBRANCH 154 157
ENDBRANCH 151 154
ENDBRANCH 148 151
ENDBRANCH 145 148
ENDBRANCH 142 145
ENDBRANCH 139 142
ENDBRANCH 136 139
ENDBRANCH 133 136
ENDBRANCH 130 133
ENDBRANCH 127 130
ENDBRANCH 124 127
ENDBRANCH 121 124
ENDBRANCH 118 121
ENDBRANCH 115 118
ENDBRANCH 112 115
ENDBRANCH 109 112
ENDBRANCH 106 109
ENDBRANCH 103 106
ENDBRANCH 100 103
ENDBRANCH  97 100
ENDBRANCH   1  96
TORSDOF 55
