REMARK  3 active torsions:
REMARK  status: ('A' for Active; 'I' for Inactive)
REMARK    1  A    between atoms: C12_13  and  C20_3 
REMARK    2  A    between atoms: C03_7  and  C02_6 
REMARK    3  A    between atoms: C02_6  and  O01_21 
REMARK       I    between atoms: N05_17  and  C03_7 
ROOT
ATOM      1  C10 JUM d   1      30.761 226.555  -9.253  0.00  0.00     0.000 C 
ATOM      2  C13 JUM d   1      26.738 229.003  -9.986  0.00  0.00    -0.049 A 
ATOM      3  C03 JUM d   1      32.636 225.029  -9.995  0.00  0.00     0.251 C 
ATOM      4  C06 JUM d   1      33.056 227.340  -9.077  0.00  0.00    -0.010 C 
ATOM      5  C07 JUM d   1      32.824 228.520 -10.027  0.00  0.00    -0.039 C 
ATOM      6  C08 JUM d   1      31.331 228.847 -10.097  0.00  0.00     0.071 A 
ATOM      7  C09 JUM d   1      30.394 227.943  -9.744  0.00  0.00     0.022 A 
ATOM      8  C11 JUM d   1      29.119 228.551  -9.914  0.00  0.00     0.020 A 
ATOM      9  C12 JUM d   1      27.786 228.139  -9.720  0.00  0.00    -0.008 A 
ATOM     10  C14 JUM d   1      27.017 230.277 -10.449  0.00  0.00     0.059 A 
ATOM     11  C16 JUM d   1      28.330 230.681 -10.637  0.00  0.00     0.085 A 
ATOM     12  C18 JUM d   1      29.378 229.800 -10.358  0.00  0.00     0.093 A 
ATOM     13  N05 JUM d   1      32.155 226.271  -9.444  0.00  0.00    -0.301 N 
ATOM     14  N19 JUM d   1      30.708 229.973 -10.470  0.00  0.00    -0.246 NA
ATOM     15  O04 JUM d   1      33.797 224.882 -10.127  0.00  0.00    -0.270 OA
ATOM     16 CL1  JUM d   1      25.653 231.347 -10.776  0.00  0.00    -0.082 Cl
ATOM     17 CL2  JUM d   1      28.824 232.279 -11.221  0.00  0.00    -0.080 Cl
ATOM     18  H1  JUM d   1      30.052 225.858  -8.809  0.00  0.00     0.113 H 
ATOM     19  H2  JUM d   1      25.713 228.686  -9.834  0.00  0.00     0.087 H 
ATOM     20  H7  JUM d   1      33.778 227.312  -8.262  0.00  0.00     0.112 H 
ATOM     21  H8  JUM d   1      33.606 229.048 -10.572  0.00  0.00     0.089 H 
ENDROOT
BRANCH   9  22
ATOM     22  C20 JUM d   1      27.475 226.755  -9.209  0.00  0.00     0.011 A 
ATOM     23  C21 JUM d   1      28.139 226.089  -8.225  0.00  0.00     0.034 A 
ATOM     24  N22 JUM d   1      27.563 224.934  -8.073  0.00  0.00    -0.187 NA
ATOM     25  H3  JUM d   1      28.998 226.458  -7.666  0.00  0.00     0.118 H 
ATOM     26  N23 JUM d   1      26.527 224.815  -8.943  0.00  0.00    -0.289 N 
ATOM     27  C24 JUM d   1      26.457 225.941  -9.648  0.00  0.00     0.008 A 
ATOM     28  H9  JUM d   1      25.906 223.999  -9.040  0.00  0.00     0.188 HD
ATOM     29  H4  JUM d   1      25.731 226.174 -10.425  0.00  0.00     0.115 H 
ENDBRANCH   9  22
BRANCH   3  30
ATOM     30  C02 JUM d   1      31.649 223.931 -10.382  0.00  0.00     0.091 C 
ATOM     31  H5  JUM d   1      30.622 224.280 -10.197  0.00  0.00     0.088 H 
ATOM     32  H6  JUM d   1      31.846 223.033  -9.778  0.00  0.00     0.088 H 
BRANCH  30  33
ATOM     33  O01 JUM d   1      31.798 223.621 -11.743  0.00  0.00    -0.392 OA
ATOM     34  H10 JUM d   1      31.182 222.938 -11.980  0.00  0.00     0.210 HD
ENDBRANCH  30  33
ENDBRANCH   3  30
TORSDOF 3
