REMARK  4 active torsions:
REMARK  status: ('A' for Active; 'I' for Inactive)
REMARK    1  A    between atoms: C19_22  and  C20_2 
REMARK    2  A    between atoms: C02_6  and  O01_5 
REMARK    3  A    between atoms: C03_7  and  C02_6 
REMARK       I    between atoms: N05_9  and  C03_7 
REMARK    4  A    between atoms: C23_24  and  N24_25 
ROOT
ATOM      1  C13 JUJ d   1      37.804  13.791  11.475  0.00  0.00     0.003 C 
ATOM      2  C03 JUJ d   1      36.211  15.201  10.099  0.00  0.00     0.243 C 
ATOM      3  O04 JUJ d   1      35.187  15.241   9.529  0.00  0.00    -0.271 OA
ATOM      4  N05 JUJ d   1      36.572  13.967  10.765  0.00  0.00    -0.346 N 
ATOM      5  C06 JUJ d   1      35.677  12.786  10.733  0.00  0.00     0.024 C 
ATOM      6  C07 JUJ d   1      36.426  11.420  10.866  0.00  0.00    -0.004 A 
ATOM      7  C08 JUJ d   1      35.996  10.049  10.945  0.00  0.00     0.013 A 
ATOM      8  C09 JUJ d   1      37.125   9.293  11.062  0.00  0.00     0.068 A 
ATOM      9  N10 JUJ d   1      38.190  10.134  11.063  0.00  0.00    -0.357 N 
ATOM     10  C11 JUJ d   1      37.764  11.408  10.934  0.00  0.00     0.020 A 
ATOM     11  C12 JUJ d   1      38.572  12.664  10.897  0.00  0.00    -0.011 C 
ATOM     12  C14 JUJ d   1      37.012   7.895  11.159  0.00  0.00     0.083 A 
ATOM     13 CL2  JUJ d   1      38.378   6.783  11.290  0.00  0.00    -0.080 Cl
ATOM     14  C16 JUJ d   1      35.785   7.298  11.145  0.00  0.00     0.059 A 
ATOM     15 CL1  JUJ d   1      35.699   5.534  11.257  0.00  0.00    -0.082 Cl
ATOM     16  C18 JUJ d   1      34.632   8.048  11.026  0.00  0.00    -0.049 A 
ATOM     17  C19 JUJ d   1      34.735   9.413  10.922  0.00  0.00    -0.010 A 
ATOM     18  H1  JUJ d   1      37.587  13.578  12.532  0.00  0.00     0.065 H 
ATOM     19  H2  JUJ d   1      38.400  14.712  11.402  0.00  0.00     0.065 H 
ATOM     20  H8  JUJ d   1      35.132  12.790   9.778  0.00  0.00     0.071 H 
ATOM     21  H9  JUJ d   1      34.962  12.871  11.564  0.00  0.00     0.071 H 
ATOM     22  H10 JUJ d   1      39.175   9.844  11.149  0.00  0.00     0.166 HD
ATOM     23  H11 JUJ d   1      39.494  12.518  11.478  0.00  0.00     0.044 H 
ATOM     24  H12 JUJ d   1      38.829  12.899   9.854  0.00  0.00     0.044 H 
ATOM     25  H13 JUJ d   1      33.661   7.567  11.015  0.00  0.00     0.087 H 
ENDROOT
BRANCH  17  26
ATOM     26  C20 JUJ d   1      33.416  10.150  10.803  0.00  0.00    -0.007 A 
ATOM     27  C21 JUJ d   1      32.416   9.792  11.663  0.00  0.00     0.015 A 
ATOM     28  N22 JUJ d   1      31.248  10.374  11.623  0.00  0.00    -0.243 NA
ATOM     29  H3  JUJ d   1      32.596   9.010  12.392  0.00  0.00     0.116 H 
ATOM     30  C23 JUJ d   1      30.982  11.306  10.745  0.00  0.00     0.120 A 
ATOM     31  C25 JUJ d   1      31.935  11.713   9.831  0.00  0.00    -0.038 A 
ATOM     32  C26 JUJ d   1      33.183  11.122   9.851  0.00  0.00    -0.067 A 
ATOM     33  H16 JUJ d   1      31.706  12.487   9.107  0.00  0.00     0.089 H 
ATOM     34  H4  JUJ d   1      33.952  11.411   9.144  0.00  0.00     0.085 H 
BRANCH  30  35
ATOM     35  N24 JUJ d   1      29.659  11.906  10.763  0.00  0.00    -0.384 N 
ATOM     36  H14 JUJ d   1      29.418  12.643  10.085  0.00  0.00     0.157 HD
ATOM     37  H15 JUJ d   1      28.962  11.595  11.454  0.00  0.00     0.157 HD
ENDBRANCH  30  35
ENDBRANCH  17  26
BRANCH   2  38
ATOM     38  C02 JUJ d   1      37.130  16.428  10.125  0.00  0.00     0.090 C 
ATOM     39  H6  JUJ d   1      37.857  16.313  10.943  0.00  0.00     0.088 H 
ATOM     40  H7  JUJ d   1      37.664  16.495   9.166  0.00  0.00     0.088 H 
BRANCH  38  41
ATOM     41  O01 JUJ d   1      36.402  17.611  10.325  0.00  0.00    -0.392 OA
ATOM     42  H5  JUJ d   1      35.775  17.719   9.619  0.00  0.00     0.210 HD
ENDBRANCH  38  41
ENDBRANCH   2  38
TORSDOF 4
