REMARK  4 active torsions:
REMARK  status: ('A' for Active; 'I' for Inactive)
REMARK       I    between atoms: CAN_2  and  N_3 
REMARK    1  A    between atoms: CA_5  and  C_6 
REMARK       I    between atoms: C_6  and  NAA_8 
REMARK    2  A    between atoms: CAO_11  and  NAK_12 
REMARK    3  A    between atoms: NAK_12  and  OAL_13 
REMARK    4  A    between atoms: OAL_13  and  SAR_14 
ROOT
ATOM      1  OAC NXL d   1      22.896 -19.907   9.501  0.00  0.00    -0.284 OA
ATOM      2  CAN NXL d   1      23.247 -20.271  10.604  0.00  0.00     0.171 C 
ATOM      3  N   NXL d   1      24.259 -20.972  10.886  0.00  0.00    -0.344 N 
ATOM      4  CAJ NXL d   1      24.671 -21.264  12.268  0.00  0.00     0.027 C 
ATOM      5  CA  NXL d   1      25.008 -21.591   9.816  0.00  0.00     0.091 C 
ATOM      6  CB  NXL d   1      26.481 -21.310   9.974  0.00  0.00    -0.036 C 
ATOM      7  CAH NXL d   1      27.000 -21.520  11.407  0.00  0.00    -0.032 C 
ATOM      8  CAO NXL d   1      26.130 -20.924  12.519  0.00  0.00     0.147 C 
ATOM      9  H1  NXL d   1      22.623 -19.960  11.440  0.00  0.00     0.180 H 
ATOM     10  H2  NXL d   1      24.519 -22.336  12.463  0.00  0.00     0.067 H 
ATOM     11  H3  NXL d   1      24.047 -20.674  12.955  0.00  0.00     0.067 H 
ATOM     12  H4  NXL d   1      24.673 -21.186   8.849  0.00  0.00     0.087 H 
ATOM     13  H7  NXL d   1      26.668 -20.265   9.687  0.00  0.00     0.036 H 
ATOM     14  H8  NXL d   1      27.037 -21.980   9.302  0.00  0.00     0.036 H 
ATOM     15  H9  NXL d   1      27.998 -21.063  11.476  0.00  0.00     0.036 H 
ATOM     16  H10 NXL d   1      27.080 -22.603  11.583  0.00  0.00     0.036 H 
ATOM     17  H11 NXL d   1      26.448 -21.359  13.478  0.00  0.00     0.091 H 
ENDROOT
BRANCH   8  18
ATOM     18  NAK NXL d   1      26.234 -19.454  12.605  0.00  0.00     0.061 N 
ATOM     19  H12 NXL d   1      26.873 -19.233  13.353  0.00  0.00     0.316 HD
ATOM     20  H13 NXL d   1      25.320 -19.092  12.826  0.00  0.00     0.316 HD
BRANCH  18  21
ATOM     21  OAL NXL d   1      26.689 -18.796  11.438  0.00  0.00    -0.054 OA
BRANCH  21  22
ATOM     22  SAR NXL d   1      25.791 -17.376  11.346  0.00  0.00     0.279 S 
ATOM     23  OAD NXL d   1      26.067 -16.410  12.414  0.00  0.00    -0.571 OA
ATOM     24  OAE NXL d   1      25.986 -16.594  10.137  0.00  0.00    -0.571 OA
ATOM     25  OAG NXL d   1      24.357 -17.596  11.409  0.00  0.00    -0.571 OA
ENDBRANCH  21  22
ENDBRANCH  18  21
ENDBRANCH   8  18
BRANCH   5  26
ATOM     26  C   NXL d   1      24.709 -23.108   9.868  0.00  0.00     0.238 C 
ATOM     27  O   NXL d   1      23.855 -23.559  10.572  0.00  0.00    -0.271 OA
ATOM     28  NAA NXL d   1      25.513 -24.005   9.048  0.00  0.00    -0.368 N 
ATOM     29  H5  NXL d   1      25.338 -24.989   9.065  0.00  0.00     0.159 HD
ATOM     30  H6  NXL d   1      26.239 -23.636   8.468  0.00  0.00     0.159 HD
ENDBRANCH   5  26
TORSDOF 4
