REMARK  6 active torsions:
REMARK  status: ('A' for Active; 'I' for Inactive)
REMARK    1  A    between atoms: C02_1  and  O3_13 
REMARK    2  A    between atoms: C03_2  and  O4_15 
REMARK    3  A    between atoms: C05_3  and  C06_4 
REMARK    4  A    between atoms: C09_5  and  O10_9 
REMARK    5  A    between atoms: C15_6  and  O2_11 
REMARK    6  A    between atoms: O10_9  and  P11_16 
ROOT
ATOM      1  C02 JV4 d   1      27.187  53.242  16.419  0.00  0.00     0.092 C 
ATOM      2  C03 JV4 d   1      28.284  52.383  16.883  0.00  0.00     0.090 C 
ATOM      3  C05 JV4 d   1      28.410  51.202  15.924  0.00  0.00     0.093 C 
ATOM      4  C09 JV4 d   1      25.977  51.287  15.514  0.00  0.00     0.171 C 
ATOM      5  C15 JV4 d   1      25.913  52.472  16.492  0.00  0.00     0.110 C 
ATOM      6  O08 JV4 d   1      27.114  50.433  15.829  0.00  0.00    -0.348 OA
ATOM      7  H1  JV4 d   1      27.374  53.522  15.372  0.00  0.00     0.091 H 
ATOM      8  H2  JV4 d   1      28.038  52.003  17.886  0.00  0.00     0.091 H 
ATOM      9  H3  JV4 d   1      28.647  51.594  14.924  0.00  0.00     0.091 H 
ATOM     10  H6  JV4 d   1      25.045  50.706  15.571  0.00  0.00     0.134 H 
ATOM     11  H7  JV4 d   1      25.779  52.090  17.515  0.00  0.00     0.094 H 
ENDROOT
BRANCH   4  12
ATOM     12  O10 JV4 d   1      26.159  51.788  14.215  0.00  0.00    -0.249 OA
BRANCH  12  13
ATOM     13  P11 JV4 d   1      24.915  51.993  13.149  0.00  0.00     0.424 P 
ATOM     14  O1P JV4 d   1      23.887  52.973  13.755  0.00  0.00    -0.617 OA
ATOM     15  O2P JV4 d   1      25.454  52.525  11.822  0.00  0.00    -0.617 OA
ATOM     16  O3P JV4 d   1      24.233  50.668  12.891  0.00  0.00    -0.617 OA
ENDBRANCH  12  13
ENDBRANCH   4  12
BRANCH   5  17
ATOM     17  O2  JV4 d   1      24.817  53.311  16.163  0.00  0.00    -0.388 OA
ATOM     18  H8  JV4 d   1      24.926  53.640  15.278  0.00  0.00     0.210 HD
ENDBRANCH   5  17
BRANCH   1  19
ATOM     19  O3  JV4 d   1      27.105  54.468  17.219  0.00  0.00    -0.390 OA
ATOM     20  H9  JV4 d   1      27.927  54.941  17.157  0.00  0.00     0.210 HD
ENDBRANCH   1  19
BRANCH   3  21
ATOM     21  C06 JV4 d   1      29.527  50.320  16.357  0.00  0.00     0.085 C 
ATOM     22  F07 JV4 d   1      29.176  49.624  17.474  0.00  0.00    -0.253 F 
ATOM     23  H4  JV4 d   1      30.411  50.936  16.577  0.00  0.00     0.086 H 
ATOM     24  H5  JV4 d   1      29.765  49.613  15.549  0.00  0.00     0.086 H 
ENDBRANCH   3  21
BRANCH   2  25
ATOM     25  O4  JV4 d   1      29.551  53.128  16.969  0.00  0.00    -0.390 OA
ATOM     26  H10 JV4 d   1      29.448  53.856  17.570  0.00  0.00     0.210 HD
ENDBRANCH   2  25
TORSDOF 6
