REMARK  7 active torsions:
REMARK  status: ('A' for Active; 'I' for Inactive)
REMARK    1  A    between atoms: C1_1  and  C7_7 
REMARK    2  A    between atoms: C2_2  and  O2_8 
REMARK    3  A    between atoms: C3_3  and  O3_9 
REMARK    4  A    between atoms: C4_4  and  O4_10 
REMARK    5  A    between atoms: C5_5  and  C6_6 
REMARK    6  A    between atoms: C6_6  and  O6_12 
REMARK    7  A    between atoms: C7_7  and  P_13 
ROOT
ATOM      1  C1  GPM d   1      25.888  51.422  15.095  0.00  0.00     0.078 C 
ATOM      2  C2  GPM d   1      25.742  52.658  15.985  0.00  0.00     0.088 C 
ATOM      3  C3  GPM d   1      27.039  53.359  16.175  0.00  0.00     0.090 C 
ATOM      4  C4  GPM d   1      28.061  52.422  16.743  0.00  0.00     0.089 C 
ATOM      5  C5  GPM d   1      28.224  51.218  15.831  0.00  0.00     0.086 C 
ATOM      6  O5  GPM d   1      26.945  50.512  15.636  0.00  0.00    -0.372 OA
ATOM      7  H1  GPM d   1      24.925  50.891  15.060  0.00  0.00     0.088 H 
ATOM      8  H2  GPM d   1      25.399  52.321  16.974  0.00  0.00     0.091 H 
ATOM      9  H3  GPM d   1      27.390  53.735  15.203  0.00  0.00     0.091 H 
ATOM     10  H4  GPM d   1      27.720  52.085  17.733  0.00  0.00     0.091 H 
ATOM     11  H5  GPM d   1      28.588  51.560  14.851  0.00  0.00     0.090 H 
ENDROOT
BRANCH   1  12
ATOM     12  C7  GPM d   1      26.289  51.800  13.735  0.00  0.00     0.065 C 
ATOM     13  H8  GPM d   1      26.983  51.037  13.353  0.00  0.00     0.057 H 
ATOM     14  H9  GPM d   1      26.802  52.772  13.782  0.00  0.00     0.057 H 
BRANCH  12  15
ATOM     15  P   GPM d   1      24.877  51.944  12.558  0.00  0.00     0.262 P 
ATOM     16  O1P GPM d   1      25.428  52.468  11.252  0.00  0.00    -0.639 OA
ATOM     17  O2P GPM d   1      23.845  52.896  13.121  0.00  0.00    -0.639 OA
ATOM     18  O3P GPM d   1      24.259  50.609  12.332  0.00  0.00    -0.639 OA
ENDBRANCH  12  15
ENDBRANCH   1  12
BRANCH   2  19
ATOM     19  O2  GPM d   1      24.732  53.547  15.443  0.00  0.00    -0.390 OA
ATOM     20  H10 GPM d   1      23.918  53.070  15.334  0.00  0.00     0.210 HD
ENDBRANCH   2  19
BRANCH   3  21
ATOM     21  O3  GPM d   1      26.870  54.466  17.085  0.00  0.00    -0.390 OA
ATOM     22  H11 GPM d   1      27.699  54.917  17.190  0.00  0.00     0.210 HD
ENDBRANCH   3  21
BRANCH   5  23
ATOM     23  C6  GPM d   1      29.245  50.285  16.442  0.00  0.00     0.043 C 
ATOM     24  H6  GPM d   1      30.078  50.871  16.858  0.00  0.00     0.078 H 
ATOM     25  H7  GPM d   1      29.628  49.600  15.671  0.00  0.00     0.078 H 
BRANCH  23  26
ATOM     26  O6  GPM d   1      28.611  49.522  17.499  0.00  0.00    -0.398 OA
ATOM     27  H13 GPM d   1      27.892  49.019  17.137  0.00  0.00     0.209 HD
ENDBRANCH  23  26
ENDBRANCH   5  23
BRANCH   4  28
ATOM     28  O4  GPM d   1      29.340  53.063  16.881  0.00  0.00    -0.390 OA
ATOM     29  H12 GPM d   1      29.254  53.819  17.450  0.00  0.00     0.210 HD
ENDBRANCH   4  28
TORSDOF 7
