REMARK  6 active torsions:
REMARK  status: ('A' for Active; 'I' for Inactive)
REMARK    1  A    between atoms: C1_1  and  C7_7 
REMARK    2  A    between atoms: C3_3  and  O3_8 
REMARK    3  A    between atoms: C4_4  and  O4_13 
REMARK    4  A    between atoms: C5_5  and  C6_6 
REMARK    5  A    between atoms: C6_6  and  O6_15 
REMARK    6  A    between atoms: C7_7  and  P_16 
ROOT
ATOM      1  C1  JVA d   1      26.145  50.955  15.561  0.00  0.00     0.083 C 
ATOM      2  C2  JVA d   1      25.973  52.205  16.517  0.00  0.00     0.131 C 
ATOM      3  C3  JVA d   1      27.267  53.008  16.489  0.00  0.00     0.094 C 
ATOM      4  C4  JVA d   1      28.473  52.196  16.905  0.00  0.00     0.090 C 
ATOM      5  C5  JVA d   1      28.617  50.911  16.002  0.00  0.00     0.086 C 
ATOM      6  F2  JVA d   1      25.458  51.746  17.684  0.00  0.00    -0.244 F 
ATOM      7  O5  JVA d   1      27.345  50.074  15.958  0.00  0.00    -0.372 OA
ATOM      8  H1  JVA d   1      25.243  50.343  15.708  0.00  0.00     0.088 H 
ATOM      9  H2  JVA d   1      25.205  52.867  16.090  0.00  0.00     0.099 H 
ATOM     10  H3  JVA d   1      27.430  53.274  15.434  0.00  0.00     0.091 H 
ATOM     11  H4  JVA d   1      28.270  51.846  17.928  0.00  0.00     0.091 H 
ATOM     12  H5  JVA d   1      28.754  51.255  14.966  0.00  0.00     0.090 H 
ENDROOT
BRANCH   1  13
ATOM     13  C7  JVA d   1      26.196  51.249  14.183  0.00  0.00     0.066 C 
ATOM     14  H8  JVA d   1      26.609  50.346  13.710  0.00  0.00     0.057 H 
ATOM     15  H9  JVA d   1      26.918  52.074  14.090  0.00  0.00     0.057 H 
BRANCH  13  16
ATOM     16  P   JVA d   1      24.760  51.738  13.126  0.00  0.00     0.262 P 
ATOM     17  O1P JVA d   1      24.022  52.946  13.677  0.00  0.00    -0.639 OA
ATOM     18  O2P JVA d   1      23.817  50.557  13.059  0.00  0.00    -0.639 OA
ATOM     19  O3P JVA d   1      25.276  51.937  11.717  0.00  0.00    -0.639 OA
ENDBRANCH  13  16
ENDBRANCH   1  13
BRANCH   3  20
ATOM     20  O3  JVA d   1      27.181  54.287  17.220  0.00  0.00    -0.390 OA
ATOM     21  H10 JVA d   1      27.960  54.803  17.047  0.00  0.00     0.210 HD
ENDBRANCH   3  20
BRANCH   5  22
ATOM     22  C6  JVA d   1      29.935  50.275  16.401  0.00  0.00     0.043 C 
ATOM     23  H6  JVA d   1      30.644  51.063  16.693  0.00  0.00     0.078 H 
ATOM     24  H7  JVA d   1      30.341  49.715  15.546  0.00  0.00     0.078 H 
BRANCH  22  25
ATOM     25  O6  JVA d   1      29.749  49.406  17.472  0.00  0.00    -0.398 OA
ATOM     26  H12 JVA d   1      30.582  49.016  17.710  0.00  0.00     0.209 HD
ENDBRANCH  22  25
ENDBRANCH   5  22
BRANCH   4  27
ATOM     27  O4  JVA d   1      29.725  52.950  16.977  0.00  0.00    -0.390 OA
ATOM     28  H11 JVA d   1      29.602  53.715  17.527  0.00  0.00     0.210 HD
ENDBRANCH   4  27
TORSDOF 6
