REMARK WARNING: 32 MAX_TORS EXCEEDED!!!
REMARK  62 active torsions:
REMARK  status: ('A' for Active; 'I' for Inactive)
REMARK    1  A    between atoms: N_1  and  CA_2 
REMARK    2  A    between atoms: CA_2  and  C_3 
REMARK    3  A    between atoms: CA_2  and  CB_5 
REMARK       I    between atoms: C_3  and  N_9 
REMARK    4  A    between atoms: CB_5  and  CG_6 
REMARK    5  A    between atoms: CG_6  and  CD1_7 
REMARK    6  A    between atoms: CG_6  and  CD2_8 
REMARK    7  A    between atoms: N_9  and  CA_10 
REMARK    8  A    between atoms: CA_10  and  C_11 
REMARK    9  A    between atoms: CA_10  and  CB_13 
REMARK       I    between atoms: C_11  and  N_21 
REMARK   10  A    between atoms: CB_13  and  CG_14 
REMARK   11  A    between atoms: CZ_19  and  OH_20 
REMARK   12  A    between atoms: N_21  and  CA_22 
REMARK   13  A    between atoms: CA_22  and  C_23 
REMARK   14  A    between atoms: CA_22  and  CB_25 
REMARK       I    between atoms: C_23  and  N_29 
REMARK   15  A    between atoms: CB_25  and  CG_26 
REMARK       I    between atoms: CG_26  and  ND2_28 
REMARK   16  A    between atoms: N_29  and  CA_30 
REMARK   17  A    between atoms: CA_30  and  C_31 
REMARK   18  A    between atoms: CA_30  and  CB_33 
REMARK       I    between atoms: C_31  and  N_40 
REMARK   19  A    between atoms: CB_33  and  CG_34 
REMARK   20  A    between atoms: CG_34  and  CD_35 
REMARK   21  A    between atoms: CD_35  and  NE_36 
REMARK       I    between atoms: NE_36  and  CZ_37 
REMARK       I    between atoms: CZ_37  and  NH1_38 
REMARK       I    between atoms: CZ_37  and  NH2_39 
REMARK   22  A    between atoms: N_40  and  CA_41 
REMARK   23  A    between atoms: CA_41  and  C_42 
REMARK   24  A    between atoms: CA_41  and  CB_44 
REMARK       I    between atoms: C_42  and  N_47 
REMARK   25  A    between atoms: CB_44  and  OG1_45 
REMARK   26  A    between atoms: CB_44  and  CG2_46 
REMARK   27  A    between atoms: N_47  and  CA_48 
REMARK   28  A    between atoms: CA_48  and  C_49 
REMARK   29  A    between atoms: CA_48  and  CB_51 
REMARK       I    between atoms: C_49  and  N_58 
REMARK   30  A    between atoms: CB_51  and  CG_52 
REMARK   31  A    between atoms: CG_52  and  CD_53 
REMARK   32  A    between atoms: CD_53  and  NE_54 
REMARK       I    between atoms: NE_54  and  CZ_55 
REMARK       I    between atoms: CZ_55  and  NH1_56 
REMARK       I    between atoms: CZ_55  and  NH2_57 
REMARK   33  A    between atoms: N_58  and  CA_59 
REMARK   34  A    between atoms: CA_59  and  C_60 
REMARK   35  A    between atoms: CA_59  and  CB_62 
REMARK       I    between atoms: C_60  and  N_69 
REMARK   36  A    between atoms: CB_62  and  CG_63 
REMARK   37  A    between atoms: CG_63  and  CD_64 
REMARK   38  A    between atoms: CD_64  and  NE_65 
REMARK       I    between atoms: NE_65  and  CZ_66 
REMARK       I    between atoms: CZ_66  and  NH1_67 
REMARK   39  A    between atoms: N_69  and  CA_70 
REMARK   40  A    between atoms: CA_70  and  C_71 
REMARK   41  A    between atoms: CA_70  and  CB_73 
REMARK       I    between atoms: C_71  and  N_77 
REMARK   42  A    between atoms: CB_73  and  CG1_74 
REMARK   43  A    between atoms: CB_73  and  CG2_75 
REMARK   44  A    between atoms: CG1_74  and  CD1_76 
REMARK   45  A    between atoms: N_77  and  CA_78 
REMARK   46  A    between atoms: CA_78  and  C_79 
REMARK   47  A    between atoms: CA_78  and  CB_81 
REMARK       I    between atoms: C_79  and  N_83 
REMARK   48  A    between atoms: CB_81  and  OG_82 
REMARK   49  A    between atoms: N_83  and  CA_84 
REMARK   50  A    between atoms: CA_84  and  C_85 
REMARK   51  A    between atoms: CA_84  and  CB_87 
REMARK       I    between atoms: C_85  and  N_92 
REMARK   52  A    between atoms: CB_87  and  CG_88 
REMARK   53  A    between atoms: CG_88  and  CD_89 
REMARK       I    between atoms: CD_89  and  NE2_91 
REMARK   54  A    between atoms: N_92  and  CA_93 
REMARK   55  A    between atoms: CA_93  and  C_94 
REMARK   56  A    between atoms: CA_93  and  CB_96 
REMARK       I    between atoms: C_94  and  N_99 
REMARK   57  A    between atoms: CB_96  and  OG1_97 
REMARK   58  A    between atoms: CB_96  and  CG2_98 
REMARK   59  A    between atoms: N_99  and  CA_100 
REMARK   60  A    between atoms: CA_100  and  C_101 
REMARK   61  A    between atoms: CA_100  and  CB_103 
REMARK   62  A    between atoms: CB_103  and  OG_104 
ROOT
ATOM      1  CA  LEU d   1      -0.749  -0.259  21.599  0.00  0.00     0.089 C 
ATOM      2  H50 LEU d   1      -1.081  -0.501  22.620  0.00  0.00     0.087 H 
ENDROOT
BRANCH   1   3
ATOM      3  N   LEU d   1       0.121   0.940  21.669  0.00  0.00    -0.346 N 
ATOM      4  C   LEU d   1       1.197   1.042  22.452  0.00  0.00     0.243 C 
ATOM      5  O   LEU d   1       1.637   0.129  23.197  0.00  0.00    -0.271 OA
ATOM      6  H49 LEU d   1      -0.114   1.722  21.092  0.00  0.00     0.163 HD
BRANCH   4   7
ATOM      7  CA  LEU d   1       1.944   2.372  22.381  0.00  0.00     0.113 C 
ATOM      8  H43 LEU d   1       1.221   3.166  22.143  0.00  0.00     0.091 H 
BRANCH   7   9
ATOM      9  N   LEU d   1       2.583   2.698  23.671  0.00  0.00    -0.344 N 
ATOM     10  C   LEU d   1       1.915   2.874  24.818  0.00  0.00     0.241 C 
ATOM     11  O   LEU d   1       0.668   2.795  24.935  0.00  0.00    -0.271 OA
ATOM     12  H42 LEU d   1       3.578   2.793  23.689  0.00  0.00     0.163 HD
BRANCH  10  13
ATOM     13  CA  LEU d   1       2.722   3.078  26.089  0.00  0.00     0.089 C 
ATOM     14  H30 LEU d   1       2.606   2.170  26.699  0.00  0.00     0.087 H 
BRANCH  13  15
ATOM     15  N   LEU d   1       4.171   3.241  25.801  0.00  0.00    -0.346 N 
ATOM     16  C   LEU d   1       5.006   2.194  25.819  0.00  0.00     0.241 C 
ATOM     17  O   LEU d   1       4.614   1.016  25.840  0.00  0.00    -0.271 OA
ATOM     18  H29 LEU d   1       4.529   4.150  25.590  0.00  0.00     0.163 HD
BRANCH  16  19
ATOM     19  CA  LEU d   1       6.516   2.463  25.729  0.00  0.00     0.097 C 
ATOM     20  H24 LEU d   1       6.659   3.548  25.619  0.00  0.00     0.088 H 
BRANCH  19  21
ATOM     21  N   LEU d   1       7.148   2.023  26.982  0.00  0.00    -0.346 N 
ATOM     22  C   LEU d   1       7.170   2.779  28.066  0.00  0.00     0.241 C 
ATOM     23  O   LEU d   1       6.766   3.978  28.070  0.00  0.00    -0.271 OA
ATOM     24  H23 LEU d   1       7.576   1.120  27.015  0.00  0.00     0.163 HD
BRANCH  22  25
ATOM     25  CA  LEU d   1       7.738   2.115  29.316  0.00  0.00     0.093 C 
ATOM     26  H15 LEU d   1       8.258   1.194  29.015  0.00  0.00     0.088 H 
BRANCH  25  27
ATOM     27  N   LEU d   1       8.714   3.027  29.945  0.00  0.00    -0.346 N 
ATOM     28  C   LEU d   1       9.906   3.267  29.409  0.00  0.00     0.249 C 
ATOM     29  O   LEU d   1      10.292   2.807  28.317  0.00  0.00    -0.271 OA
ATOM     30  H14 LEU d   1       8.470   3.479  30.803  0.00  0.00     0.163 HD
BRANCH  28  31
ATOM     31  CA  LEU d   1      10.833   4.193  30.196  0.00  0.00     0.176 C 
ATOM     32  H4  LEU d   1      10.278   4.625  31.042  0.00  0.00     0.099 H 
BRANCH  31  33
ATOM     33  N   LEU d   1      11.990   3.409  30.722  0.00  0.00    -0.066 N 
ATOM     34  H1  LEU d   1      12.601   4.020  31.241  0.00  0.00     0.275 HD
ATOM     35  H2  LEU d   1      12.497   3.001  29.952  0.00  0.00     0.275 HD
ATOM     36  H3  LEU d   1      11.653   2.677  31.328  0.00  0.00     0.275 HD
ENDBRANCH  31  33
BRANCH  31  37
ATOM     37  CB  LEU d   1      11.323   5.327  29.293  0.00  0.00    -0.028 C 
ATOM     38  H5  LEU d   1      11.903   4.884  28.470  0.00  0.00     0.037 H 
ATOM     39  H6  LEU d   1      11.975   5.983  29.889  0.00  0.00     0.037 H 
BRANCH  37  40
ATOM     40  CG  LEU d   1      10.208   6.187  28.683  0.00  0.00    -0.059 C 
ATOM     41  H7  LEU d   1       9.630   5.553  27.994  0.00  0.00     0.038 H 
BRANCH  40  42
ATOM     42  CD1 LEU d   1       9.262   6.703  29.753  0.00  0.00    -0.073 C 
ATOM     43  H8  LEU d   1       8.477   7.314  29.284  0.00  0.00     0.028 H 
ATOM     44  H9  LEU d   1       9.823   7.316  30.473  0.00  0.00     0.028 H 
ATOM     45  H10 LEU d   1       8.801   5.852  30.276  0.00  0.00     0.028 H 
ENDBRANCH  40  42
BRANCH  40  46
ATOM     46  CD2 LEU d   1      10.787   7.342  27.887  0.00  0.00    -0.073 C 
ATOM     47  H11 LEU d   1      11.469   6.951  27.117  0.00  0.00     0.028 H 
ATOM     48  H12 LEU d   1      11.341   8.011  28.562  0.00  0.00     0.028 H 
ATOM     49  H13 LEU d   1       9.971   7.900  27.405  0.00  0.00     0.028 H 
ENDBRANCH  40  46
ENDBRANCH  37  40
ENDBRANCH  31  37
ENDBRANCH  28  31
ENDBRANCH  25  27
BRANCH  25  50
ATOM     50  CB  LEU d   1       6.640   1.740  30.312  0.00  0.00    -0.014 C 
ATOM     51  H16 LEU d   1       6.147   2.657  30.666  0.00  0.00     0.043 H 
ATOM     52  H17 LEU d   1       7.093   1.215  31.166  0.00  0.00     0.043 H 
BRANCH  50  53
ATOM     53  CG  LEU d   1       5.612   0.844  29.672  0.00  0.00    -0.056 A 
ATOM     54  CD1 LEU d   1       5.974  -0.384  29.131  0.00  0.00    -0.074 A 
ATOM     55  CE1 LEU d   1       5.042  -1.202  28.510  0.00  0.00    -0.051 A 
ATOM     56  H18 LEU d   1       7.006  -0.709  29.196  0.00  0.00     0.084 H 
ATOM     57  CZ  LEU d   1       3.722  -0.780  28.403  0.00  0.00     0.065 A 
ATOM     58  H20 LEU d   1       5.341  -2.164  28.111  0.00  0.00     0.087 H 
ATOM     59  CE2 LEU d   1       3.353   0.453  28.920  0.00  0.00    -0.051 A 
ATOM     60  CD2 LEU d   1       4.294   1.256  29.538  0.00  0.00    -0.074 A 
ATOM     61  H21 LEU d   1       2.325   0.788  28.840  0.00  0.00     0.087 H 
ATOM     62  H19 LEU d   1       3.997   2.224  29.924  0.00  0.00     0.084 H 
BRANCH  57  63
ATOM     63  OH  LEU d   1       2.771  -1.520  27.745  0.00  0.00    -0.361 OA
ATOM     64  H22 LEU d   1       3.157  -2.335  27.445  0.00  0.00     0.217 HD
ENDBRANCH  57  63
ENDBRANCH  50  53
ENDBRANCH  25  50
ENDBRANCH  22  25
ENDBRANCH  19  21
BRANCH  19  65
ATOM     65  CB  LEU d   1       7.214   1.780  24.557  0.00  0.00     0.036 C 
ATOM     66  H25 LEU d   1       7.075   0.692  24.646  0.00  0.00     0.051 H 
ATOM     67  H26 LEU d   1       8.287   2.017  24.596  0.00  0.00     0.051 H 
BRANCH  65  68
ATOM     68  CG  LEU d   1       6.664   2.233  23.234  0.00  0.00     0.217 C 
ATOM     69  OD1 LEU d   1       5.597   2.854  23.167  0.00  0.00    -0.274 OA
ATOM     70  ND2 LEU d   1       7.372   1.892  22.171  0.00  0.00    -0.370 N 
ATOM     71  H27 LEU d   1       7.064   2.160  21.258  0.00  0.00     0.159 HD
ATOM     72  H28 LEU d   1       8.215   1.365  22.280  0.00  0.00     0.159 HD
ENDBRANCH  65  68
ENDBRANCH  19  65
ENDBRANCH  16  19
ENDBRANCH  13  15
BRANCH  13  73
ATOM     73  CB  LEU d   1       2.196   4.256  26.914  0.00  0.00    -0.036 C 
ATOM     74  H31 LEU d   1       1.102   4.303  26.807  0.00  0.00     0.036 H 
ATOM     75  H32 LEU d   1       2.643   5.185  26.530  0.00  0.00     0.036 H 
BRANCH  73  76
ATOM     76  CG  LEU d   1       2.537   4.122  28.385  0.00  0.00    -0.048 C 
ATOM     77  H33 LEU d   1       3.627   4.010  28.486  0.00  0.00     0.035 H 
ATOM     78  H34 LEU d   1       2.038   3.226  28.783  0.00  0.00     0.035 H 
BRANCH  76  79
ATOM     79  CD  LEU d   1       2.094   5.325  29.192  0.00  0.00     0.009 C 
ATOM     80  H35 LEU d   1       2.179   5.094  30.264  0.00  0.00     0.064 H 
ATOM     81  H36 LEU d   1       1.047   5.559  28.950  0.00  0.00     0.064 H 
BRANCH  79  82
ATOM     82  NE  LEU d   1       2.921   6.470  28.884  0.00  0.00    -0.227 N 
ATOM     83  CZ  LEU d   1       2.479   7.716  28.853  0.00  0.00     0.665 C 
ATOM     84  NH1 LEU d   1       1.186   7.981  29.028  0.00  0.00    -0.235 N 
ATOM     85  NH2 LEU d   1       3.343   8.678  28.613  0.00  0.00    -0.235 N 
ATOM     86  H38 LEU d   1       0.852   8.955  29.002  0.00  0.00     0.174 HD
ATOM     87  H39 LEU d   1       0.520   7.212  29.189  0.00  0.00     0.174 HD
ATOM     88  H40 LEU d   1       4.340   8.454  28.480  0.00  0.00     0.174 HD
ATOM     89  H41 LEU d   1       3.023   9.655  28.558  0.00  0.00     0.174 HD
ATOM     90  H37 LEU d   1       3.916   6.305  28.676  0.00  0.00     0.177 HD
ENDBRANCH  79  82
ENDBRANCH  76  79
ENDBRANCH  73  76
ENDBRANCH  13  73
ENDBRANCH  10  13
ENDBRANCH   7   9
BRANCH   7  91
ATOM     91  CB  LEU d   1       2.990   2.310  21.266  0.00  0.00     0.060 C 
ATOM     92  H44 LEU d   1       3.607   1.409  21.398  0.00  0.00     0.086 H 
BRANCH  91  93
ATOM     93  OG1 LEU d   1       3.803   3.474  21.407  0.00  0.00    -0.393 OA
ATOM     94  H45 LEU d   1       4.217   3.468  22.262  0.00  0.00     0.210 HD
ENDBRANCH  91  93
BRANCH  91  95
ATOM     95  CG2 LEU d   1       2.374   2.268  19.895  0.00  0.00    -0.050 C 
ATOM     96  H46 LEU d   1       3.170   2.224  19.137  0.00  0.00     0.031 H 
ATOM     97  H47 LEU d   1       1.767   3.172  19.738  0.00  0.00     0.031 H 
ATOM     98  H48 LEU d   1       1.735   1.377  19.807  0.00  0.00     0.031 H 
ENDBRANCH  91  95
ENDBRANCH   7  91
ENDBRANCH   4   7
ENDBRANCH   1   3
BRANCH   1  99
ATOM     99  C   LEU d   1       0.096  -1.426  21.077  0.00  0.00     0.241 C 
ATOM    100  O   LEU d   1       1.012  -1.206  20.272  0.00  0.00    -0.271 OA
ATOM    101  N   LEU d   1      -0.212  -2.626  21.553  0.00  0.00    -0.346 N 
ATOM    102  H62 LEU d   1      -1.060  -2.722  22.074  0.00  0.00     0.163 HD
BRANCH 101 103
ATOM    103  CA  LEU d   1       0.626  -3.830  21.358  0.00  0.00     0.089 C 
ATOM    104  H63 LEU d   1       1.609  -3.513  20.980  0.00  0.00     0.087 H 
BRANCH 103 105
ATOM    105  C   LEU d   1      -0.003  -4.748  20.303  0.00  0.00     0.241 C 
ATOM    106  O   LEU d   1      -1.207  -4.965  20.279  0.00  0.00    -0.271 OA
ATOM    107  N   LEU d   1       0.867  -5.329  19.490  0.00  0.00    -0.346 N 
ATOM    108  H75 LEU d   1       1.827  -5.077  19.609  0.00  0.00     0.163 HD
BRANCH 107 109
ATOM    109  CA  LEU d   1       0.569  -6.309  18.428  0.00  0.00     0.092 C 
ATOM    110  H76 LEU d   1      -0.455  -6.149  18.059  0.00  0.00     0.088 H 
BRANCH 109 111
ATOM    111  C   LEU d   1       0.670  -7.719  19.005  0.00  0.00     0.241 C 
ATOM    112  O   LEU d   1       1.666  -8.044  19.690  0.00  0.00    -0.271 OA
ATOM    113  N   LEU d   1      -0.321  -8.534  18.703  0.00  0.00    -0.344 N 
ATOM    114  H86 LEU d   1      -1.105  -8.152  18.213  0.00  0.00     0.163 HD
BRANCH 113 115
ATOM    115  CA  LEU d   1      -0.355  -9.973  19.037  0.00  0.00     0.109 C 
ATOM    116  H87 LEU d   1       0.394 -10.182  19.815  0.00  0.00     0.090 H 
BRANCH 115 117
ATOM    117  C   LEU d   1       0.001 -10.757  17.772  0.00  0.00     0.243 C 
ATOM    118  O   LEU d   1      -0.485 -10.377  16.681  0.00  0.00    -0.271 OA
ATOM    119  N   LEU d   1       0.763 -11.831  17.941  0.00  0.00    -0.346 N 
ATOM    120  H91 LEU d   1       0.944 -12.132  18.877  0.00  0.00     0.163 HD
BRANCH 119 121
ATOM    121  CA  LEU d   1       1.365 -12.616  16.829  0.00  0.00     0.090 C 
ATOM    122  H92 LEU d   1       0.769 -12.469  15.916  0.00  0.00     0.087 H 
BRANCH 121 123
ATOM    123  C   LEU d   1       1.370 -14.089  17.220  0.00  0.00     0.241 C 
ATOM    124  O   LEU d   1       1.457 -14.384  18.411  0.00  0.00    -0.271 OA
ATOM    125  N   LEU d   1       1.319 -14.959  16.228  0.00  0.00    -0.344 N 
ATOM    126  H99 LEU d   1       1.242 -14.609  15.294  0.00  0.00     0.163 HD
BRANCH 125 127
ATOM    127  CA  LEU d   1       1.369 -16.421  16.425  0.00  0.00     0.113 C 
ATOM    128 0H10 LEU d   1       1.558 -16.621  17.490  0.00  0.00     0.091 H 
BRANCH 127 129
ATOM    129  C   LEU d   1       2.574 -16.929  15.651  0.00  0.00     0.243 C 
ATOM    130  O   LEU d   1       2.702 -16.572  14.466  0.00  0.00    -0.271 OA
ATOM    131  N   LEU d   1       3.406 -17.701  16.354  0.00  0.00    -0.343 N 
ATOM    132 6H10 LEU d   1       3.036 -18.094  17.196  0.00  0.00     0.163 HD
BRANCH 131 133
ATOM    133  CA  LEU d   1       4.818 -18.047  16.036  0.00  0.00     0.116 C 
ATOM    134 7H10 LEU d   1       5.233 -18.598  16.893  0.00  0.00     0.093 H 
BRANCH 133 135
ATOM    135  C   LEU d   1       5.639 -16.766  15.866  0.00  0.00     0.198 C 
ATOM    136  O   LEU d   1       5.868 -16.112  16.887  0.00  0.00    -0.646 OA
ATOM    137  OXT LEU d   1       6.007 -16.488  14.721  0.00  0.00    -0.646 OA
ENDBRANCH 133 135
BRANCH 133 138
ATOM    138  CB  LEU d   1       4.901 -18.945  14.847  0.00  0.00     0.045 C 
ATOM    139 8H10 LEU d   1       5.932 -19.311  14.736  0.00  0.00     0.077 H 
ATOM    140 9H10 LEU d   1       4.611 -18.386  13.945  0.00  0.00     0.077 H 
BRANCH 138 141
ATOM    141  OG  LEU d   1       4.028 -20.044  15.021  0.00  0.00    -0.398 OA
ATOM    142 0H11 LEU d   1       4.083 -20.614  14.263  0.00  0.00     0.209 HD
ENDBRANCH 138 141
ENDBRANCH 133 138
ENDBRANCH 131 133
ENDBRANCH 127 129
BRANCH 127 143
ATOM    143  CB  LEU d   1       0.021 -17.064  16.098  0.00  0.00     0.060 C 
ATOM    144 1H10 LEU d   1      -0.756 -16.579  16.708  0.00  0.00     0.086 H 
BRANCH 143 145
ATOM    145  OG1 LEU d   1       0.121 -18.434  16.478  0.00  0.00    -0.393 OA
ATOM    146 2H10 LEU d   1      -0.700 -18.874  16.291  0.00  0.00     0.210 HD
ENDBRANCH 143 145
BRANCH 143 147
ATOM    147  CG2 LEU d   1      -0.378 -16.921  14.653  0.00  0.00    -0.050 C 
ATOM    148 3H10 LEU d   1      -1.353 -17.405  14.492  0.00  0.00     0.031 H 
ATOM    149 4H10 LEU d   1       0.379 -17.400  14.014  0.00  0.00     0.031 H 
ATOM    150 5H10 LEU d   1      -0.452 -15.854  14.397  0.00  0.00     0.031 H 
ENDBRANCH 143 147
ENDBRANCH 127 143
ENDBRANCH 125 127
ENDBRANCH 121 123
BRANCH 121 151
ATOM    151  CB  LEU d   1       2.822 -12.201  16.564  0.00  0.00    -0.030 C 
ATOM    152  H93 LEU d   1       3.248 -12.875  15.806  0.00  0.00     0.037 H 
ATOM    153  H94 LEU d   1       3.391 -12.296  17.501  0.00  0.00     0.037 H 
BRANCH 151 154
ATOM    154  CG  LEU d   1       2.943 -10.769  16.064  0.00  0.00     0.011 C 
ATOM    155  H95 LEU d   1       2.552 -10.094  16.840  0.00  0.00     0.047 H 
ATOM    156  H96 LEU d   1       2.339 -10.666  15.151  0.00  0.00     0.047 H 
BRANCH 154 157
ATOM    157  CD  LEU d   1       4.364 -10.363  15.747  0.00  0.00     0.215 C 
ATOM    158  OE1 LEU d   1       5.047 -10.986  14.935  0.00  0.00    -0.274 OA
ATOM    159  NE2 LEU d   1       4.817  -9.301  16.395  0.00  0.00    -0.370 N 
ATOM    160  H97 LEU d   1       5.749  -8.977  16.234  0.00  0.00     0.159 HD
ATOM    161  H98 LEU d   1       4.227  -8.823  17.046  0.00  0.00     0.159 HD
ENDBRANCH 154 157
ENDBRANCH 151 154
ENDBRANCH 121 151
ENDBRANCH 119 121
ENDBRANCH 115 117
BRANCH 115 162
ATOM    162  CB  LEU d   1      -1.703 -10.369  19.553  0.00  0.00     0.044 C 
ATOM    163  H88 LEU d   1      -1.683 -11.434  19.827  0.00  0.00     0.077 H 
ATOM    164  H89 LEU d   1      -2.451 -10.207  18.763  0.00  0.00     0.077 H 
BRANCH 162 165
ATOM    165  OG  LEU d   1      -2.062  -9.604  20.694  0.00  0.00    -0.398 OA
ATOM    166  H90 LEU d   1      -2.920  -9.876  20.999  0.00  0.00     0.209 HD
ENDBRANCH 162 165
ENDBRANCH 115 162
ENDBRANCH 113 115
ENDBRANCH 109 111
BRANCH 109 167
ATOM    167  CB  LEU d   1       1.564  -6.096  17.257  0.00  0.00    -0.030 C 
ATOM    168  H77 LEU d   1       2.577  -6.109  17.685  0.00  0.00     0.043 H 
BRANCH 167 169
ATOM    169  CG1 LEU d   1       1.376  -4.732  16.586  0.00  0.00    -0.063 C 
ATOM    170  H78 LEU d   1       1.310  -3.966  17.373  0.00  0.00     0.033 H 
ATOM    171  H79 LEU d   1       0.435  -4.754  16.017  0.00  0.00     0.033 H 
BRANCH 169 172
ATOM    172  CD1 LEU d   1       2.512  -4.340  15.625  0.00  0.00    -0.076 C 
ATOM    173  H83 LEU d   1       2.299  -3.353  15.189  0.00  0.00     0.027 H 
ATOM    174  H84 LEU d   1       2.587  -5.087  14.821  0.00  0.00     0.027 H 
ATOM    175  H85 LEU d   1       3.462  -4.300  16.178  0.00  0.00     0.027 H 
ENDBRANCH 169 172
ENDBRANCH 167 169
BRANCH 167 176
ATOM    176  CG2 LEU d   1       1.486  -7.230  16.255  0.00  0.00    -0.071 C 
ATOM    177  H80 LEU d   1       1.625  -8.189  16.775  0.00  0.00     0.028 H 
ATOM    178  H81 LEU d   1       2.274  -7.105  15.498  0.00  0.00     0.028 H 
ATOM    179  H82 LEU d   1       0.501  -7.219  15.764  0.00  0.00     0.028 H 
ENDBRANCH 167 176
ENDBRANCH 109 167
ENDBRANCH 107 109
ENDBRANCH 103 105
BRANCH 103 180
ATOM    180  CB  LEU d   1       0.842  -4.514  22.707  0.00  0.00    -0.036 C 
ATOM    181  H64 LEU d   1       1.316  -5.490  22.528  0.00  0.00     0.036 H 
ATOM    182  H65 LEU d   1      -0.140  -4.665  23.180  0.00  0.00     0.036 H 
BRANCH 180 183
ATOM    183  CG  LEU d   1       1.717  -3.727  23.665  0.00  0.00    -0.048 C 
ATOM    184  H66 LEU d   1       1.546  -2.654  23.491  0.00  0.00     0.035 H 
ATOM    185  H67 LEU d   1       2.769  -3.969  23.454  0.00  0.00     0.035 H 
BRANCH 183 186
ATOM    186  CD  LEU d   1       1.443  -4.023  25.112  0.00  0.00     0.009 C 
ATOM    187  H68 LEU d   1       2.175  -3.476  25.724  0.00  0.00     0.064 H 
ATOM    188  H69 LEU d   1       1.564  -5.104  25.275  0.00  0.00     0.064 H 
BRANCH 186 189
ATOM    189  NE  LEU d   1       0.105  -3.639  25.541  0.00  0.00    -0.227 N 
ATOM    190  CZ  LEU d   1      -0.258  -3.555  26.810  0.00  0.00     0.665 C 
ATOM    191  NH1 LEU d   1       0.619  -3.843  27.756  0.00  0.00    -0.235 N 
ATOM    192  NH2 LEU d   1      -1.491  -3.153  27.123  0.00  0.00    -0.235 N 
ATOM    193  H71 LEU d   1       0.346  -3.781  28.747  0.00  0.00     0.174 HD
ATOM    194  H72 LEU d   1       1.575  -4.130  27.502  0.00  0.00     0.174 HD
ATOM    195  H73 LEU d   1      -2.166  -2.932  26.377  0.00  0.00     0.174 HD
ATOM    196  H74 LEU d   1      -1.768  -3.064  28.111  0.00  0.00     0.174 HD
ATOM    197  H70 LEU d   1      -0.595  -3.421  24.818  0.00  0.00     0.177 HD
ENDBRANCH 186 189
ENDBRANCH 183 186
ENDBRANCH 180 183
ENDBRANCH 103 180
ENDBRANCH 101 103
ENDBRANCH   1  99
BRANCH   1 198
ATOM    198  CB  LEU d   1      -2.007  -0.039  20.750  0.00  0.00    -0.036 C 
ATOM    199  H51 LEU d   1      -2.343   0.998  20.895  0.00  0.00     0.036 H 
ATOM    200  H52 LEU d   1      -2.786  -0.730  21.104  0.00  0.00     0.036 H 
BRANCH 198 201
ATOM    201  CG  LEU d   1      -1.808  -0.270  19.261  0.00  0.00    -0.048 C 
ATOM    202  H53 LEU d   1      -1.466  -1.306  19.123  0.00  0.00     0.035 H 
ATOM    203  H54 LEU d   1      -1.028   0.423  18.913  0.00  0.00     0.035 H 
BRANCH 201 204
ATOM    204  CD  LEU d   1      -3.041  -0.064  18.386  0.00  0.00     0.009 C 
ATOM    205  H55 LEU d   1      -2.713   0.032  17.341  0.00  0.00     0.064 H 
ATOM    206  H56 LEU d   1      -3.539   0.865  18.701  0.00  0.00     0.064 H 
BRANCH 204 207
ATOM    207  NE  LEU d   1      -4.010  -1.157  18.467  0.00  0.00    -0.227 N 
ATOM    208  CZ  LEU d   1      -5.069  -1.149  19.270  0.00  0.00     0.665 C 
ATOM    209  NH1 LEU d   1      -5.891  -2.183  19.296  0.00  0.00    -0.235 N 
ATOM    210  NH2 LEU d   1      -5.281  -0.110  20.058  0.00  0.00    -0.235 N 
ATOM    211  H58 LEU d   1      -6.711  -2.174  19.919  0.00  0.00     0.174 HD
ATOM    212  H59 LEU d   1      -5.712  -2.998  18.693  0.00  0.00     0.174 HD
ATOM    213  H60 LEU d   1      -4.638   0.694  20.035  0.00  0.00     0.174 HD
ATOM    214  H61 LEU d   1      -6.090  -0.104  20.696  0.00  0.00     0.174 HD
ATOM    215  H57 LEU d   1      -3.863  -1.981  17.867  0.00  0.00     0.177 HD
ENDBRANCH 204 207
ENDBRANCH 201 204
ENDBRANCH 198 201
ENDBRANCH   1 198
TORSDOF 62
