REMARK  8 active torsions:
REMARK  status: ('A' for Active; 'I' for Inactive)
REMARK    1  A    between atoms: O3A_8  and  PB_1 
REMARK    2  A    between atoms: PA_5  and  O3A_8 
REMARK    3  A    between atoms: PA_5  and  O5'_9 
REMARK    4  A    between atoms: O5'_9  and  C5'_10 
REMARK    5  A    between atoms: C5'_10  and  C4'_11 
REMARK    6  A    between atoms: C3'_13  and  O3'_14 
REMARK    7  A    between atoms: C2'_15  and  O2'_16 
REMARK    8  A    between atoms: C1'_17  and  N9_18 
ROOT
ATOM      1  C4' ADP d   1      12.778  34.357 -10.706  0.00  0.00     0.089 C 
ATOM      2  O4' ADP d   1      12.228  34.632  -9.394  0.00  0.00    -0.353 OA
ATOM      3  C3' ADP d   1      13.300  35.675 -11.260  0.00  0.00     0.091 C 
ATOM      4  C2' ADP d   1      12.340  36.672 -10.655  0.00  0.00     0.105 C 
ATOM      5  C1' ADP d   1      12.001  36.043  -9.300  0.00  0.00     0.139 C 
ATOM      6  H3  ADP d   1      11.979  33.999 -11.372  0.00  0.00     0.090 H 
ATOM      7  H4  ADP d   1      14.326  35.869 -10.914  0.00  0.00     0.091 H 
ATOM      8  H6  ADP d   1      12.773  37.680 -10.575  0.00  0.00     0.093 H 
ATOM      9  H8  ADP d   1      10.941  36.233  -9.075  0.00  0.00     0.122 H 
ENDROOT
BRANCH   5  10
ATOM     10  N9  ADP d   1      12.824  36.585  -8.202  0.00  0.00    -0.294 N 
ATOM     11  C8  ADP d   1      14.043  36.184  -7.803  0.00  0.00     0.071 A 
ATOM     12  N7  ADP d   1      14.470  36.937  -6.763  0.00  0.00    -0.236 NA
ATOM     13  H9  ADP d   1      14.607  35.368  -8.253  0.00  0.00     0.144 H 
ATOM     14  C5  ADP d   1      13.497  37.826  -6.502  0.00  0.00     0.149 A 
ATOM     15  C6  ADP d   1      13.305  38.897  -5.524  0.00  0.00     0.155 A 
ATOM     16  C4  ADP d   1      12.414  37.596  -7.450  0.00  0.00     0.167 A 
ATOM     17  N6  ADP d   1      14.266  39.176  -4.607  0.00  0.00    -0.382 N 
ATOM     18  N1  ADP d   1      12.155  39.582  -5.589  0.00  0.00    -0.222 NA
ATOM     19  H10 ADP d   1      14.121  39.932  -3.923  0.00  0.00     0.157 HD
ATOM     20  H11 ADP d   1      15.140  38.632  -4.595  0.00  0.00     0.157 HD
ATOM     21  C2  ADP d   1      11.189  39.319  -6.487  0.00  0.00     0.091 A 
ATOM     22  N3  ADP d   1      11.297  38.351  -7.413  0.00  0.00    -0.222 NA
ATOM     23  H12 ADP d   1      10.283  39.914  -6.463  0.00  0.00     0.146 H 
ENDBRANCH   5  10
BRANCH   4  24
ATOM     24  O2' ADP d   1      11.115  36.671 -11.383  0.00  0.00    -0.388 OA
ATOM     25  H7  ADP d   1      10.518  37.300 -10.996  0.00  0.00     0.210 HD
ENDBRANCH   4  24
BRANCH   1  26
ATOM     26  C5' ADP d   1      13.801  33.254 -10.574  0.00  0.00     0.058 C 
ATOM     27  H1  ADP d   1      13.344  32.383 -10.082  0.00  0.00     0.079 H 
ATOM     28  H2  ADP d   1      14.162  32.964 -11.572  0.00  0.00     0.079 H 
BRANCH  26  29
ATOM     29  O5' ADP d   1      14.885  33.728  -9.794  0.00  0.00    -0.287 OA
BRANCH  29  30
ATOM     30  PA  ADP d   1      16.173  32.796  -9.618  0.00  0.00     0.418 P 
ATOM     31  O1A ADP d   1      15.729  31.403  -9.354  0.00  0.00    -0.624 OA
ATOM     32  O2A ADP d   1      17.067  33.474  -8.620  0.00  0.00    -0.624 OA
BRANCH  30  33
ATOM     33  O3A ADP d   1      16.907  32.811 -11.062  0.00  0.00    -0.173 OA
BRANCH  33  34
ATOM     34  PB  ADP d   1      16.775  33.741 -12.380  0.00  0.00     0.431 P 
ATOM     35  O1B ADP d   1      17.042  32.750 -13.488  0.00  0.00    -0.616 OA
ATOM     36  O2B ADP d   1      17.882  34.725 -12.200  0.00  0.00    -0.616 OA
ATOM     37  O3B ADP d   1      15.422  34.427 -12.466  0.00  0.00    -0.616 OA
ENDBRANCH  33  34
ENDBRANCH  30  33
ENDBRANCH  29  30
ENDBRANCH  26  29
ENDBRANCH   1  26
BRANCH   3  38
ATOM     38  O3' ADP d   1      13.291  35.673 -12.684  0.00  0.00    -0.390 OA
ATOM     39  H5  ADP d   1      13.844  34.969 -13.002  0.00  0.00     0.210 HD
ENDBRANCH   3  38
TORSDOF 8
