REMARK  2 active torsions:
REMARK  status: ('A' for Active; 'I' for Inactive)
REMARK    1  A    between atoms: C2'_10  and  O2'_11 
REMARK    2  A    between atoms: C1'_12  and  N9_13 
ROOT
ATOM      1  P   CMP d   1      -1.087 -17.015  -2.130  0.00  0.00     0.408 P 
ATOM      2  O1P CMP d   1      -2.097 -17.448  -3.161  0.00  0.00    -0.624 OA
ATOM      3  O2P CMP d   1       0.382 -16.904  -2.448  0.00  0.00    -0.624 OA
ATOM      4  O5' CMP d   1      -1.166 -18.006  -0.874  0.00  0.00    -0.287 OA
ATOM      5  C5' CMP d   1      -0.844 -17.569   0.446  0.00  0.00     0.058 C 
ATOM      6  C4' CMP d   1      -1.298 -16.144   0.639  0.00  0.00     0.090 C 
ATOM      7  O4' CMP d   1      -0.777 -15.542   1.845  0.00  0.00    -0.353 OA
ATOM      8  C3' CMP d   1      -0.827 -15.204  -0.434  0.00  0.00     0.106 C 
ATOM      9  O3' CMP d   1      -1.468 -15.490  -1.654  0.00  0.00    -0.279 OA
ATOM     10  C2' CMP d   1      -1.092 -13.843   0.200  0.00  0.00     0.106 C 
ATOM     11  C1' CMP d   1      -0.684 -14.134   1.653  0.00  0.00     0.140 C 
ATOM     12  H1  CMP d   1       0.244 -17.628   0.595  0.00  0.00     0.079 H 
ATOM     13  H2  CMP d   1      -1.350 -18.215   1.178  0.00  0.00     0.079 H 
ATOM     14  H3  CMP d   1      -2.398 -16.147   0.670  0.00  0.00     0.090 H 
ATOM     15  H4  CMP d   1       0.255 -15.318  -0.597  0.00  0.00     0.092 H 
ATOM     16  H5  CMP d   1      -0.501 -13.039  -0.263  0.00  0.00     0.093 H 
ATOM     17  H7  CMP d   1      -1.372 -13.614   2.336  0.00  0.00     0.122 H 
ENDROOT
BRANCH  11  18
ATOM     18  N9  CMP d   1       0.698 -13.702   1.939  0.00  0.00    -0.294 N 
ATOM     19  C8  CMP d   1       1.823 -14.441   1.764  0.00  0.00     0.071 A 
ATOM     20  N7  CMP d   1       2.934 -13.738   2.118  0.00  0.00    -0.236 NA
ATOM     21  H8  CMP d   1       1.835 -15.463   1.389  0.00  0.00     0.144 H 
ATOM     22  C5  CMP d   1       2.527 -12.517   2.544  0.00  0.00     0.149 A 
ATOM     23  C6  CMP d   1       3.169 -11.273   3.054  0.00  0.00     0.155 A 
ATOM     24  C4  CMP d   1       1.051 -12.500   2.413  0.00  0.00     0.167 A 
ATOM     25  N6  CMP d   1       4.517 -11.145   3.229  0.00  0.00    -0.382 N 
ATOM     26  N1  CMP d   1       2.352 -10.240   3.372  0.00  0.00    -0.222 NA
ATOM     27  H9  CMP d   1       4.909 -10.261   3.585  0.00  0.00     0.157 HD
ATOM     28  H10 CMP d   1       5.143 -11.932   3.005  0.00  0.00     0.157 HD
ATOM     29  C2  CMP d   1       1.022 -10.316   3.230  0.00  0.00     0.091 A 
ATOM     30  N3  CMP d   1       0.364 -11.382   2.768  0.00  0.00    -0.222 NA
ATOM     31  H11 CMP d   1       0.437  -9.448   3.511  0.00  0.00     0.146 H 
ENDBRANCH  11  18
BRANCH  10  32
ATOM     32  O2' CMP d   1      -2.481 -13.531   0.180  0.00  0.00    -0.388 OA
ATOM     33  H6  CMP d   1      -2.619 -12.680   0.580  0.00  0.00     0.210 HD
ENDBRANCH  10  32
TORSDOF 2
