REMARK WARNING: 32 MAX_TORS EXCEEDED!!!
REMARK  47 active torsions:
REMARK  status: ('A' for Active; 'I' for Inactive)
REMARK    1  A    between atoms: C2_2  and  O2_7 
REMARK    2  A    between atoms: C3_3  and  O3_8 
REMARK    3  A    between atoms: C4_4  and  O4_9 
REMARK    4  A    between atoms: C5_5  and  C6_6 
REMARK    5  A    between atoms: C6_6  and  O6_11 
REMARK    6  A    between atoms: O3_8  and  C1_12 
REMARK    7  A    between atoms: O6_11  and  C1_45 
REMARK    8  A    between atoms: C2_13  and  O2_18 
REMARK    9  A    between atoms: C3_14  and  O3_19 
REMARK   10  A    between atoms: C4_15  and  O4_20 
REMARK   11  A    between atoms: C5_16  and  C6_17 
REMARK   12  A    between atoms: C6_17  and  O6_22 
REMARK   13  A    between atoms: O2_18  and  C1_23 
REMARK   14  A    between atoms: C2_24  and  O2_29 
REMARK   15  A    between atoms: C3_25  and  O3_30 
REMARK   16  A    between atoms: C4_26  and  O4_31 
REMARK   17  A    between atoms: C5_27  and  C6_28 
REMARK   18  A    between atoms: C6_28  and  O6_33 
REMARK   19  A    between atoms: O2_29  and  C1_34 
REMARK   20  A    between atoms: C2_35  and  O2_40 
REMARK   21  A    between atoms: C3_36  and  O3_41 
REMARK   22  A    between atoms: C4_37  and  O4_42 
REMARK   23  A    between atoms: C5_38  and  C6_39 
REMARK   24  A    between atoms: C6_39  and  O6_44 
REMARK   25  A    between atoms: C2_46  and  O2_51 
REMARK   26  A    between atoms: C3_47  and  O3_52 
REMARK   27  A    between atoms: C4_48  and  O4_53 
REMARK   28  A    between atoms: C5_49  and  C6_50 
REMARK   29  A    between atoms: C6_50  and  O6_55 
REMARK   30  A    between atoms: O3_52  and  C1_67 
REMARK   31  A    between atoms: O6_55  and  C1_56 
REMARK   32  A    between atoms: C2_57  and  O2_62 
REMARK   33  A    between atoms: C3_58  and  O3_63 
REMARK   34  A    between atoms: C4_59  and  O4_64 
REMARK   35  A    between atoms: C5_60  and  C6_61 
REMARK   36  A    between atoms: C6_61  and  O6_66 
REMARK   37  A    between atoms: O2_62  and  C1_78 
REMARK   38  A    between atoms: C2_68  and  O2_73 
REMARK   39  A    between atoms: C3_69  and  O3_74 
REMARK   40  A    between atoms: C4_70  and  O4_75 
REMARK   41  A    between atoms: C5_71  and  C6_72 
REMARK   42  A    between atoms: C6_72  and  O6_77 
REMARK   43  A    between atoms: C2_79  and  O2_84 
REMARK   44  A    between atoms: C3_80  and  O3_85 
REMARK   45  A    between atoms: C4_81  and  O4_86 
REMARK   46  A    between atoms: C5_82  and  C6_83 
REMARK   47  A    between atoms: C6_83  and  O6_88 
ROOT
ATOM      1  H42 BMA d   1      -1.169 -46.696 -11.441  0.00  0.00     0.133 H 
ATOM      2  H43 BMA d   1      -0.447 -44.573 -10.216  0.00  0.00     0.094 H 
ATOM      3  H44 BMA d   1      -1.270 -42.826 -11.649  0.00  0.00     0.091 H 
ATOM      4  H45 BMA d   1       0.462 -43.890 -13.915  0.00  0.00     0.091 H 
ATOM      5  H46 BMA d   1      -2.576 -44.038 -13.527  0.00  0.00     0.090 H 
ATOM      6  C1  MAN d   1      -1.376 -45.687 -11.827  0.00  0.00     0.158 C 
ATOM      7  C2  MAN d   1      -0.298 -44.708 -11.298  0.00  0.00     0.110 C 
ATOM      8  C3  MAN d   1      -0.373 -43.351 -12.011  0.00  0.00     0.098 C 
ATOM      9  C4  MAN d   1      -0.486 -43.502 -13.513  0.00  0.00     0.090 C 
ATOM     10  C5  MAN d   1      -1.618 -44.463 -13.863  0.00  0.00     0.089 C 
ATOM     11  O5  MAN d   1      -1.371 -45.720 -13.217  0.00  0.00    -0.348 OA
ENDROOT
BRANCH   6  12
ATOM     12  O6  BMA d   1      -2.671 -45.251 -11.365  0.00  0.00    -0.356 OA
BRANCH  12  13
ATOM     13  C6  BMA d   1      -3.602 -46.326 -11.507  0.00  0.00     0.049 C 
ATOM     14  H7  BMA d   1      -3.664 -46.623 -12.564  0.00  0.00     0.078 H 
ATOM     15  H8  BMA d   1      -3.270 -47.184 -10.904  0.00  0.00     0.078 H 
BRANCH  13  16
ATOM     16  C5  BMA d   1      -4.977 -45.859 -11.023  0.00  0.00     0.086 C 
ATOM     17  C4  BMA d   1      -5.042 -44.317 -10.881  0.00  0.00     0.090 C 
ATOM     18  C3  BMA d   1      -6.223 -43.825 -10.024  0.00  0.00     0.095 C 
ATOM     19  H5  BMA d   1      -4.109 -43.977 -10.409  0.00  0.00     0.091 H 
ATOM     20  C2  BMA d   1      -6.416 -44.685  -8.797  0.00  0.00     0.083 C 
ATOM     21  H4  BMA d   1      -7.142 -43.874 -10.627  0.00  0.00     0.091 H 
ATOM     22  C1  BMA d   1      -6.485 -46.163  -9.206  0.00  0.00     0.046 C 
ATOM     23  H3  BMA d   1      -7.340 -44.410  -8.268  0.00  0.00     0.090 H 
ATOM     24  O5  BMA d   1      -5.278 -46.531  -9.756  0.00  0.00    -0.378 OA
ATOM     25  H1  BMA d   1      -7.286 -46.304  -9.946  0.00  0.00     0.078 H 
ATOM     26  H2  BMA d   1      -6.691 -46.782  -8.320  0.00  0.00     0.078 H 
ATOM     27  H6  BMA d   1      -5.729 -46.162 -11.766  0.00  0.00     0.090 H 
BRANCH  17  28
ATOM     28  O4  BMA d   1      -5.147 -43.744 -12.162  0.00  0.00    -0.390 OA
ATOM     29  H10 BMA d   1      -5.187 -42.798 -12.082  0.00  0.00     0.210 HD
ENDBRANCH  17  28
BRANCH  18  30
ATOM     30  O3  BMA d   1      -5.979 -42.458  -9.658  0.00  0.00    -0.348 OA
BRANCH  30  31
ATOM     31  C1  MAN d   1      -7.207 -41.710  -9.662  0.00  0.00     0.159 C 
ATOM     32  C2  MAN d   1      -6.840 -40.238  -9.852  0.00  0.00     0.116 C 
ATOM     33  C3  MAN d   1      -6.014 -39.765  -8.670  0.00  0.00     0.092 C 
ATOM     34  H12 BMA d   1      -6.305 -40.091 -10.802  0.00  0.00     0.095 H 
ATOM     35  C4  MAN d   1      -6.766 -40.011  -7.346  0.00  0.00     0.090 C 
ATOM     36  H13 BMA d   1      -5.089 -40.360  -8.650  0.00  0.00     0.091 H 
ATOM     37  C5  MAN d   1      -7.204 -41.482  -7.244  0.00  0.00     0.089 C 
ATOM     38  H14 BMA d   1      -7.652 -39.360  -7.301  0.00  0.00     0.091 H 
ATOM     39  O5  MAN d   1      -7.916 -41.879  -8.448  0.00  0.00    -0.348 OA
ATOM     40  H15 BMA d   1      -6.306 -42.105  -7.122  0.00  0.00     0.090 H 
ATOM     41  H11 BMA d   1      -7.840 -42.047 -10.496  0.00  0.00     0.133 H 
BRANCH  32  42
ATOM     42  O2  MAN d   1      -8.020 -39.463  -9.794  0.00  0.00    -0.346 OA
BRANCH  42  43
ATOM     43  C1  MAN d   1      -8.021 -38.481 -10.848  0.00  0.00     0.160 C 
ATOM     44  C2  MAN d   1      -9.326 -37.710 -10.697  0.00  0.00     0.116 C 
ATOM     45  C3  MAN d   1     -10.459 -38.685 -10.928  0.00  0.00     0.092 C 
ATOM     46  H22 BMA d   1      -9.392 -37.234  -9.708  0.00  0.00     0.095 H 
ATOM     47  C4  MAN d   1     -10.376 -39.242 -12.353  0.00  0.00     0.090 C 
ATOM     48  H23 BMA d   1     -10.341 -39.519 -10.220  0.00  0.00     0.091 H 
ATOM     49  C5  MAN d   1      -9.037 -39.936 -12.572  0.00  0.00     0.089 C 
ATOM     50  H24 BMA d   1     -10.478 -38.413 -13.069  0.00  0.00     0.091 H 
ATOM     51  O5  MAN d   1      -7.935 -39.080 -12.142  0.00  0.00    -0.348 OA
ATOM     52  H25 BMA d   1      -9.027 -40.867 -11.986  0.00  0.00     0.090 H 
ATOM     53  H21 BMA d   1      -7.167 -37.800 -10.719  0.00  0.00     0.133 H 
BRANCH  44  54
ATOM     54  O2  MAN d   1      -9.427 -36.750 -11.745  0.00  0.00    -0.346 OA
BRANCH  54  55
ATOM     55  C1  MAN d   1      -9.066 -35.434 -11.270  0.00  0.00     0.159 C 
ATOM     56  C2  MAN d   1      -9.481 -34.485 -12.409  0.00  0.00     0.110 C 
ATOM     57  C3  MAN d   1      -8.558 -34.704 -13.583  0.00  0.00     0.092 C 
ATOM     58  H32 BMA d   1     -10.529 -34.669 -12.689  0.00  0.00     0.094 H 
ATOM     59  C4  MAN d   1      -7.127 -34.405 -13.145  0.00  0.00     0.090 C 
ATOM     60  H33 BMA d   1      -8.619 -35.762 -13.877  0.00  0.00     0.091 H 
ATOM     61  C5  MAN d   1      -6.744 -35.424 -12.075  0.00  0.00     0.089 C 
ATOM     62  H34 BMA d   1      -7.070 -33.387 -12.733  0.00  0.00     0.091 H 
ATOM     63  O5  MAN d   1      -7.664 -35.323 -10.961  0.00  0.00    -0.348 OA
ATOM     64  H35 BMA d   1      -6.819 -36.429 -12.515  0.00  0.00     0.090 H 
ATOM     65  H31 BMA d   1      -9.639 -35.198 -10.361  0.00  0.00     0.133 H 
BRANCH  56  66
ATOM     66  O2  MAN d   1      -9.292 -33.122 -12.029  0.00  0.00    -0.388 OA
ATOM     67  H38 BMA d   1      -9.516 -32.557 -12.759  0.00  0.00     0.210 HD
ENDBRANCH  56  66
BRANCH  57  68
ATOM     68  O3  MAN d   1      -8.928 -33.915 -14.714  0.00  0.00    -0.390 OA
ATOM     69  H39 BMA d   1      -8.343 -34.107 -15.438  0.00  0.00     0.210 HD
ENDBRANCH  57  68
BRANCH  59  70
ATOM     70  O4  MAN d   1      -6.234 -34.521 -14.241  0.00  0.00    -0.390 OA
ATOM     71  H40 BMA d   1      -6.289 -35.398 -14.601  0.00  0.00     0.210 HD
ENDBRANCH  59  70
BRANCH  61  72
ATOM     72  C6  MAN d   1      -5.334 -35.234 -11.553  0.00  0.00     0.043 C 
ATOM     73  H36 BMA d   1      -4.657 -35.011 -12.390  0.00  0.00     0.078 H 
ATOM     74  H37 BMA d   1      -5.001 -36.151 -11.046  0.00  0.00     0.078 H 
BRANCH  72  75
ATOM     75  O6  MAN d   1      -5.329 -34.160 -10.641  0.00  0.00    -0.398 OA
ATOM     76  H41 BMA d   1      -5.916 -34.355  -9.920  0.00  0.00     0.209 HD
ENDBRANCH  72  75
ENDBRANCH  61  72
ENDBRANCH  54  55
ENDBRANCH  44  54
BRANCH  45  77
ATOM     77  O3  MAN d   1     -11.735 -38.098 -10.705  0.00  0.00    -0.390 OA
ATOM     78  H28 BMA d   1     -11.870 -37.391 -11.325  0.00  0.00     0.210 HD
ENDBRANCH  45  77
BRANCH  47  79
ATOM     79  O4  MAN d   1     -11.412 -40.179 -12.569  0.00  0.00    -0.390 OA
ATOM     80  H29 BMA d   1     -12.252 -39.757 -12.435  0.00  0.00     0.210 HD
ENDBRANCH  47  79
BRANCH  49  81
ATOM     81  C6  MAN d   1      -8.801 -40.264 -14.032  0.00  0.00     0.043 C 
ATOM     82  H26 BMA d   1      -8.696 -39.334 -14.610  0.00  0.00     0.078 H 
ATOM     83  H27 BMA d   1      -9.648 -40.846 -14.424  0.00  0.00     0.078 H 
BRANCH  81  84
ATOM     84  O6  MAN d   1      -7.604 -41.029 -14.128  0.00  0.00    -0.398 OA
ATOM     85  H30 BMA d   1      -6.877 -40.522 -13.785  0.00  0.00     0.209 HD
ENDBRANCH  81  84
ENDBRANCH  49  81
ENDBRANCH  42  43
ENDBRANCH  32  42
BRANCH  33  86
ATOM     86  O3  MAN d   1      -5.642 -38.384  -8.791  0.00  0.00    -0.390 OA
ATOM     87  H18 BMA d   1      -5.076 -38.145  -8.066  0.00  0.00     0.210 HD
ENDBRANCH  33  86
BRANCH  35  88
ATOM     88  O4  MAN d   1      -5.907 -39.719  -6.275  0.00  0.00    -0.390 OA
ATOM     89  H19 BMA d   1      -5.631 -38.812  -6.330  0.00  0.00     0.210 HD
ENDBRANCH  35  88
BRANCH  37  90
ATOM     90  C6  MAN d   1      -8.138 -41.730  -6.090  0.00  0.00     0.043 C 
ATOM     91  H16 BMA d   1      -9.134 -41.328  -6.325  0.00  0.00     0.078 H 
ATOM     92  H17 BMA d   1      -7.749 -41.240  -5.185  0.00  0.00     0.078 H 
BRANCH  90  93
ATOM     93  O6  MAN d   1      -8.224 -43.134  -5.877  0.00  0.00    -0.398 OA
ATOM     94  H20 BMA d   1      -8.558 -43.552  -6.662  0.00  0.00     0.209 HD
ENDBRANCH  90  93
ENDBRANCH  37  90
ENDBRANCH  30  31
ENDBRANCH  18  30
BRANCH  20  95
ATOM     95  O2  BMA d   1      -5.275 -44.410  -7.980  0.00  0.00    -0.391 OA
ATOM     96  H9  BMA d   1      -5.257 -43.485  -7.764  0.00  0.00     0.210 HD
ENDBRANCH  20  95
ENDBRANCH  13  16
ENDBRANCH  12  13
ENDBRANCH   6  12
BRANCH   7  97
ATOM     97  O2  MAN d   1       1.020 -45.183 -11.550  0.00  0.00    -0.388 OA
ATOM     98  H49 BMA d   1       1.651 -44.566 -11.198  0.00  0.00     0.210 HD
ENDBRANCH   7  97
BRANCH   8  99
ATOM     99  O3  MAN d   1       0.781 -42.552 -11.700  0.00  0.00    -0.348 OA
BRANCH  99 100
ATOM    100  C1  MAN d   1       0.416 -41.273 -11.120  0.00  0.00     0.159 C 
ATOM    101  C2  MAN d   1       1.725 -40.482 -10.852  0.00  0.00     0.110 C 
ATOM    102  C3  MAN d   1       2.540 -41.150  -9.735  0.00  0.00     0.092 C 
ATOM    103  H62 BMA d   1       2.316 -40.435 -11.779  0.00  0.00     0.094 H 
ATOM    104  C4  MAN d   1       1.675 -41.469  -8.490  0.00  0.00     0.090 C 
ATOM    105  H63 BMA d   1       2.916 -42.105 -10.131  0.00  0.00     0.091 H 
ATOM    106  C5  MAN d   1       0.391 -42.210  -8.904  0.00  0.00     0.089 C 
ATOM    107  H64 BMA d   1       1.406 -40.528  -7.988  0.00  0.00     0.091 H 
ATOM    108  O5  MAN d   1      -0.306 -41.448  -9.929  0.00  0.00    -0.348 OA
ATOM    109  H65 BMA d   1       0.688 -43.184  -9.320  0.00  0.00     0.090 H 
ATOM    110  H61 BMA d   1      -0.208 -40.715 -11.833  0.00  0.00     0.133 H 
BRANCH 101 111
ATOM    111  O2  MAN d   1       1.442 -39.172 -10.386  0.00  0.00    -0.388 OA
ATOM    112  H68 BMA d   1       2.257 -38.710 -10.228  0.00  0.00     0.210 HD
ENDBRANCH 101 111
BRANCH 102 113
ATOM    113  O3  MAN d   1       3.667 -40.361  -9.367  0.00  0.00    -0.390 OA
ATOM    114  H69 BMA d   1       3.369 -39.546  -8.979  0.00  0.00     0.210 HD
ENDBRANCH 102 113
BRANCH 104 115
ATOM    115  O4  MAN d   1       2.406 -42.289  -7.595  0.00  0.00    -0.390 OA
ATOM    116  H70 BMA d   1       1.876 -42.469  -6.828  0.00  0.00     0.210 HD
ENDBRANCH 104 115
BRANCH 106 117
ATOM    117  C6  MAN d   1      -0.588 -42.462  -7.774  0.00  0.00     0.043 C 
ATOM    118  H66 BMA d   1      -1.381 -43.147  -8.108  0.00  0.00     0.078 H 
ATOM    119  H67 BMA d   1      -1.037 -41.513  -7.446  0.00  0.00     0.078 H 
BRANCH 117 120
ATOM    120  O6  MAN d   1       0.135 -43.040  -6.723  0.00  0.00    -0.398 OA
ATOM    121  H71 BMA d   1       0.820 -42.443  -6.446  0.00  0.00     0.209 HD
ENDBRANCH 117 120
ENDBRANCH 106 117
ENDBRANCH  99 100
ENDBRANCH   8  99
BRANCH  10 122
ATOM    122  C6  MAN d   1      -1.673 -44.748 -15.343  0.00  0.00     0.049 C 
ATOM    123  H47 BMA d   1      -2.021 -43.859 -15.889  0.00  0.00     0.078 H 
ATOM    124  H48 BMA d   1      -2.352 -45.590 -15.544  0.00  0.00     0.078 H 
BRANCH 122 125
ATOM    125  O6  MAN d   1      -0.351 -45.079 -15.735  0.00  0.00    -0.356 OA
BRANCH 125 126
ATOM    126  C1  MAN d   1      -0.379 -46.024 -16.817  0.00  0.00     0.159 C 
ATOM    127  C2  MAN d   1       1.046 -46.569 -16.947  0.00  0.00     0.116 C 
ATOM    128  C3  MAN d   1       1.937 -45.394 -17.278  0.00  0.00     0.092 C 
ATOM    129  H52 BMA d   1       1.358 -47.077 -16.023  0.00  0.00     0.095 H 
ATOM    130  C4  MAN d   1       1.489 -44.795 -18.614  0.00  0.00     0.090 C 
ATOM    131  H53 BMA d   1       1.807 -44.635 -16.493  0.00  0.00     0.091 H 
ATOM    132  C5  MAN d   1       0.026 -44.315 -18.497  0.00  0.00     0.089 C 
ATOM    133  H54 BMA d   1       1.562 -45.559 -19.402  0.00  0.00     0.091 H 
ATOM    134  O5  MAN d   1      -0.815 -45.408 -18.021  0.00  0.00    -0.348 OA
ATOM    135  H55 BMA d   1      -0.008 -43.486 -17.775  0.00  0.00     0.090 H 
ATOM    136  H51 BMA d   1      -1.068 -46.846 -16.573  0.00  0.00     0.133 H 
BRANCH 127 137
ATOM    137  O2  MAN d   1       1.151 -47.437 -18.077  0.00  0.00    -0.346 OA
BRANCH 137 138
ATOM    138  C1  MAN d   1       1.174 -48.819 -17.673  0.00  0.00     0.159 C 
ATOM    139  C2  MAN d   1       1.743 -49.620 -18.868  0.00  0.00     0.110 C 
ATOM    140  C3  MAN d   1       0.753 -49.570 -20.016  0.00  0.00     0.092 C 
ATOM    141  H73 BMA d   1       2.711 -49.192 -19.167  0.00  0.00     0.094 H 
ATOM    142  C4  MAN d   1      -0.641 -50.034 -19.556  0.00  0.00     0.090 C 
ATOM    143  H74 BMA d   1       0.674 -48.527 -20.355  0.00  0.00     0.091 H 
ATOM    144  C5  MAN d   1      -1.104 -49.195 -18.356  0.00  0.00     0.089 C 
ATOM    145  H75 BMA d   1      -0.591 -51.093 -19.264  0.00  0.00     0.091 H 
ATOM    146  O5  MAN d   1      -0.119 -49.264 -17.314  0.00  0.00    -0.348 OA
ATOM    147  H76 BMA d   1      -1.228 -48.152 -18.683  0.00  0.00     0.090 H 
ATOM    148  H72 BMA d   1       1.838 -48.937 -16.804  0.00  0.00     0.133 H 
BRANCH 139 149
ATOM    149  O2  MAN d   1       1.889 -51.011 -18.566  0.00  0.00    -0.388 OA
ATOM    150  H79 BMA d   1       2.216 -51.468 -19.332  0.00  0.00     0.210 HD
ENDBRANCH 139 149
BRANCH 140 151
ATOM    151  O3  MAN d   1       1.199 -50.355 -21.101  0.00  0.00    -0.390 OA
ATOM    152  H80 BMA d   1       1.248 -51.265 -20.833  0.00  0.00     0.210 HD
ENDBRANCH 140 151
BRANCH 142 153
ATOM    153  O4  MAN d   1      -1.575 -49.880 -20.611  0.00  0.00    -0.390 OA
ATOM    154  H81 BMA d   1      -1.296 -50.396 -21.358  0.00  0.00     0.210 HD
ENDBRANCH 142 153
BRANCH 144 155
ATOM    155  C6  MAN d   1      -2.402 -49.686 -17.767  0.00  0.00     0.043 C 
ATOM    156  H77 BMA d   1      -3.127 -49.879 -18.571  0.00  0.00     0.078 H 
ATOM    157  H78 BMA d   1      -2.809 -48.930 -17.079  0.00  0.00     0.078 H 
BRANCH 155 158
ATOM    158  O6  MAN d   1      -2.136 -50.891 -17.058  0.00  0.00    -0.398 OA
ATOM    159  H82 BMA d   1      -1.506 -50.719 -16.368  0.00  0.00     0.209 HD
ENDBRANCH 155 158
ENDBRANCH 144 155
ENDBRANCH 137 138
ENDBRANCH 127 137
BRANCH 128 160
ATOM    160  O3  MAN d   1       3.312 -45.741 -17.321  0.00  0.00    -0.390 OA
ATOM    161  H58 BMA d   1       3.828 -44.964 -17.498  0.00  0.00     0.210 HD
ENDBRANCH 128 160
BRANCH 130 162
ATOM    162  O4  MAN d   1       2.315 -43.712 -18.937  0.00  0.00    -0.390 OA
ATOM    163  H59 BMA d   1       3.214 -44.011 -19.008  0.00  0.00     0.210 HD
ENDBRANCH 130 162
BRANCH 132 164
ATOM    164  C6  MAN d   1      -0.551 -43.839 -19.808  0.00  0.00     0.043 C 
ATOM    165  H56 BMA d   1      -0.651 -44.688 -20.500  0.00  0.00     0.078 H 
ATOM    166  H57 BMA d   1       0.111 -43.081 -20.252  0.00  0.00     0.078 H 
BRANCH 164 167
ATOM    167  O6  MAN d   1      -1.838 -43.267 -19.556  0.00  0.00    -0.398 OA
ATOM    168  H60 BMA d   1      -2.405 -43.924 -19.171  0.00  0.00     0.209 HD
ENDBRANCH 164 167
ENDBRANCH 132 164
ENDBRANCH 125 126
ENDBRANCH 122 125
ENDBRANCH  10 122
BRANCH   9 169
ATOM    169  O4  MAN d   1      -0.764 -42.235 -14.084  0.00  0.00    -0.390 OA
ATOM    170  H50 BMA d   1      -1.584 -41.905 -13.736  0.00  0.00     0.210 HD
ENDBRANCH   9 169
TORSDOF 47
