REMARK  2 active torsions:
REMARK  status: ('A' for Active; 'I' for Inactive)
REMARK    1  A    between atoms: N7_3  and  C6_4 
REMARK    2  A    between atoms: C6_4  and  C3_5 
ROOT
ATOM      1  O20 MOL d   1      29.846  26.985   8.390  0.00  0.00    -0.267 OA
ATOM      2  C12 MOL d   1      28.622  26.829   8.284  0.00  0.00     0.262 A 
ATOM      3  N7  MOL d   1      28.094  26.146   7.210  0.00  0.00    -0.301 N 
ATOM      4  C11 MOL d   1      27.722  27.333   9.244  0.00  0.00     0.075 A 
ATOM      5  C13 MOL d   1      27.980  28.068  10.439  0.00  0.00    -0.026 A 
ATOM      6  C16 MOL d   1      29.317  28.538  11.058  0.00  0.00    -0.039 C 
ATOM      7  C17 MOL d   1      29.158  29.629  12.067  0.00  0.00    -0.061 C 
ATOM      8  C18 MOL d   1      28.057  29.329  13.079  0.00  0.00    -0.061 C 
ATOM      9  C19 MOL d   1      26.720  29.161  12.431  0.00  0.00    -0.034 C 
ATOM     10  C14 MOL d   1      26.731  28.391  11.142  0.00  0.00    -0.008 A 
ATOM     11  S15 MOL d   1      25.483  27.712  10.163  0.00  0.00    -0.073 SA
ATOM     12  C10 MOL d   1      26.312  27.075   8.990  0.00  0.00     0.115 A 
ATOM     13  N9  MOL d   1      25.883  26.400   7.915  0.00  0.00    -0.235 NA
ATOM     14  C8  MOL d   1      26.762  25.957   7.062  0.00  0.00     0.070 A 
ATOM     15  H4  MOL d   1      29.965  28.905  10.248  0.00  0.00     0.040 H 
ATOM     16  H5  MOL d   1      29.795  27.677  11.549  0.00  0.00     0.040 H 
ATOM     17  H6  MOL d   1      28.910  30.563  11.541  0.00  0.00     0.033 H 
ATOM     18  H7  MOL d   1      30.109  29.753  12.606  0.00  0.00     0.033 H 
ATOM     19  H8  MOL d   1      28.000  30.161  13.797  0.00  0.00     0.033 H 
ATOM     20  H9  MOL d   1      28.310  28.401  13.613  0.00  0.00     0.033 H 
ATOM     21  H10 MOL d   1      26.312  30.162  12.227  0.00  0.00     0.040 H 
ATOM     22  H11 MOL d   1      26.062  28.634  13.138  0.00  0.00     0.040 H 
ATOM     23  H12 MOL d   1      26.409  25.409   6.189  0.00  0.00     0.144 H 
ENDROOT
BRANCH   3  24
ATOM     24  C6  MOL d   1      29.028  25.630   6.226  0.00  0.00     0.060 C 
ATOM     25  H1  MOL d   1      29.986  26.162   6.317  0.00  0.00     0.077 H 
ATOM     26  H2  MOL d   1      28.618  25.784   5.217  0.00  0.00     0.077 H 
BRANCH  24  27
ATOM     27  C3  MOL d   1      29.252  24.139   6.460  0.00  0.00     0.152 A 
ATOM     28  N2  MOL d   1      28.342  23.163   6.300  0.00  0.00    -0.271 N 
ATOM     29  N1  MOL d   1      28.982  22.013   6.622  0.00  0.00    -0.005 NA
ATOM     30  H3  MOL d   1      27.363  23.267   5.996  0.00  0.00     0.185 HD
ATOM     31  N5  MOL d   1      30.242  22.287   6.968  0.00  0.00     0.018 NA
ATOM     32  N4  MOL d   1      30.427  23.627   6.872  0.00  0.00    -0.146 NA
ENDBRANCH  24  27
ENDBRANCH   3  24
TORSDOF 2
