REMARK  4 active torsions:
REMARK  status: ('A' for Active; 'I' for Inactive)
REMARK    1  A    between atoms: C8_7  and  C21_6 
REMARK    2  A    between atoms: O24_25  and  C3_12 
REMARK    3  A    between atoms: N10_14  and  C12_16 
REMARK    4  A    between atoms: O24_25  and  C25_26 
ROOT
ATOM      1  C4  JVP d   1       6.629   8.972   6.456  0.00  0.00     0.025 A 
ATOM      2  C7  JVP d   1       3.143  10.187   7.107  0.00  0.00     0.108 A 
ATOM      3  C6  JVP d   1       4.499  10.122   6.616  0.00  0.00     0.020 A 
ATOM      4  C9  JVP d   1       0.980  10.270   7.443  0.00  0.00     0.187 A 
ATOM      5  C8  JVP d   1       1.908  10.221   6.423  0.00  0.00     0.109 A 
ATOM      6  C1  JVP d   1       5.025  11.176   5.875  0.00  0.00     0.004 A 
ATOM      7  C2  JVP d   1       6.343  11.135   5.416  0.00  0.00     0.025 A 
ATOM      8  C3  JVP d   1       7.148  10.037   5.703  0.00  0.00     0.100 A 
ATOM      9  C5  JVP d   1       5.306   9.017   6.910  0.00  0.00     0.004 A 
ATOM     10  N10 JVP d   1       1.661  10.275   8.623  0.00  0.00    -0.233 N 
ATOM     11  N11 JVP d   1       2.987  10.215   8.434  0.00  0.00    -0.168 NA
ATOM     12  N20 JVP d   1      -0.367  10.317   7.438  0.00  0.00    -0.127 N 
ENDROOT
BRANCH   5  13
ATOM     13  C21 JVP d   1       1.570  10.232   5.012  0.00  0.00     0.271 C 
ATOM     14  O22 JVP d   1       0.439  10.553   4.667  0.00  0.00    -0.271 OA
ATOM     15  N23 JVP d   1       2.592   9.871   4.140  0.00  0.00    -0.057 NA
ENDBRANCH   5  13
BRANCH  10  16
ATOM     16  C12 JVP d   1       1.137  10.294  10.049  0.00  0.00     0.129 C 
ATOM     17  C13 JVP d   1       1.864  11.339  10.916  0.00  0.00     0.028 C 
ATOM     18  C14 JVP d   1       1.580  11.135  12.403  0.00  0.00     0.026 C 
ATOM     19  C15 JVP d   1       2.142   9.805  12.854  0.00  0.00     0.103 C 
ATOM     20  N16 JVP d   1       1.417   8.761  12.098  0.00  0.00    -0.328 N 
ATOM     21  C18 JVP d   1       0.774   7.823  12.772  0.00  0.00     0.198 C 
ATOM     22  C17 JVP d   1       1.286   8.866  10.608  0.00  0.00     0.127 C 
ATOM     23  N19 JVP d   1      -0.189   8.081  13.638  0.00  0.00    -0.126 N 
ENDBRANCH  10  16
BRANCH   8  24
ATOM     24  O24 JVP d   1       8.443  10.101   5.204  0.00  0.00    -0.305 OA
BRANCH  24  25
ATOM     25  C25 JVP d   1       9.008   8.948   4.674  0.00  0.00     0.127 A 
ATOM     26  C26 JVP d   1       8.262   7.913   4.076  0.00  0.00     0.029 A 
ATOM     27  C27 JVP d   1       8.919   6.779   3.587  0.00  0.00     0.032 A 
ATOM     28  C28 JVP d   1      10.311   6.689   3.693  0.00  0.00     0.142 A 
ATOM     29  C29 JVP d   1      11.060   7.723   4.251  0.00  0.00     0.061 A 
ATOM     30  F32 JVP d   1      10.947   5.602   3.249  0.00  0.00    -0.204 F 
ATOM     31  C30 JVP d   1      10.406   8.857   4.730  0.00  0.00     0.165 A 
ATOM     32  F31 JVP d   1      11.143   9.833   5.280  0.00  0.00    -0.202 F 
ENDBRANCH  24  25
ENDBRANCH   8  24
TORSDOF 4
