REMARK  8 active torsions:
REMARK  status: ('A' for Active; 'I' for Inactive)
REMARK    1  A    between atoms: N1_1  and  C2_2 
REMARK    2  A    between atoms: C2_2  and  C3_3 
REMARK    3  A    between atoms: C6_6  and  C7_9 
REMARK    4  A    between atoms: C20_10  and  C21_11 
REMARK    5  A    between atoms: C24_14  and  C25_15 
REMARK    6  A    between atoms: C10_23  and  O11_26 
REMARK    7  A    between atoms: O11_26  and  C12_27 
REMARK    8  A    between atoms: C12_27  and  C13_28 
ROOT
ATOM      1  C7  JVJ d   1       7.405 -62.491   3.076  0.00  0.00     0.096 A 
ATOM      2  C20 JVJ d   1       8.343 -61.984   2.163  0.00  0.00     0.099 A 
ATOM      3  N19 JVJ d   1       8.168 -62.279   0.776  0.00  0.00    -0.221 NA
ATOM      4  C10 JVJ d   1       7.184 -63.135   0.359  0.00  0.00     0.182 A 
ATOM      5  C9  JVJ d   1       6.366 -63.714   1.373  0.00  0.00     0.054 A 
ATOM      6  N8  JVJ d   1       6.466 -63.349   2.675  0.00  0.00    -0.254 NA
ATOM      7  H17 JVJ d   1       5.641 -64.470   1.094  0.00  0.00     0.121 H 
ENDROOT
BRANCH   4   8
ATOM      8  O11 JVJ d   1       6.948 -63.456  -1.019  0.00  0.00    -0.333 OA
BRANCH   8   9
ATOM      9  C12 JVJ d   1       7.907 -63.060  -2.061  0.00  0.00     0.031 C 
ATOM     10  H18 JVJ d   1       8.203 -63.943  -2.646  0.00  0.00     0.075 H 
ATOM     11  H19 JVJ d   1       8.798 -62.614  -1.594  0.00  0.00     0.075 H 
BRANCH   9  12
ATOM     12  C13 JVJ d   1       7.235 -62.026  -2.987  0.00  0.00    -0.030 C 
ATOM     13  C18 JVJ d   1       8.299 -61.102  -3.657  0.00  0.00    -0.037 C 
ATOM     14  C17 JVJ d   1       7.600 -60.085  -4.589  0.00  0.00     0.082 C 
ATOM     15  H21 JVJ d   1       8.997 -61.716  -4.245  0.00  0.00     0.036 H 
ATOM     16  H22 JVJ d   1       8.855 -60.560  -2.877  0.00  0.00     0.036 H 
ATOM     17  N16 JVJ d   1       6.684 -60.849  -5.557  0.00  0.00    -0.075 N 
ATOM     18  H23 JVJ d   1       8.356 -59.526  -5.159  0.00  0.00     0.075 H 
ATOM     19  H24 JVJ d   1       7.001 -59.384  -3.989  0.00  0.00     0.075 H 
ATOM     20  C15 JVJ d   1       5.688 -61.810  -4.992  0.00  0.00     0.082 C 
ATOM     21  H25 JVJ d   1       7.280 -61.371  -6.180  0.00  0.00     0.277 HD
ATOM     22  H26 JVJ d   1       6.168 -60.161  -6.083  0.00  0.00     0.277 HD
ATOM     23  C14 JVJ d   1       6.353 -62.800  -3.990  0.00  0.00    -0.037 C 
ATOM     24  H27 JVJ d   1       5.238 -62.384  -5.816  0.00  0.00     0.075 H 
ATOM     25  H28 JVJ d   1       4.904 -61.245  -4.468  0.00  0.00     0.075 H 
ATOM     26  H29 JVJ d   1       5.570 -63.344  -3.442  0.00  0.00     0.036 H 
ATOM     27  H30 JVJ d   1       6.976 -63.516  -4.545  0.00  0.00     0.036 H 
ATOM     28  H20 JVJ d   1       6.578 -61.385  -2.381  0.00  0.00     0.043 H 
ENDBRANCH   9  12
ENDBRANCH   8   9
ENDBRANCH   4   8
BRANCH   2  29
ATOM     29  C21 JVJ d   1       9.430 -61.001   2.580  0.00  0.00    -0.005 A 
ATOM     30  C31 JVJ d   1       9.298 -60.222   3.781  0.00  0.00    -0.070 A 
ATOM     31  C30 JVJ d   1      10.342 -59.249   4.059  0.00  0.00    -0.071 A 
ATOM     32  H10 JVJ d   1       8.456 -60.354   4.451  0.00  0.00     0.084 H 
ATOM     33  C24 JVJ d   1      11.480 -59.112   3.105  0.00  0.00    -0.024 A 
ATOM     34  H11 JVJ d   1      10.294 -58.631   4.948  0.00  0.00     0.084 H 
ATOM     35  C23 JVJ d   1      11.576 -59.838   1.902  0.00  0.00    -0.071 A 
ATOM     36  C22 JVJ d   1      10.536 -60.760   1.655  0.00  0.00    -0.070 A 
ATOM     37  H15 JVJ d   1      12.398 -59.697   1.209  0.00  0.00     0.084 H 
ATOM     38  H16 JVJ d   1      10.559 -61.321   0.728  0.00  0.00     0.084 H 
BRANCH  33  39
ATOM     39  C25 JVJ d   1      12.501 -58.080   3.434  0.00  0.00    -0.002 A 
ATOM     40  C29 JVJ d   1      13.066 -57.192   2.466  0.00  0.00     0.029 A 
ATOM     41  O28 JVJ d   1      13.966 -56.342   3.165  0.00  0.00    -0.334 OA
ATOM     42  H12 JVJ d   1      12.849 -57.171   1.399  0.00  0.00     0.124 H 
ATOM     43  C27 JVJ d   1      13.858 -56.713   4.541  0.00  0.00     0.019 A 
ATOM     44  C26 JVJ d   1      12.979 -57.792   4.717  0.00  0.00    -0.049 A 
ATOM     45  H13 JVJ d   1      14.392 -56.219   5.352  0.00  0.00     0.123 H 
ATOM     46  H14 JVJ d   1      12.724 -58.295   5.649  0.00  0.00     0.087 H 
ENDBRANCH  33  39
ENDBRANCH   2  29
BRANCH   1  47
ATOM     47  C6  JVJ d   1       7.491 -62.304   4.511  0.00  0.00    -0.005 A 
ATOM     48  C32 JVJ d   1       8.686 -62.798   5.141  0.00  0.00    -0.070 A 
ATOM     49  C33 JVJ d   1       8.806 -62.650   6.534  0.00  0.00    -0.074 A 
ATOM     50  H7  JVJ d   1       9.470 -63.270   4.560  0.00  0.00     0.084 H 
ATOM     51  C3  JVJ d   1       7.775 -61.986   7.225  0.00  0.00    -0.033 A 
ATOM     52  H6  JVJ d   1       9.670 -63.037   7.062  0.00  0.00     0.084 H 
ATOM     53  C4  JVJ d   1       6.579 -61.538   6.576  0.00  0.00    -0.074 A 
ATOM     54  C5  JVJ d   1       6.410 -61.722   5.161  0.00  0.00    -0.070 A 
ATOM     55  H9  JVJ d   1       5.798 -61.058   7.155  0.00  0.00     0.084 H 
ATOM     56  H8  JVJ d   1       5.506 -61.428   4.639  0.00  0.00     0.084 H 
BRANCH  51  57
ATOM     57  C2  JVJ d   1       7.987 -61.764   8.718  0.00  0.00     0.103 C 
ATOM     58  H4  JVJ d   1       7.891 -62.731   9.233  0.00  0.00     0.082 H 
ATOM     59  H5  JVJ d   1       9.001 -61.366   8.872  0.00  0.00     0.082 H 
BRANCH  57  60
ATOM     60  N1  JVJ d   1       7.012 -60.815   9.311  0.00  0.00    -0.075 N 
ATOM     61  H1  JVJ d   1       7.202 -60.709  10.295  0.00  0.00     0.274 HD
ATOM     62  H2  JVJ d   1       6.077 -61.171   9.185  0.00  0.00     0.274 HD
ATOM     63  H3  JVJ d   1       7.095 -59.920   8.855  0.00  0.00     0.274 HD
ENDBRANCH  57  60
ENDBRANCH  51  57
ENDBRANCH   1  47
TORSDOF 8
