REMARK  8 active torsions:
REMARK  status: ('A' for Active; 'I' for Inactive)
REMARK    1  A    between atoms: N1_1  and  C2_2 
REMARK    2  A    between atoms: C2_2  and  C3_3 
REMARK    3  A    between atoms: C6_6  and  C9_9 
REMARK    4  A    between atoms: C12_12  and  N13_13 
REMARK    5  A    between atoms: N13_13  and  C14_14 
REMARK    6  A    between atoms: C14_14  and  C15_15 
REMARK    7  A    between atoms: C10_22  and  C23_23 
REMARK    8  A    between atoms: C26_26  and  C29_29 
ROOT
ATOM      1  C9  I16 d   1     -57.913  24.996   2.994  0.00  0.00     0.096 A 
ATOM      2  N22 I16 d   1     -58.061  26.359   2.624  0.00  0.00    -0.254 NA
ATOM      3  C21 I16 d   1     -58.393  26.758   1.288  0.00  0.00     0.047 A 
ATOM      4  C12 I16 d   1     -58.532  25.732   0.307  0.00  0.00     0.141 A 
ATOM      5  N11 I16 d   1     -58.370  24.364   0.642  0.00  0.00    -0.227 NA
ATOM      6  C10 I16 d   1     -58.127  23.937   2.036  0.00  0.00     0.099 A 
ATOM      7  H10 I16 d   1     -58.533  27.802   1.032  0.00  0.00     0.120 H 
ENDROOT
BRANCH   4   8
ATOM      8  N13 I16 d   1     -58.780  26.138  -1.005  0.00  0.00    -0.373 N 
ATOM      9  H11 I16 d   1     -58.895  27.127  -1.268  0.00  0.00     0.161 HD
BRANCH   8  10
ATOM     10  C14 I16 d   1     -58.867  25.017  -2.006  0.00  0.00    -0.003 C 
ATOM     11  H12 I16 d   1     -59.766  25.135  -2.628  0.00  0.00     0.064 H 
ATOM     12  H13 I16 d   1     -58.905  24.048  -1.487  0.00  0.00     0.064 H 
BRANCH  10  13
ATOM     13  C15 I16 d   1     -57.584  25.101  -2.894  0.00  0.00    -0.036 C 
ATOM     14  C20 I16 d   1     -57.051  23.636  -3.265  0.00  0.00    -0.038 C 
ATOM     15  C19 I16 d   1     -55.813  23.805  -4.240  0.00  0.00     0.082 C 
ATOM     16  H15 I16 d   1     -57.846  23.064  -3.765  0.00  0.00     0.036 H 
ATOM     17  H16 I16 d   1     -56.739  23.109  -2.352  0.00  0.00     0.036 H 
ATOM     18  N18 I16 d   1     -56.303  24.627  -5.483  0.00  0.00    -0.075 N 
ATOM     19  H17 I16 d   1     -55.450  22.818  -4.562  0.00  0.00     0.075 H 
ATOM     20  H18 I16 d   1     -55.002  24.345  -3.728  0.00  0.00     0.075 H 
ATOM     21  C17 I16 d   1     -56.863  26.019  -5.132  0.00  0.00     0.082 C 
ATOM     22  H19 I16 d   1     -57.028  24.101  -5.945  0.00  0.00     0.277 HD
ATOM     23  H20 I16 d   1     -55.523  24.748  -6.111  0.00  0.00     0.277 HD
ATOM     24  C16 I16 d   1     -58.057  25.883  -4.131  0.00  0.00    -0.038 C 
ATOM     25  H21 I16 d   1     -57.213  26.512  -6.051  0.00  0.00     0.075 H 
ATOM     26  H22 I16 d   1     -56.069  26.625  -4.671  0.00  0.00     0.075 H 
ATOM     27  H23 I16 d   1     -58.399  26.883  -3.827  0.00  0.00     0.036 H 
ATOM     28  H24 I16 d   1     -58.885  25.343  -4.615  0.00  0.00     0.036 H 
ATOM     29  H14 I16 d   1     -56.786  25.651  -2.374  0.00  0.00     0.042 H 
ENDBRANCH  10  13
ENDBRANCH   8  10
ENDBRANCH   4   8
BRANCH   6  30
ATOM     30  C23 I16 d   1     -57.846  22.434   2.391  0.00  0.00    -0.005 A 
ATOM     31  C28 I16 d   1     -57.160  22.050   3.609  0.00  0.00    -0.070 A 
ATOM     32  C27 I16 d   1     -56.809  20.617   3.847  0.00  0.00    -0.071 A 
ATOM     33  H25 I16 d   1     -56.902  22.802   4.346  0.00  0.00     0.084 H 
ATOM     34  C26 I16 d   1     -57.162  19.567   2.883  0.00  0.00    -0.024 A 
ATOM     35  H26 I16 d   1     -56.281  20.346   4.754  0.00  0.00     0.084 H 
ATOM     36  C25 I16 d   1     -57.763  19.939   1.624  0.00  0.00    -0.071 A 
ATOM     37  C24 I16 d   1     -58.059  21.348   1.397  0.00  0.00    -0.070 A 
ATOM     38  H27 I16 d   1     -57.987  19.193   0.870  0.00  0.00     0.084 H 
ATOM     39  H28 I16 d   1     -58.465  21.625   0.431  0.00  0.00     0.084 H 
BRANCH  34  40
ATOM     40  C29 I16 d   1     -56.743  18.172   3.288  0.00  0.00    -0.002 A 
ATOM     41  C33 I16 d   1     -56.643  17.686   4.672  0.00  0.00    -0.049 A 
ATOM     42  C32 I16 d   1     -56.170  16.313   4.559  0.00  0.00     0.019 A 
ATOM     43  H29 I16 d   1     -56.873  18.234   5.585  0.00  0.00     0.087 H 
ATOM     44  O31 I16 d   1     -55.948  15.897   3.137  0.00  0.00    -0.334 OA
ATOM     45  H30 I16 d   1     -55.997  15.661   5.414  0.00  0.00     0.123 H 
ATOM     46  C30 I16 d   1     -56.291  17.107   2.347  0.00  0.00     0.029 A 
ATOM     47  H31 I16 d   1     -56.224  17.201   1.264  0.00  0.00     0.124 H 
ENDBRANCH  34  40
ENDBRANCH   6  30
BRANCH   1  48
ATOM     48  C6  I16 d   1     -57.659  24.828   4.437  0.00  0.00    -0.005 A 
ATOM     49  C7  I16 d   1     -58.566  23.961   5.146  0.00  0.00    -0.070 A 
ATOM     50  C8  I16 d   1     -58.368  23.871   6.559  0.00  0.00    -0.074 A 
ATOM     51  H7  I16 d   1     -59.350  23.411   4.639  0.00  0.00     0.084 H 
ATOM     52  C3  I16 d   1     -57.269  24.581   7.198  0.00  0.00    -0.033 A 
ATOM     53  H6  I16 d   1     -59.041  23.270   7.159  0.00  0.00     0.084 H 
ATOM     54  C4  I16 d   1     -56.383  25.494   6.488  0.00  0.00    -0.074 A 
ATOM     55  C5  I16 d   1     -56.621  25.604   5.045  0.00  0.00    -0.070 A 
ATOM     56  H9  I16 d   1     -55.602  26.053   6.991  0.00  0.00     0.084 H 
ATOM     57  H8  I16 d   1     -56.014  26.270   4.442  0.00  0.00     0.084 H 
BRANCH  52  58
ATOM     58  C2  I16 d   1     -57.058  24.418   8.716  0.00  0.00     0.103 C 
ATOM     59  H4  I16 d   1     -57.930  24.788   9.275  0.00  0.00     0.082 H 
ATOM     60  H5  I16 d   1     -56.876  23.365   8.976  0.00  0.00     0.082 H 
BRANCH  58  61
ATOM     61  N1  I16 d   1     -55.826  25.270   9.002  0.00  0.00    -0.075 N 
ATOM     62  H1  I16 d   1     -55.607  25.225   9.985  0.00  0.00     0.274 HD
ATOM     63  H2  I16 d   1     -56.011  26.226   8.742  0.00  0.00     0.274 HD
ATOM     64  H3  I16 d   1     -55.045  24.922   8.468  0.00  0.00     0.274 HD
ENDBRANCH  58  61
ENDBRANCH  52  58
ENDBRANCH   1  48
TORSDOF 8
