REMARK  8 active torsions:
REMARK  status: ('A' for Active; 'I' for Inactive)
REMARK    1  A    between atoms: N1_1  and  C2_2 
REMARK    2  A    between atoms: C2_2  and  C3_3 
REMARK    3  A    between atoms: C6_6  and  C9_9 
REMARK    4  A    between atoms: C12_12  and  O13_13 
REMARK    5  A    between atoms: O13_13  and  C14_14 
REMARK    6  A    between atoms: C14_14  and  C15_15 
REMARK    7  A    between atoms: C10_22  and  C23_23 
REMARK    8  A    between atoms: C26_26  and  C29_29 
ROOT
ATOM      1  C9  JVM d   1     -57.863  24.842   2.924  0.00  0.00     0.096 A 
ATOM      2  N22 JVM d   1     -58.035  26.155   2.515  0.00  0.00    -0.254 NA
ATOM      3  C21 JVM d   1     -58.201  26.538   1.161  0.00  0.00     0.054 A 
ATOM      4  C12 JVM d   1     -58.185  25.569   0.188  0.00  0.00     0.182 A 
ATOM      5  N11 JVM d   1     -58.015  24.234   0.561  0.00  0.00    -0.221 NA
ATOM      6  C10 JVM d   1     -57.907  23.803   1.950  0.00  0.00     0.099 A 
ATOM      7  H10 JVM d   1     -58.339  27.580   0.897  0.00  0.00     0.121 H 
ENDROOT
BRANCH   4   8
ATOM      8  O13 JVM d   1     -58.418  25.961  -1.160  0.00  0.00    -0.333 OA
BRANCH   8   9
ATOM      9  C14 JVM d   1     -58.695  24.754  -2.050  0.00  0.00     0.031 C 
ATOM     10  H11 JVM d   1     -59.617  24.900  -2.632  0.00  0.00     0.075 H 
ATOM     11  H12 JVM d   1     -58.782  23.836  -1.450  0.00  0.00     0.075 H 
BRANCH   9  12
ATOM     12  C15 JVM d   1     -57.461  24.689  -2.979  0.00  0.00    -0.030 C 
ATOM     13  C20 JVM d   1     -56.950  23.281  -3.478  0.00  0.00    -0.037 C 
ATOM     14  C19 JVM d   1     -55.909  23.407  -4.615  0.00  0.00     0.082 C 
ATOM     15  H14 JVM d   1     -57.810  22.703  -3.847  0.00  0.00     0.036 H 
ATOM     16  H15 JVM d   1     -56.488  22.752  -2.632  0.00  0.00     0.036 H 
ATOM     17  N18 JVM d   1     -56.445  24.418  -5.641  0.00  0.00    -0.075 N 
ATOM     18  H16 JVM d   1     -55.762  22.429  -5.097  0.00  0.00     0.075 H 
ATOM     19  H17 JVM d   1     -54.951  23.762  -4.207  0.00  0.00     0.075 H 
ATOM     20  C17 JVM d   1     -56.585  25.776  -5.020  0.00  0.00     0.082 C 
ATOM     21  H18 JVM d   1     -57.346  24.110  -5.970  0.00  0.00     0.277 HD
ATOM     22  H19 JVM d   1     -55.805  24.473  -6.418  0.00  0.00     0.277 HD
ATOM     23  C16 JVM d   1     -57.820  25.706  -4.078  0.00  0.00    -0.037 C 
ATOM     24  H20 JVM d   1     -56.744  26.536  -5.800  0.00  0.00     0.075 H 
ATOM     25  H21 JVM d   1     -55.682  26.025  -4.444  0.00  0.00     0.075 H 
ATOM     26  H22 JVM d   1     -58.019  26.693  -3.635  0.00  0.00     0.036 H 
ATOM     27  H23 JVM d   1     -58.707  25.369  -4.635  0.00  0.00     0.036 H 
ATOM     28  H13 JVM d   1     -56.613  25.101  -2.412  0.00  0.00     0.043 H 
ENDBRANCH   9  12
ENDBRANCH   8   9
ENDBRANCH   4   8
BRANCH   6  29
ATOM     29  C23 JVM d   1     -57.631  22.305   2.315  0.00  0.00    -0.005 A 
ATOM     30  C28 JVM d   1     -56.791  21.985   3.421  0.00  0.00    -0.070 A 
ATOM     31  C27 JVM d   1     -56.472  20.606   3.698  0.00  0.00    -0.071 A 
ATOM     32  H24 JVM d   1     -56.394  22.773   4.050  0.00  0.00     0.084 H 
ATOM     33  C26 JVM d   1     -57.008  19.552   2.840  0.00  0.00    -0.023 A 
ATOM     34  H25 JVM d   1     -55.837  20.353   4.539  0.00  0.00     0.084 H 
ATOM     35  C25 JVM d   1     -57.782  19.852   1.688  0.00  0.00    -0.071 A 
ATOM     36  C24 JVM d   1     -58.079  21.228   1.428  0.00  0.00    -0.070 A 
ATOM     37  H26 JVM d   1     -58.135  19.067   1.029  0.00  0.00     0.084 H 
ATOM     38  H27 JVM d   1     -58.655  21.482   0.545  0.00  0.00     0.084 H 
BRANCH  33  39
ATOM     39  C29 JVM d   1     -56.584  18.132   3.209  0.00  0.00     0.010 A 
ATOM     40  C33 JVM d   1     -56.008  17.211   2.265  0.00  0.00     0.008 A 
ATOM     41  N32 JVM d   1     -55.722  16.016   3.001  0.00  0.00    -0.289 N 
ATOM     42  H28 JVM d   1     -55.826  17.387   1.206  0.00  0.00     0.115 H 
ATOM     43  N31 JVM d   1     -56.086  16.304   4.401  0.00  0.00    -0.187 NA
ATOM     44  H29 JVM d   1     -55.340  15.135   2.628  0.00  0.00     0.188 HD
ATOM     45  C30 JVM d   1     -56.614  17.589   4.543  0.00  0.00     0.034 A 
ATOM     46  H30 JVM d   1     -56.968  18.070   5.454  0.00  0.00     0.118 H 
ENDBRANCH  33  39
ENDBRANCH   6  29
BRANCH   1  47
ATOM     47  C6  JVM d   1     -57.693  24.623   4.398  0.00  0.00    -0.005 A 
ATOM     48  C7  JVM d   1     -58.591  23.691   5.010  0.00  0.00    -0.070 A 
ATOM     49  C8  JVM d   1     -58.503  23.554   6.404  0.00  0.00    -0.074 A 
ATOM     50  H7  JVM d   1     -59.303  23.120   4.426  0.00  0.00     0.084 H 
ATOM     51  C3  JVM d   1     -57.504  24.234   7.149  0.00  0.00    -0.033 A 
ATOM     52  H6  JVM d   1     -59.211  22.917   6.921  0.00  0.00     0.084 H 
ATOM     53  C4  JVM d   1     -56.598  25.202   6.563  0.00  0.00    -0.074 A 
ATOM     54  C5  JVM d   1     -56.706  25.392   5.103  0.00  0.00    -0.070 A 
ATOM     55  H9  JVM d   1     -55.883  25.754   7.162  0.00  0.00     0.084 H 
ATOM     56  H8  JVM d   1     -56.061  26.089   4.580  0.00  0.00     0.084 H 
BRANCH  51  57
ATOM     57  C2  JVM d   1     -57.414  23.962   8.660  0.00  0.00     0.103 C 
ATOM     58  H4  JVM d   1     -58.263  24.444   9.168  0.00  0.00     0.082 H 
ATOM     59  H5  JVM d   1     -57.449  22.877   8.837  0.00  0.00     0.082 H 
BRANCH  57  60
ATOM     60  N1  JVM d   1     -56.145  24.507   9.200  0.00  0.00    -0.075 N 
ATOM     61  H1  JVM d   1     -56.095  24.324  10.190  0.00  0.00     0.274 HD
ATOM     62  H2  JVM d   1     -56.111  25.502   9.040  0.00  0.00     0.274 HD
ATOM     63  H3  JVM d   1     -55.366  24.066   8.737  0.00  0.00     0.274 HD
ENDBRANCH  57  60
ENDBRANCH  51  57
ENDBRANCH   1  47
TORSDOF 8
