REMARK  14 active torsions:
REMARK  status: ('A' for Active; 'I' for Inactive)
REMARK       I    between atoms: C12_7  and  N_1 
REMARK    1  A    between atoms: N_1  and  C13_8 
REMARK    2  A    between atoms: C_2  and  O_3 
REMARK    3  A    between atoms: C1_4  and  C_2 
REMARK    4  A    between atoms: C2_14  and  C1_4 
REMARK    5  A    between atoms: C9_21  and  C12_7 
REMARK    6  A    between atoms: C13_8  and  C14_9 
REMARK    7  A    between atoms: C13_8  and  C18_13 
REMARK    8  A    between atoms: C14_9  and  C15_10 
REMARK    9  A    between atoms: C14_9  and  C16_11 
REMARK   10  A    between atoms: C14_9  and  S_28 
REMARK   11  A    between atoms: S_28  and  C17_12 
REMARK       I    between atoms: C18_13  and  N1_22 
REMARK   12  A    between atoms: C4_16  and  C3_15 
REMARK   13  A    between atoms: C5_17  and  C6_18 
REMARK   14  A    between atoms: N1_22  and  O5_27 
ROOT
ATOM      1  N   JWM d   1     -11.897 -16.152 -24.699  0.00  0.00    -0.342 N 
ATOM      2  C12 JWM d   1     -11.677 -17.012 -25.691  0.00  0.00     0.252 C 
ATOM      3  O1  JWM d   1     -10.612 -17.611 -25.793  0.00  0.00    -0.268 OA
ATOM      4  H1  JWM d   1     -12.822 -15.805 -24.547  0.00  0.00     0.163 HD
ENDROOT
BRANCH   1   5
ATOM      5  C13 JWM d   1     -10.817 -15.708 -23.832  0.00  0.00     0.111 C 
ATOM      6  H9  JWM d   1      -9.937 -16.337 -24.031  0.00  0.00     0.090 H 
BRANCH   5   7
ATOM      7  C14 JWM d   1     -10.416 -14.247 -24.096  0.00  0.00     0.085 C 
BRANCH   7   8
ATOM      8  C15 JWM d   1     -11.641 -13.354 -24.267  0.00  0.00    -0.054 C 
ATOM      9  H10 JWM d   1     -12.307 -13.476 -23.400  0.00  0.00     0.029 H 
ATOM     10  H11 JWM d   1     -12.177 -13.639 -25.184  0.00  0.00     0.029 H 
ATOM     11  H12 JWM d   1     -11.322 -12.304 -24.340  0.00  0.00     0.029 H 
ENDBRANCH   7   8
BRANCH   7  12
ATOM     12  C16 JWM d   1      -9.575 -13.721 -22.934  0.00  0.00    -0.054 C 
ATOM     13  H13 JWM d   1     -10.152 -13.794 -22.001  0.00  0.00     0.029 H 
ATOM     14  H14 JWM d   1      -9.310 -12.670 -23.119  0.00  0.00     0.029 H 
ATOM     15  H15 JWM d   1      -8.657 -14.320 -22.845  0.00  0.00     0.029 H 
ENDBRANCH   7  12
BRANCH   7  16
ATOM     16  S   JWM d   1      -9.390 -14.062 -25.427  0.00  0.00     0.151 S 
ATOM     17  O2  JWM d   1      -9.224 -12.649 -25.625  0.00  0.00    -0.227 OA
ATOM     18  O3  JWM d   1      -8.121 -14.665 -25.122  0.00  0.00    -0.227 OA
BRANCH  16  19
ATOM     19  C17 JWM d   1      -9.885 -14.718 -26.853  0.00  0.00     0.016 C 
ATOM     20  H16 JWM d   1      -9.128 -14.525 -27.628  0.00  0.00     0.049 H 
ATOM     21  H17 JWM d   1     -10.841 -14.264 -27.153  0.00  0.00     0.049 H 
ATOM     22  H18 JWM d   1     -10.016 -15.803 -26.731  0.00  0.00     0.049 H 
ENDBRANCH  16  19
ENDBRANCH   7  16
ENDBRANCH   5   7
BRANCH   5  23
ATOM     23  C18 JWM d   1     -11.233 -15.910 -22.386  0.00  0.00     0.265 C 
ATOM     24  N1  JWM d   1     -10.437 -16.654 -21.608  0.00  0.00    -0.236 N 
ATOM     25  H21 JWM d   1      -9.636 -17.106 -22.002  0.00  0.00     0.197 HD
ATOM     26  O4  JWM d   1     -12.284 -15.426 -21.980  0.00  0.00    -0.269 OA
BRANCH  24  27
ATOM     27  O5  JWM d   1     -10.723 -16.803 -20.237  0.00  0.00    -0.287 OA
ATOM     28  H22 JWM d   1     -10.064 -17.358 -19.836  0.00  0.00     0.244 HD
ENDBRANCH  24  27
ENDBRANCH   5  23
ENDBRANCH   1   5
BRANCH   2  29
ATOM     29  C9  JWM d   1     -12.750 -17.259 -26.706  0.00  0.00     0.032 A 
ATOM     30  C10 JWM d   1     -14.085 -17.048 -26.380  0.00  0.00    -0.066 A 
ATOM     31  C11 JWM d   1     -15.080 -17.285 -27.317  0.00  0.00    -0.064 A 
ATOM     32  H7  JWM d   1     -14.350 -16.697 -25.389  0.00  0.00     0.085 H 
ATOM     33  C6  JWM d   1     -14.742 -17.741 -28.601  0.00  0.00     0.018 A 
ATOM     34  H8  JWM d   1     -16.119 -17.118 -27.058  0.00  0.00     0.085 H 
ATOM     35  C7  JWM d   1     -13.419 -17.956 -28.926  0.00  0.00    -0.064 A 
ATOM     36  C8  JWM d   1     -12.412 -17.710 -27.980  0.00  0.00    -0.066 A 
ATOM     37  H19 JWM d   1     -13.156 -18.316 -29.914  0.00  0.00     0.085 H 
ATOM     38  H20 JWM d   1     -11.372 -17.871 -28.240  0.00  0.00     0.085 H 
BRANCH  33  39
ATOM     39  C5  JWM d   1     -15.711 -18.011 -29.409  0.00  0.00    -0.053 C 
ATOM     40  C4  JWM d   1     -16.593 -18.252 -30.164  0.00  0.00    -0.010 C 
BRANCH  40  41
ATOM     41  C3  JWM d   1     -17.560 -18.379 -31.139  0.00  0.00    -0.015 C 
ATOM     42  C2  JWM d   1     -18.349 -18.468 -32.013  0.00  0.00    -0.090 C 
BRANCH  42  43
ATOM     43  C1  JWM d   1     -19.402 -18.616 -33.036  0.00  0.00     0.011 C 
ATOM     44  H5  JWM d   1     -20.377 -18.403 -32.574  0.00  0.00     0.055 H 
ATOM     45  H6  JWM d   1     -19.214 -17.895 -33.845  0.00  0.00     0.055 H 
BRANCH  43  46
ATOM     46  C   JWM d   1     -19.436 -20.022 -33.629  0.00  0.00     0.026 C 
ATOM     47  H2  JWM d   1     -19.581 -20.753 -32.820  0.00  0.00     0.075 H 
ATOM     48  H3  JWM d   1     -20.270 -20.095 -34.342  0.00  0.00     0.075 H 
BRANCH  46  49
ATOM     49  O   JWM d   1     -18.201 -20.308 -34.312  0.00  0.00    -0.400 OA
ATOM     50  H4  JWM d   1     -18.237 -21.185 -34.675  0.00  0.00     0.209 HD
ENDBRANCH  46  49
ENDBRANCH  43  46
ENDBRANCH  42  43
ENDBRANCH  40  41
ENDBRANCH  33  39
ENDBRANCH   2  29
TORSDOF 14
