REMARK  9 active torsions:
REMARK  status: ('A' for Active; 'I' for Inactive)
REMARK    1  A    between atoms: C02_2  and  C07_7 
REMARK    2  A    between atoms: C05_5  and  C11_11 
REMARK    3  A    between atoms: C06_6  and  S08_8 
REMARK    4  A    between atoms: S08_8  and  N12_12 
REMARK    5  A    between atoms: N12_12  and  C13_13 
REMARK    6  A    between atoms: C18_18  and  C23_23 
REMARK    7  A    between atoms: C21_21  and  C22_22 
REMARK    8  A    between atoms: C23_23  and  N24_24 
REMARK       I    between atoms: N24_24  and  C25_25 
REMARK    9  A    between atoms: C25_25  and  C27_27 
ROOT
ATOM      1  C01 JWA d   1      31.820  11.063  78.956  0.00  0.00    -0.049 A 
ATOM      2  C02 JWA d   1      32.381  10.080  78.141  0.00  0.00    -0.020 A 
ATOM      3  C03 JWA d   1      33.760   9.853  78.165  0.00  0.00    -0.071 A 
ATOM      4  C04 JWA d   1      34.570  10.626  79.001  0.00  0.00    -0.075 A 
ATOM      5  C05 JWA d   1      34.025  11.618  79.838  0.00  0.00    -0.039 A 
ATOM      6  C06 JWA d   1      32.630  11.827  79.804  0.00  0.00     0.086 A 
ATOM      7  H1  JWA d   1      30.750  11.236  78.933  0.00  0.00     0.087 H 
ATOM      8  H2  JWA d   1      34.198   9.083  77.540  0.00  0.00     0.084 H 
ATOM      9  H3  JWA d   1      35.641  10.458  79.005  0.00  0.00     0.084 H 
ENDROOT
BRANCH   2  10
ATOM     10  C07 JWA d   1      31.506   9.312  77.286  0.00  0.00     0.034 A 
ATOM     11  C18 JWA d   1      31.648   9.186  75.925  0.00  0.00     0.109 A 
ATOM     12  O19 JWA d   1      30.639   8.398  75.452  0.00  0.00    -0.215 OA
ATOM     13  N20 JWA d   1      29.820   8.003  76.520  0.00  0.00    -0.132 NA
ATOM     14  C21 JWA d   1      30.351   8.560  77.612  0.00  0.00     0.072 A 
BRANCH  11  15
ATOM     15  C23 JWA d   1      32.636   9.684  74.936  0.00  0.00     0.042 C 
ATOM     16  H20 JWA d   1      33.149  10.569  75.341  0.00  0.00     0.074 H 
ATOM     17  H21 JWA d   1      32.119   9.955  74.003  0.00  0.00     0.074 H 
BRANCH  15  18
ATOM     18  N24 JWA d   1      33.617   8.630  74.665  0.00  0.00    -0.355 N 
ATOM     19  C25 JWA d   1      33.386   7.641  73.714  0.00  0.00     0.213 C 
ATOM     20  O26 JWA d   1      32.373   7.554  73.031  0.00  0.00    -0.274 OA
ATOM     21  H22 JWA d   1      34.476   8.621  75.177  0.00  0.00     0.162 HD
BRANCH  19  22
ATOM     22  C27 JWA d   1      34.507   6.644  73.552  0.00  0.00    -0.003 C 
ATOM     23  H23 JWA d   1      34.233   5.906  72.783  0.00  0.00     0.040 H 
ATOM     24  H24 JWA d   1      34.681   6.129  74.508  0.00  0.00     0.040 H 
ATOM     25  H25 JWA d   1      35.424   7.169  73.246  0.00  0.00     0.040 H 
ENDBRANCH  19  22
ENDBRANCH  15  18
ENDBRANCH  11  15
BRANCH  14  26
ATOM     26  C22 JWA d   1      29.750   8.376  78.957  0.00  0.00    -0.033 C 
ATOM     27  H17 JWA d   1      28.858   7.737  78.876  0.00  0.00     0.035 H 
ATOM     28  H18 JWA d   1      29.463   9.355  79.367  0.00  0.00     0.035 H 
ATOM     29  H19 JWA d   1      30.483   7.899  79.624  0.00  0.00     0.035 H 
ENDBRANCH  14  26
ENDBRANCH   2  10
BRANCH   6  30
ATOM     30  S08 JWA d   1      31.787  13.034  80.821  0.00  0.00     0.259 S 
ATOM     31  O09 JWA d   1      32.159  12.734  82.188  0.00  0.00    -0.201 OA
ATOM     32  O10 JWA d   1      30.388  13.018  80.429  0.00  0.00    -0.201 OA
BRANCH  30  33
ATOM     33  N12 JWA d   1      32.465  14.498  80.311  0.00  0.00    -0.311 N 
ATOM     34  H7  JWA d   1      33.230  14.896  80.817  0.00  0.00     0.172 HD
BRANCH  33  35
ATOM     35  C13 JWA d   1      31.932  15.190  79.123  0.00  0.00     0.020 C 
ATOM     36  C14 JWA d   1      31.197  16.442  79.597  0.00  0.00    -0.045 C 
ATOM     37  C15 JWA d   1      32.353  17.357  79.987  0.00  0.00    -0.063 C 
ATOM     38  H9  JWA d   1      30.551  16.224  80.460  0.00  0.00     0.036 H 
ATOM     39  H10 JWA d   1      30.594  16.882  78.789  0.00  0.00     0.036 H 
ATOM     40  C16 JWA d   1      33.444  17.083  78.958  0.00  0.00    -0.063 C 
ATOM     41  H11 JWA d   1      32.709  17.118  81.000  0.00  0.00     0.033 H 
ATOM     42  H12 JWA d   1      32.041  18.411  79.947  0.00  0.00     0.033 H 
ATOM     43  C17 JWA d   1      33.091  15.748  78.306  0.00  0.00    -0.045 C 
ATOM     44  H13 JWA d   1      34.425  17.019  79.451  0.00  0.00     0.033 H 
ATOM     45  H14 JWA d   1      33.465  17.882  78.203  0.00  0.00     0.033 H 
ATOM     46  H15 JWA d   1      32.786  15.900  77.260  0.00  0.00     0.036 H 
ATOM     47  H16 JWA d   1      33.951  15.063  78.342  0.00  0.00     0.036 H 
ATOM     48  H8  JWA d   1      31.288  14.525  78.529  0.00  0.00     0.073 H 
ENDBRANCH  33  35
ENDBRANCH  30  33
ENDBRANCH   6  30
BRANCH   5  49
ATOM     49  C11 JWA d   1      34.984  12.389  80.705  0.00  0.00    -0.050 C 
ATOM     50  H4  JWA d   1      36.007  12.024  80.534  0.00  0.00     0.033 H 
ATOM     51  H5  JWA d   1      34.716  12.249  81.763  0.00  0.00     0.033 H 
ATOM     52  H6  JWA d   1      34.929  13.458  80.451  0.00  0.00     0.033 H 
ENDBRANCH   5  49
TORSDOF 9
