REMARK  6 active torsions:
REMARK  status: ('A' for Active; 'I' for Inactive)
REMARK    1  A    between atoms: C05_5  and  C18_18 
REMARK    2  A    between atoms: C06_6  and  C07_7 
REMARK    3  A    between atoms: C08_8  and  C13_13 
REMARK    4  A    between atoms: C11_11  and  C12_12 
REMARK    5  A    between atoms: C19_19  and  C24_24 
REMARK    6  A    between atoms: C22_22  and  C23_23 
ROOT
ATOM      1  C01 JWD d   1      78.081  11.318 -10.443  0.00  0.00    -0.060 A 
ATOM      2  C02 JWD d   1      76.204   9.858  -9.955  0.00  0.00    -0.043 A 
ATOM      3  C03 JWD d   1      75.328  10.704 -10.635  0.00  0.00     0.068 A 
ATOM      4  C04 JWD d   1      75.835  11.878 -11.231  0.00  0.00     0.004 A 
ATOM      5  C05 JWD d   1      77.219  12.180 -11.135  0.00  0.00    -0.008 A 
ATOM      6  C06 JWD d   1      77.574  10.165  -9.858  0.00  0.00    -0.018 A 
ATOM      7  N14 JWD d   1      74.027  10.364 -10.694  0.00  0.00    -0.260 NA
ATOM      8  C15 JWD d   1      73.178  11.181 -11.362  0.00  0.00     0.003 A 
ATOM      9  C16 JWD d   1      73.561  12.349 -11.983  0.00  0.00    -0.065 A 
ATOM     10  C17 JWD d   1      74.902  12.698 -11.915  0.00  0.00    -0.069 A 
ATOM     11  H1  JWD d   1      79.137  11.550 -10.365  0.00  0.00     0.086 H 
ATOM     12  H2  JWD d   1      75.825   8.953  -9.495  0.00  0.00     0.088 H 
ATOM     13  H9  JWD d   1      72.133  10.898 -11.411  0.00  0.00     0.114 H 
ATOM     14  H10 JWD d   1      72.843  12.971 -12.505  0.00  0.00     0.085 H 
ATOM     15  H11 JWD d   1      75.241  13.611 -12.392  0.00  0.00     0.085 H 
ENDROOT
BRANCH   5  16
ATOM     16  C18 JWD d   1      77.779  13.382 -11.725  0.00  0.00     0.033 A 
ATOM     17  C19 JWD d   1      78.596  13.423 -12.834  0.00  0.00     0.088 A 
ATOM     18  O20 JWD d   1      78.926  14.719 -13.095  0.00  0.00    -0.217 OA
ATOM     19  N21 JWD d   1      78.331  15.552 -12.156  0.00  0.00    -0.133 NA
ATOM     20  C22 JWD d   1      77.641  14.744 -11.340  0.00  0.00     0.071 A 
BRANCH  17  21
ATOM     21  C24 JWD d   1      79.153  12.406 -13.748  0.00  0.00    -0.028 C 
ATOM     22  H15 JWD d   1      79.769  12.900 -14.514  0.00  0.00     0.036 H 
ATOM     23  H16 JWD d   1      78.331  11.860 -14.234  0.00  0.00     0.036 H 
ATOM     24  H17 JWD d   1      79.774  11.700 -13.177  0.00  0.00     0.036 H 
ENDBRANCH  17  21
BRANCH  20  25
ATOM     25  C23 JWD d   1      76.874  15.302 -10.198  0.00  0.00    -0.033 C 
ATOM     26  H12 JWD d   1      76.978  16.397 -10.187  0.00  0.00     0.035 H 
ATOM     27  H13 JWD d   1      77.263  14.887  -9.257  0.00  0.00     0.035 H 
ATOM     28  H14 JWD d   1      75.812  15.036 -10.305  0.00  0.00     0.035 H 
ENDBRANCH  20  25
ENDBRANCH   5  16
BRANCH   6  29
ATOM     29  C07 JWD d   1      78.462   9.270  -9.153  0.00  0.00     0.032 A 
ATOM     30  C08 JWD d   1      79.565   8.676  -9.722  0.00  0.00     0.088 A 
ATOM     31  O09 JWD d   1      80.174   7.884  -8.800  0.00  0.00    -0.217 OA
ATOM     32  N10 JWD d   1      79.473   7.953  -7.607  0.00  0.00    -0.133 NA
ATOM     33  C11 JWD d   1      78.444   8.787  -7.828  0.00  0.00     0.071 A 
BRANCH  30  34
ATOM     34  C13 JWD d   1      80.184   8.727 -11.054  0.00  0.00    -0.028 C 
ATOM     35  H6  JWD d   1      81.073   8.080 -11.070  0.00  0.00     0.036 H 
ATOM     36  H7  JWD d   1      80.479   9.762 -11.282  0.00  0.00     0.036 H 
ATOM     37  H8  JWD d   1      79.463   8.377 -11.807  0.00  0.00     0.036 H 
ENDBRANCH  30  34
BRANCH  33  38
ATOM     38  C12 JWD d   1      77.473   9.084  -6.753  0.00  0.00    -0.033 C 
ATOM     39  H3  JWD d   1      77.757   8.538  -5.841  0.00  0.00     0.035 H 
ATOM     40  H4  JWD d   1      76.468   8.770  -7.070  0.00  0.00     0.035 H 
ATOM     41  H5  JWD d   1      77.472  10.165  -6.548  0.00  0.00     0.035 H 
ENDBRANCH  33  38
ENDBRANCH   6  29
TORSDOF 6
