REMARK  6 active torsions:
REMARK  status: ('A' for Active; 'I' for Inactive)
REMARK    1  A    between atoms: C03_3  and  C07_7 
REMARK    2  A    between atoms: C05_5  and  S08_8 
REMARK    3  A    between atoms: S08_8  and  N09_9 
REMARK    4  A    between atoms: N09_9  and  C18_18 
REMARK    5  A    between atoms: C12_12  and  C17_17 
REMARK    6  A    between atoms: C15_15  and  C16_16 
ROOT
ATOM      1  C01 JVY d   1     112.063   8.058  14.946  0.00  0.00     0.069 A 
ATOM      2  C02 JVY d   1     112.870   8.490  13.900  0.00  0.00    -0.043 A 
ATOM      3  C03 JVY d   1     112.980   7.760  12.715  0.00  0.00    -0.018 A 
ATOM      4  C04 JVY d   1     112.274   6.571  12.557  0.00  0.00    -0.049 A 
ATOM      5  C05 JVY d   1     111.454   6.107  13.595  0.00  0.00     0.092 A 
ATOM      6  C06 JVY d   1     111.339   6.842  14.815  0.00  0.00     0.016 A 
ATOM      7  N23 JVY d   1     112.023   8.836  16.044  0.00  0.00    -0.260 NA
ATOM      8  C24 JVY d   1     111.255   8.451  17.087  0.00  0.00     0.003 A 
ATOM      9  C25 JVY d   1     110.505   7.293  17.083  0.00  0.00    -0.065 A 
ATOM     10  C26 JVY d   1     110.546   6.490  15.942  0.00  0.00    -0.068 A 
ATOM     11  H1  JVY d   1     113.426   9.414  14.007  0.00  0.00     0.088 H 
ATOM     12  H2  JVY d   1     112.358   6.006  11.636  0.00  0.00     0.087 H 
ATOM     13  H19 JVY d   1     111.227   9.082  17.968  0.00  0.00     0.114 H 
ATOM     14  H20 JVY d   1     109.902   7.015  17.940  0.00  0.00     0.085 H 
ATOM     15  H21 JVY d   1     109.961   5.578  15.914  0.00  0.00     0.085 H 
ENDROOT
BRANCH   5  16
ATOM     16  S08 JVY d   1     110.606   4.558  13.316  0.00  0.00     0.260 S 
ATOM     17  O10 JVY d   1     110.977   3.703  14.417  0.00  0.00    -0.200 OA
ATOM     18  O11 JVY d   1     110.879   4.099  11.972  0.00  0.00    -0.200 OA
BRANCH  16  19
ATOM     19  N09 JVY d   1     108.954   4.905  13.472  0.00  0.00    -0.311 N 
ATOM     20  H3  JVY d   1     108.440   4.502  14.229  0.00  0.00     0.172 HD
BRANCH  19  21
ATOM     21  C18 JVY d   1     108.257   5.787  12.519  0.00  0.00     0.020 C 
ATOM     22  C19 JVY d   1     106.865   5.214  12.231  0.00  0.00    -0.045 C 
ATOM     23  C20 JVY d   1     105.907   6.409  12.293  0.00  0.00    -0.063 C 
ATOM     24  H11 JVY d   1     106.594   4.465  12.989  0.00  0.00     0.036 H 
ATOM     25  H12 JVY d   1     106.839   4.752  11.233  0.00  0.00     0.036 H 
ATOM     26  C21 JVY d   1     106.785   7.648  12.426  0.00  0.00    -0.063 C 
ATOM     27  H13 JVY d   1     105.240   6.319  13.163  0.00  0.00     0.033 H 
ATOM     28  H14 JVY d   1     105.305   6.464  11.374  0.00  0.00     0.033 H 
ATOM     29  C22 JVY d   1     107.990   7.130  13.195  0.00  0.00    -0.045 C 
ATOM     30  H15 JVY d   1     106.268   8.441  12.987  0.00  0.00     0.033 H 
ATOM     31  H16 JVY d   1     107.081   8.031  11.438  0.00  0.00     0.033 H 
ATOM     32  H17 JVY d   1     108.851   7.807  13.089  0.00  0.00     0.036 H 
ATOM     33  H18 JVY d   1     107.755   6.999  14.262  0.00  0.00     0.036 H 
ATOM     34  H10 JVY d   1     108.844   5.907  11.597  0.00  0.00     0.073 H 
ENDBRANCH  19  21
ENDBRANCH  16  19
ENDBRANCH   5  16
BRANCH   3  35
ATOM     35  C07 JVY d   1     113.821   8.239  11.643  0.00  0.00     0.032 A 
ATOM     36  C12 JVY d   1     114.739   7.475  10.954  0.00  0.00     0.088 A 
ATOM     37  O13 JVY d   1     115.340   8.257  10.008  0.00  0.00    -0.217 OA
ATOM     38  N14 JVY d   1     114.825   9.544  10.063  0.00  0.00    -0.133 NA
ATOM     39  C15 JVY d   1     113.913   9.523  11.050  0.00  0.00     0.071 A 
BRANCH  36  40
ATOM     40  C17 JVY d   1     115.171   6.068  11.033  0.00  0.00    -0.028 C 
ATOM     41  H7  JVY d   1     115.946   5.879  10.276  0.00  0.00     0.036 H 
ATOM     42  H8  JVY d   1     114.310   5.409  10.848  0.00  0.00     0.036 H 
ATOM     43  H9  JVY d   1     115.580   5.865  12.034  0.00  0.00     0.036 H 
ENDBRANCH  36  40
BRANCH  39  44
ATOM     44  C16 JVY d   1     113.154  10.739  11.408  0.00  0.00    -0.033 C 
ATOM     45  H4  JVY d   1     113.462  11.569  10.755  0.00  0.00     0.035 H 
ATOM     46  H5  JVY d   1     113.357  11.003  12.456  0.00  0.00     0.035 H 
ATOM     47  H6  JVY d   1     112.078  10.551  11.279  0.00  0.00     0.035 H 
ENDBRANCH  39  44
ENDBRANCH   3  35
TORSDOF 6
