REMARK  6 active torsions:
REMARK  status: ('A' for Active; 'I' for Inactive)
REMARK    1  A    between atoms: C01_1  and  C08_8 
REMARK    2  A    between atoms: C05_5  and  C07_7 
REMARK    3  A    between atoms: C09_9  and  C14_14 
REMARK    4  A    between atoms: C12_12  and  C13_13 
REMARK    5  A    between atoms: C16_16  and  C18_18 
REMARK    6  A    between atoms: C25_25  and  C30_30 
ROOT
ATOM      1  C01 JW4 d   1       8.554  61.636  -5.016  0.00  0.00    -0.018 A 
ATOM      2  C02 JW4 d   1       9.075  60.665  -4.145  0.00  0.00    -0.044 A 
ATOM      3  C03 JW4 d   1       8.269  59.583  -3.777  0.00  0.00     0.064 A 
ATOM      4  C04 JW4 d   1       6.979  59.485  -4.275  0.00  0.00     0.096 A 
ATOM      5  C05 JW4 d   1       6.431  60.434  -5.140  0.00  0.00     0.007 A 
ATOM      6  C06 JW4 d   1       7.247  61.516  -5.496  0.00  0.00    -0.059 A 
ATOM      7  N15 JW4 d   1       8.558  58.522  -2.964  0.00  0.00    -0.342 N 
ATOM      8  C16 JW4 d   1       7.466  57.794  -2.965  0.00  0.00     0.109 A 
ATOM      9  N17 JW4 d   1       6.473  58.325  -3.734  0.00  0.00    -0.232 NA
ATOM     10  H1  JW4 d   1      10.086  60.753  -3.764  0.00  0.00     0.088 H 
ATOM     11  H2  JW4 d   1       6.855  62.278  -6.160  0.00  0.00     0.086 H 
ATOM     12  H9  JW4 d   1       9.438  58.336  -2.462  0.00  0.00     0.167 HD
ENDROOT
BRANCH   5  13
ATOM     13  C07 JW4 d   1       5.066  60.302  -5.635  0.00  0.00    -0.005 A 
ATOM     14  C21 JW4 d   1       4.010  60.858  -4.861  0.00  0.00     0.004 A 
ATOM     15  C22 JW4 d   1       2.680  60.750  -5.312  0.00  0.00     0.067 A 
ATOM     16  C26 JW4 d   1       4.209  61.538  -3.633  0.00  0.00    -0.069 A 
ATOM     17  C23 JW4 d   1       2.437  60.092  -6.510  0.00  0.00    -0.054 A 
ATOM     18  N29 JW4 d   1       1.640  61.260  -4.629  0.00  0.00    -0.260 NA
ATOM     19  C24 JW4 d   1       3.465  59.545  -7.275  0.00  0.00    -0.074 A 
ATOM     20  H15 JW4 d   1       1.415  60.001  -6.861  0.00  0.00     0.087 H 
ATOM     21  C25 JW4 d   1       4.793  59.637  -6.854  0.00  0.00    -0.050 A 
ATOM     22  H16 JW4 d   1       3.231  59.043  -8.207  0.00  0.00     0.084 H 
ATOM     23  C28 JW4 d   1       1.878  61.900  -3.463  0.00  0.00     0.003 A 
ATOM     24  C27 JW4 d   1       3.136  62.065  -2.928  0.00  0.00    -0.065 A 
ATOM     25  H19 JW4 d   1       1.033  62.306  -2.919  0.00  0.00     0.114 H 
ATOM     26  H18 JW4 d   1       3.283  62.588  -1.990  0.00  0.00     0.085 H 
ATOM     27  H17 JW4 d   1       5.213  61.648  -3.239  0.00  0.00     0.085 H 
BRANCH  21  28
ATOM     28  C30 JW4 d   1       5.879  59.028  -7.706  0.00  0.00    -0.050 C 
ATOM     29  H20 JW4 d   1       6.856  59.192  -7.228  0.00  0.00     0.033 H 
ATOM     30  H21 JW4 d   1       5.873  59.500  -8.700  0.00  0.00     0.033 H 
ATOM     31  H22 JW4 d   1       5.700  57.948  -7.812  0.00  0.00     0.033 H 
ENDBRANCH  21  28
ENDBRANCH   5  13
BRANCH   1  32
ATOM     32  C08 JW4 d   1       9.346  62.786  -5.411  0.00  0.00     0.032 A 
ATOM     33  C09 JW4 d   1       9.966  63.792  -4.627  0.00  0.00     0.071 A 
ATOM     34  N10 JW4 d   1      10.583  64.700  -5.390  0.00  0.00    -0.133 NA
ATOM     35  O11 JW4 d   1      10.380  64.281  -6.695  0.00  0.00    -0.217 OA
ATOM     36  C12 JW4 d   1       9.631  63.146  -6.711  0.00  0.00     0.088 A 
BRANCH  33  37
ATOM     37  C14 JW4 d   1       9.992  63.939  -3.157  0.00  0.00    -0.033 C 
ATOM     38  H6  JW4 d   1      10.566  64.838  -2.889  0.00  0.00     0.035 H 
ATOM     39  H7  JW4 d   1      10.466  63.053  -2.708  0.00  0.00     0.035 H 
ATOM     40  H8  JW4 d   1       8.963  64.035  -2.780  0.00  0.00     0.035 H 
ENDBRANCH  33  37
BRANCH  36  41
ATOM     41  C13 JW4 d   1       9.319  62.568  -8.036  0.00  0.00    -0.028 C 
ATOM     42  H3  JW4 d   1       9.755  63.200  -8.824  0.00  0.00     0.036 H 
ATOM     43  H4  JW4 d   1       8.228  62.520  -8.167  0.00  0.00     0.036 H 
ATOM     44  H5  JW4 d   1       9.742  61.555  -8.103  0.00  0.00     0.036 H 
ENDBRANCH  36  41
ENDBRANCH   1  32
BRANCH   8  45
ATOM     45  C18 JW4 d   1       7.328  56.521  -2.180  0.00  0.00     0.004 A 
ATOM     46  C19 JW4 d   1       7.951  56.460  -0.810  0.00  0.00    -0.054 A 
ATOM     47  C20 JW4 d   1       8.546  55.671  -1.936  0.00  0.00    -0.054 A 
ATOM     48  H11 JW4 d   1       7.429  55.942   0.008  0.00  0.00     0.034 H 
ATOM     49  H12 JW4 d   1       8.485  57.334  -0.409  0.00  0.00     0.034 H 
ATOM     50  H13 JW4 d   1       9.516  55.967  -2.361  0.00  0.00     0.034 H 
ATOM     51  H14 JW4 d   1       8.461  54.574  -1.943  0.00  0.00     0.034 H 
ATOM     52  H10 JW4 d   1       6.352  56.055  -2.378  0.00  0.00     0.052 H 
ENDBRANCH   8  45
TORSDOF 6
