REMARK  7 active torsions:
REMARK  status: ('A' for Active; 'I' for Inactive)
REMARK    1  A    between atoms: C2_2  and  C8_7 
REMARK    2  A    between atoms: C5_5  and  N7_24 
REMARK    3  A    between atoms: C17_13  and  N32_20 
REMARK    4  A    between atoms: N14_17  and  C21_15 
REMARK    5  A    between atoms: C21_15  and  C22_18 
REMARK    6  A    between atoms: N32_20  and  C33_21 
REMARK       I    between atoms: N7_24  and  C23_25 
REMARK       I    between atoms: C23_25  and  N24_27 
REMARK    7  A    between atoms: N24_27  and  C25_28 
ROOT
ATOM      1  C1  JWY d   1      16.171 -17.146   4.758  0.00  0.00    -0.042 A 
ATOM      2  C2  JWY d   1      15.868 -18.501   4.521  0.00  0.00     0.004 A 
ATOM      3  C3  JWY d   1      14.757 -19.069   5.134  0.00  0.00     0.048 A 
ATOM      4  C4  JWY d   1      13.921 -18.367   5.991  0.00  0.00    -0.022 A 
ATOM      5  C5  JWY d   1      15.338 -16.438   5.632  0.00  0.00     0.076 A 
ATOM      6  C6  JWY d   1      14.203 -17.035   6.221  0.00  0.00     0.144 A 
ATOM      7 CL9  JWY d   1      14.316 -20.750   4.843  0.00  0.00    -0.083 Cl
ATOM      8  F10 JWY d   1      13.387 -16.276   7.026  0.00  0.00    -0.204 F 
ATOM      9  H1  JWY d   1      17.019 -16.669   4.280  0.00  0.00     0.088 H 
ATOM     10  H2  JWY d   1      13.073 -18.849   6.465  0.00  0.00     0.091 H 
ENDROOT
BRANCH   2  11
ATOM     11  C8  JWY d   1      16.732 -19.316   3.629  0.00  0.00     0.045 A 
ATOM     12  C11 JWY d   1      16.291 -19.642   2.357  0.00  0.00    -0.053 A 
ATOM     13  C12 JWY d   1      17.138 -20.435   1.538  0.00  0.00     0.009 A 
ATOM     14  H3  JWY d   1      15.322 -19.300   1.995  0.00  0.00     0.086 H 
ATOM     15  C13 JWY d   1      18.395 -20.842   1.960  0.00  0.00     0.052 A 
ATOM     16  C19 JWY d   1      16.674 -20.783   0.234  0.00  0.00     0.017 A 
ATOM     17  C16 JWY d   1      19.198 -21.632   1.087  0.00  0.00    -0.012 A 
ATOM     18  N14 JWY d   1      18.857 -20.498   3.206  0.00  0.00    -0.313 N 
ATOM     19  C17 JWY d   1      18.693 -21.966  -0.187  0.00  0.00     0.124 A 
ATOM     20  H4  JWY d   1      20.180 -21.970   1.397  0.00  0.00     0.092 H 
ATOM     21  N18 JWY d   1      17.486 -21.534  -0.568  0.00  0.00    -0.243 NA
ATOM     22  C15 JWY d   1      18.072 -19.754   4.047  0.00  0.00     0.259 A 
ATOM     23  O20 JWY d   1      18.495 -19.448   5.209  0.00  0.00    -0.267 OA
ATOM     24  H5  JWY d   1      15.699 -20.459  -0.112  0.00  0.00     0.116 H 
BRANCH  19  25
ATOM     25  N32 JWY d   1      19.402 -22.701  -1.085  0.00  0.00    -0.379 N 
ATOM     26  H11 JWY d   1      19.082 -22.726  -2.064  0.00  0.00     0.160 HD
BRANCH  25  27
ATOM     27  C33 JWY d   1      20.607 -23.463  -0.718  0.00  0.00    -0.020 C 
ATOM     28  H12 JWY d   1      21.003 -23.974  -1.608  0.00  0.00     0.056 H 
ATOM     29  H13 JWY d   1      20.350 -24.209   0.049  0.00  0.00     0.056 H 
ATOM     30  H14 JWY d   1      21.368 -22.776  -0.320  0.00  0.00     0.056 H 
ENDBRANCH  25  27
ENDBRANCH  19  25
BRANCH  18  31
ATOM     31  C21 JWY d   1      20.218 -20.874   3.655  0.00  0.00    -0.000 C 
ATOM     32  H6  JWY d   1      20.492 -20.187   4.469  0.00  0.00     0.064 H 
ATOM     33  H7  JWY d   1      20.895 -20.720   2.802  0.00  0.00     0.064 H 
BRANCH  31  34
ATOM     34  C22 JWY d   1      20.451 -22.284   4.162  0.00  0.00    -0.061 C 
ATOM     35  H8  JWY d   1      21.505 -22.399   4.454  0.00  0.00     0.029 H 
ATOM     36  H9  JWY d   1      20.210 -23.004   3.366  0.00  0.00     0.029 H 
ATOM     37  H10 JWY d   1      19.807 -22.471   5.034  0.00  0.00     0.029 H 
ENDBRANCH  31  34
ENDBRANCH  18  31
ENDBRANCH   2  11
BRANCH   5  38
ATOM     38  N7  JWY d   1      15.464 -15.064   5.846  0.00  0.00    -0.306 N 
ATOM     39  C23 JWY d   1      16.066 -14.154   5.029  0.00  0.00     0.325 C 
ATOM     40  O31 JWY d   1      16.748 -14.512   4.048  0.00  0.00    -0.247 OA
ATOM     41  N24 JWY d   1      15.897 -12.862   5.395  0.00  0.00    -0.309 N 
ATOM     42  H16 JWY d   1      15.265 -12.702   6.153  0.00  0.00     0.170 HD
ATOM     43  H15 JWY d   1      15.069 -14.708   6.693  0.00  0.00     0.171 HD
BRANCH  41  44
ATOM     44  C25 JWY d   1      16.499 -11.713   4.843  0.00  0.00     0.036 A 
ATOM     45  C26 JWY d   1      16.541 -10.574   5.663  0.00  0.00    -0.057 A 
ATOM     46  C27 JWY d   1      17.153  -9.379   5.202  0.00  0.00    -0.081 A 
ATOM     47  H17 JWY d   1      16.103 -10.607   6.654  0.00  0.00     0.086 H 
ATOM     48  C28 JWY d   1      17.743  -9.314   3.922  0.00  0.00    -0.083 A 
ATOM     49  H18 JWY d   1      17.167  -8.504   5.842  0.00  0.00     0.083 H 
ATOM     50  C29 JWY d   1      17.695 -10.464   3.107  0.00  0.00    -0.081 A 
ATOM     51  H19 JWY d   1      18.220  -8.405   3.575  0.00  0.00     0.083 H 
ATOM     52  C30 JWY d   1      17.098 -11.658   3.551  0.00  0.00    -0.057 A 
ATOM     53  H20 JWY d   1      18.129 -10.427   2.114  0.00  0.00     0.083 H 
ATOM     54  H21 JWY d   1      17.094 -12.534   2.912  0.00  0.00     0.086 H 
ENDBRANCH  41  44
ENDBRANCH   5  38
TORSDOF 7
