REMARK  12 active torsions:
REMARK  status: ('A' for Active; 'I' for Inactive)
REMARK    1  A    between atoms: C2_1  and  C1_2 
REMARK    2  A    between atoms: C2_1  and  C3_4 
REMARK    3  A    between atoms: C1_2  and  O1_3 
REMARK    4  A    between atoms: C4_5  and  C5_6 
REMARK    5  A    between atoms: C6_7  and  C7_8 
REMARK    6  A    between atoms: C10_11  and  C13_14 
REMARK       I    between atoms: C13_14  and  N1_16 
REMARK    7  A    between atoms: N1_16  and  C14_17 
REMARK    8  A    between atoms: C14_17  and  C15_18 
REMARK    9  A    between atoms: C14_17  and  C19_26 
REMARK   10  A    between atoms: C15_18  and  O5_24 
REMARK   11  A    between atoms: O5_24  and  C18_25 
REMARK       I    between atoms: C19_26  and  N2_28 
REMARK   12  A    between atoms: N2_28  and  O7_29 
ROOT
ATOM      1  C13 JWV d   1     -11.627 -16.930 -25.631  0.00  0.00     0.252 C 
ATOM      2  O2  JWV d   1     -10.526 -17.313 -25.931  0.00  0.00    -0.268 OA
ATOM      3  N1  JWV d   1     -11.873 -16.156 -24.549  0.00  0.00    -0.341 N 
ATOM      4  H10 JWV d   1     -12.807 -15.870 -24.336  0.00  0.00     0.163 HD
ENDROOT
BRANCH   3   5
ATOM      5  C14 JWV d   1     -10.789 -15.752 -23.715  0.00  0.00     0.123 C 
ATOM      6  H11 JWV d   1      -9.921 -16.405 -23.887  0.00  0.00     0.092 H 
BRANCH   5   7
ATOM      7  C15 JWV d   1     -10.389 -14.310 -23.987  0.00  0.00     0.115 C 
ATOM      8  C16 JWV d   1      -9.685 -13.670 -22.795  0.00  0.00     0.060 C 
ATOM      9  S1  JWV d   1     -10.469 -12.155 -23.095  0.00  0.00     0.150 S 
ATOM     10  H12 JWV d   1      -8.590 -13.631 -22.895  0.00  0.00     0.060 H 
ATOM     11  H13 JWV d   1      -9.949 -14.123 -21.828  0.00  0.00     0.060 H 
ATOM     12  C17 JWV d   1     -11.518 -13.316 -23.863  0.00  0.00     0.060 C 
ATOM     13  O3  JWV d   1      -9.740 -11.357 -23.990  0.00  0.00    -0.228 OA
ATOM     14  O4  JWV d   1     -11.082 -11.563 -21.971  0.00  0.00    -0.228 OA
ATOM     15  H14 JWV d   1     -12.343 -13.660 -23.222  0.00  0.00     0.060 H 
ATOM     16  H15 JWV d   1     -11.920 -12.979 -24.830  0.00  0.00     0.060 H 
BRANCH   7  17
ATOM     17  O5  JWV d   1      -9.715 -14.173 -25.224  0.00  0.00    -0.380 OA
BRANCH  17  18
ATOM     18  C18 JWV d   1      -8.439 -14.741 -25.288  0.00  0.00     0.005 C 
ATOM     19  H16 JWV d   1      -8.013 -14.575 -26.289  0.00  0.00     0.066 H 
ATOM     20  H17 JWV d   1      -8.508 -15.822 -25.094  0.00  0.00     0.066 H 
ATOM     21  H18 JWV d   1      -7.791 -14.274 -24.532  0.00  0.00     0.066 H 
ENDBRANCH  17  18
ENDBRANCH   7  17
ENDBRANCH   5   7
BRANCH   5  22
ATOM     22  C19 JWV d   1     -11.273 -15.899 -22.307  0.00  0.00     0.267 C 
ATOM     23  O6  JWV d   1     -12.272 -15.375 -21.880  0.00  0.00    -0.269 OA
ATOM     24  N2  JWV d   1     -10.427 -16.643 -21.565  0.00  0.00    -0.236 N 
ATOM     25  H19 JWV d   1      -9.613 -17.066 -21.964  0.00  0.00     0.197 HD
BRANCH  24  26
ATOM     26  O7  JWV d   1     -10.739 -16.794 -20.223  0.00  0.00    -0.287 OA
ATOM     27  H20 JWV d   1     -10.078 -17.333 -19.804  0.00  0.00     0.244 HD
ENDBRANCH  24  26
ENDBRANCH   5  22
ENDBRANCH   3   5
BRANCH   1  28
ATOM     28  C10 JWV d   1     -12.715 -17.137 -26.593  0.00  0.00     0.032 A 
ATOM     29  C9  JWV d   1     -12.414 -17.604 -27.836  0.00  0.00    -0.066 A 
ATOM     30  C8  JWV d   1     -13.402 -17.821 -28.765  0.00  0.00    -0.064 A 
ATOM     31  H7  JWV d   1     -11.381 -17.807 -28.096  0.00  0.00     0.085 H 
ATOM     32  C7  JWV d   1     -14.706 -17.597 -28.458  0.00  0.00     0.018 A 
ATOM     33  H6  JWV d   1     -13.138 -18.175 -29.755  0.00  0.00     0.085 H 
ATOM     34  C12 JWV d   1     -15.003 -17.135 -27.216  0.00  0.00    -0.064 A 
ATOM     35  C11 JWV d   1     -14.019 -16.893 -26.287  0.00  0.00    -0.066 A 
ATOM     36  H9  JWV d   1     -16.038 -16.953 -26.951  0.00  0.00     0.085 H 
ATOM     37  H8  JWV d   1     -14.282 -16.507 -25.309  0.00  0.00     0.085 H 
BRANCH  32  38
ATOM     38  C6  JWV d   1     -15.730 -17.831 -29.397  0.00  0.00    -0.053 C 
ATOM     39  C5  JWV d   1     -16.583 -18.056 -30.196  0.00  0.00    -0.010 C 
BRANCH  39  40
ATOM     40  C4  JWV d   1     -17.551 -18.271 -31.140  0.00  0.00    -0.015 C 
ATOM     41  C3  JWV d   1     -18.358 -18.539 -31.972  0.00  0.00    -0.090 C 
BRANCH  41  42
ATOM     42  C2  JWV d   1     -19.370 -18.802 -32.968  0.00  0.00     0.011 C 
ATOM     43  H1  JWV d   1     -20.061 -19.568 -32.586  0.00  0.00     0.055 H 
ATOM     44  H2  JWV d   1     -19.926 -17.875 -33.171  0.00  0.00     0.055 H 
BRANCH  42  45
ATOM     45  C1  JWV d   1     -18.752 -19.289 -34.234  0.00  0.00     0.026 C 
ATOM     46  H3  JWV d   1     -17.872 -18.678 -34.483  0.00  0.00     0.075 H 
ATOM     47  H4  JWV d   1     -19.482 -19.232 -35.055  0.00  0.00     0.075 H 
BRANCH  45  48
ATOM     48  O1  JWV d   1     -18.365 -20.630 -34.024  0.00  0.00    -0.400 OA
ATOM     49  H5  JWV d   1     -17.739 -20.670 -33.310  0.00  0.00     0.209 HD
ENDBRANCH  45  48
ENDBRANCH  42  45
ENDBRANCH  41  42
ENDBRANCH  39  40
ENDBRANCH  32  38
ENDBRANCH   1  28
TORSDOF 12
