REMARK  7 active torsions:
REMARK  status: ('A' for Active; 'I' for Inactive)
REMARK    1  A    between atoms: N14_24  and  C15_3 
REMARK    2  A    between atoms: C22_7  and  N23_26 
REMARK    3  A    between atoms: N23_26  and  C24_8 
REMARK    4  A    between atoms: O02_29  and  C01_11 
REMARK    5  A    between atoms: C03_12  and  O02_29 
REMARK    6  A    between atoms: C18_19  and  C08_16 
REMARK    7  A    between atoms: C11_17  and  C12_18 
ROOT
ATOM      1  C10 JX4 d   1      26.916  10.115  -9.291  0.00  0.00     0.001 A 
ATOM      2  C03 JX4 d   1      25.883   8.663  -7.680  0.00  0.00     0.084 A 
ATOM      3  C04 JX4 d   1      26.490   7.597  -8.235  0.00  0.00    -0.005 A 
ATOM      4  C05 JX4 d   1      27.338   7.755  -9.364  0.00  0.00     0.136 A 
ATOM      5  C07 JX4 d   1      28.681   7.557 -11.035  0.00  0.00     0.033 A 
ATOM      6  C08 JX4 d   1      28.390   8.894 -10.980  0.00  0.00     0.087 A 
ATOM      7  C11 JX4 d   1      26.092   9.995  -8.221  0.00  0.00     0.026 A 
ATOM      8  N06 JX4 d   1      28.023   6.859 -10.052  0.00  0.00    -0.240 NA
ATOM      9  N09 JX4 d   1      27.529   9.028  -9.873  0.00  0.00    -0.302 N 
ATOM     10  H1  JX4 d   1      27.099  11.106  -9.705  0.00  0.00     0.113 H 
ATOM     11  H17 JX4 d   1      26.330   6.605  -7.815  0.00  0.00     0.093 H 
ATOM     12  H18 JX4 d   1      29.350   7.104 -11.766  0.00  0.00     0.118 H 
ENDROOT
BRANCH   6  13
ATOM     13  C18 JX4 d   1      28.931   9.955 -11.834  0.00  0.00     0.087 A 
ATOM     14  C19 JX4 d   1      29.838   9.703 -12.841  0.00  0.00    -0.053 A 
ATOM     15  C20 JX4 d   1      30.328  10.778 -13.571  0.00  0.00    -0.077 A 
ATOM     16  H19 JX4 d   1      30.161   8.691 -13.058  0.00  0.00     0.087 H 
ATOM     17  C21 JX4 d   1      29.930  12.068 -13.295  0.00  0.00    -0.039 A 
ATOM     18  H7  JX4 d   1      31.036  10.599 -14.372  0.00  0.00     0.083 H 
ATOM     19  C22 JX4 d   1      29.031  12.252 -12.246  0.00  0.00     0.124 A 
ATOM     20  H8  JX4 d   1      30.302  12.907 -13.871  0.00  0.00     0.089 H 
ATOM     21  N29 JX4 d   1      28.551  11.212 -11.550  0.00  0.00    -0.230 NA
BRANCH  19  22
ATOM     22  N23 JX4 d   1      28.575  13.493 -11.909  0.00  0.00    -0.368 N 
ATOM     23  H22 JX4 d   1      28.781  14.259 -12.566  0.00  0.00     0.161 HD
BRANCH  22  24
ATOM     24  C24 JX4 d   1      27.836  13.834 -10.726  0.00  0.00     0.035 C 
ATOM     25  C28 JX4 d   1      28.743  13.761  -9.487  0.00  0.00     0.100 C 
ATOM     26  N27 JX4 d   1      29.326  15.108  -9.506  0.00  0.00    -0.073 N 
ATOM     27  H12 JX4 d   1      29.514  12.983  -9.592  0.00  0.00     0.078 H 
ATOM     28  H13 JX4 d   1      28.164  13.582  -8.569  0.00  0.00     0.078 H 
ATOM     29  C26 JX4 d   1      28.268  16.090  -9.805  0.00  0.00     0.084 C 
ATOM     30  H23 JX4 d   1      29.731  15.313  -8.606  0.00  0.00     0.277 HD
ATOM     31  H24 JX4 d   1      30.041  15.156 -10.215  0.00  0.00     0.277 HD
ATOM     32  C25 JX4 d   1      27.302  15.302 -10.731  0.00  0.00    -0.022 C 
ATOM     33  H10 JX4 d   1      27.758  16.412  -8.885  0.00  0.00     0.075 H 
ATOM     34  H11 JX4 d   1      28.681  16.969 -10.322  0.00  0.00     0.075 H 
ATOM     35  H20 JX4 d   1      26.275  15.340 -10.339  0.00  0.00     0.038 H 
ATOM     36  H21 JX4 d   1      27.321  15.716 -11.750  0.00  0.00     0.038 H 
ATOM     37  H9  JX4 d   1      26.994  13.133 -10.625  0.00  0.00     0.075 H 
ENDBRANCH  22  24
ENDBRANCH  19  22
ENDBRANCH   6  13
BRANCH   7  38
ATOM     38  C12 JX4 d   1      25.456  11.208  -7.678  0.00  0.00     0.015 A 
ATOM     39  C13 JX4 d   1      25.057  11.550  -6.406  0.00  0.00     0.010 A 
ATOM     40  N14 JX4 d   1      24.523  12.799  -6.459  0.00  0.00    -0.285 N 
ATOM     41  H2  JX4 d   1      25.152  10.930  -5.516  0.00  0.00     0.115 H 
ATOM     42  N16 JX4 d   1      24.548  13.296  -7.744  0.00  0.00    -0.185 NA
ATOM     43  C17 JX4 d   1      25.111  12.349  -8.463  0.00  0.00     0.034 A 
ATOM     44  H6  JX4 d   1      25.293  12.427  -9.534  0.00  0.00     0.118 H 
BRANCH  40  45
ATOM     45  C15 JX4 d   1      23.957  13.631  -5.396  0.00  0.00     0.002 C 
ATOM     46  H3  JX4 d   1      23.621  14.589  -5.820  0.00  0.00     0.059 H 
ATOM     47  H4  JX4 d   1      24.723  13.818  -4.629  0.00  0.00     0.059 H 
ATOM     48  H5  JX4 d   1      23.101  13.111  -4.940  0.00  0.00     0.059 H 
ENDBRANCH  40  45
ENDBRANCH   7  38
BRANCH   2  49
ATOM     49  O02 JX4 d   1      25.064   8.580  -6.593  0.00  0.00    -0.355 OA
BRANCH  49  50
ATOM     50  C01 JX4 d   1      24.909   7.335  -5.884  0.00  0.00     0.010 C 
ATOM     51  H14 JX4 d   1      24.212   7.475  -5.045  0.00  0.00     0.066 H 
ATOM     52  H15 JX4 d   1      25.886   7.009  -5.498  0.00  0.00     0.066 H 
ATOM     53  H16 JX4 d   1      24.511   6.571  -6.568  0.00  0.00     0.066 H 
ENDBRANCH  49  50
ENDBRANCH   2  49
TORSDOF 7
