REMARK  13 active torsions:
REMARK  status: ('A' for Active; 'I' for Inactive)
REMARK    1  A    between atoms: C8_2  and  C11_4 
REMARK    2  A    between atoms: C12_5  and  C9_3 
REMARK    3  A    between atoms: C11_4  and  O1_24 
REMARK    4  A    between atoms: C14_7  and  C13_6 
REMARK    5  A    between atoms: C13_6  and  C16_9 
REMARK    6  A    between atoms: C13_6  and  C17_10 
REMARK    7  A    between atoms: C13_6  and  N6_22 
REMARK    8  A    between atoms: C14_7  and  C18_11 
REMARK    9  A    between atoms: N5_21  and  C14_7 
REMARK   10  A    between atoms: C20_13  and  C15_8 
REMARK       I    between atoms: C18_11  and  N7_23 
REMARK   11  A    between atoms: C21_14  and  C19_12 
REMARK       I    between atoms: C19_12  and  N5_21 
REMARK   12  A    between atoms: C24_17  and  C25_18 
REMARK   13  A    between atoms: N7_23  and  O04_27 
ROOT
ATOM      1  C21 A5F d   1     -12.455  14.996 -26.789  0.00  0.00     0.032 A 
ATOM      2  C22 A5F d   1     -12.091  14.455 -28.025  0.00  0.00    -0.066 A 
ATOM      3  C23 A5F d   1     -13.797  15.280 -26.507  0.00  0.00    -0.066 A 
ATOM      4  C24 A5F d   1     -14.460  14.378 -28.605  0.00  0.00     0.018 A 
ATOM      5  C26 A5F d   1     -13.117  14.125 -28.921  0.00  0.00    -0.064 A 
ATOM      6  C27 A5F d   1     -14.797  14.984 -27.409  0.00  0.00    -0.064 A 
ATOM      7  H14 A5F d   1     -11.050  14.296 -28.282  0.00  0.00     0.085 H 
ATOM      8  H15 A5F d   1     -14.055  15.742 -25.561  0.00  0.00     0.085 H 
ATOM      9  H16 A5F d   1     -12.869  13.668 -29.872  0.00  0.00     0.085 H 
ATOM     10  H17 A5F d   1     -15.830  15.223 -27.184  0.00  0.00     0.085 H 
ENDROOT
BRANCH   1  11
ATOM     11  C19 A5F d   1     -11.393  15.416 -25.784  0.00  0.00     0.252 C 
ATOM     12  N5  A5F d   1     -11.722  16.125 -24.693  0.00  0.00    -0.341 N 
ATOM     13  H18 A5F d   1     -12.691  16.256 -24.483  0.00  0.00     0.163 HD
ATOM     14  O3  A5F d   1     -10.231  15.172 -26.089  0.00  0.00    -0.268 OA
BRANCH  12  15
ATOM     15  C14 A5F d   1     -10.723  16.719 -23.791  0.00  0.00     0.122 C 
ATOM     16  H7  A5F d   1      -9.770  16.189 -23.936  0.00  0.00     0.091 H 
BRANCH  15  17
ATOM     17  C13 A5F d   1     -10.438  18.233 -23.993  0.00  0.00     0.145 C 
BRANCH  17  18
ATOM     18  C16 A5F d   1     -11.684  19.128 -24.194  0.00  0.00    -0.043 C 
ATOM     19  H8  A5F d   1     -11.367  20.173 -24.326  0.00  0.00     0.030 H 
ATOM     20  H9  A5F d   1     -12.336  19.052 -23.312  0.00  0.00     0.030 H 
ATOM     21  H10 A5F d   1     -12.234  18.796 -25.087  0.00  0.00     0.030 H 
ENDBRANCH  17  18
BRANCH  17  22
ATOM     22  C17 A5F d   1      -9.583  18.772 -22.847  0.00  0.00    -0.043 C 
ATOM     23  H11 A5F d   1      -8.701  18.128 -22.713  0.00  0.00     0.030 H 
ATOM     24  H12 A5F d   1     -10.175  18.780 -21.920  0.00  0.00     0.030 H 
ATOM     25  H13 A5F d   1      -9.257  19.796 -23.083  0.00  0.00     0.030 H 
ENDBRANCH  17  22
BRANCH  17  26
ATOM     26  N6  A5F d   1      -9.664  18.383 -25.214  0.00  0.00    -0.069 N 
ATOM     27  H19 A5F d   1     -10.198  18.036 -25.995  0.00  0.00     0.275 HD
ATOM     28  H20 A5F d   1      -8.806  17.859 -25.135  0.00  0.00     0.275 HD
ATOM     29  H21 A5F d   1      -9.450  19.357 -25.359  0.00  0.00     0.275 HD
ENDBRANCH  17  26
ENDBRANCH  15  17
BRANCH  15  30
ATOM     30  C18 A5F d   1     -11.232  16.448 -22.419  0.00  0.00     0.266 C 
ATOM     31  N7  A5F d   1     -10.461  15.622 -21.717  0.00  0.00    -0.236 N 
ATOM     32  H22 A5F d   1      -9.688  15.167 -22.158  0.00  0.00     0.197 HD
ATOM     33  O2  A5F d   1     -12.293  16.943 -22.038  0.00  0.00    -0.269 OA
BRANCH  31  34
ATOM     34  O04 A5F d   1     -10.725  15.389 -20.376  0.00  0.00    -0.287 OA
ATOM     35  H24 A5F d   1     -10.084  14.780 -20.029  0.00  0.00     0.244 HD
ENDBRANCH  31  34
ENDBRANCH  15  30
ENDBRANCH  12  15
ENDBRANCH   1  11
BRANCH   4  36
ATOM     36  C25 A5F d   1     -15.412  14.080 -29.420  0.00  0.00    -0.053 C 
ATOM     37  C20 A5F d   1     -16.284  13.799 -30.173  0.00  0.00    -0.009 C 
BRANCH  37  38
ATOM     38  C15 A5F d   1     -17.250  13.411 -31.098  0.00  0.00    -0.014 C 
ATOM     39  C12 A5F d   1     -18.000  13.046 -31.936  0.00  0.00    -0.087 C 
BRANCH  39  40
ATOM     40  C9  A5F d   1     -18.902  12.538 -32.981  0.00  0.00     0.012 A 
ATOM     41  C10 A5F d   1     -18.471  13.097 -34.337  0.00  0.00    -0.045 A 
ATOM     42  C8  A5F d   1     -19.827  13.511 -33.730  0.00  0.00    -0.019 A 
ATOM     43  H1  A5F d   1     -17.649  13.826 -34.395  0.00  0.00     0.035 H 
ATOM     44  H2  A5F d   1     -18.441  12.439 -35.218  0.00  0.00     0.035 H 
ATOM     45  H3  A5F d   1     -19.992  14.537 -33.371  0.00  0.00     0.045 H 
ATOM     46  H4  A5F d   1     -19.202  11.494 -32.809  0.00  0.00     0.060 H 
BRANCH  42  47
ATOM     47  C11 A5F d   1     -21.131  12.921 -34.324  0.00  0.00     0.021 C 
ATOM     48  H5  A5F d   1     -20.889  11.993 -34.862  0.00  0.00     0.074 H 
ATOM     49  H6  A5F d   1     -21.565  13.649 -35.025  0.00  0.00     0.074 H 
BRANCH  47  50
ATOM     50  O1  A5F d   1     -22.102  12.626 -33.296  0.00  0.00    -0.400 OA
ATOM     51  H23 A5F d   1     -22.886  12.267 -33.696  0.00  0.00     0.209 HD
ENDBRANCH  47  50
ENDBRANCH  42  47
ENDBRANCH  39  40
ENDBRANCH  37  38
ENDBRANCH   4  36
TORSDOF 13
