REMARK  9 active torsions:
REMARK  status: ('A' for Active; 'I' for Inactive)
REMARK    1  A    between atoms: S02_35  and  C03_1 
REMARK    2  A    between atoms: N07_29  and  C08_4 
REMARK    3  A    between atoms: C17_11  and  C18_12 
REMARK    4  A    between atoms: C18_12  and  O19_33 
REMARK    5  A    between atoms: C20_13  and  C21_14 
REMARK    6  A    between atoms: C24_17  and  C25_18 
REMARK    7  A    between atoms: C26_19  and  C27_20 
REMARK    8  A    between atoms: C28_21  and  C29_22 
REMARK    9  A    between atoms: N09_30  and  S02_35 
ROOT
ATOM      1  C10 J22 d   1     106.933 -49.946  14.147  0.00  0.00     0.033 C 
ATOM      2  C11 J22 d   1     105.944 -49.598  15.300  0.00  0.00     0.129 C 
ATOM      3  C12 J22 d   1     105.875 -52.021  13.182  0.00  0.00     0.005 C 
ATOM      4  C13 J22 d   1     104.611 -52.186  14.114  0.00  0.00    -0.048 C 
ATOM      5  C14 J22 d   1     103.478 -51.097  13.938  0.00  0.00    -0.041 C 
ATOM      6  C15 J22 d   1     104.043 -49.662  13.625  0.00  0.00     0.085 C 
ATOM      7  C17 J22 d   1     105.004 -47.647  15.329  0.00  0.00     0.134 C 
ATOM      8  C20 J22 d   1     106.249 -48.271  16.036  0.00  0.00     0.030 C 
ATOM      9  N09 J22 d   1     107.065 -51.399  13.895  0.00  0.00    -0.302 N 
ATOM     10  N16 J22 d   1     104.592 -49.015  14.867  0.00  0.00    -0.058 N 
ATOM     11  H6  J22 d   1     107.924 -49.547  14.408  0.00  0.00     0.068 H 
ATOM     12  H7  J22 d   1     106.575 -49.465  13.225  0.00  0.00     0.068 H 
ATOM     13  H8  J22 d   1     105.856 -50.468  15.967  0.00  0.00     0.088 H 
ATOM     14  H9  J22 d   1     105.602 -51.379  12.332  0.00  0.00     0.065 H 
ATOM     15  H10 J22 d   1     106.169 -53.014  12.812  0.00  0.00     0.065 H 
ATOM     16  H11 J22 d   1     104.955 -52.149  15.158  0.00  0.00     0.035 H 
ATOM     17  H12 J22 d   1     104.167 -53.171  13.909  0.00  0.00     0.035 H 
ATOM     18  H13 J22 d   1     102.893 -51.047  14.868  0.00  0.00     0.035 H 
ATOM     19  H14 J22 d   1     102.823 -51.404  13.109  0.00  0.00     0.035 H 
ATOM     20  H15 J22 d   1     103.233 -49.037  13.222  0.00  0.00     0.076 H 
ATOM     21  H16 J22 d   1     104.847 -49.747  12.879  0.00  0.00     0.076 H 
ATOM     22  H17 J22 d   1     104.284 -47.184  16.020  0.00  0.00     0.089 H 
ATOM     23  H20 J22 d   1     107.210 -47.823  15.743  0.00  0.00     0.054 H 
ATOM     24  H34 J22 d   1     103.885 -49.287  15.532  0.00  0.00     0.281 HD
ENDROOT
BRANCH   8  25
ATOM     25  C21 J22 d   1     106.146 -48.255  17.580  0.00  0.00    -0.050 A 
ATOM     26  C22 J22 d   1     107.223 -47.777  18.361  0.00  0.00    -0.076 A 
ATOM     27  C23 J22 d   1     107.127 -47.738  19.776  0.00  0.00    -0.072 A 
ATOM     28  H21 J22 d   1     108.130 -47.437  17.875  0.00  0.00     0.084 H 
ATOM     29  C24 J22 d   1     105.959 -48.178  20.461  0.00  0.00    -0.025 A 
ATOM     30  H22 J22 d   1     107.966 -47.363  20.351  0.00  0.00     0.084 H 
ATOM     31  C33 J22 d   1     104.871 -48.637  19.651  0.00  0.00    -0.072 A 
ATOM     32  C34 J22 d   1     104.965 -48.674  18.235  0.00  0.00    -0.076 A 
ATOM     33  H32 J22 d   1     103.955 -48.964  20.130  0.00  0.00     0.084 H 
ATOM     34  H33 J22 d   1     104.123 -49.027  17.650  0.00  0.00     0.084 H 
BRANCH  29  35
ATOM     35  C25 J22 d   1     105.863 -48.102  21.906  0.00  0.00    -0.019 A 
ATOM     36  C26 J22 d   1     104.903 -47.243  22.538  0.00  0.00    -0.045 A 
ATOM     37  C28 J22 d   1     104.822 -47.159  23.951  0.00  0.00    -0.055 A 
ATOM     38  C30 J22 d   1     105.715 -47.924  24.746  0.00  0.00    -0.077 A 
ATOM     39  C31 J22 d   1     106.688 -48.777  24.145  0.00  0.00    -0.082 A 
ATOM     40  H29 J22 d   1     105.657 -47.859  25.826  0.00  0.00     0.084 H 
ATOM     41  C32 J22 d   1     106.760 -48.857  22.730  0.00  0.00    -0.072 A 
ATOM     42  H30 J22 d   1     107.364 -49.357  24.762  0.00  0.00     0.083 H 
ATOM     43  H31 J22 d   1     107.502 -49.497  22.267  0.00  0.00     0.084 H 
BRANCH  36  44
ATOM     44  C27 J22 d   1     103.946 -46.425  21.652  0.00  0.00    -0.050 C 
ATOM     45  H23 J22 d   1     104.166 -46.625  20.593  0.00  0.00     0.033 H 
ATOM     46  H24 J22 d   1     104.082 -45.353  21.858  0.00  0.00     0.033 H 
ATOM     47  H25 J22 d   1     102.907 -46.712  21.872  0.00  0.00     0.033 H 
ENDBRANCH  36  44
BRANCH  37  48
ATOM     48  C29 J22 d   1     103.786 -46.248  24.611  0.00  0.00    -0.051 C 
ATOM     49  H26 J22 d   1     103.879 -46.319  25.705  0.00  0.00     0.033 H 
ATOM     50  H27 J22 d   1     102.776 -46.561  24.308  0.00  0.00     0.033 H 
ATOM     51  H28 J22 d   1     103.958 -45.208  24.295  0.00  0.00     0.033 H 
ENDBRANCH  37  48
ENDBRANCH  29  35
ENDBRANCH   8  25
BRANCH   7  52
ATOM     52  C18 J22 d   1     105.357 -46.626  14.218  0.00  0.00     0.044 C 
ATOM     53  H18 J22 d   1     104.529 -45.915  14.078  0.00  0.00     0.077 H 
ATOM     54  H19 J22 d   1     105.557 -47.148  13.271  0.00  0.00     0.077 H 
BRANCH  52  55
ATOM     55  O19 J22 d   1     106.565 -45.918  14.674  0.00  0.00    -0.399 OA
ATOM     56  H35 J22 d   1     106.821 -45.277  14.021  0.00  0.00     0.209 HD
ENDBRANCH  52  55
ENDBRANCH   7  52
BRANCH   9  57
ATOM     57  S02 J22 d   1     108.161 -52.304  14.740  0.00  0.00     0.295 S 
ATOM     58  O01 J22 d   1     108.129 -51.993  16.167  0.00  0.00    -0.197 OA
ATOM     59  O35 J22 d   1     107.876 -53.717  14.687  0.00  0.00    -0.197 OA
BRANCH  57  60
ATOM     60  C03 J22 d   1     109.847 -52.018  14.086  0.00  0.00     0.247 A 
ATOM     61  N04 J22 d   1     110.219 -51.012  13.247  0.00  0.00    -0.230 NA
ATOM     62  C05 J22 d   1     111.598 -51.142  12.979  0.00  0.00     0.020 A 
ATOM     63  C06 J22 d   1     112.057 -52.277  13.698  0.00  0.00    -0.002 A 
ATOM     64  H1  J22 d   1     112.197 -50.494  12.341  0.00  0.00     0.117 H 
ATOM     65  N07 J22 d   1     110.952 -52.773  14.359  0.00  0.00    -0.334 N 
ATOM     66  H2  J22 d   1     113.071 -52.674  13.723  0.00  0.00     0.113 H 
BRANCH  65  67
ATOM     67  C08 J22 d   1     110.951 -53.969  15.244  0.00  0.00    -0.012 C 
ATOM     68  H3  J22 d   1     109.937 -54.134  15.636  0.00  0.00     0.057 H 
ATOM     69  H4  J22 d   1     111.646 -53.806  16.081  0.00  0.00     0.057 H 
ATOM     70  H5  J22 d   1     111.270 -54.851  14.669  0.00  0.00     0.057 H 
ENDBRANCH  65  67
ENDBRANCH  57  60
ENDBRANCH   9  57
TORSDOF 9
