REMARK  26 active torsions:
REMARK  status: ('A' for Active; 'I' for Inactive)
REMARK    1  A    between atoms: N_1  and  CA_2 
REMARK    2  A    between atoms: CA_2  and  C_3 
REMARK    3  A    between atoms: CA_2  and  CB_5 
REMARK       I    between atoms: C_3  and  N_6 
REMARK    4  A    between atoms: N_6  and  CA_7 
REMARK    5  A    between atoms: CA_7  and  C_8 
REMARK    6  A    between atoms: CA_7  and  CB_10 
REMARK       I    between atoms: C_8  and  N_13 
REMARK    7  A    between atoms: CB_10  and  CG1_11 
REMARK    8  A    between atoms: CB_10  and  CG2_12 
REMARK    9  A    between atoms: N_13  and  CA_14 
REMARK   10  A    between atoms: CA_14  and  C_15 
REMARK       I    between atoms: C_15  and  N_17 
REMARK   11  A    between atoms: N_17  and  CA_18 
REMARK   12  A    between atoms: CA_18  and  C_19 
REMARK   13  A    between atoms: CA_18  and  CB_21 
REMARK       I    between atoms: C_19  and  N_25 
REMARK   14  A    between atoms: CB_21  and  CG1_22 
REMARK   15  A    between atoms: CB_21  and  CG2_23 
REMARK   16  A    between atoms: CG1_22  and  CD1_24 
REMARK   17  A    between atoms: N_25  and  CA_26 
REMARK   18  A    between atoms: CA_26  and  C_27 
REMARK       I    between atoms: C_27  and  N_29 
REMARK   19  A    between atoms: N_29  and  CA_30 
REMARK   20  A    between atoms: CA_30  and  C_31 
REMARK   21  A    between atoms: CA_30  and  CB_33 
REMARK       I    between atoms: C_31  and  N_34 
REMARK   22  A    between atoms: N_34  and  CA_35 
REMARK   23  A    between atoms: CA_35  and  C_36 
REMARK   24  A    between atoms: CA_35  and  CB_38 
REMARK   25  A    between atoms: CB_38  and  CG1_39 
REMARK   26  A    between atoms: CB_38  and  CG2_40 
ROOT
ATOM      1  CA  ALA d   1      -9.343  33.287  -6.616  0.00  0.00     0.092 C 
ATOM      2  H21 ALA d   1      -8.647  33.316  -5.764  0.00  0.00     0.088 H 
ENDROOT
BRANCH   1   3
ATOM      3  N   ALA d   1     -10.459  32.412  -6.284  0.00  0.00    -0.346 N 
ATOM      4  C   ALA d   1     -10.634  31.903  -5.071  0.00  0.00     0.236 C 
ATOM      5  O   ALA d   1      -9.891  32.185  -4.120  0.00  0.00    -0.272 OA
ATOM      6  H20 ALA d   1     -11.120  32.186  -6.999  0.00  0.00     0.163 HD
BRANCH   4   7
ATOM      7  CA  ALA d   1     -11.783  30.947  -4.845  0.00  0.00     0.069 C 
ATOM      8  H18 ALA d   1     -11.374  30.021  -4.416  0.00  0.00     0.078 H 
ATOM      9  H19 ALA d   1     -12.473  31.411  -4.125  0.00  0.00     0.078 H 
BRANCH   7  10
ATOM     10  N   ALA d   1     -12.541  30.594  -6.025  0.00  0.00    -0.351 N 
ATOM     11  C   ALA d   1     -12.132  29.628  -6.846  0.00  0.00     0.241 C 
ATOM     12  O   ALA d   1     -11.041  29.051  -6.708  0.00  0.00    -0.271 OA
ATOM     13  H17 ALA d   1     -13.388  31.084  -6.229  0.00  0.00     0.163 HD
BRANCH  11  14
ATOM     14  CA  ALA d   1     -13.077  29.272  -7.989  0.00  0.00     0.092 C 
ATOM     15  H9  ALA d   1     -13.855  30.048  -8.043  0.00  0.00     0.088 H 
BRANCH  14  16
ATOM     16  N   ALA d   1     -12.350  29.264  -9.252  0.00  0.00    -0.346 N 
ATOM     17  C   ALA d   1     -11.873  30.395  -9.772  0.00  0.00     0.248 C 
ATOM     18  O   ALA d   1     -11.967  31.488  -9.209  0.00  0.00    -0.271 OA
ATOM     19  H8  ALA d   1     -12.207  28.400  -9.734  0.00  0.00     0.163 HD
BRANCH  17  20
ATOM     20  CA  ALA d   1     -11.198  30.278 -11.134  0.00  0.00     0.172 C 
ATOM     21  H4  ALA d   1     -11.600  29.392 -11.648  0.00  0.00     0.098 H 
BRANCH  20  22
ATOM     22  N   ALA d   1     -11.475  31.454 -11.953  0.00  0.00    -0.067 N 
ATOM     23  H1  ALA d   1     -11.020  31.355 -12.847  0.00  0.00     0.275 HD
ATOM     24  H2  ALA d   1     -11.126  32.277 -11.488  0.00  0.00     0.275 HD
ATOM     25  H3  ALA d   1     -12.470  31.541 -12.090  0.00  0.00     0.275 HD
ENDBRANCH  20  22
BRANCH  20  26
ATOM     26  CB  ALA d   1      -9.706  30.102 -10.964  0.00  0.00    -0.042 C 
ATOM     27  H5  ALA d   1      -9.510  29.214 -10.346  0.00  0.00     0.030 H 
ATOM     28  H6  ALA d   1      -9.286  30.991 -10.472  0.00  0.00     0.030 H 
ATOM     29  H7  ALA d   1      -9.237  29.973 -11.951  0.00  0.00     0.030 H 
ENDBRANCH  20  26
ENDBRANCH  17  20
ENDBRANCH  14  16
BRANCH  14  30
ATOM     30  CB  ALA d   1     -13.772  27.920  -7.756  0.00  0.00    -0.033 C 
ATOM     31  H10 ALA d   1     -14.485  27.755  -8.577  0.00  0.00     0.042 H 
BRANCH  30  32
ATOM     32  CG1 ALA d   1     -12.767  26.778  -7.765  0.00  0.00    -0.071 C 
ATOM     33  H11 ALA d   1     -13.292  25.826  -7.596  0.00  0.00     0.028 H 
ATOM     34  H12 ALA d   1     -12.027  26.935  -6.967  0.00  0.00     0.028 H 
ATOM     35  H13 ALA d   1     -12.256  26.747  -8.738  0.00  0.00     0.028 H 
ENDBRANCH  30  32
BRANCH  30  36
ATOM     36  CG2 ALA d   1     -14.546  27.940  -6.451  0.00  0.00    -0.071 C 
ATOM     37  H14 ALA d   1     -15.266  28.771  -6.465  0.00  0.00     0.028 H 
ATOM     38  H15 ALA d   1     -13.847  28.074  -5.612  0.00  0.00     0.028 H 
ATOM     39  H16 ALA d   1     -15.086  26.989  -6.330  0.00  0.00     0.028 H 
ENDBRANCH  30  36
ENDBRANCH  14  30
ENDBRANCH  11  14
ENDBRANCH   7  10
ENDBRANCH   4   7
ENDBRANCH   1   3
BRANCH   1  40
ATOM     40  C   ALA d   1      -9.897  34.685  -6.850  0.00  0.00     0.241 C 
ATOM     41  O   ALA d   1     -10.573  34.935  -7.857  0.00  0.00    -0.271 OA
ATOM     42  N   ALA d   1      -9.613  35.598  -5.921  0.00  0.00    -0.351 N 
ATOM     43  H31 ALA d   1      -9.090  35.328  -5.112  0.00  0.00     0.163 HD
BRANCH  42  44
ATOM     44  CA  ALA d   1     -10.048  36.975  -6.060  0.00  0.00     0.069 C 
ATOM     45  H32 ALA d   1     -10.731  37.036  -6.920  0.00  0.00     0.078 H 
ATOM     46  H33 ALA d   1      -9.162  37.599  -6.250  0.00  0.00     0.078 H 
BRANCH  44  47
ATOM     47  C   ALA d   1     -10.764  37.525  -4.845  0.00  0.00     0.236 C 
ATOM     48  O   ALA d   1     -10.739  38.736  -4.597  0.00  0.00    -0.272 OA
ATOM     49  N   ALA d   1     -11.427  36.650  -4.092  0.00  0.00    -0.347 N 
ATOM     50  H34 ALA d   1     -11.575  35.723  -4.436  0.00  0.00     0.163 HD
BRANCH  49  51
ATOM     51  CA  ALA d   1     -11.941  37.012  -2.780  0.00  0.00     0.086 C 
ATOM     52  H35 ALA d   1     -12.181  38.085  -2.796  0.00  0.00     0.086 H 
BRANCH  51  53
ATOM     53  C   ALA d   1     -10.925  36.772  -1.674  0.00  0.00     0.240 C 
ATOM     54  O   ALA d   1     -11.141  37.226  -0.544  0.00  0.00    -0.271 OA
ATOM     55  N   ALA d   1      -9.841  36.059  -1.976  0.00  0.00    -0.344 N 
ATOM     56  H39 ALA d   1      -9.779  35.664  -2.893  0.00  0.00     0.163 HD
BRANCH  55  57
ATOM     57  CA  ALA d   1      -8.739  35.820  -1.050  0.00  0.00     0.099 C 
ATOM     58  H40 ALA d   1      -9.105  35.148  -0.260  0.00  0.00     0.090 H 
BRANCH  57  59
ATOM     59  C   ALA d   1      -8.262  37.109  -0.379  0.00  0.00     0.197 C 
ATOM     60  O   ALA d   1      -7.449  37.854  -0.929  0.00  0.00    -0.646 OA
ATOM     61  OXT ALA d   1      -8.676  37.443   0.733  0.00  0.00    -0.646 OA
ENDBRANCH  57  59
BRANCH  57  62
ATOM     62  CB  ALA d   1      -7.569  35.114  -1.772  0.00  0.00    -0.032 C 
ATOM     63  H41 ALA d   1      -6.648  35.279  -1.193  0.00  0.00     0.042 H 
BRANCH  62  64
ATOM     64  CG1 ALA d   1      -7.825  33.619  -1.865  0.00  0.00    -0.071 C 
ATOM     65  H42 ALA d   1      -6.983  33.134  -2.381  0.00  0.00     0.028 H 
ATOM     66  H43 ALA d   1      -8.752  33.440  -2.429  0.00  0.00     0.028 H 
ATOM     67  H44 ALA d   1      -7.925  33.200  -0.853  0.00  0.00     0.028 H 
ENDBRANCH  62  64
BRANCH  62  68
ATOM     68  CG2 ALA d   1      -7.380  35.694  -3.168  0.00  0.00    -0.071 C 
ATOM     69  H45 ALA d   1      -7.195  36.776  -3.094  0.00  0.00     0.028 H 
ATOM     70  H46 ALA d   1      -8.287  35.517  -3.764  0.00  0.00     0.028 H 
ATOM     71  H47 ALA d   1      -6.521  35.208  -3.654  0.00  0.00     0.028 H 
ENDBRANCH  62  68
ENDBRANCH  57  62
ENDBRANCH  55  57
ENDBRANCH  51  53
BRANCH  51  72
ATOM     72  CB  ALA d   1     -13.225  36.233  -2.474  0.00  0.00    -0.049 C 
ATOM     73  H36 ALA d   1     -13.599  36.519  -1.480  0.00  0.00     0.030 H 
ATOM     74  H37 ALA d   1     -13.012  35.154  -2.489  0.00  0.00     0.030 H 
ATOM     75  H38 ALA d   1     -13.986  36.467  -3.233  0.00  0.00     0.030 H 
ENDBRANCH  51  72
ENDBRANCH  49  51
ENDBRANCH  44  47
ENDBRANCH  42  44
ENDBRANCH   1  40
BRANCH   1  76
ATOM     76  CB  ALA d   1      -8.577  32.784  -7.846  0.00  0.00    -0.030 C 
ATOM     77  H22 ALA d   1      -9.223  32.891  -8.730  0.00  0.00     0.043 H 
BRANCH  76  78
ATOM     78  CG1 ALA d   1      -8.214  31.305  -7.681  0.00  0.00    -0.063 C 
ATOM     79  H23 ALA d   1      -7.807  30.939  -8.635  0.00  0.00     0.033 H 
ATOM     80  H24 ALA d   1      -9.130  30.748  -7.435  0.00  0.00     0.033 H 
BRANCH  78  81
ATOM     81  CD1 ALA d   1      -7.194  31.046  -6.598  0.00  0.00    -0.076 C 
ATOM     82  H28 ALA d   1      -6.986  29.967  -6.540  0.00  0.00     0.027 H 
ATOM     83  H29 ALA d   1      -7.588  31.396  -5.632  0.00  0.00     0.027 H 
ATOM     84  H30 ALA d   1      -6.265  31.586  -6.832  0.00  0.00     0.027 H 
ENDBRANCH  78  81
ENDBRANCH  76  78
BRANCH  76  85
ATOM     85  CG2 ALA d   1      -7.330  33.606  -8.056  0.00  0.00    -0.071 C 
ATOM     86  H25 ALA d   1      -7.604  34.665  -8.173  0.00  0.00     0.028 H 
ATOM     87  H26 ALA d   1      -6.811  33.260  -8.962  0.00  0.00     0.028 H 
ATOM     88  H27 ALA d   1      -6.666  33.493  -7.186  0.00  0.00     0.028 H 
ENDBRANCH  76  85
ENDBRANCH   1  76
TORSDOF 26
