REMARK  8 active torsions:
REMARK  status: ('A' for Active; 'I' for Inactive)
REMARK    1  A    between atoms: C02_1  and  C03_2 
REMARK       I    between atoms: N05_16  and  C02_1 
REMARK    2  A    between atoms: C03_2  and  S04_19 
REMARK    3  A    between atoms: C07_4  and  C06_3 
REMARK    4  A    between atoms: C06_3  and  N05_16 
REMARK    5  A    between atoms: C08_5  and  C07_4 
REMARK    6  A    between atoms: C09_6  and  C08_5 
REMARK    7  A    between atoms: C10_7  and  C09_6 
REMARK    8  A    between atoms: N11_17  and  C10_7 
ROOT
ATOM      1  C09 W45 d   1     170.689  -8.239  22.765  0.00  0.00    -0.050 C 
ATOM      2  H9  W45 d   1     171.161  -9.072  23.307  0.00  0.00     0.035 H 
ATOM      3  H10 W45 d   1     170.496  -8.541  21.725  0.00  0.00     0.035 H 
ENDROOT
BRANCH   1   4
ATOM      4  C08 W45 d   1     171.660  -7.046  22.757  0.00  0.00    -0.062 C 
ATOM      5  H7  W45 d   1     171.421  -6.410  21.892  0.00  0.00     0.033 H 
ATOM      6  H8  W45 d   1     171.513  -6.473  23.685  0.00  0.00     0.033 H 
BRANCH   4   7
ATOM      7  C07 W45 d   1     173.113  -7.443  22.668  0.00  0.00    -0.050 C 
ATOM      8  H5  W45 d   1     173.275  -8.298  23.341  0.00  0.00     0.035 H 
ATOM      9  H6  W45 d   1     173.320  -7.747  21.631  0.00  0.00     0.035 H 
BRANCH   7  10
ATOM     10  C06 W45 d   1     174.121  -6.332  23.053  0.00  0.00    -0.005 C 
ATOM     11  H3  W45 d   1     174.256  -6.315  24.145  0.00  0.00     0.064 H 
ATOM     12  H4  W45 d   1     173.745  -5.355  22.715  0.00  0.00     0.064 H 
BRANCH  10  13
ATOM     13  N05 W45 d   1     175.393  -6.621  22.404  0.00  0.00    -0.360 N 
ATOM     14  C02 W45 d   1     175.988  -5.718  21.527  0.00  0.00     0.226 C 
ATOM     15  O01 W45 d   1     175.466  -4.638  21.295  0.00  0.00    -0.273 OA
ATOM     16  H17 W45 d   1     175.850  -7.490  22.593  0.00  0.00     0.162 HD
BRANCH  14  17
ATOM     17  C03 W45 d   1     177.301  -6.146  20.907  0.00  0.00     0.048 C 
ATOM     18  H1  W45 d   1     177.192  -6.203  19.814  0.00  0.00     0.062 H 
ATOM     19  H2  W45 d   1     177.589  -7.133  21.298  0.00  0.00     0.062 H 
BRANCH  17  20
ATOM     20  S04 W45 d   1     178.569  -4.937  21.325  0.00  0.00    -0.173 SA
ATOM     21  H18 W45 d   1     179.446  -5.216  20.915  0.00  0.00     0.102 HD
ENDBRANCH  17  20
ENDBRANCH  14  17
ENDBRANCH  10  13
ENDBRANCH   7  10
ENDBRANCH   4   7
ENDBRANCH   1   4
BRANCH   1  22
ATOM     22  C10 W45 d   1     169.350  -7.914  23.437  0.00  0.00    -0.000 C 
ATOM     23  H11 W45 d   1     169.446  -8.088  24.519  0.00  0.00     0.064 H 
ATOM     24  H12 W45 d   1     168.577  -8.580  23.026  0.00  0.00     0.064 H 
BRANCH  22  25
ATOM     25  N11 W45 d   1     168.945  -6.537  23.219  0.00  0.00    -0.356 N 
ATOM     26  C12 W45 d   1     169.156  -5.497  24.150  0.00  0.00    -0.019 A 
ATOM     27  C13 W45 d   1     168.668  -4.315  23.624  0.00  0.00    -0.056 A 
ATOM     28  H13 W45 d   1     169.627  -5.608  25.125  0.00  0.00     0.111 H 
ATOM     29  C14 W45 d   1     168.131  -4.615  22.333  0.00  0.00    -0.006 A 
ATOM     30  H14 W45 d   1     168.689  -3.337  24.104  0.00  0.00     0.086 H 
ATOM     31  C15 W45 d   1     167.516  -3.819  21.373  0.00  0.00    -0.048 A 
ATOM     32  C21 W45 d   1     168.323  -6.005  22.105  0.00  0.00     0.046 A 
ATOM     33  C16 W45 d   1     167.112  -4.435  20.211  0.00  0.00     0.056 A 
ATOM     34  H15 W45 d   1     167.361  -2.758  21.533  0.00  0.00     0.087 H 
ATOM     35  C18 W45 d   1     167.305  -5.807  19.995  0.00  0.00     0.058 A 
ATOM     36 CL2  W45 d   1     166.354  -3.505  19.009  0.00  0.00    -0.083 Cl
ATOM     37  C20 W45 d   1     167.907  -6.615  20.921  0.00  0.00    -0.034 A 
ATOM     38 CL1  W45 d   1     166.774  -6.508  18.523  0.00  0.00    -0.082 Cl
ATOM     39  H16 W45 d   1     168.053  -7.674  20.744  0.00  0.00     0.089 H 
ENDBRANCH  22  25
ENDBRANCH   1  22
TORSDOF 8
