REMARK  6 active torsions:
REMARK  status: ('A' for Active; 'I' for Inactive)
REMARK    1  A    between atoms: C11_7  and  C1_1 
REMARK    2  A    between atoms: C18_9  and  C19_10 
REMARK    3  A    between atoms: N17_24  and  C18_9 
REMARK    4  A    between atoms: C19_10  and  O26_14 
REMARK    5  A    between atoms: C19_10  and  C25_20 
REMARK    6  A    between atoms: C13_16  and  N17_24 
ROOT
ATOM      1  C11 JXV d   1     -28.161  11.415  29.177  0.00  0.00     0.072 A 
ATOM      2  C15 JXV d   1     -29.256  12.229  28.925  0.00  0.00    -0.010 A 
ATOM      3  C13 JXV d   1     -29.431  12.731  27.653  0.00  0.00     0.127 A 
ATOM      4  C14 JXV d   1     -27.466  11.612  26.909  0.00  0.00     0.089 A 
ATOM      5  N12 JXV d   1     -28.550  12.423  26.663  0.00  0.00    -0.225 NA
ATOM      6  N16 JXV d   1     -27.284  11.110  28.164  0.00  0.00    -0.241 NA
ATOM      7  H4  JXV d   1     -29.961  12.466  29.714  0.00  0.00     0.093 H 
ATOM      8  H14 JXV d   1     -26.766  11.375  26.116  0.00  0.00     0.146 H 
ENDROOT
BRANCH   3   9
ATOM      9  N17 JXV d   1     -30.554  13.604  27.386  0.00  0.00    -0.372 N 
ATOM     10  H19 JXV d   1     -31.244  13.756  28.136  0.00  0.00     0.161 HD
BRANCH   9  11
ATOM     11  C18 JXV d   1     -30.758  14.278  26.111  0.00  0.00     0.022 C 
ATOM     12  H5  JXV d   1     -30.411  13.623  25.298  0.00  0.00     0.068 H 
ATOM     13  H6  JXV d   1     -31.830  14.486  25.982  0.00  0.00     0.068 H 
BRANCH  11  14
ATOM     14  C19 JXV d   1     -29.976  15.606  26.057  0.00  0.00     0.076 C 
ATOM     15  H7  JXV d   1     -28.929  15.327  26.244  0.00  0.00     0.093 H 
BRANCH  14  16
ATOM     16  O26 JXV d   1     -30.290  16.451  27.046  0.00  0.00    -0.389 OA
ATOM     17  H11 JXV d   1     -30.100  16.042  27.882  0.00  0.00     0.210 HD
ENDBRANCH  14  16
BRANCH  14  18
ATOM     18  C25 JXV d   1     -29.969  16.259  24.668  0.00  0.00    -0.028 A 
ATOM     19  C23 JXV d   1     -30.584  17.511  24.495  0.00  0.00    -0.074 A 
ATOM     20  C21 JXV d   1     -30.624  18.111  23.239  0.00  0.00    -0.082 A 
ATOM     21  H9  JXV d   1     -31.030  18.013  25.346  0.00  0.00     0.084 H 
ATOM     22  C20 JXV d   1     -30.064  17.470  22.141  0.00  0.00    -0.083 A 
ATOM     23  H8  JXV d   1     -31.093  19.081  23.118  0.00  0.00     0.083 H 
ATOM     24  C22 JXV d   1     -29.454  16.243  22.310  0.00  0.00    -0.082 A 
ATOM     25  H15 JXV d   1     -30.106  17.929  21.160  0.00  0.00     0.083 H 
ATOM     26  C24 JXV d   1     -29.409  15.640  23.563  0.00  0.00    -0.074 A 
ATOM     27  H16 JXV d   1     -29.006  15.745  21.458  0.00  0.00     0.083 H 
ATOM     28  H10 JXV d   1     -28.930  14.674  23.676  0.00  0.00     0.084 H 
ENDBRANCH  14  18
ENDBRANCH  11  14
ENDBRANCH   9  11
ENDBRANCH   3   9
BRANCH   1  29
ATOM     29  C1  JXV d   1     -27.915  10.798  30.524  0.00  0.00    -0.004 A 
ATOM     30  C2  JXV d   1     -28.354  11.372  31.717  0.00  0.00    -0.036 A 
ATOM     31  C4  JXV d   1     -28.093  10.699  32.929  0.00  0.00     0.103 A 
ATOM     32  H1  JXV d   1     -28.885  12.317  31.713  0.00  0.00     0.089 H 
ATOM     33  C6  JXV d   1     -27.436   9.515  32.949  0.00  0.00     0.102 A 
ATOM     34  O8  JXV d   1     -28.495  11.225  34.124  0.00  0.00    -0.346 OA
ATOM     35  C5  JXV d   1     -27.000   8.928  31.751  0.00  0.00    -0.047 A 
ATOM     36  O7  JXV d   1     -27.178   8.854  34.152  0.00  0.00    -0.346 OA
ATOM     37  C3  JXV d   1     -27.247   9.581  30.546  0.00  0.00    -0.068 A 
ATOM     38  H3  JXV d   1     -26.478   7.978  31.764  0.00  0.00     0.087 H 
ATOM     39  H2  JXV d   1     -26.914   9.135  29.616  0.00  0.00     0.085 H 
ATOM     40  C9  JXV d   1     -27.472   9.441  35.407  0.00  0.00     0.046 C 
ATOM     41  C10 JXV d   1     -27.690  10.935  35.262  0.00  0.00     0.046 C 
ATOM     42  H17 JXV d   1     -28.384   8.981  35.816  0.00  0.00     0.078 H 
ATOM     43  H18 JXV d   1     -26.632   9.264  36.094  0.00  0.00     0.078 H 
ATOM     44  H12 JXV d   1     -26.715  11.431  35.149  0.00  0.00     0.078 H 
ATOM     45  H13 JXV d   1     -28.192  11.315  36.164  0.00  0.00     0.078 H 
ENDBRANCH   1  29
TORSDOF 6
