REMARK WARNING: 32 MAX_TORS EXCEEDED!!!
REMARK  36 active torsions:
REMARK  status: ('A' for Active; 'I' for Inactive)
REMARK    1  A    between atoms: N_1  and  CA_2 
REMARK    2  A    between atoms: CA_2  and  C_3 
REMARK       I    between atoms: C_3  and  N_5 
REMARK    3  A    between atoms: N_5  and  CA_6 
REMARK    4  A    between atoms: CA_6  and  C_7 
REMARK    5  A    between atoms: CA_6  and  CB_9 
REMARK       I    between atoms: C_7  and  N_11 
REMARK    6  A    between atoms: CB_9  and  OG_10 
REMARK    7  A    between atoms: N_11  and  CA_12 
REMARK    8  A    between atoms: CA_12  and  C_13 
REMARK    9  A    between atoms: CA_12  and  CB_15 
REMARK       I    between atoms: C_13  and  N_23 
REMARK   10  A    between atoms: CB_15  and  CG_16 
REMARK   11  A    between atoms: CZ_21  and  OH_22 
REMARK   12  A    between atoms: N_23  and  CA_24 
REMARK   13  A    between atoms: CA_24  and  C_25 
REMARK   14  A    between atoms: CA_24  and  CB_27 
REMARK       I    between atoms: C_25  and  N_31 
REMARK   15  A    between atoms: CB_27  and  CG_28 
REMARK   16  A    between atoms: CG_28  and  CD1_29 
REMARK   17  A    between atoms: CG_28  and  CD2_30 
REMARK   18  A    between atoms: N_31  and  CA_32 
REMARK   19  A    between atoms: CA_32  and  C_33 
REMARK   20  A    between atoms: CA_32  and  CB_35 
REMARK       I    between atoms: C_33  and  N_38 
REMARK   21  A    between atoms: CB_35  and  CG1_36 
REMARK   22  A    between atoms: CB_35  and  CG2_37 
REMARK   23  A    between atoms: N_38  and  CA_39 
REMARK   24  A    between atoms: CA_39  and  C_40 
REMARK   25  A    between atoms: CA_39  and  CB_42 
REMARK       I    between atoms: C_40  and  N_45 
REMARK   26  A    between atoms: CB_42  and  OG1_43 
REMARK   27  A    between atoms: CB_42  and  CG2_44 
REMARK   28  A    between atoms: N_45  and  CA_46 
REMARK   29  A    between atoms: CA_46  and  C_47 
REMARK   30  A    between atoms: CA_46  and  CB_49 
REMARK       I    between atoms: C_47  and  N_51 
REMARK   31  A    between atoms: CB_49  and  OG_50 
REMARK   32  A    between atoms: N_51  and  CA_52 
REMARK   33  A    between atoms: CA_52  and  C_53 
REMARK   34  A    between atoms: CA_52  and  CB_55 
REMARK   35  A    between atoms: CB_55  and  CG1_56 
REMARK   36  A    between atoms: CB_55  and  CG2_57 
ROOT
ATOM      1  C   GLY d   1       9.876  -6.603  14.450  0.00  0.00     0.241 C 
ATOM      2  O   GLY d   1       9.776  -6.562  13.221  0.00  0.00    -0.271 OA
ATOM      3  N   GLY d   1      10.653  -5.783  15.150  0.00  0.00    -0.346 N 
ATOM      4  H31 GLY d   1      10.595  -5.812  16.148  0.00  0.00     0.163 HD
ENDROOT
BRANCH   1   5
ATOM      5  CA  GLY d   1       9.093  -7.628  15.256  0.00  0.00     0.089 C 
ATOM      6  H21 GLY d   1       9.098  -7.330  16.315  0.00  0.00     0.087 H 
BRANCH   5   7
ATOM      7  N   GLY d   1       7.718  -7.692  14.791  0.00  0.00    -0.346 N 
ATOM      8  C   GLY d   1       6.752  -6.979  15.360  0.00  0.00     0.241 C 
ATOM      9  O   GLY d   1       6.973  -6.114  16.213  0.00  0.00    -0.271 OA
ATOM     10  H20 GLY d   1       7.492  -8.289  14.021  0.00  0.00     0.163 HD
BRANCH   8  11
ATOM     11  CA  GLY d   1       5.335  -7.275  14.894  0.00  0.00     0.093 C 
ATOM     12  H12 GLY d   1       5.372  -7.799  13.928  0.00  0.00     0.088 H 
BRANCH  11  13
ATOM     13  N   GLY d   1       4.710  -8.139  15.892  0.00  0.00    -0.346 N 
ATOM     14  C   GLY d   1       4.765  -9.467  15.826  0.00  0.00     0.243 C 
ATOM     15  O   GLY d   1       5.331 -10.082  14.918  0.00  0.00    -0.271 OA
ATOM     16  H11 GLY d   1       4.221  -7.716  16.655  0.00  0.00     0.163 HD
BRANCH  14  17
ATOM     17  CA  GLY d   1       4.079 -10.211  16.960  0.00  0.00     0.109 C 
ATOM     18  H7  GLY d   1       3.292  -9.569  17.383  0.00  0.00     0.090 H 
BRANCH  17  19
ATOM     19  N   GLY d   1       3.461 -11.428  16.456  0.00  0.00    -0.344 N 
ATOM     20  C   GLY d   1       2.270 -11.838  16.887  0.00  0.00     0.243 C 
ATOM     21  O   GLY d   1       1.600 -11.208  17.705  0.00  0.00    -0.272 OA
ATOM     22  H6  GLY d   1       3.943 -11.970  15.768  0.00  0.00     0.163 HD
BRANCH  20  23
ATOM     23  CA  GLY d   1       1.756 -13.143  16.313  0.00  0.00     0.152 C 
ATOM     24  H4  GLY d   1       1.750 -13.067  15.216  0.00  0.00     0.090 H 
ATOM     25  H5  GLY d   1       2.432 -13.954  16.621  0.00  0.00     0.090 H 
BRANCH  23  26
ATOM     26  N   GLY d   1       0.415 -13.459  16.765  0.00  0.00    -0.071 N 
ATOM     27  H1  GLY d   1       0.120 -14.332  16.357  0.00  0.00     0.274 HD
ATOM     28  H2  GLY d   1      -0.216 -12.726  16.482  0.00  0.00     0.274 HD
ATOM     29  H3  GLY d   1       0.409 -13.539  17.770  0.00  0.00     0.274 HD
ENDBRANCH  23  26
ENDBRANCH  20  23
ENDBRANCH  17  19
BRANCH  17  30
ATOM     30  CB  GLY d   1       5.105 -10.522  18.062  0.00  0.00     0.044 C 
ATOM     31  H8  GLY d   1       5.583  -9.584  18.382  0.00  0.00     0.077 H 
ATOM     32  H9  GLY d   1       5.868 -11.204  17.659  0.00  0.00     0.077 H 
BRANCH  30  33
ATOM     33  OG  GLY d   1       4.487 -11.130  19.181  0.00  0.00    -0.398 OA
ATOM     34  H10 GLY d   1       5.143 -11.310  19.844  0.00  0.00     0.209 HD
ENDBRANCH  30  33
ENDBRANCH  17  30
ENDBRANCH  14  17
ENDBRANCH  11  13
BRANCH  11  35
ATOM     35  CB  GLY d   1       4.534  -5.992  14.725  0.00  0.00    -0.014 C 
ATOM     36  H13 GLY d   1       4.533  -5.454  15.684  0.00  0.00     0.043 H 
ATOM     37  H14 GLY d   1       3.502  -6.259  14.453  0.00  0.00     0.043 H 
BRANCH  35  38
ATOM     38  CG  GLY d   1       5.084  -5.072  13.663  0.00  0.00    -0.056 A 
ATOM     39  CD1 GLY d   1       5.531  -3.798  13.984  0.00  0.00    -0.074 A 
ATOM     40  CE1 GLY d   1       6.031  -2.953  13.013  0.00  0.00    -0.051 A 
ATOM     41  H15 GLY d   1       5.487  -3.461  15.013  0.00  0.00     0.084 H 
ATOM     42  CZ  GLY d   1       6.094  -3.381  11.704  0.00  0.00     0.065 A 
ATOM     43  H17 GLY d   1       6.372  -1.959  13.278  0.00  0.00     0.087 H 
ATOM     44  CE2 GLY d   1       5.658  -4.642  11.362  0.00  0.00    -0.051 A 
ATOM     45  CD2 GLY d   1       5.159  -5.479  12.338  0.00  0.00    -0.074 A 
ATOM     46  H18 GLY d   1       5.707  -4.975  10.332  0.00  0.00     0.087 H 
ATOM     47  H16 GLY d   1       4.819  -6.472  12.066  0.00  0.00     0.084 H 
BRANCH  42  48
ATOM     48  OH  GLY d   1       6.593  -2.543  10.733  0.00  0.00    -0.361 OA
ATOM     49  H19 GLY d   1       6.848  -1.718  11.129  0.00  0.00     0.217 HD
ENDBRANCH  42  48
ENDBRANCH  35  38
ENDBRANCH  11  35
ENDBRANCH   8  11
ENDBRANCH   5   7
BRANCH   5  50
ATOM     50  CB  GLY d   1       9.752  -8.999  15.122  0.00  0.00    -0.035 C 
ATOM     51  H22 GLY d   1      10.804  -8.893  15.425  0.00  0.00     0.037 H 
ATOM     52  H23 GLY d   1       9.703  -9.290  14.062  0.00  0.00     0.037 H 
BRANCH  50  53
ATOM     53  CG  GLY d   1       9.148 -10.135  15.941  0.00  0.00    -0.059 C 
ATOM     54  H24 GLY d   1       8.094 -10.255  15.650  0.00  0.00     0.038 H 
BRANCH  53  55
ATOM     55  CD1 GLY d   1       9.878 -11.436  15.648  0.00  0.00    -0.073 C 
ATOM     56  H25 GLY d   1       9.434 -12.248  16.244  0.00  0.00     0.028 H 
ATOM     57  H26 GLY d   1      10.941 -11.327  15.911  0.00  0.00     0.028 H 
ATOM     58  H27 GLY d   1       9.787 -11.675  14.578  0.00  0.00     0.028 H 
ENDBRANCH  53  55
BRANCH  53  59
ATOM     59  CD2 GLY d   1       9.202  -9.801  17.420  0.00  0.00    -0.073 C 
ATOM     60  H28 GLY d   1       8.667  -8.857  17.602  0.00  0.00     0.028 H 
ATOM     61  H29 GLY d   1      10.251  -9.695  17.734  0.00  0.00     0.028 H 
ATOM     62  H30 GLY d   1       8.727 -10.609  17.996  0.00  0.00     0.028 H 
ENDBRANCH  53  59
ENDBRANCH  50  53
ENDBRANCH   5  50
ENDBRANCH   1   5
BRANCH   3  63
ATOM     63  CA  GLY d   1      11.584  -4.845  14.540  0.00  0.00     0.092 C 
ATOM     64  H32 GLY d   1      11.700  -5.092  13.474  0.00  0.00     0.088 H 
BRANCH  63  65
ATOM     65  C   GLY d   1      12.922  -5.008  15.244  0.00  0.00     0.241 C 
ATOM     66  O   GLY d   1      12.975  -5.145  16.471  0.00  0.00    -0.271 OA
ATOM     67  N   GLY d   1      14.003  -5.009  14.471  0.00  0.00    -0.344 N 
ATOM     68  H40 GLY d   1      13.898  -4.903  13.482  0.00  0.00     0.163 HD
BRANCH  67  69
ATOM     69  CA  GLY d   1      15.338  -5.162  15.035  0.00  0.00     0.113 C 
ATOM     70  H41 GLY d   1      15.298  -4.929  16.109  0.00  0.00     0.091 H 
BRANCH  69  71
ATOM     71  C   GLY d   1      16.286  -4.189  14.353  0.00  0.00     0.243 C 
ATOM     72  O   GLY d   1      16.324  -4.120  13.121  0.00  0.00    -0.271 OA
ATOM     73  N   GLY d   1      17.042  -3.445  15.159  0.00  0.00    -0.344 N 
ATOM     74  H47 GLY d   1      16.916  -3.534  16.147  0.00  0.00     0.163 HD
BRANCH  73  75
ATOM     75  CA  GLY d   1      18.040  -2.512  14.670  0.00  0.00     0.109 C 
ATOM     76  H48 GLY d   1      17.710  -2.114  13.699  0.00  0.00     0.090 H 
BRANCH  75  77
ATOM     77  C   GLY d   1      19.368  -3.233  14.486  0.00  0.00     0.243 C 
ATOM     78  O   GLY d   1      19.798  -4.036  15.320  0.00  0.00    -0.271 OA
ATOM     79  N   GLY d   1      20.025  -2.901  13.393  0.00  0.00    -0.344 N 
ATOM     80  H52 GLY d   1      19.895  -1.979  13.027  0.00  0.00     0.163 HD
BRANCH  79  81
ATOM     81  CA  GLY d   1      20.933  -3.802  12.683  0.00  0.00     0.099 C 
ATOM     82  H53 GLY d   1      21.462  -4.418  13.425  0.00  0.00     0.090 H 
BRANCH  81  83
ATOM     83  C   GLY d   1      21.954  -2.891  12.022  0.00  0.00     0.197 C 
ATOM     84  O   GLY d   1      21.723  -1.688  11.873  0.00  0.00    -0.646 OA
ATOM     85  OXT GLY d   1      23.124  -3.212  11.787  0.00  0.00    -0.646 OA
ENDBRANCH  81  83
BRANCH  81  86
ATOM     86  CB  GLY d   1      20.190  -4.800  11.736  0.00  0.00    -0.032 C 
ATOM     87  H54 GLY d   1      19.107  -4.610  11.729  0.00  0.00     0.042 H 
BRANCH  86  88
ATOM     88  CG1 GLY d   1      20.748  -4.730  10.392  0.00  0.00    -0.071 C 
ATOM     89  H55 GLY d   1      20.217  -5.436   9.737  0.00  0.00     0.028 H 
ATOM     90  H56 GLY d   1      21.816  -4.992  10.424  0.00  0.00     0.028 H 
ATOM     91  H57 GLY d   1      20.633  -3.709  10.000  0.00  0.00     0.028 H 
ENDBRANCH  86  88
BRANCH  86  92
ATOM     92  CG2 GLY d   1      20.531  -6.223  12.257  0.00  0.00    -0.071 C 
ATOM     93  H58 GLY d   1      20.135  -6.345  13.276  0.00  0.00     0.028 H 
ATOM     94  H59 GLY d   1      21.623  -6.357  12.269  0.00  0.00     0.028 H 
ATOM     95  H60 GLY d   1      20.076  -6.975  11.595  0.00  0.00     0.028 H 
ENDBRANCH  86  92
ENDBRANCH  81  86
ENDBRANCH  79  81
ENDBRANCH  75  77
BRANCH  75  96
ATOM     96  CB  GLY d   1      18.210  -1.354  15.644  0.00  0.00     0.044 C 
ATOM     97  H49 GLY d   1      19.000  -0.683  15.274  0.00  0.00     0.077 H 
ATOM     98  H50 GLY d   1      18.497  -1.750  16.630  0.00  0.00     0.077 H 
BRANCH  96  99
ATOM     99  OG  GLY d   1      16.995  -0.622  15.769  0.00  0.00    -0.398 OA
ATOM    100  H51 GLY d   1      16.746  -0.277  14.920  0.00  0.00     0.209 HD
ENDBRANCH  96  99
ENDBRANCH  75  96
ENDBRANCH  73  75
ENDBRANCH  69  71
BRANCH  69 101
ATOM    101  CB  GLY d   1      15.846  -6.600  14.863  0.00  0.00     0.060 C 
ATOM    102  H42 GLY d   1      15.964  -6.812  13.790  0.00  0.00     0.086 H 
BRANCH 101 103
ATOM    103  OG1 GLY d   1      14.901  -7.519  15.424  0.00  0.00    -0.393 OA
ATOM    104  H43 GLY d   1      14.067  -7.425  14.979  0.00  0.00     0.210 HD
ENDBRANCH 101 103
BRANCH 101 105
ATOM    105  CG2 GLY d   1      17.189  -6.774  15.556  0.00  0.00    -0.050 C 
ATOM    106  H44 GLY d   1      17.539  -7.809  15.424  0.00  0.00     0.031 H 
ATOM    107  H45 GLY d   1      17.078  -6.559  16.629  0.00  0.00     0.031 H 
ATOM    108  H46 GLY d   1      17.921  -6.080  15.117  0.00  0.00     0.031 H 
ENDBRANCH 101 105
ENDBRANCH  69 101
ENDBRANCH  67  69
ENDBRANCH  63  65
BRANCH  63 109
ATOM    109  CB  GLY d   1      11.078  -3.394  14.655  0.00  0.00    -0.033 C 
ATOM    110  H33 GLY d   1      10.933  -3.155  15.719  0.00  0.00     0.042 H 
BRANCH 109 111
ATOM    111  CG1 GLY d   1      12.107  -2.434  14.084  0.00  0.00    -0.071 C 
ATOM    112  H34 GLY d   1      11.735  -1.403  14.172  0.00  0.00     0.028 H 
ATOM    113  H35 GLY d   1      12.282  -2.672  13.024  0.00  0.00     0.028 H 
ATOM    114  H36 GLY d   1      13.050  -2.532  14.642  0.00  0.00     0.028 H 
ENDBRANCH 109 111
BRANCH 109 115
ATOM    115  CG2 GLY d   1       9.741  -3.253  13.944  0.00  0.00    -0.071 C 
ATOM    116  H37 GLY d   1       9.018  -3.959  14.379  0.00  0.00     0.028 H 
ATOM    117  H38 GLY d   1       9.870  -3.472  12.874  0.00  0.00     0.028 H 
ATOM    118  H39 GLY d   1       9.368  -2.225  14.065  0.00  0.00     0.028 H 
ENDBRANCH 109 115
ENDBRANCH  63 109
ENDBRANCH   3  63
TORSDOF 36
