REMARK  5 active torsions:
REMARK  status: ('A' for Active; 'I' for Inactive)
REMARK    1  A    between atoms: C6_3  and  O17_17 
REMARK    2  A    between atoms: C7_4  and  O18_18 
REMARK    3  A    between atoms: C8_5  and  C10_6 
REMARK    4  A    between atoms: O17_17  and  C11_8 
REMARK    5  A    between atoms: O18_18  and  C12_9 
ROOT
ATOM      1  C4  JY4 d   1     -19.485  11.368 -35.425  0.00  0.00     0.051 A 
ATOM      2  C5  JY4 d   1     -20.371  12.797 -33.784  0.00  0.00     0.093 A 
ATOM      3  C6  JY4 d   1     -21.341  14.532 -35.745  0.00  0.00     0.102 A 
ATOM      4  C7  JY4 d   1     -21.541  14.798 -34.403  0.00  0.00     0.103 A 
ATOM      5  C8  JY4 d   1     -19.011  10.599 -36.525  0.00  0.00     0.039 A 
ATOM      6  C1  JY4 d   1     -20.646  13.392 -36.110  0.00  0.00    -0.035 A 
ATOM      7  C2  JY4 d   1     -21.066  13.932 -33.436  0.00  0.00    -0.018 A 
ATOM      8  C3  JY4 d   1     -20.171  12.539 -35.132  0.00  0.00     0.013 A 
ATOM      9  C9  JY4 d   1     -19.072  10.630 -34.331  0.00  0.00     0.203 A 
ATOM     10  N13 JY4 d   1     -19.935  11.980 -32.818  0.00  0.00    -0.147 NA
ATOM     11  N14 JY4 d   1     -18.357   9.497 -36.151  0.00  0.00    -0.280 N 
ATOM     12  N15 JY4 d   1     -19.298  10.925 -33.051  0.00  0.00    -0.127 NA
ATOM     13  N16 JY4 d   1     -18.417   9.537 -34.813  0.00  0.00    -0.152 NA
ATOM     14  H4  JY4 d   1     -20.475  13.170 -37.157  0.00  0.00     0.089 H 
ATOM     15  H11 JY4 d   1     -21.244  14.150 -32.389  0.00  0.00     0.091 H 
ATOM     16  H12 JY4 d   1     -17.912   8.786 -36.748  0.00  0.00     0.189 HD
ENDROOT
BRANCH   3  17
ATOM     17  O17 JY4 d   1     -21.863  15.444 -36.672  0.00  0.00    -0.353 OA
BRANCH  17  18
ATOM     18  C11 JY4 d   1     -21.606  15.009 -38.008  0.00  0.00     0.010 C 
ATOM     19  H5  JY4 d   1     -22.024  15.738 -38.718  0.00  0.00     0.066 H 
ATOM     20  H6  JY4 d   1     -22.076  14.028 -38.171  0.00  0.00     0.066 H 
ATOM     21  H7  JY4 d   1     -20.520  14.926 -38.164  0.00  0.00     0.066 H 
ENDBRANCH  17  18
ENDBRANCH   3  17
BRANCH   4  22
ATOM     22  O18 JY4 d   1     -22.252  15.939 -34.083  0.00  0.00    -0.353 OA
BRANCH  22  23
ATOM     23  C12 JY4 d   1     -22.090  16.308 -32.712  0.00  0.00     0.010 C 
ATOM     24  H8  JY4 d   1     -22.672  17.218 -32.506  0.00  0.00     0.066 H 
ATOM     25  H9  JY4 d   1     -21.026  16.499 -32.507  0.00  0.00     0.066 H 
ATOM     26  H10 JY4 d   1     -22.447  15.491 -32.068  0.00  0.00     0.066 H 
ENDBRANCH  22  23
ENDBRANCH   4  22
BRANCH   5  27
ATOM     27  C10 JY4 d   1     -19.120  10.842 -37.963  0.00  0.00    -0.035 C 
ATOM     28  H1  JY4 d   1     -18.630  10.024 -38.511  0.00  0.00     0.035 H 
ATOM     29  H2  JY4 d   1     -18.631  11.795 -38.212  0.00  0.00     0.035 H 
ATOM     30  H3  JY4 d   1     -20.181  10.890 -38.247  0.00  0.00     0.035 H 
ENDBRANCH   5  27
TORSDOF 5
