REMARK  5 active torsions:
REMARK  status: ('A' for Active; 'I' for Inactive)
REMARK    1  A    between atoms: N3_2  and  C10_8 
REMARK    2  A    between atoms: O1_24  and  C17_11 
REMARK    3  A    between atoms: C9_19  and  C11_13 
REMARK    4  A    between atoms: C12_14  and  C16_16 
REMARK    5  A    between atoms: C3_18  and  O1_24 
ROOT
ATOM      1  N1  JY7 d   1     -21.585  14.499 -35.470  0.00  0.00    -0.145 NA
ATOM      2  N3  JY7 d   1     -20.652  12.724 -32.474  0.00  0.00    -0.254 N 
ATOM      3  C4  JY7 d   1     -20.044  11.463 -36.982  0.00  0.00    -0.032 A 
ATOM      4  C5  JY7 d   1     -20.426  12.404 -35.996  0.00  0.00     0.017 A 
ATOM      5  C6  JY7 d   1     -21.068  13.607 -36.392  0.00  0.00     0.123 A 
ATOM      6  C7  JY7 d   1     -20.227  12.187 -34.597  0.00  0.00     0.057 A 
ATOM      7  C8  JY7 d   1     -20.872  13.122 -33.768  0.00  0.00     0.181 A 
ATOM      8  C1  JY7 d   1     -20.285  11.739 -38.282  0.00  0.00     0.120 A 
ATOM      9  C2  JY7 d   1     -20.865  12.905 -38.727  0.00  0.00    -0.011 A 
ATOM     10  C3  JY7 d   1     -21.266  13.837 -37.788  0.00  0.00     0.102 A 
ATOM     11  C9  JY7 d   1     -19.610  11.269 -33.698  0.00  0.00     0.103 A 
ATOM     12  F1  JY7 d   1     -19.988  10.783 -39.211  0.00  0.00    -0.206 F 
ATOM     13  N2  JY7 d   1     -21.514  14.223 -34.163  0.00  0.00    -0.129 NA
ATOM     14  N4  JY7 d   1     -19.882  11.592 -32.442  0.00  0.00    -0.170 NA
ATOM     15  H1  JY7 d   1     -19.564  10.533 -36.698  0.00  0.00     0.089 H 
ATOM     16  H14 JY7 d   1     -21.004  13.088 -39.786  0.00  0.00     0.092 H 
ENDROOT
BRANCH  11  17
ATOM     17  C11 JY7 d   1     -18.800  10.037 -33.940  0.00  0.00     0.004 A 
ATOM     18  C15 JY7 d   1     -19.310   8.804 -33.534  0.00  0.00    -0.053 A 
ATOM     19  C14 JY7 d   1     -18.567   7.671 -33.814  0.00  0.00     0.003 A 
ATOM     20  H6  JY7 d   1     -20.259   8.736 -33.015  0.00  0.00     0.087 H 
ATOM     21  N5  JY7 d   1     -17.388   7.687 -34.447  0.00  0.00    -0.273 NA
ATOM     22  H10 JY7 d   1     -18.964   6.712 -33.502  0.00  0.00     0.114 H 
ATOM     23  C13 JY7 d   1     -16.919   8.877 -34.826  0.00  0.00     0.008 A 
ATOM     24  C12 JY7 d   1     -17.562  10.091 -34.612  0.00  0.00    -0.032 A 
ATOM     25  H5  JY7 d   1     -15.965   8.899 -35.340  0.00  0.00     0.115 H 
BRANCH  24  26
ATOM     26  C16 JY7 d   1     -16.924  11.370 -35.089  0.00  0.00    -0.049 C 
ATOM     27  H11 JY7 d   1     -15.967  11.141 -35.580  0.00  0.00     0.033 H 
ATOM     28  H12 JY7 d   1     -16.746  12.034 -34.230  0.00  0.00     0.033 H 
ATOM     29  H13 JY7 d   1     -17.594  11.869 -35.805  0.00  0.00     0.033 H 
ENDBRANCH  24  26
ENDBRANCH  11  17
BRANCH   2  30
ATOM     30  C10 JY7 d   1     -21.114  13.295 -31.213  0.00  0.00     0.004 C 
ATOM     31  H2  JY7 d   1     -20.729  12.694 -30.376  0.00  0.00     0.059 H 
ATOM     32  H3  JY7 d   1     -22.214  13.293 -31.191  0.00  0.00     0.059 H 
ATOM     33  H4  JY7 d   1     -20.747  14.328 -31.122  0.00  0.00     0.059 H 
ENDBRANCH   2  30
BRANCH  10  34
ATOM     34  O1  JY7 d   1     -21.893  15.011 -38.101  0.00  0.00    -0.353 OA
BRANCH  34  35
ATOM     35  C17 JY7 d   1     -22.271  15.230 -39.462  0.00  0.00     0.010 C 
ATOM     36  H7  JY7 d   1     -22.761  16.211 -39.553  0.00  0.00     0.066 H 
ATOM     37  H8  JY7 d   1     -22.968  14.441 -39.780  0.00  0.00     0.066 H 
ATOM     38  H9  JY7 d   1     -21.375  15.207 -40.100  0.00  0.00     0.066 H 
ENDBRANCH  34  35
ENDBRANCH  10  34
TORSDOF 5
