REMARK  4 active torsions:
REMARK  status: ('A' for Active; 'I' for Inactive)
REMARK    1  A    between atoms: C01_1  and  C02_2 
REMARK    2  A    between atoms: C01_1  and  C07_4 
REMARK    3  A    between atoms: C02_2  and  C03_3 
REMARK    4  A    between atoms: C02_2  and  S06_9 
ROOT
ATOM      1  C02 JYD d   1      23.317   6.899 -35.721  0.00  0.00     0.081 C 
ATOM      2  H3  JYD d   1      22.964   6.426 -34.793  0.00  0.00     0.073 H 
ENDROOT
BRANCH   1   3
ATOM      3  C01 JYD d   1      24.017   8.210 -35.380  0.00  0.00     0.036 C 
ATOM      4  H1  JYD d   1      24.176   8.780 -36.307  0.00  0.00     0.051 H 
ATOM      5  H2  JYD d   1      24.989   7.984 -34.917  0.00  0.00     0.051 H 
BRANCH   3   6
ATOM      6  C07 JYD d   1      23.196   9.058 -34.415  0.00  0.00     0.174 C 
ATOM      7  O08 JYD d   1      23.379  10.302 -34.370  0.00  0.00    -0.648 OA
ATOM      8  O09 JYD d   1      22.337   8.513 -33.669  0.00  0.00    -0.648 OA
ENDBRANCH   3   6
ENDBRANCH   1   3
BRANCH   1   9
ATOM      9  C03 JYD d   1      22.115   7.136 -36.636  0.00  0.00     0.187 C 
ATOM     10  O04 JYD d   1      21.202   7.928 -36.295  0.00  0.00    -0.647 OA
ATOM     11  O05 JYD d   1      22.028   6.540 -37.734  0.00  0.00    -0.647 OA
ENDBRANCH   1   9
BRANCH   1  12
ATOM     12  S06 JYD d   1      24.532   5.813 -36.523  0.00  0.00    -0.166 SA
ATOM     13  H4  JYD d   1      25.314   5.671 -35.903  0.00  0.00     0.102 HD
ENDBRANCH   1  12
TORSDOF 4
