REMARK  4 active torsions:
REMARK  status: ('A' for Active; 'I' for Inactive)
REMARK    1  A    between atoms: C01_1  and  C02_2 
REMARK    2  A    between atoms: C01_1  and  C07_4 
REMARK    3  A    between atoms: C02_2  and  C03_3 
REMARK    4  A    between atoms: C02_2  and  S06_9 
ROOT
ATOM      1  C02 JYD d   1      96.678  -9.643  69.055  0.00  0.00     0.081 C 
ATOM      2  H3  JYD d   1      97.700  -9.833  69.415  0.00  0.00     0.073 H 
ENDROOT
BRANCH   1   3
ATOM      3  C01 JYD d   1      95.709 -10.590  69.717  0.00  0.00     0.036 C 
ATOM      4  H1  JYD d   1      95.698 -11.540  69.162  0.00  0.00     0.051 H 
ATOM      5  H2  JYD d   1      94.703 -10.145  69.702  0.00  0.00     0.051 H 
BRANCH   3   6
ATOM      6  C07 JYD d   1      96.109 -10.859  71.148  0.00  0.00     0.174 C 
ATOM      7  O08 JYD d   1      97.283 -10.591  71.516  0.00  0.00    -0.648 OA
ATOM      8  O09 JYD d   1      95.262 -11.344  71.940  0.00  0.00    -0.648 OA
ENDBRANCH   3   6
ENDBRANCH   1   3
BRANCH   1   9
ATOM      9  C03 JYD d   1      96.598  -9.785  67.559  0.00  0.00     0.187 C 
ATOM     10  O04 JYD d   1      97.214 -10.717  66.992  0.00  0.00    -0.647 OA
ATOM     11  O05 JYD d   1      95.915  -8.958  66.911  0.00  0.00    -0.647 OA
ENDBRANCH   1   9
BRANCH   1  12
ATOM     12  S06 JYD d   1      96.176  -7.949  69.390  0.00  0.00    -0.166 SA
ATOM     13  H4  JYD d   1      96.206  -7.781  70.383  0.00  0.00     0.102 HD
ENDBRANCH   1  12
TORSDOF 4
