REMARK  6 active torsions:
REMARK  status: ('A' for Active; 'I' for Inactive)
REMARK    1  A    between atoms: C01_1  and  C02_2 
REMARK    2  A    between atoms: N18_18  and  C27_27 
REMARK    3  A    between atoms: C19_19  and  N20_20 
REMARK    4  A    between atoms: N20_20  and  C21_21 
REMARK    5  A    between atoms: C21_21  and  C22_22 
REMARK    6  A    between atoms: C27_27  and  C28_28 
ROOT
ATOM      1  C02 JYG d   1     -37.845  -3.167   1.736  0.00  0.00     0.050 A 
ATOM      2  N03 JYG d   1     -36.902  -3.465   0.722  0.00  0.00    -0.347 N 
ATOM      3  C04 JYG d   1     -37.539  -3.329  -0.546  0.00  0.00     0.254 A 
ATOM      4  O05 JYG d   1     -37.003  -3.521  -1.623  0.00  0.00    -0.268 OA
ATOM      5  C06 JYG d   1     -38.976  -2.906  -0.294  0.00  0.00     0.058 A 
ATOM      6  C07 JYG d   1     -40.215  -2.580  -0.881  0.00  0.00    -0.039 A 
ATOM      7  C08 JYG d   1     -41.091  -2.264   0.153  0.00  0.00     0.046 A 
ATOM      8  N09 JYG d   1     -40.421  -2.450   1.300  0.00  0.00    -0.356 N 
ATOM      9  C10 JYG d   1     -39.145  -2.816   1.053  0.00  0.00     0.048 A 
ATOM     10  C11 JYG d   1     -42.453  -1.939   0.046  0.00  0.00     0.019 A 
ATOM     11  C12 JYG d   1     -43.057  -1.822  -1.205  0.00  0.00    -0.069 A 
ATOM     12  C13 JYG d   1     -44.416  -1.548  -1.321  0.00  0.00    -0.081 A 
ATOM     13  C14 JYG d   1     -45.213  -1.408  -0.185  0.00  0.00    -0.065 A 
ATOM     14  C15 JYG d   1     -44.624  -1.536   1.104  0.00  0.00     0.061 A 
ATOM     15  C16 JYG d   1     -45.411  -1.399   2.293  0.00  0.00     0.275 A 
ATOM     16  O17 JYG d   1     -46.599  -1.158   2.207  0.00  0.00    -0.266 OA
ATOM     17  N18 JYG d   1     -44.830  -1.535   3.510  0.00  0.00    -0.137 N 
ATOM     18  C19 JYG d   1     -43.509  -1.801   3.592  0.00  0.00     0.685 A 
ATOM     19  N25 JYG d   1     -42.752  -1.928   2.480  0.00  0.00    -0.190 N 
ATOM     20  C26 JYG d   1     -43.289  -1.803   1.214  0.00  0.00     0.077 A 
ATOM     21  H4  JYG d   1     -37.495  -2.312   2.332  0.00  0.00     0.082 H 
ATOM     22  H5  JYG d   1     -35.949  -3.727   0.871  0.00  0.00     0.163 HD
ATOM     23  H6  JYG d   1     -40.444  -2.576  -1.946  0.00  0.00     0.088 H 
ATOM     24  H7  JYG d   1     -40.825  -2.330   2.240  0.00  0.00     0.166 HD
ATOM     25  H8  JYG d   1     -42.459  -1.946  -2.100  0.00  0.00     0.085 H 
ATOM     26  H9  JYG d   1     -44.860  -1.442  -2.304  0.00  0.00     0.083 H 
ATOM     27  H10 JYG d   1     -46.273  -1.203  -0.283  0.00  0.00     0.085 H 
ATOM     28  H19 JYG d   1     -41.746  -2.124   2.579  0.00  0.00     0.184 HD
ENDROOT
BRANCH  18  29
ATOM     29  N20 JYG d   1     -42.856  -1.931   4.849  0.00  0.00    -0.217 N 
ATOM     30  H11 JYG d   1     -43.380  -1.722   5.711  0.00  0.00     0.178 HD
BRANCH  29  31
ATOM     31  C21 JYG d   1     -41.516  -2.336   4.945  0.00  0.00     0.044 A 
ATOM     32  C23 JYG d   1     -40.476  -1.267   4.650  0.00  0.00    -0.039 A 
ATOM     33  C24 JYG d   1     -40.732  -1.716   6.085  0.00  0.00    -0.039 A 
ATOM     34  H15 JYG d   1     -40.793  -0.266   4.321  0.00  0.00     0.036 H 
ATOM     35  H16 JYG d   1     -39.535  -1.537   4.148  0.00  0.00     0.036 H 
ATOM     36  H17 JYG d   1     -39.975  -2.309   6.619  0.00  0.00     0.036 H 
ATOM     37  H18 JYG d   1     -41.233  -1.038   6.792  0.00  0.00     0.036 H 
BRANCH  31  38
ATOM     38  C22 JYG d   1     -41.159  -3.784   4.636  0.00  0.00    -0.052 C 
ATOM     39  H12 JYG d   1     -40.076  -3.929   4.759  0.00  0.00     0.030 H 
ATOM     40  H13 JYG d   1     -41.445  -4.019   3.600  0.00  0.00     0.030 H 
ATOM     41  H14 JYG d   1     -41.699  -4.450   5.325  0.00  0.00     0.030 H 
ENDBRANCH  31  38
ENDBRANCH  29  31
ENDBRANCH  18  29
BRANCH   1  42
ATOM     42  C01 JYG d   1     -38.030  -4.355   2.636  0.00  0.00    -0.052 C 
ATOM     43  H1  JYG d   1     -38.764  -4.112   3.418  0.00  0.00     0.030 H 
ATOM     44  H2  JYG d   1     -37.069  -4.614   3.103  0.00  0.00     0.030 H 
ATOM     45  H3  JYG d   1     -38.393  -5.209   2.046  0.00  0.00     0.030 H 
ENDBRANCH   1  42
BRANCH  17  46
ATOM     46  C27 JYG d   1     -45.637  -1.436   4.689  0.00  0.00     0.054 A 
ATOM     47  C29 JYG d   1     -45.558  -2.655   5.609  0.00  0.00    -0.039 A 
ATOM     48  C30 JYG d   1     -46.784  -2.453   4.747  0.00  0.00    -0.039 A 
ATOM     49  H23 JYG d   1     -45.627  -2.525   6.699  0.00  0.00     0.036 H 
ATOM     50  H24 JYG d   1     -44.855  -3.470   5.381  0.00  0.00     0.036 H 
ATOM     51  H25 JYG d   1     -46.971  -3.120   3.892  0.00  0.00     0.036 H 
ATOM     52  H26 JYG d   1     -47.742  -2.175   5.211  0.00  0.00     0.036 H 
BRANCH  46  53
ATOM     53  C28 JYG d   1     -45.839  -0.125   5.411  0.00  0.00    -0.052 C 
ATOM     54  H20 JYG d   1     -46.490  -0.283   6.283  0.00  0.00     0.030 H 
ATOM     55  H21 JYG d   1     -46.308   0.600   4.730  0.00  0.00     0.030 H 
ATOM     56  H22 JYG d   1     -44.866   0.263   5.746  0.00  0.00     0.030 H 
ENDBRANCH  46  53
ENDBRANCH  17  46
TORSDOF 6
