REMARK WARNING: 32 MAX_TORS EXCEEDED!!!
REMARK  42 active torsions:
REMARK  status: ('A' for Active; 'I' for Inactive)
REMARK    1  A    between atoms: N_1  and  CA_2 
REMARK    2  A    between atoms: CA_2  and  C_3 
REMARK    3  A    between atoms: CA_2  and  CB_5 
REMARK       I    between atoms: C_3  and  N_12 
REMARK    4  A    between atoms: CB_5  and  CG_6 
REMARK    5  A    between atoms: N_12  and  CA_13 
REMARK    6  A    between atoms: CA_13  and  C_14 
REMARK    7  A    between atoms: CA_13  and  CB_16 
REMARK       I    between atoms: C_14  and  N_21 
REMARK    8  A    between atoms: CB_16  and  CG_17 
REMARK    9  A    between atoms: CG_17  and  CD_18 
REMARK   10  A    between atoms: N_21  and  CA_22 
REMARK   11  A    between atoms: CA_22  and  C_23 
REMARK   12  A    between atoms: CA_22  and  CB_25 
REMARK       I    between atoms: C_23  and  N_29 
REMARK   13  A    between atoms: CB_25  and  CG_26 
REMARK   14  A    between atoms: N_29  and  CA_30 
REMARK   15  A    between atoms: CA_30  and  C_31 
REMARK   16  A    between atoms: CA_30  and  CB_33 
REMARK       I    between atoms: C_31  and  N_37 
REMARK   17  A    between atoms: CB_33  and  CG_34 
REMARK   18  A    between atoms: CG_34  and  CD1_35 
REMARK   19  A    between atoms: CG_34  and  CD2_36 
REMARK   20  A    between atoms: N_37  and  CA_38 
REMARK   21  A    between atoms: CA_38  and  C_39 
REMARK   22  A    between atoms: CA_38  and  CB_41 
REMARK       I    between atoms: C_39  and  N_48 
REMARK   23  A    between atoms: CB_41  and  CG_42 
REMARK   24  A    between atoms: CG_42  and  CD_43 
REMARK   25  A    between atoms: CD_43  and  NE_44 
REMARK       I    between atoms: NE_44  and  CZ_45 
REMARK       I    between atoms: CZ_45  and  NH1_46 
REMARK   26  A    between atoms: N_48  and  CA_49 
REMARK   27  A    between atoms: CA_49  and  C_50 
REMARK   28  A    between atoms: CA_49  and  CB_52 
REMARK       I    between atoms: C_50  and  N_55 
REMARK   29  A    between atoms: CB_52  and  CG1_53 
REMARK   30  A    between atoms: CB_52  and  CG2_54 
REMARK   31  A    between atoms: N_55  and  CA_56 
REMARK   32  A    between atoms: CA_56  and  C_57 
REMARK   33  A    between atoms: CA_56  and  CB_59 
REMARK       I    between atoms: C_57  and  N_61 
REMARK   34  A    between atoms: CB_59  and  OG_60 
REMARK   35  A    between atoms: N_61  and  CA_62 
REMARK   36  A    between atoms: CA_62  and  C_63 
REMARK   37  A    between atoms: CA_62  and  CB_65 
REMARK       I    between atoms: C_63  and  N_67 
REMARK   38  A    between atoms: CB_65  and  OG_66 
REMARK   39  A    between atoms: N_67  and  CA_68 
REMARK   40  A    between atoms: CA_68  and  C_69 
REMARK   41  A    between atoms: CA_68  and  CB_71 
REMARK   42  A    between atoms: CB_71  and  CG_72 
ROOT
ATOM      1  CA  PHE d   1      -0.633  95.428 146.896  0.00  0.00     0.089 C 
ATOM      2  H34 PHE d   1      -0.123  96.048 146.144  0.00  0.00     0.087 H 
ENDROOT
BRANCH   1   3
ATOM      3  N   PHE d   1       0.315  94.739 147.762  0.00  0.00    -0.346 N 
ATOM      4  C   PHE d   1       1.184  95.360 148.561  0.00  0.00     0.241 C 
ATOM      5  O   PHE d   1       1.363  96.586 148.552  0.00  0.00    -0.271 OA
ATOM      6  H33 PHE d   1       0.314  93.739 147.757  0.00  0.00     0.163 HD
BRANCH   4   7
ATOM      7  CA  PHE d   1       1.912  94.478 149.571  0.00  0.00     0.089 C 
ATOM      8  H23 PHE d   1       2.050  93.459 149.179  0.00  0.00     0.087 H 
BRANCH   7   9
ATOM      9  N   PHE d   1       3.186  95.080 149.875  0.00  0.00    -0.346 N 
ATOM     10  C   PHE d   1       4.112  95.233 148.944  0.00  0.00     0.241 C 
ATOM     11  O   PHE d   1       3.961  94.835 147.785  0.00  0.00    -0.271 OA
ATOM     12  H22 PHE d   1       3.373  95.388 150.808  0.00  0.00     0.163 HD
BRANCH  10  13
ATOM     13  CA  PHE d   1       5.327  96.070 149.360  0.00  0.00     0.098 C 
ATOM     14  H19 PHE d   1       5.803  95.620 150.244  0.00  0.00     0.088 H 
BRANCH  13  15
ATOM     15  N   PHE d   1       6.306  96.169 148.287  0.00  0.00    -0.346 N 
ATOM     16  C   PHE d   1       7.449  95.473 148.263  0.00  0.00     0.241 C 
ATOM     17  O   PHE d   1       7.729  94.606 149.097  0.00  0.00    -0.271 OA
ATOM     18  H18 PHE d   1       6.114  96.790 147.527  0.00  0.00     0.163 HD
BRANCH  16  19
ATOM     19  CA  PHE d   1       8.352  95.704 147.038  0.00  0.00     0.090 C 
ATOM     20  H13 PHE d   1       8.201  96.737 146.692  0.00  0.00     0.087 H 
BRANCH  19  21
ATOM     21  N   PHE d   1       9.768  95.557 147.403  0.00  0.00    -0.346 N 
ATOM     22  C   PHE d   1      10.632  96.564 147.487  0.00  0.00     0.249 C 
ATOM     23  O   PHE d   1      10.375  97.716 147.136  0.00  0.00    -0.271 OA
ATOM     24  H12 PHE d   1      10.105  94.637 147.602  0.00  0.00     0.163 HD
BRANCH  22  25
ATOM     25  CA  PHE d   1      12.024  96.212 147.991  0.00  0.00     0.179 C 
ATOM     26  H4  PHE d   1      12.119  95.117 148.029  0.00  0.00     0.099 H 
BRANCH  25  27
ATOM     27  N   PHE d   1      13.029  96.729 147.061  0.00  0.00    -0.066 N 
ATOM     28  H1  PHE d   1      13.950  96.495 147.397  0.00  0.00     0.275 HD
ATOM     29  H2  PHE d   1      12.941  97.731 146.994  0.00  0.00     0.275 HD
ATOM     30  H3  PHE d   1      12.888  96.318 146.152  0.00  0.00     0.275 HD
ENDBRANCH  25  27
BRANCH  25  31
ATOM     31  CB  PHE d   1      12.223  96.767 149.423  0.00  0.00    -0.006 C 
ATOM     32  H5  PHE d   1      11.929  97.827 149.421  0.00  0.00     0.043 H 
ATOM     33  H6  PHE d   1      13.290  96.683 149.675  0.00  0.00     0.043 H 
BRANCH  31  34
ATOM     34  CG  PHE d   1      11.432  96.065 150.502  0.00  0.00    -0.056 A 
ATOM     35  CD1 PHE d   1      12.013  95.057 151.264  0.00  0.00    -0.077 A 
ATOM     36  CE1 PHE d   1      11.273  94.390 152.249  0.00  0.00    -0.082 A 
ATOM     37  H7  PHE d   1      13.048  94.785 151.094  0.00  0.00     0.084 H 
ATOM     38  CZ  PHE d   1       9.945  94.717 152.462  0.00  0.00    -0.083 A 
ATOM     39  H9  PHE d   1      11.742  93.616 152.846  0.00  0.00     0.083 H 
ATOM     40  CE2 PHE d   1       9.359  95.728 151.736  0.00  0.00    -0.082 A 
ATOM     41  H11 PHE d   1       9.366  94.176 153.202  0.00  0.00     0.083 H 
ATOM     42  CD2 PHE d   1      10.101  96.405 150.752  0.00  0.00    -0.077 A 
ATOM     43  H10 PHE d   1       8.327  96.002 151.922  0.00  0.00     0.083 H 
ATOM     44  H8  PHE d   1       9.634  97.200 150.181  0.00  0.00     0.084 H 
ENDBRANCH  31  34
ENDBRANCH  25  31
ENDBRANCH  22  25
ENDBRANCH  19  21
BRANCH  19  45
ATOM     45  CB  PHE d   1       7.947  94.766 145.901  0.00  0.00    -0.029 C 
ATOM     46  H14 PHE d   1       8.552  95.019 145.018  0.00  0.00     0.037 H 
ATOM     47  H15 PHE d   1       6.884  94.939 145.679  0.00  0.00     0.037 H 
BRANCH  45  48
ATOM     48  CG  PHE d   1       8.132  93.289 146.189  0.00  0.00     0.018 A 
ATOM     49  H16 PHE d   1       7.590  93.046 147.115  0.00  0.00     0.049 H 
ATOM     50  H17 PHE d   1       9.206  93.095 146.330  0.00  0.00     0.049 H 
BRANCH  48  51
ATOM     51  CD  PHE d   1       7.623  92.383 145.085  0.00  0.00     0.172 C 
ATOM     52  OE1 PHE d   1       6.609  92.724 144.432  0.00  0.00    -0.648 OA
ATOM     53  OE2 PHE d   1       8.217  91.301 144.916  0.00  0.00    -0.648 OA
ENDBRANCH  48  51
ENDBRANCH  45  48
ENDBRANCH  19  45
ENDBRANCH  16  19
ENDBRANCH  13  15
BRANCH  13  54
ATOM     54  CB  PHE d   1       4.795  97.474 149.699  0.00  0.00     0.043 C 
ATOM     55  H20 PHE d   1       3.867  97.352 150.276  0.00  0.00     0.052 H 
ATOM     56  H21 PHE d   1       4.573  97.987 148.752  0.00  0.00     0.052 H 
BRANCH  54  57
ATOM     57  CG  PHE d   1       5.722  98.359 150.497  0.00  0.00     0.175 A 
ATOM     58  OD1 PHE d   1       5.369  99.507 150.714  0.00  0.00    -0.648 OA
ATOM     59  OD2 PHE d   1       6.860  97.914 150.807  0.00  0.00    -0.648 OA
ENDBRANCH  54  57
ENDBRANCH  13  54
ENDBRANCH  10  13
ENDBRANCH   7   9
BRANCH   7  60
ATOM     60  CB  PHE d   1       1.054  94.467 150.835  0.00  0.00    -0.035 C 
ATOM     61  H24 PHE d   1       0.007  94.325 150.527  0.00  0.00     0.037 H 
ATOM     62  H25 PHE d   1       1.164  95.447 151.322  0.00  0.00     0.037 H 
BRANCH  60  63
ATOM     63  CG  PHE d   1       1.374  93.422 151.845  0.00  0.00    -0.059 A 
ATOM     64  H26 PHE d   1       2.450  93.486 152.064  0.00  0.00     0.038 H 
BRANCH  63  65
ATOM     65  CD1 PHE d   1       0.610  93.700 153.169  0.00  0.00    -0.073 A 
ATOM     66  H27 PHE d   1       0.856  92.920 153.905  0.00  0.00     0.028 H 
ATOM     67  H28 PHE d   1      -0.473  93.693 152.976  0.00  0.00     0.028 H 
ATOM     68  H29 PHE d   1       0.906  94.683 153.564  0.00  0.00     0.028 H 
ENDBRANCH  63  65
BRANCH  63  69
ATOM     69  CD2 PHE d   1       1.100  92.001 151.290  0.00  0.00    -0.073 A 
ATOM     70  H30 PHE d   1       1.663  91.857 150.356  0.00  0.00     0.028 H 
ATOM     71  H31 PHE d   1       0.024  91.886 151.091  0.00  0.00     0.028 H 
ATOM     72  H32 PHE d   1       1.418  91.251 152.029  0.00  0.00     0.028 H 
ENDBRANCH  63  69
ENDBRANCH  60  63
ENDBRANCH   7  60
ENDBRANCH   4   7
ENDBRANCH   1   3
BRANCH   1  73
ATOM     73  C   PHE d   1      -1.468  96.264 147.845  0.00  0.00     0.241 C 
ATOM     74  O   PHE d   1      -1.808  95.767 148.936  0.00  0.00    -0.271 OA
ATOM     75  N   PHE d   1      -1.752  97.537 147.488  0.00  0.00    -0.346 N 
ATOM     76  H46 PHE d   1      -1.435  97.889 146.607  0.00  0.00     0.163 HD
BRANCH  75  77
ATOM     77  CA  PHE d   1      -2.521  98.403 148.383  0.00  0.00     0.092 C 
ATOM     78  H47 PHE d   1      -2.123  98.268 149.400  0.00  0.00     0.088 H 
BRANCH  77  79
ATOM     79  C   PHE d   1      -4.000  97.988 148.403  0.00  0.00     0.241 C 
ATOM     80  O   PHE d   1      -4.618  97.961 149.466  0.00  0.00    -0.271 OA
ATOM     81  N   PHE d   1      -4.553  97.650 147.231  0.00  0.00    -0.344 N 
ATOM     82  H55 PHE d   1      -4.004  97.630 146.395  0.00  0.00     0.163 HD
BRANCH  81  83
ATOM     83  CA  PHE d   1      -5.958  97.315 147.197  0.00  0.00     0.109 C 
ATOM     84  H56 PHE d   1      -6.227  96.794 148.128  0.00  0.00     0.090 H 
BRANCH  83  85
ATOM     85  C   PHE d   1      -6.276  96.420 146.028  0.00  0.00     0.243 C 
ATOM     86  O   PHE d   1      -5.676  96.569 144.952  0.00  0.00    -0.271 OA
ATOM     87  N   PHE d   1      -7.298  95.585 146.187  0.00  0.00    -0.344 N 
ATOM     88  H60 PHE d   1      -7.783  95.549 147.061  0.00  0.00     0.163 HD
BRANCH  87  89
ATOM     89  CA  PHE d   1      -7.716  94.715 145.081  0.00  0.00     0.109 C 
ATOM     90  H61 PHE d   1      -6.816  94.346 144.569  0.00  0.00     0.090 H 
BRANCH  89  91
ATOM     91  C   PHE d   1      -8.569  95.499 144.072  0.00  0.00     0.243 C 
ATOM     92  O   PHE d   1      -9.054  96.601 144.382  0.00  0.00    -0.271 OA
ATOM     93  N   PHE d   1      -8.713  94.954 142.849  0.00  0.00    -0.344 N 
ATOM     94  H65 PHE d   1      -8.241  94.090 142.677  0.00  0.00     0.163 HD
BRANCH  93  95
ATOM     95  CA  PHE d   1      -9.501  95.516 141.748  0.00  0.00     0.100 C 
ATOM     96  H66 PHE d   1      -9.105  96.513 141.502  0.00  0.00     0.090 H 
BRANCH  95  97
ATOM     97  C   PHE d   1     -10.992  95.655 142.104  0.00  0.00     0.197 C 
ATOM     98  O   PHE d   1     -11.468  94.884 142.958  0.00  0.00    -0.646 OA
ATOM     99  OXT PHE d   1     -11.696  96.540 141.529  0.00  0.00    -0.646 OA
ENDBRANCH  95  97
BRANCH  95 100
ATOM    100  CB  PHE d   1      -9.353  94.591 140.524  0.00  0.00    -0.013 C 
ATOM    101  H67 PHE d   1     -10.165  94.839 139.824  0.00  0.00     0.043 H 
ATOM    102  H68 PHE d   1      -9.476  93.556 140.877  0.00  0.00     0.043 H 
BRANCH 100 103
ATOM    103  CG  PHE d   1      -8.049  94.655 139.748  0.00  0.00    -0.056 A 
ATOM    104  CD1 PHE d   1      -7.055  95.562 140.095  0.00  0.00    -0.077 A 
ATOM    105  CE1 PHE d   1      -5.888  95.650 139.353  0.00  0.00    -0.082 A 
ATOM    106  H69 PHE d   1      -7.194  96.207 140.955  0.00  0.00     0.084 H 
ATOM    107  CZ  PHE d   1      -5.657  94.781 138.305  0.00  0.00    -0.083 A 
ATOM    108  H71 PHE d   1      -5.151  96.407 139.597  0.00  0.00     0.083 H 
ATOM    109  CE2 PHE d   1      -6.626  93.862 137.951  0.00  0.00    -0.082 A 
ATOM    110  H73 PHE d   1      -4.719  94.820 137.762  0.00  0.00     0.083 H 
ATOM    111  CD2 PHE d   1      -7.813  93.798 138.674  0.00  0.00    -0.077 A 
ATOM    112  H72 PHE d   1      -6.462  93.194 137.113  0.00  0.00     0.083 H 
ATOM    113  H70 PHE d   1      -8.567  93.070 138.398  0.00  0.00     0.084 H 
ENDBRANCH 100 103
ENDBRANCH  95 100
ENDBRANCH  93  95
ENDBRANCH  89  91
BRANCH  89 114
ATOM    114  CB  PHE d   1      -8.506  93.516 145.605  0.00  0.00     0.044 C 
ATOM    115  H62 PHE d   1      -7.893  92.955 146.325  0.00  0.00     0.077 H 
ATOM    116  H63 PHE d   1      -8.780  92.859 144.767  0.00  0.00     0.077 H 
BRANCH 114 117
ATOM    117  OG  PHE d   1      -9.681  93.988 146.245  0.00  0.00    -0.398 OA
ATOM    118  H64 PHE d   1     -10.179  93.249 146.574  0.00  0.00     0.209 HD
ENDBRANCH 114 117
ENDBRANCH  89 114
ENDBRANCH  87  89
ENDBRANCH  83  85
BRANCH  83 119
ATOM    119  CB  PHE d   1      -6.759  98.608 147.089  0.00  0.00     0.044 C 
ATOM    120  H57 PHE d   1      -6.440  99.143 146.182  0.00  0.00     0.077 H 
ATOM    121  H58 PHE d   1      -6.546  99.227 147.974  0.00  0.00     0.077 H 
BRANCH 119 122
ATOM    122  OG  PHE d   1      -8.157  98.391 147.016  0.00  0.00    -0.398 OA
ATOM    123  H59 PHE d   1      -8.447  97.937 147.798  0.00  0.00     0.209 HD
ENDBRANCH 119 122
ENDBRANCH  83 119
ENDBRANCH  81  83
ENDBRANCH  77  79
BRANCH  77 124
ATOM    124  CB  PHE d   1      -2.353  99.912 148.010  0.00  0.00    -0.033 C 
ATOM    125  H48 PHE d   1      -2.592 100.028 146.942  0.00  0.00     0.042 H 
BRANCH 124 126
ATOM    126  CG1 PHE d   1      -3.318 100.785 148.810  0.00  0.00    -0.071 C 
ATOM    127  H49 PHE d   1      -3.178 101.839 148.528  0.00  0.00     0.028 H 
ATOM    128  H50 PHE d   1      -3.118 100.663 149.885  0.00  0.00     0.028 H 
ATOM    129  H51 PHE d   1      -4.353 100.481 148.593  0.00  0.00     0.028 H 
ENDBRANCH 124 126
BRANCH 124 130
ATOM    130  CG2 PHE d   1      -0.910 100.370 148.227  0.00  0.00    -0.071 C 
ATOM    131  H52 PHE d   1      -0.231  99.731 147.644  0.00  0.00     0.028 H 
ATOM    132  H53 PHE d   1      -0.658 100.294 149.295  0.00  0.00     0.028 H 
ATOM    133  H54 PHE d   1      -0.803 101.414 147.898  0.00  0.00     0.028 H 
ENDBRANCH 124 130
ENDBRANCH  77 124
ENDBRANCH  75  77
ENDBRANCH   1  73
BRANCH   1 134
ATOM    134  CB  PHE d   1      -1.538  94.399 146.230  0.00  0.00    -0.036 C 
ATOM    135  H35 PHE d   1      -2.488  94.890 145.972  0.00  0.00     0.036 H 
ATOM    136  H36 PHE d   1      -1.728  93.589 146.950  0.00  0.00     0.036 H 
BRANCH 134 137
ATOM    137  CG  PHE d   1      -0.952  93.779 144.950  0.00  0.00    -0.048 A 
ATOM    138  H37 PHE d   1      -1.460  92.823 144.756  0.00  0.00     0.035 H 
ATOM    139  H38 PHE d   1       0.122  93.599 145.104  0.00  0.00     0.035 H 
BRANCH 137 140
ATOM    140  CD  PHE d   1      -1.130  94.693 143.722  0.00  0.00     0.009 C 
ATOM    141  H39 PHE d   1      -0.799  94.157 142.820  0.00  0.00     0.064 H 
ATOM    142  H40 PHE d   1      -0.521  95.599 143.854  0.00  0.00     0.064 H 
BRANCH 140 143
ATOM    143  NE  PHE d   1      -2.530  95.073 143.569  0.00  0.00    -0.227 N 
ATOM    144  CZ  PHE d   1      -3.458  94.287 143.049  0.00  0.00     0.665 A 
ATOM    145  NH1 PHE d   1      -3.131  93.088 142.575  0.00  0.00    -0.235 N 
ATOM    146  NH2 PHE d   1      -4.723  94.671 143.014  0.00  0.00    -0.235 N 
ATOM    147  H42 PHE d   1      -3.856  92.479 142.171  0.00  0.00     0.174 HD
ATOM    148  H43 PHE d   1      -2.152  92.769 142.612  0.00  0.00     0.174 HD
ATOM    149  H44 PHE d   1      -4.990  95.597 143.378  0.00  0.00     0.174 HD
ATOM    150  H45 PHE d   1      -5.441  94.044 142.623  0.00  0.00     0.174 HD
ATOM    151  H41 PHE d   1      -2.813  96.011 143.885  0.00  0.00     0.177 HD
ENDBRANCH 140 143
ENDBRANCH 137 140
ENDBRANCH 134 137
ENDBRANCH   1 134
TORSDOF 42
