REMARK WARNING: 32 MAX_TORS EXCEEDED!!!
REMARK  45 active torsions:
REMARK  status: ('A' for Active; 'I' for Inactive)
REMARK    1  A    between atoms: N_1  and  CA_2 
REMARK    2  A    between atoms: CA_2  and  C_3 
REMARK    3  A    between atoms: CA_2  and  CB_5 
REMARK       I    between atoms: C_3  and  N_12 
REMARK    4  A    between atoms: CB_5  and  CG_6 
REMARK    5  A    between atoms: N_12  and  CA_13 
REMARK    6  A    between atoms: CA_13  and  C_14 
REMARK    7  A    between atoms: CA_13  and  CB_16 
REMARK       I    between atoms: C_14  and  N_21 
REMARK    8  A    between atoms: CB_16  and  CG_17 
REMARK    9  A    between atoms: CG_17  and  CD_18 
REMARK   10  A    between atoms: N_21  and  CA_22 
REMARK   11  A    between atoms: CA_22  and  C_23 
REMARK   12  A    between atoms: CA_22  and  CB_25 
REMARK       I    between atoms: C_23  and  N_29 
REMARK   13  A    between atoms: CB_25  and  CG_26 
REMARK   14  A    between atoms: N_29  and  CA_30 
REMARK   15  A    between atoms: CA_30  and  C_31 
REMARK   16  A    between atoms: CA_30  and  CB_33 
REMARK       I    between atoms: C_31  and  N_37 
REMARK   17  A    between atoms: CB_33  and  CG_34 
REMARK   18  A    between atoms: CG_34  and  CD1_35 
REMARK   19  A    between atoms: CG_34  and  CD2_36 
REMARK   20  A    between atoms: N_37  and  CA_38 
REMARK   21  A    between atoms: CA_38  and  C_39 
REMARK   22  A    between atoms: CA_38  and  CB_41 
REMARK       I    between atoms: C_39  and  N_48 
REMARK   23  A    between atoms: CB_41  and  CG_42 
REMARK   24  A    between atoms: CG_42  and  CD_43 
REMARK   25  A    between atoms: CD_43  and  NE_44 
REMARK       I    between atoms: NE_44  and  CZ_45 
REMARK       I    between atoms: CZ_45  and  NH1_46 
REMARK   26  A    between atoms: N_48  and  CA_49 
REMARK   27  A    between atoms: CA_49  and  C_50 
REMARK   28  A    between atoms: CA_49  and  CB_52 
REMARK       I    between atoms: C_50  and  N_56 
REMARK   29  A    between atoms: CB_52  and  CG_53 
REMARK   30  A    between atoms: CG_53  and  CD1_54 
REMARK   31  A    between atoms: CG_53  and  CD2_55 
REMARK   32  A    between atoms: N_56  and  CA_57 
REMARK   33  A    between atoms: CA_57  and  C_58 
REMARK   34  A    between atoms: CA_57  and  CB_60 
REMARK       I    between atoms: C_58  and  N_64 
REMARK   35  A    between atoms: CB_60  and  CG_61 
REMARK   36  A    between atoms: CG_61  and  CD1_62 
REMARK   37  A    between atoms: CG_61  and  CD2_63 
REMARK   38  A    between atoms: N_64  and  CA_65 
REMARK   39  A    between atoms: CA_65  and  C_66 
REMARK   40  A    between atoms: CA_65  and  CB_68 
REMARK       I    between atoms: C_66  and  N_70 
REMARK   41  A    between atoms: CB_68  and  OG_69 
REMARK   42  A    between atoms: N_70  and  CA_71 
REMARK   43  A    between atoms: CA_71  and  C_72 
REMARK   44  A    between atoms: CA_71  and  CB_74 
REMARK   45  A    between atoms: CB_74  and  CG_75 
ROOT
ATOM      1  CA  PHE d   1      -0.682  95.531 146.575  0.00  0.00     0.089 C 
ATOM      2  H34 PHE d   1      -0.211  96.238 145.876  0.00  0.00     0.087 H 
ENDROOT
BRANCH   1   3
ATOM      3  N   PHE d   1       0.353  94.863 147.354  0.00  0.00    -0.346 N 
ATOM      4  C   PHE d   1       1.156  95.555 148.158  0.00  0.00     0.241 C 
ATOM      5  O   PHE d   1       1.299  96.771 148.078  0.00  0.00    -0.271 OA
ATOM      6  H33 PHE d   1       0.461  93.871 147.283  0.00  0.00     0.163 HD
BRANCH   4   7
ATOM      7  CA  PHE d   1       1.918  94.760 149.208  0.00  0.00     0.089 C 
ATOM      8  H23 PHE d   1       2.115  93.751 148.816  0.00  0.00     0.087 H 
BRANCH   7   9
ATOM      9  N   PHE d   1       3.198  95.390 149.522  0.00  0.00    -0.346 N 
ATOM     10  C   PHE d   1       4.119  95.610 148.586  0.00  0.00     0.241 C 
ATOM     11  O   PHE d   1       4.019  95.178 147.436  0.00  0.00    -0.271 OA
ATOM     12  H22 PHE d   1       3.388  95.663 150.465  0.00  0.00     0.163 HD
BRANCH  10  13
ATOM     13  CA  PHE d   1       5.325  96.451 149.019  0.00  0.00     0.098 C 
ATOM     14  H19 PHE d   1       5.796  95.959 149.883  0.00  0.00     0.088 H 
BRANCH  13  15
ATOM     15  N   PHE d   1       6.339  96.577 147.968  0.00  0.00    -0.346 N 
ATOM     16  C   PHE d   1       7.427  95.811 147.916  0.00  0.00     0.241 C 
ATOM     17  O   PHE d   1       7.673  94.927 148.741  0.00  0.00    -0.271 OA
ATOM     18  H18 PHE d   1       6.208  97.269 147.258  0.00  0.00     0.163 HD
BRANCH  16  19
ATOM     19  CA  PHE d   1       8.375  96.078 146.746  0.00  0.00     0.090 C 
ATOM     20  H13 PHE d   1       8.254  97.126 146.436  0.00  0.00     0.087 H 
BRANCH  19  21
ATOM     21  N   PHE d   1       9.774  95.880 147.139  0.00  0.00    -0.346 N 
ATOM     22  C   PHE d   1      10.645  96.882 147.200  0.00  0.00     0.249 C 
ATOM     23  O   PHE d   1      10.375  98.036 146.853  0.00  0.00    -0.271 OA
ATOM     24  H12 PHE d   1      10.084  94.958 147.369  0.00  0.00     0.163 HD
BRANCH  22  25
ATOM     25  CA  PHE d   1      12.038  96.530 147.717  0.00  0.00     0.179 C 
ATOM     26  H4  PHE d   1      12.130  95.434 147.749  0.00  0.00     0.099 H 
BRANCH  25  27
ATOM     27  N   PHE d   1      13.083  97.052 146.837  0.00  0.00    -0.066 N 
ATOM     28  H1  PHE d   1      13.988  96.803 147.205  0.00  0.00     0.275 HD
ATOM     29  H2  PHE d   1      13.007  98.056 146.783  0.00  0.00     0.275 HD
ATOM     30  H3  PHE d   1      12.975  96.657 145.916  0.00  0.00     0.275 HD
ENDBRANCH  25  27
BRANCH  25  31
ATOM     31  CB  PHE d   1      12.212  97.076 149.138  0.00  0.00    -0.006 C 
ATOM     32  H5  PHE d   1      11.871  98.122 149.153  0.00  0.00     0.043 H 
ATOM     33  H6  PHE d   1      13.280  97.035 149.398  0.00  0.00     0.043 H 
BRANCH  31  34
ATOM     34  CG  PHE d   1      11.438  96.308 150.181  0.00  0.00    -0.056 A 
ATOM     35  CD1 PHE d   1      12.034  95.273 150.884  0.00  0.00    -0.077 A 
ATOM     36  CE1 PHE d   1      11.326  94.562 151.837  0.00  0.00    -0.082 A 
ATOM     37  H7  PHE d   1      13.068  95.017 150.685  0.00  0.00     0.084 H 
ATOM     38  CZ  PHE d   1      10.006  94.886 152.103  0.00  0.00    -0.083 A 
ATOM     39  H9  PHE d   1      11.804  93.752 152.375  0.00  0.00     0.083 H 
ATOM     40  CE2 PHE d   1       9.401  95.913 151.413  0.00  0.00    -0.082 A 
ATOM     41  H11 PHE d   1       9.451  94.333 152.852  0.00  0.00     0.083 H 
ATOM     42  CD2 PHE d   1      10.113  96.622 150.456  0.00  0.00    -0.077 A 
ATOM     43  H10 PHE d   1       8.367  96.168 151.618  0.00  0.00     0.083 H 
ATOM     44  H8  PHE d   1       9.630  97.429 149.917  0.00  0.00     0.084 H 
ENDBRANCH  31  34
ENDBRANCH  25  31
ENDBRANCH  22  25
ENDBRANCH  19  21
BRANCH  19  45
ATOM     45  CB  PHE d   1       8.002  95.179 145.561  0.00  0.00    -0.029 C 
ATOM     46  H14 PHE d   1       8.671  95.425 144.723  0.00  0.00     0.037 H 
ATOM     47  H15 PHE d   1       6.963  95.402 145.278  0.00  0.00     0.037 H 
BRANCH  45  48
ATOM     48  CG  PHE d   1       8.108  93.680 145.826  0.00  0.00     0.018 A 
ATOM     49  H16 PHE d   1       7.574  93.450 146.760  0.00  0.00     0.049 H 
ATOM     50  H17 PHE d   1       9.170  93.418 145.938  0.00  0.00     0.049 H 
BRANCH  48  51
ATOM     51  CD  PHE d   1       7.516  92.838 144.709  0.00  0.00     0.172 C 
ATOM     52  OE1 PHE d   1       6.687  93.352 143.930  0.00  0.00    -0.648 OA
ATOM     53  OE2 PHE d   1       7.886  91.657 144.602  0.00  0.00    -0.648 OA
ENDBRANCH  48  51
ENDBRANCH  45  48
ENDBRANCH  19  45
ENDBRANCH  16  19
ENDBRANCH  13  15
BRANCH  13  54
ATOM     54  CB  PHE d   1       4.819  97.833 149.455  0.00  0.00     0.043 C 
ATOM     55  H20 PHE d   1       3.916  97.696 150.068  0.00  0.00     0.052 H 
ATOM     56  H21 PHE d   1       4.567  98.412 148.554  0.00  0.00     0.052 H 
BRANCH  54  57
ATOM     57  CG  PHE d   1       5.836  98.620 150.265  0.00  0.00     0.175 A 
ATOM     58  OD1 PHE d   1       5.580  99.820 150.507  0.00  0.00    -0.648 OA
ATOM     59  OD2 PHE d   1       6.876  98.058 150.664  0.00  0.00    -0.648 OA
ENDBRANCH  54  57
ENDBRANCH  13  54
ENDBRANCH  10  13
ENDBRANCH   7   9
BRANCH   7  60
ATOM     60  CB  PHE d   1       1.042  94.644 150.460  0.00  0.00    -0.035 C 
ATOM     61  H24 PHE d   1       0.031  94.375 150.120  0.00  0.00     0.037 H 
ATOM     62  H25 PHE d   1       1.018  95.639 150.928  0.00  0.00     0.037 H 
BRANCH  60  63
ATOM     63  CG  PHE d   1       1.422  93.651 151.550  0.00  0.00    -0.059 A 
ATOM     64  H26 PHE d   1       2.498  93.743 151.757  0.00  0.00     0.038 H 
BRANCH  63  65
ATOM     65  CD1 PHE d   1       0.651  93.964 152.827  0.00  0.00    -0.073 A 
ATOM     66  H27 PHE d   1       0.930  93.243 153.610  0.00  0.00     0.028 H 
ATOM     67  H28 PHE d   1      -0.429  93.892 152.630  0.00  0.00     0.028 H 
ATOM     68  H29 PHE d   1       0.895  94.983 153.162  0.00  0.00     0.028 H 
ENDBRANCH  63  65
BRANCH  63  69
ATOM     69  CD2 PHE d   1       1.137  92.238 151.079  0.00  0.00    -0.073 A 
ATOM     70  H30 PHE d   1       1.704  92.037 150.158  0.00  0.00     0.028 H 
ATOM     71  H31 PHE d   1       0.061  92.128 150.878  0.00  0.00     0.028 H 
ATOM     72  H32 PHE d   1       1.439  91.523 151.859  0.00  0.00     0.028 H 
ENDBRANCH  63  69
ENDBRANCH  60  63
ENDBRANCH   7  60
ENDBRANCH   4   7
ENDBRANCH   1   3
BRANCH   1  73
ATOM     73  C   PHE d   1      -1.561  96.290 147.552  0.00  0.00     0.241 C 
ATOM     74  O   PHE d   1      -1.882  95.780 148.624  0.00  0.00    -0.271 OA
ATOM     75  N   PHE d   1      -1.950  97.504 147.180  0.00  0.00    -0.346 N 
ATOM     76  H46 PHE d   1      -1.727  97.829 146.261  0.00  0.00     0.163 HD
BRANCH  75  77
ATOM     77  CA  PHE d   1      -2.695  98.374 148.081  0.00  0.00     0.089 C 
ATOM     78  H47 PHE d   1      -2.262  98.265 149.086  0.00  0.00     0.087 H 
BRANCH  77  79
ATOM     79  C   PHE d   1      -4.177  98.019 148.173  0.00  0.00     0.241 C 
ATOM     80  O   PHE d   1      -4.778  98.122 149.244  0.00  0.00    -0.271 OA
ATOM     81  N   PHE d   1      -4.759  97.595 147.055  0.00  0.00    -0.346 N 
ATOM     82  H57 PHE d   1      -4.204  97.459 146.235  0.00  0.00     0.163 HD
BRANCH  81  83
ATOM     83  CA  PHE d   1      -6.191  97.325 147.002  0.00  0.00     0.089 C 
ATOM     84  H58 PHE d   1      -6.470  96.726 147.882  0.00  0.00     0.087 H 
BRANCH  83  85
ATOM     85  C   PHE d   1      -6.535  96.534 145.745  0.00  0.00     0.241 C 
ATOM     86  O   PHE d   1      -5.980  96.790 144.680  0.00  0.00    -0.271 OA
ATOM     87  N   PHE d   1      -7.451  95.580 145.866  0.00  0.00    -0.344 N 
ATOM     88  H68 PHE d   1      -7.854  95.393 146.762  0.00  0.00     0.163 HD
BRANCH  87  89
ATOM     89  CA  PHE d   1      -7.876  94.803 144.710  0.00  0.00     0.109 C 
ATOM     90  H69 PHE d   1      -6.976  94.431 144.198  0.00  0.00     0.090 H 
BRANCH  89  91
ATOM     91  C   PHE d   1      -8.676  95.654 143.715  0.00  0.00     0.243 C 
ATOM     92  O   PHE d   1      -9.190  96.728 144.066  0.00  0.00    -0.271 OA
ATOM     93  N   PHE d   1      -8.766  95.156 142.480  0.00  0.00    -0.344 N 
ATOM     94  H73 PHE d   1      -8.288  94.300 142.285  0.00  0.00     0.163 HD
BRANCH  93  95
ATOM     95  CA  PHE d   1      -9.522  95.784 141.388  0.00  0.00     0.100 C 
ATOM     96  H74 PHE d   1      -9.093  96.781 141.207  0.00  0.00     0.090 H 
BRANCH  95  97
ATOM     97  C   PHE d   1     -10.999  95.942 141.720  0.00  0.00     0.197 C 
ATOM     98  O   PHE d   1     -11.541  95.193 142.536  0.00  0.00    -0.646 OA
ATOM     99  OXT PHE d   1     -11.689  96.790 141.143  0.00  0.00    -0.646 OA
ENDBRANCH  95  97
BRANCH  95 100
ATOM    100  CB  PHE d   1      -9.420  94.958 140.104  0.00  0.00    -0.013 C 
ATOM    101  H75 PHE d   1     -10.193  95.312 139.406  0.00  0.00     0.043 H 
ATOM    102  H76 PHE d   1      -9.610  93.905 140.358  0.00  0.00     0.043 H 
BRANCH 100 103
ATOM    103  CG  PHE d   1      -8.087  95.040 139.410  0.00  0.00    -0.056 A 
ATOM    104  CD1 PHE d   1      -7.127  95.956 139.804  0.00  0.00    -0.077 A 
ATOM    105  CE1 PHE d   1      -5.902  96.022 139.147  0.00  0.00    -0.082 A 
ATOM    106  H77 PHE d   1      -7.331  96.627 140.631  0.00  0.00     0.084 H 
ATOM    107  CZ  PHE d   1      -5.632  95.167 138.094  0.00  0.00    -0.083 A 
ATOM    108  H79 PHE d   1      -5.158  96.745 139.461  0.00  0.00     0.083 H 
ATOM    109  CE2 PHE d   1      -6.590  94.258 137.683  0.00  0.00    -0.082 A 
ATOM    110  H81 PHE d   1      -4.672  95.209 137.592  0.00  0.00     0.083 H 
ATOM    111  CD2 PHE d   1      -7.809  94.202 138.342  0.00  0.00    -0.077 A 
ATOM    112  H80 PHE d   1      -6.389  93.593 136.851  0.00  0.00     0.083 H 
ATOM    113  H78 PHE d   1      -8.558  93.490 138.016  0.00  0.00     0.084 H 
ENDBRANCH 100 103
ENDBRANCH  95 100
ENDBRANCH  93  95
ENDBRANCH  89  91
BRANCH  89 114
ATOM    114  CB  PHE d   1      -8.708  93.605 145.157  0.00  0.00     0.044 C 
ATOM    115  H70 PHE d   1      -8.129  93.010 145.878  0.00  0.00     0.077 H 
ATOM    116  H71 PHE d   1      -8.951  92.985 144.281  0.00  0.00     0.077 H 
BRANCH 114 117
ATOM    117  OG  PHE d   1      -9.912  94.041 145.770  0.00  0.00    -0.398 OA
ATOM    118  H72 PHE d   1     -10.419  93.285 146.043  0.00  0.00     0.209 HD
ENDBRANCH 114 117
ENDBRANCH  89 114
ENDBRANCH  87  89
ENDBRANCH  83  85
BRANCH  83 119
ATOM    119  CB  PHE d   1      -6.974  98.638 147.034  0.00  0.00    -0.035 C 
ATOM    120  H59 PHE d   1      -6.804  99.139 146.070  0.00  0.00     0.037 H 
ATOM    121  H60 PHE d   1      -6.548  99.248 147.844  0.00  0.00     0.037 H 
BRANCH 119 122
ATOM    122  CG  PHE d   1      -8.485  98.590 147.255  0.00  0.00    -0.059 A 
ATOM    123  H61 PHE d   1      -8.935  97.993 146.448  0.00  0.00     0.038 H 
BRANCH 122 124
ATOM    124  CD1 PHE d   1      -8.823  97.930 148.579  0.00  0.00    -0.073 A 
ATOM    125  H62 PHE d   1      -9.915  97.910 148.710  0.00  0.00     0.028 H 
ATOM    126  H63 PHE d   1      -8.365  98.501 149.401  0.00  0.00     0.028 H 
ATOM    127  H64 PHE d   1      -8.434  96.901 148.586  0.00  0.00     0.028 H 
ENDBRANCH 122 124
BRANCH 122 128
ATOM    128  CD2 PHE d   1      -9.065  99.999 147.196  0.00  0.00    -0.073 A 
ATOM    129  H65 PHE d   1      -8.810 100.460 146.231  0.00  0.00     0.028 H 
ATOM    130  H66 PHE d   1      -8.645 100.603 148.013  0.00  0.00     0.028 H 
ATOM    131  H67 PHE d   1     -10.159  99.950 147.301  0.00  0.00     0.028 H 
ENDBRANCH 122 128
ENDBRANCH 119 122
ENDBRANCH  83 119
ENDBRANCH  81  83
ENDBRANCH  77  79
BRANCH  77 132
ATOM    132  CB  PHE d   1      -2.536  99.830 147.642  0.00  0.00    -0.035 C 
ATOM    133  H48 PHE d   1      -3.229 100.445 148.235  0.00  0.00     0.037 H 
ATOM    134  H49 PHE d   1      -2.804  99.899 146.577  0.00  0.00     0.037 H 
BRANCH 132 135
ATOM    135  CG  PHE d   1      -1.127 100.395 147.817  0.00  0.00    -0.059 A 
ATOM    136  H50 PHE d   1      -0.402  99.692 147.382  0.00  0.00     0.038 H 
BRANCH 135 137
ATOM    137  CD1 PHE d   1      -1.007 101.718 147.108  0.00  0.00    -0.073 A 
ATOM    138  H51 PHE d   1       0.011 102.114 147.241  0.00  0.00     0.028 H 
ATOM    139  H52 PHE d   1      -1.735 102.427 147.529  0.00  0.00     0.028 H 
ATOM    140  H53 PHE d   1      -1.209 101.579 146.036  0.00  0.00     0.028 H 
ENDBRANCH 135 137
BRANCH 135 141
ATOM    141  CD2 PHE d   1      -0.830 100.559 149.295  0.00  0.00    -0.073 A 
ATOM    142  H54 PHE d   1      -0.922  99.585 149.798  0.00  0.00     0.028 H 
ATOM    143  H55 PHE d   1      -1.546 101.268 149.736  0.00  0.00     0.028 H 
ATOM    144  H56 PHE d   1       0.193 100.943 149.423  0.00  0.00     0.028 H 
ENDBRANCH 135 141
ENDBRANCH 132 135
ENDBRANCH  77 132
ENDBRANCH  75  77
ENDBRANCH   1  73
BRANCH   1 145
ATOM    145  CB  PHE d   1      -1.520  94.534 145.774  0.00  0.00    -0.036 C 
ATOM    146  H35 PHE d   1      -2.472  95.020 145.516  0.00  0.00     0.036 H 
ATOM    147  H36 PHE d   1      -1.716  93.662 146.415  0.00  0.00     0.036 H 
BRANCH 145 148
ATOM    148  CG  PHE d   1      -0.883  94.037 144.488  0.00  0.00    -0.048 A 
ATOM    149  H37 PHE d   1      -1.283  93.040 144.252  0.00  0.00     0.035 H 
ATOM    150  H38 PHE d   1       0.206  93.972 144.630  0.00  0.00     0.035 H 
BRANCH 148 151
ATOM    151  CD  PHE d   1      -1.176  94.975 143.327  0.00  0.00     0.009 C 
ATOM    152  H39 PHE d   1      -0.871  94.490 142.388  0.00  0.00     0.064 H 
ATOM    153  H40 PHE d   1      -0.602  95.904 143.463  0.00  0.00     0.064 H 
BRANCH 151 154
ATOM    154  NE  PHE d   1      -2.601  95.301 143.254  0.00  0.00    -0.227 N 
ATOM    155  CZ  PHE d   1      -3.505  94.543 142.644  0.00  0.00     0.665 A 
ATOM    156  NH1 PHE d   1      -3.140  93.413 142.049  0.00  0.00    -0.235 N 
ATOM    157  NH2 PHE d   1      -4.779  94.904 142.639  0.00  0.00    -0.235 N 
ATOM    158  H42 PHE d   1      -3.845  92.829 141.577  0.00  0.00     0.174 HD
ATOM    159  H43 PHE d   1      -2.152  93.121 142.059  0.00  0.00     0.174 HD
ATOM    160  H44 PHE d   1      -5.068  95.779 143.099  0.00  0.00     0.174 HD
ATOM    161  H45 PHE d   1      -5.481  94.310 142.175  0.00  0.00     0.174 HD
ATOM    162  H41 PHE d   1      -2.922  96.171 143.703  0.00  0.00     0.177 HD
ENDBRANCH 151 154
ENDBRANCH 148 151
ENDBRANCH 145 148
ENDBRANCH   1 145
TORSDOF 45
