REMARK WARNING: 32 MAX_TORS EXCEEDED!!!
REMARK  44 active torsions:
REMARK  status: ('A' for Active; 'I' for Inactive)
REMARK    1  A    between atoms: N_1  and  CA_2 
REMARK    2  A    between atoms: CA_2  and  C_3 
REMARK    3  A    between atoms: CA_2  and  CB_5 
REMARK       I    between atoms: C_3  and  N_12 
REMARK    4  A    between atoms: CB_5  and  CG_6 
REMARK    5  A    between atoms: N_12  and  CA_13 
REMARK    6  A    between atoms: CA_13  and  C_14 
REMARK    7  A    between atoms: CA_13  and  CB_16 
REMARK       I    between atoms: C_14  and  N_21 
REMARK    8  A    between atoms: CB_16  and  CG_17 
REMARK    9  A    between atoms: CG_17  and  CD_18 
REMARK   10  A    between atoms: N_21  and  CA_22 
REMARK   11  A    between atoms: CA_22  and  C_23 
REMARK   12  A    between atoms: CA_22  and  CB_25 
REMARK       I    between atoms: C_23  and  N_29 
REMARK   13  A    between atoms: CB_25  and  CG_26 
REMARK   14  A    between atoms: N_29  and  CA_30 
REMARK   15  A    between atoms: CA_30  and  C_31 
REMARK   16  A    between atoms: CA_30  and  CB_33 
REMARK       I    between atoms: C_31  and  N_37 
REMARK   17  A    between atoms: CB_33  and  CG_34 
REMARK   18  A    between atoms: CG_34  and  CD1_35 
REMARK   19  A    between atoms: CG_34  and  CD2_36 
REMARK   20  A    between atoms: N_37  and  CA_38 
REMARK   21  A    between atoms: CA_38  and  C_39 
REMARK   22  A    between atoms: CA_38  and  CB_41 
REMARK       I    between atoms: C_39  and  N_48 
REMARK   23  A    between atoms: CB_41  and  CG_42 
REMARK   24  A    between atoms: CG_42  and  CD_43 
REMARK   25  A    between atoms: CD_43  and  NE_44 
REMARK       I    between atoms: NE_44  and  CZ_45 
REMARK       I    between atoms: CZ_45  and  NH1_46 
REMARK   26  A    between atoms: N_48  and  CA_49 
REMARK   27  A    between atoms: CA_49  and  C_50 
REMARK   28  A    between atoms: CA_49  and  CB_52 
REMARK       I    between atoms: C_50  and  N_55 
REMARK   29  A    between atoms: CB_52  and  CG1_53 
REMARK   30  A    between atoms: CB_52  and  CG2_54 
REMARK   31  A    between atoms: N_55  and  CA_56 
REMARK   32  A    between atoms: CA_56  and  C_57 
REMARK   33  A    between atoms: CA_56  and  CB_59 
REMARK       I    between atoms: C_57  and  N_63 
REMARK   34  A    between atoms: CB_59  and  CG_60 
REMARK   35  A    between atoms: CG_60  and  CD1_61 
REMARK   36  A    between atoms: CG_60  and  CD2_62 
REMARK   37  A    between atoms: N_63  and  CA_64 
REMARK   38  A    between atoms: CA_64  and  C_65 
REMARK   39  A    between atoms: CA_64  and  CB_67 
REMARK       I    between atoms: C_65  and  N_69 
REMARK   40  A    between atoms: CB_67  and  OG_68 
REMARK   41  A    between atoms: N_69  and  CA_70 
REMARK   42  A    between atoms: CA_70  and  C_71 
REMARK   43  A    between atoms: CA_70  and  CB_73 
REMARK   44  A    between atoms: CB_73  and  CG_74 
ROOT
ATOM      1  CA  PHE d   1       0.589  13.569 -36.322  0.00  0.00     0.089 C 
ATOM      2  H34 PHE d   1       0.097  14.225 -35.589  0.00  0.00     0.087 H 
ENDROOT
BRANCH   1   3
ATOM      3  N   PHE d   1      -0.402  12.825 -37.099  0.00  0.00    -0.346 N 
ATOM      4  C   PHE d   1      -1.235  13.449 -37.935  0.00  0.00     0.241 C 
ATOM      5  O   PHE d   1      -1.375  14.683 -37.953  0.00  0.00    -0.271 OA
ATOM      6  H33 PHE d   1      -0.457  11.831 -37.002  0.00  0.00     0.163 HD
BRANCH   4   7
ATOM      7  CA  PHE d   1      -1.973  12.559 -38.942  0.00  0.00     0.089 C 
ATOM      8  H23 PHE d   1      -2.096  11.538 -38.552  0.00  0.00     0.087 H 
BRANCH   7   9
ATOM      9  N   PHE d   1      -3.265  13.139 -39.257  0.00  0.00    -0.346 N 
ATOM     10  C   PHE d   1      -4.161  13.383 -38.319  0.00  0.00     0.241 C 
ATOM     11  O   PHE d   1      -4.011  12.979 -37.159  0.00  0.00    -0.271 OA
ATOM     12  H22 PHE d   1      -3.482  13.359 -40.208  0.00  0.00     0.163 HD
BRANCH  10  13
ATOM     13  CA  PHE d   1      -5.355  14.222 -38.737  0.00  0.00     0.098 C 
ATOM     14  H19 PHE d   1      -5.812  13.787 -39.638  0.00  0.00     0.088 H 
BRANCH  13  15
ATOM     15  N   PHE d   1      -6.364  14.290 -37.672  0.00  0.00    -0.346 N 
ATOM     16  C   PHE d   1      -7.458  13.549 -37.649  0.00  0.00     0.241 C 
ATOM     17  O   PHE d   1      -7.716  12.677 -38.504  0.00  0.00    -0.271 OA
ATOM     18  H18 PHE d   1      -6.215  14.934 -36.921  0.00  0.00     0.163 HD
BRANCH  16  19
ATOM     19  CA  PHE d   1      -8.378  13.756 -36.459  0.00  0.00     0.090 C 
ATOM     20  H13 PHE d   1      -8.261  14.796 -36.119  0.00  0.00     0.087 H 
BRANCH  19  21
ATOM     21  N   PHE d   1      -9.776  13.576 -36.884  0.00  0.00    -0.346 N 
ATOM     22  C   PHE d   1     -10.660  14.557 -36.872  0.00  0.00     0.249 C 
ATOM     23  O   PHE d   1     -10.425  15.698 -36.447  0.00  0.00    -0.271 OA
ATOM     24  H12 PHE d   1     -10.069  12.672 -37.195  0.00  0.00     0.163 HD
BRANCH  22  25
ATOM     25  CA  PHE d   1     -12.060  14.249 -37.417  0.00  0.00     0.179 C 
ATOM     26  H4  PHE d   1     -12.191  13.159 -37.487  0.00  0.00     0.099 H 
BRANCH  25  27
ATOM     27  N   PHE d   1     -13.086  14.803 -36.518  0.00  0.00    -0.066 N 
ATOM     28  H1  PHE d   1     -14.002  14.595 -36.885  0.00  0.00     0.275 HD
ATOM     29  H2  PHE d   1     -12.970  15.802 -36.451  0.00  0.00     0.275 HD
ATOM     30  H3  PHE d   1     -12.989  14.391 -35.603  0.00  0.00     0.275 HD
ENDBRANCH  25  27
BRANCH  25  31
ATOM     31  CB  PHE d   1     -12.204  14.878 -38.830  0.00  0.00    -0.006 C 
ATOM     32  H5  PHE d   1     -11.844  15.916 -38.785  0.00  0.00     0.043 H 
ATOM     33  H6  PHE d   1     -13.269  14.871 -39.105  0.00  0.00     0.043 H 
BRANCH  31  34
ATOM     34  CG  PHE d   1     -11.428  14.151 -39.908  0.00  0.00    -0.056 A 
ATOM     35  CD1 PHE d   1     -12.032  13.153 -40.670  0.00  0.00    -0.077 A 
ATOM     36  CE1 PHE d   1     -11.309  12.456 -41.651  0.00  0.00    -0.082 A 
ATOM     37  H7  PHE d   1     -13.075  12.911 -40.503  0.00  0.00     0.084 H 
ATOM     38  CZ  PHE d   1      -9.983  12.754 -41.873  0.00  0.00    -0.083 A 
ATOM     39  H9  PHE d   1     -11.795  11.682 -42.234  0.00  0.00     0.083 H 
ATOM     40  CE2 PHE d   1      -9.369  13.763 -41.161  0.00  0.00    -0.082 A 
ATOM     41  H11 PHE d   1      -9.420  12.193 -42.610  0.00  0.00     0.083 H 
ATOM     42  CD2 PHE d   1     -10.079  14.450 -40.154  0.00  0.00    -0.077 A 
ATOM     43  H10 PHE d   1      -8.340  14.028 -41.375  0.00  0.00     0.083 H 
ATOM     44  H8  PHE d   1      -9.580  15.213 -39.567  0.00  0.00     0.084 H 
ENDBRANCH  31  34
ENDBRANCH  25  31
ENDBRANCH  22  25
ENDBRANCH  19  21
BRANCH  19  45
ATOM     45  CB  PHE d   1      -8.006  12.850 -35.285  0.00  0.00    -0.029 C 
ATOM     46  H14 PHE d   1      -8.647  13.120 -34.433  0.00  0.00     0.037 H 
ATOM     47  H15 PHE d   1      -6.954  13.043 -35.028  0.00  0.00     0.037 H 
BRANCH  45  48
ATOM     48  CG  PHE d   1      -8.160  11.370 -35.532  0.00  0.00     0.018 A 
ATOM     49  H16 PHE d   1      -7.625  11.116 -36.459  0.00  0.00     0.049 H 
ATOM     50  H17 PHE d   1      -9.231  11.149 -35.654  0.00  0.00     0.049 H 
BRANCH  48  51
ATOM     51  CD  PHE d   1      -7.621  10.506 -34.422  0.00  0.00     0.172 C 
ATOM     52  OE1 PHE d   1      -6.664  10.942 -33.756  0.00  0.00    -0.648 OA
ATOM     53  OE2 PHE d   1      -8.134   9.385 -34.230  0.00  0.00    -0.648 OA
ENDBRANCH  48  51
ENDBRANCH  45  48
ENDBRANCH  19  45
ENDBRANCH  16  19
ENDBRANCH  13  15
BRANCH  13  54
ATOM     54  CB  PHE d   1      -4.834  15.640 -39.044  0.00  0.00     0.043 C 
ATOM     55  H20 PHE d   1      -3.881  15.538 -39.584  0.00  0.00     0.052 H 
ATOM     56  H21 PHE d   1      -4.660  16.149 -38.085  0.00  0.00     0.052 H 
BRANCH  54  57
ATOM     57  CG  PHE d   1      -5.749  16.523 -39.879  0.00  0.00     0.175 A 
ATOM     58  OD1 PHE d   1      -6.856  16.063 -40.248  0.00  0.00    -0.648 OA
ATOM     59  OD2 PHE d   1      -5.374  17.670 -40.131  0.00  0.00    -0.648 OA
ENDBRANCH  54  57
ENDBRANCH  13  54
ENDBRANCH  10  13
ENDBRANCH   7   9
BRANCH   7  60
ATOM     60  CB  PHE d   1      -1.098  12.571 -40.219  0.00  0.00    -0.035 C 
ATOM     61  H24 PHE d   1      -0.057  12.386 -39.916  0.00  0.00     0.037 H 
ATOM     62  H25 PHE d   1      -1.176  13.570 -40.672  0.00  0.00     0.037 H 
BRANCH  60  63
ATOM     63  CG  PHE d   1      -1.458  11.560 -41.270  0.00  0.00    -0.059 A 
ATOM     64  H26 PHE d   1      -2.531  11.648 -41.493  0.00  0.00     0.038 H 
BRANCH  63  65
ATOM     65  CD1 PHE d   1      -0.651  11.827 -42.551  0.00  0.00    -0.073 A 
ATOM     66  H27 PHE d   1      -0.920  11.083 -43.316  0.00  0.00     0.028 H 
ATOM     67  H28 PHE d   1       0.424  11.753 -42.329  0.00  0.00     0.028 H 
ATOM     68  H29 PHE d   1      -0.880  12.836 -42.925  0.00  0.00     0.028 H 
ENDBRANCH  63  65
BRANCH  63  69
ATOM     69  CD2 PHE d   1      -1.169  10.163 -40.796  0.00  0.00    -0.073 A 
ATOM     70  H30 PHE d   1      -1.742   9.961 -39.879  0.00  0.00     0.028 H 
ATOM     71  H31 PHE d   1      -0.094  10.062 -40.586  0.00  0.00     0.028 H 
ATOM     72  H32 PHE d   1      -1.460   9.444 -41.576  0.00  0.00     0.028 H 
ENDBRANCH  63  69
ENDBRANCH  60  63
ENDBRANCH   7  60
ENDBRANCH   4   7
ENDBRANCH   1   3
BRANCH   1  73
ATOM     73  C   PHE d   1       1.410  14.379 -37.312  0.00  0.00     0.241 C 
ATOM     74  O   PHE d   1       1.749  13.880 -38.388  0.00  0.00    -0.271 OA
ATOM     75  N   PHE d   1       1.763  15.600 -36.953  0.00  0.00    -0.346 N 
ATOM     76  H46 PHE d   1       1.501  15.942 -36.050  0.00  0.00     0.163 HD
BRANCH  75  77
ATOM     77  CA  PHE d   1       2.526  16.457 -37.848  0.00  0.00     0.092 C 
ATOM     78  H47 PHE d   1       2.084  16.369 -38.852  0.00  0.00     0.088 H 
BRANCH  77  79
ATOM     79  C   PHE d   1       3.963  15.970 -37.947  0.00  0.00     0.241 C 
ATOM     80  O   PHE d   1       4.543  15.920 -39.037  0.00  0.00    -0.271 OA
ATOM     81  N   PHE d   1       4.578  15.627 -36.805  0.00  0.00    -0.346 N 
ATOM     82  H55 PHE d   1       4.066  15.626 -35.946  0.00  0.00     0.163 HD
BRANCH  81  83
ATOM     83  CA  PHE d   1       5.983  15.257 -36.807  0.00  0.00     0.089 C 
ATOM     84  H56 PHE d   1       6.200  14.649 -37.698  0.00  0.00     0.087 H 
BRANCH  83  85
ATOM     85  C   PHE d   1       6.306  14.451 -35.559  0.00  0.00     0.241 C 
ATOM     86  O   PHE d   1       5.794  14.756 -34.467  0.00  0.00    -0.271 OA
ATOM     87  N   PHE d   1       7.214  13.494 -35.675  0.00  0.00    -0.344 N 
ATOM     88  H66 PHE d   1       7.600  13.307 -36.578  0.00  0.00     0.163 HD
BRANCH  87  89
ATOM     89  CA  PHE d   1       7.671  12.709 -34.552  0.00  0.00     0.109 C 
ATOM     90  H67 PHE d   1       6.785  12.328 -34.024  0.00  0.00     0.090 H 
BRANCH  89  91
ATOM     91  C   PHE d   1       8.481  13.575 -33.537  0.00  0.00     0.243 C 
ATOM     92  O   PHE d   1       9.027  14.641 -33.894  0.00  0.00    -0.271 OA
ATOM     93  N   PHE d   1       8.614  13.090 -32.298  0.00  0.00    -0.344 N 
ATOM     94  H71 PHE d   1       8.136  12.242 -32.071  0.00  0.00     0.163 HD
BRANCH  93  95
ATOM     95  CA  PHE d   1       9.429  13.736 -31.242  0.00  0.00     0.100 C 
ATOM     96  H72 PHE d   1       9.023  14.742 -31.059  0.00  0.00     0.090 H 
BRANCH  95  97
ATOM     97  C   PHE d   1      10.915  13.859 -31.599  0.00  0.00     0.197 C 
ATOM     98  O   PHE d   1      11.407  13.042 -32.428  0.00  0.00    -0.646 OA
ATOM     99  OXT PHE d   1      11.609  14.673 -30.934  0.00  0.00    -0.646 OA
ENDBRANCH  95  97
BRANCH  95 100
ATOM    100  CB  PHE d   1       9.353  12.912 -29.963  0.00  0.00    -0.013 C 
ATOM    101  H73 PHE d   1      10.123  13.294 -29.277  0.00  0.00     0.043 H 
ATOM    102  H74 PHE d   1       9.582  11.869 -30.227  0.00  0.00     0.043 H 
BRANCH 100 103
ATOM    103  CG  PHE d   1       8.037  12.915 -29.217  0.00  0.00    -0.056 A 
ATOM    104  CD1 PHE d   1       7.038  13.855 -29.508  0.00  0.00    -0.077 A 
ATOM    105  CE1 PHE d   1       5.845  13.884 -28.765  0.00  0.00    -0.082 A 
ATOM    106  H75 PHE d   1       7.187  14.566 -30.313  0.00  0.00     0.084 H 
ATOM    107  CZ  PHE d   1       5.653  12.974 -27.744  0.00  0.00    -0.083 A 
ATOM    108  H77 PHE d   1       5.080  14.617 -28.992  0.00  0.00     0.083 H 
ATOM    109  CE2 PHE d   1       6.639  12.066 -27.443  0.00  0.00    -0.082 A 
ATOM    110  H79 PHE d   1       4.726  12.976 -27.181  0.00  0.00     0.083 H 
ATOM    111  CD2 PHE d   1       7.830  12.043 -28.180  0.00  0.00    -0.077 A 
ATOM    112  H78 PHE d   1       6.495  11.363 -26.630  0.00  0.00     0.083 H 
ATOM    113  H76 PHE d   1       8.600  11.324 -27.926  0.00  0.00     0.084 H 
ENDBRANCH 100 103
ENDBRANCH  95 100
ENDBRANCH  93  95
ENDBRANCH  89  91
BRANCH  89 114
ATOM    114  CB  PHE d   1       8.466  11.505 -35.054  0.00  0.00     0.044 C 
ATOM    115  H68 PHE d   1       7.857  10.935 -35.771  0.00  0.00     0.077 H 
ATOM    116  H69 PHE d   1       8.732  10.859 -34.204  0.00  0.00     0.077 H 
BRANCH 114 117
ATOM    117  OG  PHE d   1       9.649  11.961 -35.692  0.00  0.00    -0.398 OA
ATOM    118  H70 PHE d   1      10.146  11.215 -36.006  0.00  0.00     0.209 HD
ENDBRANCH 114 117
ENDBRANCH  89 114
ENDBRANCH  87  89
ENDBRANCH  83  85
BRANCH  83 119
ATOM    119  CB  PHE d   1       6.844  16.547 -36.841  0.00  0.00    -0.035 C 
ATOM    120  H57 PHE d   1       6.760  17.026 -35.854  0.00  0.00     0.037 H 
ATOM    121  H58 PHE d   1       6.416  17.209 -37.608  0.00  0.00     0.037 H 
BRANCH 119 122
ATOM    122  CG  PHE d   1       8.330  16.389 -37.149  0.00  0.00    -0.059 A 
ATOM    123  H59 PHE d   1       8.776  15.732 -36.388  0.00  0.00     0.038 H 
BRANCH 122 124
ATOM    124  CD1 PHE d   1       8.542  15.758 -38.551  0.00  0.00    -0.073 A 
ATOM    125  H60 PHE d   1       9.619  15.655 -38.748  0.00  0.00     0.028 H 
ATOM    126  H61 PHE d   1       8.089  16.405 -39.317  0.00  0.00     0.028 H 
ATOM    127  H62 PHE d   1       8.068  14.766 -38.582  0.00  0.00     0.028 H 
ENDBRANCH 122 124
BRANCH 122 128
ATOM    128  CD2 PHE d   1       9.042  17.735 -37.122  0.00  0.00    -0.073 A 
ATOM    129  H63 PHE d   1       8.905  18.202 -36.136  0.00  0.00     0.028 H 
ATOM    130  H64 PHE d   1       8.620  18.389 -37.899  0.00  0.00     0.028 H 
ATOM    131  H65 PHE d   1      10.115  17.586 -37.312  0.00  0.00     0.028 H 
ENDBRANCH 122 128
ENDBRANCH 119 122
ENDBRANCH  83 119
ENDBRANCH  81  83
ENDBRANCH  77  79
BRANCH  77 132
ATOM    132  CB  PHE d   1       2.404  17.937 -37.430  0.00  0.00    -0.033 C 
ATOM    133  H48 PHE d   1       2.639  18.016 -36.358  0.00  0.00     0.042 H 
BRANCH 132 134
ATOM    134  CG1 PHE d   1       3.391  18.832 -38.205  0.00  0.00    -0.071 C 
ATOM    135  H49 PHE d   1       3.273  19.876 -37.879  0.00  0.00     0.028 H 
ATOM    136  H50 PHE d   1       3.184  18.759 -39.283  0.00  0.00     0.028 H 
ATOM    137  H51 PHE d   1       4.421  18.500 -38.006  0.00  0.00     0.028 H 
ENDBRANCH 132 134
BRANCH 132 138
ATOM    138  CG2 PHE d   1       0.956  18.410 -37.653  0.00  0.00    -0.071 C 
ATOM    139  H52 PHE d   1       0.268  17.760 -37.093  0.00  0.00     0.028 H 
ATOM    140  H53 PHE d   1       0.715  18.361 -38.725  0.00  0.00     0.028 H 
ATOM    141  H54 PHE d   1       0.850  19.447 -37.300  0.00  0.00     0.028 H 
ENDBRANCH 132 138
ENDBRANCH  77 132
ENDBRANCH  75  77
ENDBRANCH   1  73
BRANCH   1 142
ATOM    142  CB  PHE d   1       1.521  12.584 -35.616  0.00  0.00    -0.036 C 
ATOM    143  H35 PHE d   1       2.465  13.103 -35.394  0.00  0.00     0.036 H 
ATOM    144  H36 PHE d   1       1.716  11.744 -36.300  0.00  0.00     0.036 H 
BRANCH 142 145
ATOM    145  CG  PHE d   1       0.966  12.015 -34.303  0.00  0.00    -0.048 A 
ATOM    146  H37 PHE d   1       1.496  11.079 -34.076  0.00  0.00     0.035 H 
ATOM    147  H38 PHE d   1      -0.105  11.806 -34.438  0.00  0.00     0.035 H 
BRANCH 145 148
ATOM    148  CD  PHE d   1       1.131  12.969 -33.116  0.00  0.00     0.009 C 
ATOM    149  H39 PHE d   1       0.771  12.478 -32.200  0.00  0.00     0.064 H 
ATOM    150  H40 PHE d   1       0.544  13.882 -33.297  0.00  0.00     0.064 H 
BRANCH 148 151
ATOM    151  NE  PHE d   1       2.550  13.324 -32.955  0.00  0.00    -0.227 N 
ATOM    152  CZ  PHE d   1       3.467  12.550 -32.385  0.00  0.00     0.665 A 
ATOM    153  NH1 PHE d   1       3.123  11.391 -31.839  0.00  0.00    -0.235 N 
ATOM    154  NH2 PHE d   1       4.741  12.918 -32.380  0.00  0.00    -0.235 N 
ATOM    155  H42 PHE d   1       3.840  10.796 -31.399  0.00  0.00     0.174 HD
ATOM    156  H43 PHE d   1       2.139  11.086 -31.855  0.00  0.00     0.174 HD
ATOM    157  H44 PHE d   1       5.019  13.816 -32.801  0.00  0.00     0.174 HD
ATOM    158  H45 PHE d   1       5.452  12.306 -31.955  0.00  0.00     0.174 HD
ATOM    159  H41 PHE d   1       2.855  14.241 -33.311  0.00  0.00     0.177 HD
ENDBRANCH 148 151
ENDBRANCH 145 148
ENDBRANCH 142 145
ENDBRANCH   1 142
TORSDOF 44
