REMARK WARNING: 32 MAX_TORS EXCEEDED!!!
REMARK  35 active torsions:
REMARK  status: ('A' for Active; 'I' for Inactive)
REMARK    1  A    between atoms: CA_2  and  C_3 
REMARK       I    between atoms: C_3  and  N_8 
REMARK    2  A    between atoms: N_8  and  CA_9 
REMARK    3  A    between atoms: CA_9  and  C_10 
REMARK    4  A    between atoms: CA_9  and  CB_12 
REMARK       I    between atoms: C_10  and  N_18 
REMARK    5  A    between atoms: CB_12  and  CG_13 
REMARK    6  A    between atoms: N_18  and  CA_19 
REMARK    7  A    between atoms: CA_19  and  C_20 
REMARK    8  A    between atoms: CA_19  and  CB_22 
REMARK       I    between atoms: C_20  and  N_25 
REMARK    9  A    between atoms: CB_22  and  OG1_23 
REMARK   10  A    between atoms: CB_22  and  CG2_24 
REMARK   11  A    between atoms: N_25  and  CA_26 
REMARK   12  A    between atoms: CA_26  and  C_27 
REMARK   13  A    between atoms: CA_26  and  CB_29 
REMARK       I    between atoms: C_27  and  N_33 
REMARK   14  A    between atoms: CB_29  and  CG_30 
REMARK       I    between atoms: CG_30  and  ND2_32 
REMARK   15  A    between atoms: N_33  and  CA_34 
REMARK   16  A    between atoms: CA_34  and  C_35 
REMARK   17  A    between atoms: CA_34  and  CB_37 
REMARK       I    between atoms: C_35  and  N_42 
REMARK   18  A    between atoms: CB_37  and  CG_38 
REMARK   19  A    between atoms: CG_38  and  CD_39 
REMARK   20  A    between atoms: N_42  and  CA_43 
REMARK   21  A    between atoms: CA_43  and  C_44 
REMARK   22  A    between atoms: CA_43  and  CB_46 
REMARK       I    between atoms: C_44  and  N_49 
REMARK   23  A    between atoms: CB_46  and  OG1_47 
REMARK   24  A    between atoms: CB_46  and  CG2_48 
REMARK   25  A    between atoms: N_49  and  CA_50 
REMARK   26  A    between atoms: CA_50  and  CB_51 
REMARK   27  A    between atoms: CA_50  and  C_53 
REMARK   28  A    between atoms: CB_51  and  OG_52 
REMARK   29  A    between atoms: OG_52  and  P_55 
REMARK       I    between atoms: C_53  and  N_59 
REMARK   30  A    between atoms: N_59  and  CA_60 
REMARK   31  A    between atoms: CA_60  and  C_61 
REMARK   32  A    between atoms: CA_60  and  CB_63 
REMARK   33  A    between atoms: CB_63  and  CG_64 
REMARK   34  A    between atoms: CG_64  and  CD1_65 
REMARK   35  A    between atoms: CG_64  and  CD2_66 
ROOT
ATOM      1  C   PRO d   1      21.984 -20.567  21.487  0.00  0.00     0.241 C 
ATOM      2  O   PRO d   1      22.288 -21.073  20.403  0.00  0.00    -0.271 OA
ATOM      3  N   PRO d   1      21.398 -21.247  22.470  0.00  0.00    -0.346 N 
ATOM      4  H30 PRO d   1      21.184 -20.779  23.328  0.00  0.00     0.163 HD
ENDROOT
BRANCH   3   5
ATOM      5  CA  PRO d   1      21.061 -22.658  22.325  0.00  0.00     0.090 C 
ATOM      6  H31 PRO d   1      20.612 -22.821  21.334  0.00  0.00     0.087 H 
BRANCH   5   7
ATOM      7  C   PRO d   1      20.044 -23.013  23.397  0.00  0.00     0.241 C 
ATOM      8  O   PRO d   1      20.225 -22.656  24.565  0.00  0.00    -0.271 OA
ATOM      9  N   PRO d   1      18.983 -23.706  22.999  0.00  0.00    -0.344 N 
ATOM     10  H36 PRO d   1      18.924 -24.008  22.047  0.00  0.00     0.163 HD
BRANCH   9  11
ATOM     11  CA  PRO d   1      17.904 -24.035  23.919  0.00  0.00     0.113 C 
ATOM     12  H37 PRO d   1      18.313 -24.033  24.940  0.00  0.00     0.091 H 
BRANCH  11  13
ATOM     13  C   PRO d   1      17.316 -25.412  23.637  0.00  0.00     0.243 C 
ATOM     14  O   PRO d   1      16.816 -25.666  22.544  0.00  0.00    -0.271 OA
ATOM     15  N   PRO d   1      17.380 -26.301  24.623  0.00  0.00    -0.344 N 
ATOM     16  H43 PRO d   1      17.890 -26.077  25.454  0.00  0.00     0.163 HD
BRANCH  15  17
ATOM     17  CA  PRO d   1      16.720 -27.598  24.515  0.00  0.00     0.110 C 
ATOM     18  H44 PRO d   1      17.067 -28.094  23.596  0.00  0.00     0.090 H 
BRANCH  17  19
ATOM     19  CB  PRO d   1      17.056 -28.491  25.705  0.00  0.00     0.059 C 
ATOM     20  H45 PRO d   1      16.211 -29.169  25.896  0.00  0.00     0.079 H 
ATOM     21  H46 PRO d   1      17.228 -27.861  26.590  0.00  0.00     0.079 H 
BRANCH  19  22
ATOM     22  OG  PRO d   1      18.217 -29.258  25.449  0.00  0.00    -0.280 OA
BRANCH  22  23
ATOM     23  P   PRO d   1      18.315 -30.457  26.518  0.00  0.00     0.422 P 
ATOM     24  O1P PRO d   1      18.267 -31.867  25.744  0.00  0.00    -0.617 OA
ATOM     25  O2P PRO d   1      17.089 -30.383  27.560  0.00  0.00    -0.617 OA
ATOM     26  O3P PRO d   1      19.699 -30.327  27.329  0.00  0.00    -0.617 OA
ENDBRANCH  22  23
ENDBRANCH  19  22
ENDBRANCH  17  19
BRANCH  17  27
ATOM     27  C   PRO d   1      15.215 -27.392  24.427  0.00  0.00     0.243 C 
ATOM     28  O   PRO d   1      14.701 -26.379  24.892  0.00  0.00    -0.271 OA
ATOM     29  N   PRO d   1      14.512 -28.350  23.836  0.00  0.00    -0.345 N 
ATOM     30  H47 PRO d   1      14.985 -29.157  23.481  0.00  0.00     0.163 HD
BRANCH  29  31
ATOM     31  CA  PRO d   1      13.063 -28.251  23.693  0.00  0.00     0.096 C 
ATOM     32  H48 PRO d   1      12.675 -27.643  24.524  0.00  0.00     0.089 H 
BRANCH  31  33
ATOM     33  C   PRO d   1      12.408 -29.624  23.756  0.00  0.00     0.196 C 
ATOM     34  O   PRO d   1      13.058 -30.652  23.567  0.00  0.00    -0.646 OA
ATOM     35  OXT PRO d   1      11.206 -29.737  23.996  0.00  0.00    -0.646 OA
ENDBRANCH  31  33
BRANCH  31  36
ATOM     36  CB  PRO d   1      12.703 -27.560  22.376  0.00  0.00    -0.034 C 
ATOM     37  H49 PRO d   1      11.627 -27.711  22.201  0.00  0.00     0.037 H 
ATOM     38  H50 PRO d   1      13.277 -28.047  21.574  0.00  0.00     0.037 H 
BRANCH  36  39
ATOM     39  CG  PRO d   1      12.981 -26.058  22.302  0.00  0.00    -0.059 C 
ATOM     40  H51 PRO d   1      13.933 -25.857  22.816  0.00  0.00     0.038 H 
BRANCH  39  41
ATOM     41  CD1 PRO d   1      13.112 -25.609  20.858  0.00  0.00    -0.073 C 
ATOM     42  H52 PRO d   1      13.311 -24.528  20.827  0.00  0.00     0.028 H 
ATOM     43  H53 PRO d   1      12.177 -25.825  20.321  0.00  0.00     0.028 H 
ATOM     44  H54 PRO d   1      13.943 -26.149  20.380  0.00  0.00     0.028 H 
ENDBRANCH  39  41
BRANCH  39  45
ATOM     45  CD2 PRO d   1      11.884 -25.273  23.002  0.00  0.00    -0.073 C 
ATOM     46  H55 PRO d   1      11.802 -25.610  24.046  0.00  0.00     0.028 H 
ATOM     47  H56 PRO d   1      10.927 -25.440  22.486  0.00  0.00     0.028 H 
ATOM     48  H57 PRO d   1      12.130 -24.201  22.981  0.00  0.00     0.028 H 
ENDBRANCH  39  45
ENDBRANCH  36  39
ENDBRANCH  31  36
ENDBRANCH  29  31
ENDBRANCH  17  27
ENDBRANCH  15  17
ENDBRANCH  11  13
BRANCH  11  49
ATOM     49  CB  PRO d   1      16.778 -22.986  23.835  0.00  0.00     0.060 C 
ATOM     50  H38 PRO d   1      16.307 -23.049  22.843  0.00  0.00     0.086 H 
BRANCH  49  51
ATOM     51  OG1 PRO d   1      17.331 -21.676  24.010  0.00  0.00    -0.393 OA
ATOM     52  H39 PRO d   1      17.971 -21.510  23.328  0.00  0.00     0.210 HD
ENDBRANCH  49  51
BRANCH  49  53
ATOM     53  CG2 PRO d   1      15.722 -23.239  24.896  0.00  0.00    -0.050 C 
ATOM     54  H40 PRO d   1      14.931 -22.479  24.815  0.00  0.00     0.031 H 
ATOM     55  H41 PRO d   1      16.183 -23.183  25.893  0.00  0.00     0.031 H 
ATOM     56  H42 PRO d   1      15.286 -24.238  24.749  0.00  0.00     0.031 H 
ENDBRANCH  49  53
ENDBRANCH  11  49
ENDBRANCH   9  11
ENDBRANCH   5   7
BRANCH   5  57
ATOM     57  CB  PRO d   1      22.311 -23.535  22.444  0.00  0.00    -0.029 C 
ATOM     58  H32 PRO d   1      22.520 -23.692  23.512  0.00  0.00     0.037 H 
ATOM     59  H33 PRO d   1      23.152 -22.999  21.981  0.00  0.00     0.037 H 
BRANCH  57  60
ATOM     60  CG  PRO d   1      22.191 -24.897  21.778  0.00  0.00     0.018 C 
ATOM     61  H34 PRO d   1      21.644 -24.781  20.831  0.00  0.00     0.049 H 
ATOM     62  H35 PRO d   1      21.630 -25.569  22.445  0.00  0.00     0.049 H 
BRANCH  60  63
ATOM     63  CD  PRO d   1      23.545 -25.517  21.487  0.00  0.00     0.172 C 
ATOM     64  OE1 PRO d   1      24.339 -24.893  20.751  0.00  0.00    -0.648 OA
ATOM     65  OE2 PRO d   1      23.820 -26.621  22.002  0.00  0.00    -0.648 OA
ENDBRANCH  60  63
ENDBRANCH  57  60
ENDBRANCH   5  57
ENDBRANCH   3   5
BRANCH   1  66
ATOM     66  CA  PRO d   1      22.245 -19.094  21.772  0.00  0.00     0.097 C 
ATOM     67  H25 PRO d   1      22.391 -18.964  22.855  0.00  0.00     0.088 H 
BRANCH  66  68
ATOM     68  N   PRO d   1      23.448 -18.644  21.089  0.00  0.00    -0.345 N 
ATOM     69  C   PRO d   1      24.597 -18.417  21.720  0.00  0.00     0.243 C 
ATOM     70  O   PRO d   1      24.769 -18.657  22.920  0.00  0.00    -0.271 OA
ATOM     71  H24 PRO d   1      23.410 -18.499  20.100  0.00  0.00     0.163 HD
BRANCH  69  72
ATOM     72  CA  PRO d   1      25.733 -17.846  20.880  0.00  0.00     0.113 C 
ATOM     73  H18 PRO d   1      25.414 -17.791  19.829  0.00  0.00     0.091 H 
BRANCH  72  74
ATOM     74  N   PRO d   1      26.010 -16.495  21.364  0.00  0.00    -0.344 N 
ATOM     75  C   PRO d   1      25.899 -15.408  20.599  0.00  0.00     0.241 C 
ATOM     76  O   PRO d   1      25.722 -15.467  19.380  0.00  0.00    -0.271 OA
ATOM     77  H17 PRO d   1      26.297 -16.380  22.315  0.00  0.00     0.163 HD
BRANCH  75  78
ATOM     78  CA  PRO d   1      25.994 -14.068  21.318  0.00  0.00     0.094 C 
ATOM     79  H11 PRO d   1      25.828 -14.238  22.392  0.00  0.00     0.088 H 
BRANCH  78  80
ATOM     80  N   PRO d   1      27.323 -13.488  21.137  0.00  0.00    -0.346 N 
ATOM     81  C   PRO d   1      28.364 -13.836  21.889  0.00  0.00     0.249 C 
ATOM     82  O   PRO d   1      28.407 -14.865  22.559  0.00  0.00    -0.271 OA
ATOM     83  H10 PRO d   1      27.455 -12.803  20.420  0.00  0.00     0.163 HD
BRANCH  81  84
ATOM     84  CA  PRO d   1      29.556 -12.887  21.868  0.00  0.00     0.178 C 
ATOM     85  N   PRO d   1      30.687 -13.341  22.684  0.00  0.00    -0.062 N 
ATOM     86  CD  PRO d   1      31.982 -13.005  22.060  0.00  0.00     0.083 C 
ATOM     87  H1  PRO d   1      30.628 -14.341  22.796  0.00  0.00     0.278 HD
ATOM     88  H2  PRO d   1      30.636 -12.898  23.588  0.00  0.00     0.278 HD
ATOM     89  CG  PRO d   1      31.582 -12.362  20.742  0.00  0.00    -0.040 C 
ATOM     90  H8  PRO d   1      32.584 -13.910  21.890  0.00  0.00     0.075 H 
ATOM     91  H9  PRO d   1      32.549 -12.300  22.686  0.00  0.00     0.075 H 
ATOM     92  CB  PRO d   1      30.167 -12.794  20.471  0.00  0.00    -0.028 C 
ATOM     93  H6  PRO d   1      31.637 -11.266  20.821  0.00  0.00     0.035 H 
ATOM     94  H7  PRO d   1      32.246 -12.705  19.935  0.00  0.00     0.035 H 
ATOM     95  H4  PRO d   1      29.638 -12.049  19.858  0.00  0.00     0.036 H 
ATOM     96  H5  PRO d   1      30.143 -13.770  19.964  0.00  0.00     0.036 H 
ATOM     97  H3  PRO d   1      29.218 -11.897  22.209  0.00  0.00     0.099 H 
ENDBRANCH  81  84
ENDBRANCH  78  80
BRANCH  78  98
ATOM     98  CB  PRO d   1      24.931 -13.095  20.812  0.00  0.00     0.004 C 
ATOM     99  H12 PRO d   1      23.982 -13.325  21.317  0.00  0.00     0.046 H 
ATOM    100  H13 PRO d   1      24.814 -13.242  19.728  0.00  0.00     0.046 H 
BRANCH  98 101
ATOM    101  CG  PRO d   1      25.262 -11.655  21.061  0.00  0.00     0.053 A 
ATOM    102  ND1 PRO d   1      25.207 -10.695  20.072  0.00  0.00    -0.247 NA
ATOM    103  CE1 PRO d   1      25.552  -9.524  20.577  0.00  0.00     0.064 A 
ATOM    104  NE2 PRO d   1      25.829  -9.688  21.858  0.00  0.00    -0.359 N 
ATOM    105  H15 PRO d   1      25.600  -8.584  20.030  0.00  0.00     0.143 H 
ATOM    106  CD2 PRO d   1      25.657 -11.011  22.185  0.00  0.00     0.002 A 
ATOM    107  H16 PRO d   1      26.126  -8.945  22.506  0.00  0.00     0.166 HD
ATOM    108  H14 PRO d   1      25.810 -11.459  23.166  0.00  0.00     0.114 H 
ENDBRANCH  98 101
ENDBRANCH  78  98
ENDBRANCH  75  78
ENDBRANCH  72  74
BRANCH  72 109
ATOM    109  CB  PRO d   1      26.965 -18.742  20.964  0.00  0.00     0.060 C 
ATOM    110  H19 PRO d   1      27.407 -18.650  21.967  0.00  0.00     0.086 H 
BRANCH 109 111
ATOM    111  OG1 PRO d   1      27.928 -18.335  19.986  0.00  0.00    -0.393 OA
ATOM    112  H20 PRO d   1      28.692 -18.896  20.043  0.00  0.00     0.210 HD
ENDBRANCH 109 111
BRANCH 109 113
ATOM    113  CG2 PRO d   1      26.578 -20.197  20.721  0.00  0.00    -0.050 C 
ATOM    114  H21 PRO d   1      27.475 -20.831  20.785  0.00  0.00     0.031 H 
ATOM    115  H22 PRO d   1      26.130 -20.295  19.721  0.00  0.00     0.031 H 
ATOM    116  H23 PRO d   1      25.850 -20.515  21.482  0.00  0.00     0.031 H 
ENDBRANCH 109 113
ENDBRANCH  72 109
ENDBRANCH  69  72
ENDBRANCH  66  68
BRANCH  66 117
ATOM    117  CB  PRO d   1      21.027 -18.272  21.338  0.00  0.00     0.036 C 
ATOM    118  H26 PRO d   1      20.125 -18.890  21.456  0.00  0.00     0.051 H 
ATOM    119  H27 PRO d   1      21.147 -17.997  20.280  0.00  0.00     0.051 H 
BRANCH 117 120
ATOM    120  CG  PRO d   1      20.856 -17.007  22.151  0.00  0.00     0.217 C 
ATOM    121  OD1 PRO d   1      20.894 -17.035  23.380  0.00  0.00    -0.274 OA
ATOM    122  ND2 PRO d   1      20.664 -15.886  21.467  0.00  0.00    -0.370 N 
ATOM    123  H28 PRO d   1      20.545 -15.019  21.951  0.00  0.00     0.159 HD
ATOM    124  H29 PRO d   1      20.639 -15.908  20.468  0.00  0.00     0.159 HD
ENDBRANCH 117 120
ENDBRANCH  66 117
ENDBRANCH   1  66
TORSDOF 35
