REMARK  30 active torsions:
REMARK  status: ('A' for Active; 'I' for Inactive)
REMARK    1  A    between atoms: N_1  and  CA_2 
REMARK    2  A    between atoms: CA_2  and  C_3 
REMARK    3  A    between atoms: CA_2  and  CB_5 
REMARK       I    between atoms: C_3  and  N_6 
REMARK    4  A    between atoms: N_6  and  CA_7 
REMARK    5  A    between atoms: CA_7  and  C_8 
REMARK    6  A    between atoms: CA_7  and  CB_10 
REMARK       I    between atoms: C_8  and  N_11 
REMARK    7  A    between atoms: N_11  and  CA_12 
REMARK    8  A    between atoms: CA_12  and  C_13 
REMARK    9  A    between atoms: CA_12  and  CB_15 
REMARK       I    between atoms: C_13  and  N_19 
REMARK   10  A    between atoms: CB_15  and  CG_16 
REMARK       I    between atoms: CG_16  and  ND2_18 
REMARK   11  A    between atoms: N_19  and  CA_20 
REMARK   12  A    between atoms: CA_20  and  C_21 
REMARK   13  A    between atoms: CA_20  and  CB_23 
REMARK       I    between atoms: C_21  and  N_28 
REMARK   14  A    between atoms: CB_23  and  CG_24 
REMARK   15  A    between atoms: CG_24  and  CD_25 
REMARK   16  A    between atoms: N_28  and  CA_29 
REMARK   17  A    between atoms: CA_29  and  C_30 
REMARK   18  A    between atoms: CA_29  and  CB_32 
REMARK       I    between atoms: C_30  and  N_35 
REMARK   19  A    between atoms: CB_32  and  OG1_33 
REMARK   20  A    between atoms: CB_32  and  CG2_34 
REMARK   21  A    between atoms: N_35  and  CA_36 
REMARK   22  A    between atoms: CA_36  and  C_37 
REMARK   23  A    between atoms: CA_36  and  CB_39 
REMARK       I    between atoms: C_37  and  N_41 
REMARK   24  A    between atoms: CB_39  and  OG_40 
REMARK   25  A    between atoms: N_41  and  CA_42 
REMARK   26  A    between atoms: CA_42  and  C_43 
REMARK   27  A    between atoms: CA_42  and  CB_45 
REMARK   28  A    between atoms: CB_45  and  CG_46 
REMARK   29  A    between atoms: CG_46  and  CD1_47 
REMARK   30  A    between atoms: CG_46  and  CD2_48 
ROOT
ATOM      1  CA  HIS d   1       2.210  -9.793  14.539  0.00  0.00     0.090 C 
ATOM      2  H20 HIS d   1       1.347  -9.252  14.123  0.00  0.00     0.087 H 
ENDROOT
BRANCH   1   3
ATOM      3  N   HIS d   1       2.726 -10.700  13.521  0.00  0.00    -0.346 N 
ATOM      4  C   HIS d   1       2.367 -10.610  12.242  0.00  0.00     0.241 C 
ATOM      5  O   HIS d   1       1.439  -9.900  11.852  0.00  0.00    -0.271 OA
ATOM      6  H19 HIS d   1       3.371 -11.414  13.793  0.00  0.00     0.163 HD
BRANCH   4   7
ATOM      7  CA  HIS d   1       3.231 -11.427  11.273  0.00  0.00     0.097 C 
ATOM      8  H14 HIS d   1       4.285 -11.261  11.539  0.00  0.00     0.088 H 
BRANCH   7   9
ATOM      9  N   HIS d   1       2.962 -12.863  11.367  0.00  0.00    -0.346 N 
ATOM     10  C   HIS d   1       1.752 -13.397  11.214  0.00  0.00     0.240 C 
ATOM     11  O   HIS d   1       0.739 -12.708  11.272  0.00  0.00    -0.271 OA
ATOM     12  H13 HIS d   1       3.729 -13.476  11.556  0.00  0.00     0.163 HD
BRANCH  10  13
ATOM     13  CA  HIS d   1       1.697 -14.905  10.970  0.00  0.00     0.086 C 
ATOM     14  H9  HIS d   1       2.282 -15.125  10.065  0.00  0.00     0.086 H 
BRANCH  13  15
ATOM     15  N   HIS d   1       2.285 -15.639  12.080  0.00  0.00    -0.346 N 
ATOM     16  C   HIS d   1       2.955 -16.770  11.878  0.00  0.00     0.248 C 
ATOM     17  O   HIS d   1       3.196 -17.218  10.757  0.00  0.00    -0.271 OA
ATOM     18  H8  HIS d   1       2.184 -15.287  13.011  0.00  0.00     0.163 HD
BRANCH  16  19
ATOM     19  CA  HIS d   1       3.435 -17.508  13.113  0.00  0.00     0.172 C 
ATOM     20  H4  HIS d   1       3.138 -16.939  14.006  0.00  0.00     0.098 H 
BRANCH  19  21
ATOM     21  N   HIS d   1       2.809 -18.822  13.164  0.00  0.00    -0.067 N 
ATOM     22  H1  HIS d   1       3.127 -19.314  13.984  0.00  0.00     0.275 HD
ATOM     23  H2  HIS d   1       3.059 -19.346  12.340  0.00  0.00     0.275 HD
ATOM     24  H3  HIS d   1       1.807 -18.716  13.203  0.00  0.00     0.275 HD
ENDBRANCH  19  21
BRANCH  19  25
ATOM     25  CB  HIS d   1       4.934 -17.628  13.097  0.00  0.00    -0.042 C 
ATOM     26  H5  HIS d   1       5.382 -16.624  13.058  0.00  0.00     0.030 H 
ATOM     27  H6  HIS d   1       5.246 -18.203  12.213  0.00  0.00     0.030 H 
ATOM     28  H7  HIS d   1       5.270 -18.145  14.008  0.00  0.00     0.030 H 
ENDBRANCH  19  25
ENDBRANCH  16  19
ENDBRANCH  13  15
BRANCH  13  29
ATOM     29  CB  HIS d   1       0.261 -15.368  10.735  0.00  0.00    -0.049 C 
ATOM     30  H10 HIS d   1      -0.172 -14.806   9.894  0.00  0.00     0.030 H 
ATOM     31  H11 HIS d   1      -0.335 -15.189  11.642  0.00  0.00     0.030 H 
ATOM     32  H12 HIS d   1       0.256 -16.442  10.499  0.00  0.00     0.030 H 
ENDBRANCH  13  29
ENDBRANCH  10  13
ENDBRANCH   7   9
BRANCH   7  33
ATOM     33  CB  HIS d   1       3.017 -10.951   9.828  0.00  0.00     0.036 C 
ATOM     34  H15 HIS d   1       1.936 -10.920   9.625  0.00  0.00     0.051 H 
ATOM     35  H16 HIS d   1       3.498 -11.669   9.147  0.00  0.00     0.051 H 
BRANCH  33  36
ATOM     36  CG  HIS d   1       3.594  -9.582   9.570  0.00  0.00     0.217 A 
ATOM     37  OD1 HIS d   1       3.528  -8.697  10.422  0.00  0.00    -0.274 OA
ATOM     38  ND2 HIS d   1       4.181  -9.401   8.393  0.00  0.00    -0.370 N 
ATOM     39  H17 HIS d   1       4.582  -8.514   8.165  0.00  0.00     0.159 HD
ATOM     40  H18 HIS d   1       4.222 -10.152   7.734  0.00  0.00     0.159 HD
ENDBRANCH  33  36
ENDBRANCH   7  33
ENDBRANCH   4   7
ENDBRANCH   1   3
BRANCH   1  41
ATOM     41  C   HIS d   1       3.300  -8.790  14.905  0.00  0.00     0.241 C 
ATOM     42  O   HIS d   1       4.484  -9.139  14.956  0.00  0.00    -0.271 OA
ATOM     43  N   HIS d   1       2.899  -7.547  15.161  0.00  0.00    -0.344 N 
ATOM     44  H25 HIS d   1       1.925  -7.333  15.084  0.00  0.00     0.163 HD
BRANCH  43  45
ATOM     45  CA  HIS d   1       3.819  -6.484  15.549  0.00  0.00     0.113 C 
ATOM     46  H26 HIS d   1       4.820  -6.916  15.695  0.00  0.00     0.091 H 
BRANCH  45  47
ATOM     47  C   HIS d   1       3.344  -5.878  16.861  0.00  0.00     0.243 C 
ATOM     48  O   HIS d   1       2.176  -5.497  16.979  0.00  0.00    -0.271 OA
ATOM     49  N   HIS d   1       4.243  -5.783  17.838  0.00  0.00    -0.344 N 
ATOM     50  H32 HIS d   1       5.186  -6.066  17.665  0.00  0.00     0.163 HD
BRANCH  49  51
ATOM     51  CA  HIS d   1       3.879  -5.274  19.155  0.00  0.00     0.109 C 
ATOM     52  H33 HIS d   1       2.852  -5.597  19.381  0.00  0.00     0.090 H 
BRANCH  51  53
ATOM     53  C   HIS d   1       3.925  -3.751  19.182  0.00  0.00     0.243 C 
ATOM     54  O   HIS d   1       4.819  -3.130  18.601  0.00  0.00    -0.271 OA
ATOM     55  N   HIS d   1       2.959  -3.153  19.875  0.00  0.00    -0.345 N 
ATOM     56  H37 HIS d   1       2.294  -3.716  20.366  0.00  0.00     0.163 HD
BRANCH  55  57
ATOM     57  CA  HIS d   1       2.840  -1.699  19.941  0.00  0.00     0.096 C 
ATOM     58  H38 HIS d   1       3.846  -1.268  19.827  0.00  0.00     0.089 H 
BRANCH  57  59
ATOM     59  C   HIS d   1       2.267  -1.226  21.272  0.00  0.00     0.196 C 
ATOM     60  O   HIS d   1       1.555  -1.959  21.958  0.00  0.00    -0.646 OA
ATOM     61  OXT HIS d   1       2.499  -0.090  21.691  0.00  0.00    -0.646 OA
ENDBRANCH  57  59
BRANCH  57  62
ATOM     62  CB  HIS d   1       1.959  -1.192  18.798  0.00  0.00    -0.034 C 
ATOM     63  H39 HIS d   1       1.437  -0.292  19.155  0.00  0.00     0.037 H 
ATOM     64  H40 HIS d   1       1.223  -1.978  18.572  0.00  0.00     0.037 H 
BRANCH  62  65
ATOM     65  CG  HIS d   1       2.663  -0.830  17.494  0.00  0.00    -0.059 A 
ATOM     66  H41 HIS d   1       3.473  -1.554  17.320  0.00  0.00     0.038 H 
BRANCH  65  67
ATOM     67  CD1 HIS d   1       1.690  -0.905  16.330  0.00  0.00    -0.073 C 
ATOM     68  H42 HIS d   1       2.212  -0.642  15.398  0.00  0.00     0.028 H 
ATOM     69  H43 HIS d   1       0.862  -0.201  16.498  0.00  0.00     0.028 H 
ATOM     70  H44 HIS d   1       1.291  -1.927  16.251  0.00  0.00     0.028 H 
ENDBRANCH  65  67
BRANCH  65  71
ATOM     71  CD2 HIS d   1       3.271   0.561  17.593  0.00  0.00    -0.073 A 
ATOM     72  H45 HIS d   1       3.972   0.595  18.440  0.00  0.00     0.028 H 
ATOM     73  H46 HIS d   1       2.471   1.300  17.748  0.00  0.00     0.028 H 
ATOM     74  H47 HIS d   1       3.809   0.793  16.662  0.00  0.00     0.028 H 
ENDBRANCH  65  71
ENDBRANCH  62  65
ENDBRANCH  57  62
ENDBRANCH  55  57
ENDBRANCH  51  53
BRANCH  51  75
ATOM     75  CB  HIS d   1       4.814  -5.839  20.223  0.00  0.00     0.044 C 
ATOM     76  H34 HIS d   1       5.846  -5.533  19.997  0.00  0.00     0.077 H 
ATOM     77  H35 HIS d   1       4.747  -6.937  20.216  0.00  0.00     0.077 H 
BRANCH  75  78
ATOM     78  OG  HIS d   1       4.459  -5.361  21.507  0.00  0.00    -0.398 OA
ATOM     79  H36 HIS d   1       5.052  -5.724  22.154  0.00  0.00     0.209 HD
ENDBRANCH  75  78
ENDBRANCH  51  75
ENDBRANCH  49  51
ENDBRANCH  45  47
BRANCH  45  80
ATOM     80  CB  HIS d   1       3.907  -5.403  14.466  0.00  0.00     0.060 C 
ATOM     81  H27 HIS d   1       2.891  -5.061  14.222  0.00  0.00     0.086 H 
BRANCH  80  82
ATOM     82  OG1 HIS d   1       4.517  -5.944  13.287  0.00  0.00    -0.393 OA
ATOM     83  H28 HIS d   1       4.568  -5.269  12.620  0.00  0.00     0.210 HD
ENDBRANCH  80  82
BRANCH  80  84
ATOM     84  CG2 HIS d   1       4.721  -4.220  14.955  0.00  0.00    -0.050 C 
ATOM     85  H29 HIS d   1       4.771  -3.458  14.164  0.00  0.00     0.031 H 
ATOM     86  H30 HIS d   1       5.738  -4.554  15.207  0.00  0.00     0.031 H 
ATOM     87  H31 HIS d   1       4.244  -3.791  15.848  0.00  0.00     0.031 H 
ENDBRANCH  80  84
ENDBRANCH  45  80
ENDBRANCH  43  45
ENDBRANCH   1  41
BRANCH   1  88
ATOM     88  CB  HIS d   1       1.756 -10.538  15.800  0.00  0.00    -0.029 C 
ATOM     89  H21 HIS d   1       1.052  -9.891  16.345  0.00  0.00     0.037 H 
ATOM     90  H22 HIS d   1       2.642 -10.724  16.425  0.00  0.00     0.037 H 
BRANCH  88  91
ATOM     91  CG  HIS d   1       1.071 -11.870  15.543  0.00  0.00     0.018 A 
ATOM     92  H23 HIS d   1       1.842 -12.629  15.344  0.00  0.00     0.049 H 
ATOM     93  H24 HIS d   1       0.421 -11.767  14.661  0.00  0.00     0.049 H 
BRANCH  91  94
ATOM     94  CD  HIS d   1       0.224 -12.334  16.720  0.00  0.00     0.172 C 
ATOM     95  OE1 HIS d   1       0.079 -11.568  17.695  0.00  0.00    -0.648 OA
ATOM     96  OE2 HIS d   1      -0.305 -13.465  16.666  0.00  0.00    -0.648 OA
ENDBRANCH  91  94
ENDBRANCH  88  91
ENDBRANCH   1  88
TORSDOF 30
