REMARK  7 active torsions:
REMARK  status: ('A' for Active; 'I' for Inactive)
REMARK    1  A    between atoms: N01_1  and  C10_10 
REMARK    2  A    between atoms: C02_2  and  C11_11 
REMARK    3  A    between atoms: C05_5  and  N12_12 
REMARK    4  A    between atoms: C15_15  and  N18_18 
REMARK    5  A    between atoms: C28_28  and  C32_32 
REMARK    6  A    between atoms: N29_29  and  C33_33 
REMARK    7  A    between atoms: C33_33  and  C34_34 
ROOT
ATOM      1  N01 K4A d   1      -5.584 -26.566  28.031  0.00  0.00    -0.318 N 
ATOM      2  C02 K4A d   1      -4.698 -25.708  27.331  0.00  0.00     0.145 A 
ATOM      3  N03 K4A d   1      -3.655 -25.358  28.050  0.00  0.00    -0.222 NA
ATOM      4  C04 K4A d   1      -3.836 -26.010  29.267  0.00  0.00     0.151 A 
ATOM      5  C05 K4A d   1      -3.107 -26.145  30.476  0.00  0.00     0.160 A 
ATOM      6  N06 K4A d   1      -3.514 -26.867  31.535  0.00  0.00    -0.222 NA
ATOM      7  C07 K4A d   1      -4.687 -27.483  31.355  0.00  0.00     0.091 A 
ATOM      8  N08 K4A d   1      -5.498 -27.470  30.292  0.00  0.00    -0.222 NA
ATOM      9  C09 K4A d   1      -5.017 -26.734  29.276  0.00  0.00     0.165 A 
ATOM     10  H1  K4A d   1      -5.030 -28.080  32.192  0.00  0.00     0.146 H 
ENDROOT
BRANCH   5  11
ATOM     11  N12 K4A d   1      -1.868 -25.518  30.618  0.00  0.00    -0.364 N 
ATOM     12  C13 K4A d   1      -0.966 -25.263  29.487  0.00  0.00    -0.002 C 
ATOM     13  C14 K4A d   1      -0.290 -23.907  29.663  0.00  0.00    -0.030 C 
ATOM     14  H5  K4A d   1      -1.544 -25.265  28.551  0.00  0.00     0.064 H 
ATOM     15  H6  K4A d   1      -0.200 -26.051  29.446  0.00  0.00     0.064 H 
ATOM     16  C15 K4A d   1       0.468 -23.868  30.980  0.00  0.00     0.025 C 
ATOM     17  H7  K4A d   1      -1.055 -23.116  29.660  0.00  0.00     0.038 H 
ATOM     18  H8  K4A d   1       0.413 -23.741  28.834  0.00  0.00     0.038 H 
ATOM     19  C16 K4A d   1      -0.405 -24.288  32.157  0.00  0.00    -0.030 C 
ATOM     20  H9  K4A d   1       1.275 -24.612  30.903  0.00  0.00     0.073 H 
ATOM     21  C17 K4A d   1      -1.102 -25.620  31.868  0.00  0.00    -0.002 C 
ATOM     22  H10 K4A d   1      -1.166 -23.514  32.336  0.00  0.00     0.038 H 
ATOM     23  H11 K4A d   1       0.225 -24.397  33.052  0.00  0.00     0.038 H 
ATOM     24  H12 K4A d   1      -0.347 -26.414  31.770  0.00  0.00     0.064 H 
ATOM     25  H13 K4A d   1      -1.784 -25.863  32.696  0.00  0.00     0.064 H 
BRANCH  16  26
ATOM     26  N18 K4A d   1       1.108 -22.575  31.209  0.00  0.00    -0.291 N 
ATOM     27  C19 K4A d   1       2.540 -22.307  31.198  0.00  0.00     0.329 A 
ATOM     28  N20 K4A d   1       2.770 -20.991  31.490  0.00  0.00    -0.291 N 
ATOM     29  O27 K4A d   1       3.368 -23.170  30.952  0.00  0.00    -0.246 OA
ATOM     30  C21 K4A d   1       1.542 -20.393  31.670  0.00  0.00     0.158 A 
ATOM     31  H14 K4A d   1       3.663 -20.546  31.560  0.00  0.00     0.172 HD
ATOM     32  N22 K4A d   1       1.274 -19.100  31.950  0.00  0.00    -0.241 NA
ATOM     33  C26 K4A d   1       0.534 -21.345  31.529  0.00  0.00     0.085 A 
ATOM     34  C23 K4A d   1      -0.021 -18.756  32.086  0.00  0.00     0.005 A 
ATOM     35  C24 K4A d   1      -1.074 -19.645  31.958  0.00  0.00    -0.064 A 
ATOM     36  H15 K4A d   1      -0.253 -17.721  32.309  0.00  0.00     0.114 H 
ATOM     37  C25 K4A d   1      -0.797 -20.973  31.666  0.00  0.00    -0.052 A 
ATOM     38  H16 K4A d   1      -2.097 -19.310  32.084  0.00  0.00     0.085 H 
ATOM     39  H17 K4A d   1      -1.595 -21.698  31.549  0.00  0.00     0.087 H 
ENDBRANCH  16  26
ENDBRANCH   5  11
BRANCH   2  40
ATOM     40  C11 K4A d   1      -4.899 -25.233  25.972  0.00  0.00     0.053 A 
ATOM     41  C28 K4A d   1      -4.345 -24.098  25.401  0.00  0.00     0.042 A 
ATOM     42  N29 K4A d   1      -4.774 -24.056  24.118  0.00  0.00    -0.274 N 
ATOM     43  N30 K4A d   1      -5.584 -25.119  23.820  0.00  0.00    -0.184 NA
ATOM     44  C31 K4A d   1      -5.645 -25.822  24.936  0.00  0.00     0.037 A 
ATOM     45  H18 K4A d   1      -6.207 -26.749  25.042  0.00  0.00     0.119 H 
BRANCH  41  46
ATOM     46  C32 K4A d   1      -3.485 -23.044  26.015  0.00  0.00    -0.035 C 
ATOM     47  H19 K4A d   1      -3.274 -23.307  27.062  0.00  0.00     0.035 H 
ATOM     48  H20 K4A d   1      -4.008 -22.077  25.978  0.00  0.00     0.035 H 
ATOM     49  H21 K4A d   1      -2.539 -22.972  25.458  0.00  0.00     0.035 H 
ENDBRANCH  41  46
BRANCH  42  50
ATOM     50  C33 K4A d   1      -4.528 -22.961  23.146  0.00  0.00     0.014 C 
ATOM     51  H22 K4A d   1      -3.450 -22.745  23.116  0.00  0.00     0.066 H 
ATOM     52  H23 K4A d   1      -5.073 -22.063  23.473  0.00  0.00     0.066 H 
BRANCH  50  53
ATOM     53  C34 K4A d   1      -4.986 -23.335  21.776  0.00  0.00    -0.059 C 
ATOM     54  H24 K4A d   1      -4.789 -22.503  21.084  0.00  0.00     0.029 H 
ATOM     55  H25 K4A d   1      -6.065 -23.548  21.796  0.00  0.00     0.029 H 
ATOM     56  H26 K4A d   1      -4.442 -24.229  21.439  0.00  0.00     0.029 H 
ENDBRANCH  50  53
ENDBRANCH  42  50
ENDBRANCH   2  40
BRANCH   1  57
ATOM     57  C10 K4A d   1      -6.855 -27.125  27.579  0.00  0.00    -0.011 C 
ATOM     58  H2  K4A d   1      -7.042 -26.818  26.539  0.00  0.00     0.057 H 
ATOM     59  H3  K4A d   1      -7.667 -26.756  28.222  0.00  0.00     0.057 H 
ATOM     60  H4  K4A d   1      -6.813 -28.223  27.635  0.00  0.00     0.057 H 
ENDBRANCH   1  57
TORSDOF 7
