REMARK  8 active torsions:
REMARK  status: ('A' for Active; 'I' for Inactive)
REMARK    1  A    between atoms: N01_1  and  C10_10 
REMARK    2  A    between atoms: C02_2  and  C11_11 
REMARK    3  A    between atoms: C05_5  and  O12_12 
REMARK    4  A    between atoms: O12_12  and  C13_13 
REMARK       I    between atoms: N15_15  and  C18_18 
REMARK    5  A    between atoms: C18_18  and  C20_20 
REMARK    6  A    between atoms: C26_26  and  C30_30 
REMARK    7  A    between atoms: N27_27  and  C31_31 
REMARK    8  A    between atoms: C31_31  and  C32_32 
ROOT
ATOM      1  N01 K47 d   1      -8.105 -26.075  28.008  0.00  0.00    -0.318 N 
ATOM      2  C02 K47 d   1      -7.245 -25.384  27.083  0.00  0.00     0.145 A 
ATOM      3  N03 K47 d   1      -6.075 -25.070  27.608  0.00  0.00    -0.222 NA
ATOM      4  C04 K47 d   1      -6.150 -25.529  28.921  0.00  0.00     0.158 A 
ATOM      5  C05 K47 d   1      -5.268 -25.515  30.045  0.00  0.00     0.199 A 
ATOM      6  N06 K47 d   1      -5.620 -26.046  31.204  0.00  0.00    -0.216 NA
ATOM      7  C07 K47 d   1      -6.835 -26.596  31.277  0.00  0.00     0.091 A 
ATOM      8  N08 K47 d   1      -7.770 -26.689  30.327  0.00  0.00    -0.222 NA
ATOM      9  C09 K47 d   1      -7.371 -26.136  29.171  0.00  0.00     0.166 A 
ATOM     10  H1  K47 d   1      -7.098 -27.025  32.237  0.00  0.00     0.146 H 
ENDROOT
BRANCH   5  11
ATOM     11  O12 K47 d   1      -4.065 -24.941  29.837  0.00  0.00    -0.325 OA
BRANCH  11  12
ATOM     12  C13 K47 d   1      -3.160 -24.669  30.953  0.00  0.00     0.064 C 
ATOM     13  C14 K47 d   1      -3.635 -23.443  31.723  0.00  0.00     0.022 C 
ATOM     14  N15 K47 d   1      -2.422 -22.655  31.931  0.00  0.00    -0.349 N 
ATOM     15  H6  K47 d   1      -4.079 -23.735  32.686  0.00  0.00     0.068 H 
ATOM     16  H7  K47 d   1      -4.372 -22.876  31.136  0.00  0.00     0.068 H 
ATOM     17  C16 K47 d   1      -1.378 -22.963  30.944  0.00  0.00     0.000 C 
ATOM     18  C18 K47 d   1      -2.139 -21.741  32.885  0.00  0.00     0.224 C 
ATOM     19  C17 K47 d   1      -1.888 -24.219  30.258  0.00  0.00    -0.024 C 
ATOM     20  H8  K47 d   1      -0.414 -23.151  31.439  0.00  0.00     0.064 H 
ATOM     21  H9  K47 d   1      -1.266 -22.140  30.222  0.00  0.00     0.064 H 
ATOM     22  H10 K47 d   1      -2.100 -24.003  29.201  0.00  0.00     0.039 H 
ATOM     23  H11 K47 d   1      -1.129 -25.012  30.325  0.00  0.00     0.039 H 
ATOM     24  O19 K47 d   1      -1.054 -21.185  32.909  0.00  0.00    -0.273 OA
ATOM     25  H5  K47 d   1      -3.021 -25.543  31.607  0.00  0.00     0.086 H 
BRANCH  18  26
ATOM     26  C20 K47 d   1      -3.118 -21.523  34.025  0.00  0.00     0.027 C 
ATOM     27  C21 K47 d   1      -2.326 -21.137  35.278  0.00  0.00    -0.034 C 
ATOM     28  C22 K47 d   1      -3.246 -20.892  36.435  0.00  0.00     0.020 C 
ATOM     29  H13 K47 d   1      -1.752 -20.221  35.074  0.00  0.00     0.037 H 
ATOM     30  H14 K47 d   1      -1.635 -21.954  35.534  0.00  0.00     0.037 H 
ATOM     31  O23 K47 d   1      -4.161 -19.848  36.122  0.00  0.00    -0.391 OA
ATOM     32  H15 K47 d   1      -2.654 -20.604  37.316  0.00  0.00     0.074 H 
ATOM     33  H16 K47 d   1      -3.806 -21.813  36.655  0.00  0.00     0.074 H 
ATOM     34  C24 K47 d   1      -4.913 -20.173  34.956  0.00  0.00     0.020 C 
ATOM     35  C25 K47 d   1      -4.111 -20.407  33.703  0.00  0.00    -0.034 C 
ATOM     36  H17 K47 d   1      -5.609 -19.344  34.761  0.00  0.00     0.074 H 
ATOM     37  H18 K47 d   1      -5.484 -21.089  35.167  0.00  0.00     0.074 H 
ATOM     38  H19 K47 d   1      -4.773 -20.713  32.880  0.00  0.00     0.037 H 
ATOM     39  H20 K47 d   1      -3.573 -19.490  33.419  0.00  0.00     0.037 H 
ATOM     40  H12 K47 d   1      -3.672 -22.455  34.209  0.00  0.00     0.054 H 
ENDBRANCH  18  26
ENDBRANCH  11  12
ENDBRANCH   5  11
BRANCH   2  41
ATOM     41  C11 K47 d   1      -7.602 -25.147  25.686  0.00  0.00     0.053 A 
ATOM     42  C26 K47 d   1      -7.256 -24.067  24.894  0.00  0.00     0.042 A 
ATOM     43  N27 K47 d   1      -7.763 -24.291  23.658  0.00  0.00    -0.274 N 
ATOM     44  N28 K47 d   1      -8.403 -25.502  23.604  0.00  0.00    -0.184 NA
ATOM     45  C29 K47 d   1      -8.283 -26.012  24.816  0.00  0.00     0.037 A 
ATOM     46  H21 K47 d   1      -8.667 -26.989  25.106  0.00  0.00     0.119 H 
BRANCH  42  47
ATOM     47  C30 K47 d   1      -6.491 -22.845  25.257  0.00  0.00    -0.035 C 
ATOM     48  H22 K47 d   1      -6.190 -22.901  26.313  0.00  0.00     0.035 H 
ATOM     49  H23 K47 d   1      -7.122 -21.958  25.103  0.00  0.00     0.035 H 
ATOM     50  H24 K47 d   1      -5.595 -22.772  24.623  0.00  0.00     0.035 H 
ENDBRANCH  42  47
BRANCH  43  51
ATOM     51  C31 K47 d   1      -7.646 -23.380  22.460  0.00  0.00     0.014 C 
ATOM     52  H25 K47 d   1      -6.667 -23.563  21.993  0.00  0.00     0.066 H 
ATOM     53  H26 K47 d   1      -7.692 -22.342  22.821  0.00  0.00     0.066 H 
BRANCH  51  54
ATOM     54  C32 K47 d   1      -8.696 -23.545  21.404  0.00  0.00    -0.059 C 
ATOM     55  H27 K47 d   1      -8.509 -22.833  20.587  0.00  0.00     0.029 H 
ATOM     56  H28 K47 d   1      -9.687 -23.351  21.839  0.00  0.00     0.029 H 
ATOM     57  H29 K47 d   1      -8.663 -24.572  21.011  0.00  0.00     0.029 H 
ENDBRANCH  51  54
ENDBRANCH  43  51
ENDBRANCH   2  41
BRANCH   1  58
ATOM     58  C10 K47 d   1      -9.456 -26.600  27.819  0.00  0.00    -0.011 C 
ATOM     59  H2  K47 d   1      -9.784 -26.405  26.787  0.00  0.00     0.057 H 
ATOM     60  H3  K47 d   1     -10.143 -26.106  28.521  0.00  0.00     0.057 H 
ATOM     61  H4  K47 d   1      -9.458 -27.684  28.006  0.00  0.00     0.057 H 
ENDBRANCH   1  58
TORSDOF 8
