REMARK  9 active torsions:
REMARK  status: ('A' for Active; 'I' for Inactive)
REMARK    1  A    between atoms: S1_1  and  N1_4 
REMARK    2  A    between atoms: C1_8  and  S1_1 
REMARK    3  A    between atoms: N1_4  and  C11_16 
REMARK    4  A    between atoms: C11_16  and  C12_17 
REMARK    5  A    between atoms: C12_17  and  C13_19 
REMARK    6  A    between atoms: C13_19  and  C14_18 
REMARK    7  A    between atoms: C14_18  and  C15_20 
REMARK    8  A    between atoms: C15_20  and  C16_21 
REMARK    9  A    between atoms: C16_21  and  N2_22 
ROOT
ATOM      1  N1  WW7 d   1       3.388  -3.513   5.863  0.00  0.00    -0.315 N 
ATOM      2  H1  WW7 d   1       3.154  -3.621   6.829  0.00  0.00     0.172 HD
ENDROOT
BRANCH   1   3
ATOM      3  S1  WW7 d   1       4.690  -2.690   5.310  0.00  0.00     0.259 S 
ATOM      4  O1  WW7 d   1       5.554  -2.255   6.504  0.00  0.00    -0.201 OA
ATOM      5  O2  WW7 d   1       5.544  -3.623   4.437  0.00  0.00    -0.201 OA
BRANCH   3   6
ATOM      6  C1  WW7 d   1       4.137  -1.232   4.427  0.00  0.00     0.090 A 
ATOM      7  C2  WW7 d   1       3.704  -0.147   5.189  0.00  0.00    -0.059 A 
ATOM      8  C3  WW7 d   1       3.259   1.009   4.576  0.00  0.00    -0.081 A 
ATOM      9  H4  WW7 d   1       3.717  -0.211   6.271  0.00  0.00     0.085 H 
ATOM     10  C4  WW7 d   1       3.237   1.109   3.188  0.00  0.00    -0.070 A 
ATOM     11  H3  WW7 d   1       2.925   1.844   5.181  0.00  0.00     0.083 H 
ATOM     12  C10 WW7 d   1       3.664   0.034   2.384  0.00  0.00    -0.003 A 
ATOM     13  H2  WW7 d   1       2.888   2.023   2.721  0.00  0.00     0.084 H 
ATOM     14  C9  WW7 d   1       4.116  -1.139   3.009  0.00  0.00    -0.001 A 
ATOM     15  C5  WW7 d   1       3.655   0.100   0.946  0.00  0.00     0.045 A 
ATOM     16  C8  WW7 d   1       4.539  -2.203   2.226  0.00  0.00    -0.071 A 
ATOM     17  C7  WW7 d   1       4.520  -2.132   0.846  0.00  0.00    -0.081 A 
ATOM     18  H7  WW7 d   1       4.892  -3.108   2.706  0.00  0.00     0.084 H 
ATOM     19  C6  WW7 d   1       4.088  -0.997   0.211  0.00  0.00    -0.061 A 
ATOM     20  H6  WW7 d   1       4.850  -2.982   0.260  0.00  0.00     0.083 H 
ATOM     21  H5  WW7 d   1       4.084  -0.955  -0.872  0.00  0.00     0.086 H 
ATOM     22 CL1  WW7 d   1       3.116   1.500   0.053  0.00  0.00    -0.083 Cl
ENDBRANCH   3   6
ENDBRANCH   1   3
BRANCH   1  23
ATOM     23  C11 WW7 d   1       2.606  -4.074   4.746  0.00  0.00     0.003 C 
ATOM     24  H8  WW7 d   1       2.915  -5.115   4.574  0.00  0.00     0.065 H 
ATOM     25  H9  WW7 d   1       2.793  -3.481   3.838  0.00  0.00     0.065 H 
BRANCH  23  26
ATOM     26  C12 WW7 d   1       1.113  -4.039   5.072  0.00  0.00    -0.050 C 
ATOM     27  H10 WW7 d   1       0.616  -3.301   4.425  0.00  0.00     0.035 H 
ATOM     28  H11 WW7 d   1       0.976  -3.754   6.126  0.00  0.00     0.035 H 
BRANCH  26  29
ATOM     29  C13 WW7 d   1       0.497  -5.416   4.836  0.00  0.00    -0.064 C 
ATOM     30  H14 WW7 d   1       1.088  -5.956   4.082  0.00  0.00     0.033 H 
ATOM     31  H15 WW7 d   1      -0.535  -5.297   4.476  0.00  0.00     0.033 H 
BRANCH  29  32
ATOM     32  C14 WW7 d   1       0.490  -6.216   6.145  0.00  0.00    -0.064 C 
ATOM     33  H12 WW7 d   1       1.280  -5.836   6.809  0.00  0.00     0.033 H 
ATOM     34  H13 WW7 d   1       0.676  -7.277   5.925  0.00  0.00     0.033 H 
BRANCH  32  35
ATOM     35  C15 WW7 d   1      -0.865  -6.072   6.836  0.00  0.00    -0.043 C 
ATOM     36  H16 WW7 d   1      -1.312  -7.067   6.976  0.00  0.00     0.035 H 
ATOM     37  H17 WW7 d   1      -1.530  -5.456   6.213  0.00  0.00     0.035 H 
BRANCH  35  38
ATOM     38  C16 WW7 d   1      -0.681  -5.402   8.198  0.00  0.00     0.080 C 
ATOM     39  H18 WW7 d   1      -1.063  -4.372   8.148  0.00  0.00     0.075 H 
ATOM     40  H19 WW7 d   1       0.390  -5.384   8.449  0.00  0.00     0.075 H 
BRANCH  38  41
ATOM     41  N2  WW7 d   1      -1.408  -6.135   9.242  0.00  0.00    -0.079 N 
ATOM     42  H20 WW7 d   1      -1.273  -5.677  10.130  0.00  0.00     0.274 HD
ATOM     43  H21 WW7 d   1      -1.059  -7.079   9.295  0.00  0.00     0.274 HD
ATOM     44  H22 WW7 d   1      -2.391  -6.152   9.018  0.00  0.00     0.274 HD
ENDBRANCH  38  41
ENDBRANCH  35  38
ENDBRANCH  32  35
ENDBRANCH  29  32
ENDBRANCH  26  29
ENDBRANCH  23  26
ENDBRANCH   1  23
TORSDOF 9
