REMARK  4 active torsions:
REMARK  status: ('A' for Active; 'I' for Inactive)
REMARK    1  A    between atoms: C1_1  and  N10_9 
REMARK    2  A    between atoms: O14_12  and  C4_4 
REMARK    3  A    between atoms: C15_7  and  C16_8 
REMARK    4  A    between atoms: C15_7  and  O14_12 
ROOT
ATOM      1  C1  K4V d   1     -25.560   5.427   2.928  0.00  0.00     0.103 A 
ATOM      2  C2  K4V d   1     -25.908   4.979   4.192  0.00  0.00    -0.048 A 
ATOM      3  C3  K4V d   1     -26.977   5.553   4.858  0.00  0.00    -0.048 A 
ATOM      4  C4  K4V d   1     -27.705   6.580   4.276  0.00  0.00     0.079 A 
ATOM      5  C5  K4V d   1     -27.366   7.024   3.000  0.00  0.00    -0.048 A 
ATOM      6  C6  K4V d   1     -26.288   6.450   2.332  0.00  0.00    -0.048 A 
ATOM      7  H1  K4V d   1     -25.344   4.180   4.659  0.00  0.00     0.087 H 
ATOM      8  H2  K4V d   1     -27.248   5.196   5.845  0.00  0.00     0.087 H 
ATOM      9  H3  K4V d   1     -27.940   7.814   2.529  0.00  0.00     0.087 H 
ATOM     10  H4  K4V d   1     -26.015   6.802   1.344  0.00  0.00     0.087 H 
ENDROOT
BRANCH   4  11
ATOM     11  O14 K4V d   1     -28.775   7.127   4.955  0.00  0.00    -0.279 OA
BRANCH  11  12
ATOM     12  C15 K4V d   1     -29.628   8.291   4.717  0.00  0.00     0.260 C 
ATOM     13  O17 K4V d   1     -30.655   8.328   5.372  0.00  0.00    -0.265 OA
BRANCH  12  14
ATOM     14  C16 K4V d   1     -29.310   9.410   3.774  0.00  0.00     0.004 C 
ATOM     15  H5  K4V d   1     -30.125  10.149   3.794  0.00  0.00     0.041 H 
ATOM     16  H6  K4V d   1     -29.202   9.011   2.755  0.00  0.00     0.041 H 
ATOM     17  H7  K4V d   1     -28.370   9.892   4.081  0.00  0.00     0.041 H 
ENDBRANCH  12  14
ENDBRANCH  11  12
ENDBRANCH   4  11
BRANCH   1  18
ATOM     18  N10 K4V d   1     -24.472   4.830   2.273  0.00  0.00    -0.116 N 
ATOM     19  O11 K4V d   1     -23.522   5.501   1.909  0.00  0.00    -0.532 OA
ATOM     20  O13 K4V d   1     -24.466   3.450   2.047  0.00  0.00    -0.532 OA
ENDBRANCH   1  18
TORSDOF 4
