REMARK  9 active torsions:
REMARK  status: ('A' for Active; 'I' for Inactive)
REMARK       I    between atoms: C10_1  and  N12_2 
REMARK    1  A    between atoms: C09_13  and  C10_1 
REMARK    2  A    between atoms: N12_2  and  C13_3 
REMARK    3  A    between atoms: C13_3  and  C14_14 
REMARK    4  A    between atoms: C20_6  and  O21_28 
REMARK    5  A    between atoms: C22_7  and  C23_17 
REMARK    6  A    between atoms: O21_28  and  C22_7 
REMARK    7  A    between atoms: C05_10  and  C02_9 
REMARK    8  A    between atoms: O06_26  and  C05_10 
REMARK    9  A    between atoms: C07_11  and  O06_26 
ROOT
ATOM      1  C20 K4D d   1      -5.574 -43.459 -23.640  0.00  0.00     0.085 A 
ATOM      2  C28 K4D d   1      -7.370 -45.082 -23.606  0.00  0.00    -0.048 A 
ATOM      3  C07 K4D d   1      -6.599 -45.952 -24.412  0.00  0.00     0.070 A 
ATOM      4  C08 K4D d   1      -5.300 -45.554 -24.829  0.00  0.00    -0.033 A 
ATOM      5  C09 K4D d   1      -4.788 -44.318 -24.441  0.00  0.00     0.068 A 
ATOM      6  C27 K4D d   1      -6.863 -43.860 -23.229  0.00  0.00    -0.047 A 
ATOM      7  H10 K4D d   1      -8.362 -45.379 -23.285  0.00  0.00     0.087 H 
ATOM      8  H13 K4D d   1      -4.706 -46.214 -25.451  0.00  0.00     0.089 H 
ATOM      9  H19 K4D d   1      -7.459 -43.199 -22.610  0.00  0.00     0.087 H 
ENDROOT
BRANCH   5  10
ATOM     10  C10 K4D d   1      -3.380 -43.862 -24.881  0.00  0.00     0.254 C 
ATOM     11  N12 K4D d   1      -2.779 -44.287 -26.125  0.00  0.00    -0.355 N 
ATOM     12  H1  K4D d   1      -3.252 -44.911 -26.747  0.00  0.00     0.162 HD
ATOM     13  O11 K4D d   1      -2.732 -43.110 -24.172  0.00  0.00    -0.268 OA
BRANCH  11  14
ATOM     14  C13 K4D d   1      -1.420 -43.753 -26.440  0.00  0.00     0.022 C 
ATOM     15  H2  K4D d   1      -1.275 -42.824 -25.870  0.00  0.00     0.067 H 
ATOM     16  H3  K4D d   1      -1.378 -43.533 -27.517  0.00  0.00     0.067 H 
BRANCH  14  17
ATOM     17  C14 K4D d   1      -0.320 -44.667 -26.115  0.00  0.00     0.117 C 
ATOM     18  C15 K4D d   1      -0.827 -46.099 -25.911  0.00  0.00    -0.037 C 
ATOM     19  C16 K4D d   1      -0.166 -47.034 -26.801  0.00  0.00    -0.062 C 
ATOM     20  H4  K4D d   1      -1.909 -46.125 -26.106  0.00  0.00     0.036 H 
ATOM     21  H5  K4D d   1      -0.635 -46.400 -24.871  0.00  0.00     0.036 H 
ATOM     22  C17 K4D d   1      -0.307 -46.615 -28.212  0.00  0.00    -0.042 C 
ATOM     23  H15 K4D d   1      -0.616 -48.030 -26.675  0.00  0.00     0.033 H 
ATOM     24  H16 K4D d   1       0.903 -47.080 -26.545  0.00  0.00     0.033 H 
ATOM     25  C18 K4D d   1       0.210 -45.198 -28.442  0.00  0.00     0.082 C 
ATOM     26  H6  K4D d   1      -1.371 -46.654 -28.489  0.00  0.00     0.035 H 
ATOM     27  H7  K4D d   1       0.264 -47.309 -28.847  0.00  0.00     0.035 H 
ATOM     28  N19 K4D d   1       0.653 -44.557 -27.217  0.00  0.00    -0.069 N 
ATOM     29  H17 K4D d   1      -0.599 -44.596 -28.882  0.00  0.00     0.075 H 
ATOM     30  H18 K4D d   1       1.057 -45.242 -29.142  0.00  0.00     0.075 H 
ATOM     31  H20 K4D d   1       1.516 -44.987 -26.925  0.00  0.00     0.277 HD
ATOM     32  H21 K4D d   1       0.812 -43.580 -27.407  0.00  0.00     0.277 HD
ATOM     33  H14 K4D d   1       0.160 -44.340 -25.181  0.00  0.00     0.086 H 
ENDBRANCH  14  17
ENDBRANCH  11  14
ENDBRANCH   5  10
BRANCH   1  34
ATOM     34  O21 K4D d   1      -5.089 -42.173 -23.209  0.00  0.00    -0.341 OA
BRANCH  34  35
ATOM     35  C22 K4D d   1      -5.151 -41.132 -24.144  0.00  0.00     0.116 C 
ATOM     36  H8  K4D d   1      -4.847 -41.497 -25.136  0.00  0.00     0.088 H 
ATOM     37  H9  K4D d   1      -6.175 -40.733 -24.198  0.00  0.00     0.088 H 
BRANCH  35  38
ATOM     38  C23 K4D d   1      -4.198 -40.056 -23.672  0.00  0.00     0.408 C 
ATOM     39  F24 K4D d   1      -3.010 -40.215 -24.262  0.00  0.00    -0.169 F 
ATOM     40  F25 K4D d   1      -4.061 -40.158 -22.353  0.00  0.00    -0.169 F 
ATOM     41  F26 K4D d   1      -4.669 -38.869 -23.966  0.00  0.00    -0.169 F 
ENDBRANCH  35  38
ENDBRANCH  34  35
ENDBRANCH   1  34
BRANCH   3  42
ATOM     42  O06 K4D d   1      -7.149 -47.204 -24.783  0.00  0.00    -0.342 OA
BRANCH  42  43
ATOM     43  C05 K4D d   1      -8.294 -47.542 -24.015  0.00  0.00     0.116 C 
ATOM     44  H11 K4D d   1      -8.029 -47.536 -22.947  0.00  0.00     0.088 H 
ATOM     45  H12 K4D d   1      -9.086 -46.802 -24.200  0.00  0.00     0.088 H 
BRANCH  43  46
ATOM     46  C02 K4D d   1      -8.806 -48.942 -24.404  0.00  0.00     0.408 C 
ATOM     47  F01 K4D d   1      -9.871 -49.236 -23.664  0.00  0.00    -0.169 F 
ATOM     48  F03 K4D d   1      -7.860 -49.841 -24.182  0.00  0.00    -0.169 F 
ATOM     49  F04 K4D d   1      -9.130 -48.962 -25.713  0.00  0.00    -0.169 F 
ENDBRANCH  43  46
ENDBRANCH  42  43
ENDBRANCH   3  42
TORSDOF 9
