REMARK  11 active torsions:
REMARK  status: ('A' for Active; 'I' for Inactive)
REMARK    1  A    between atoms: N49_26  and  C1_1 
REMARK    2  A    between atoms: C24_13  and  C70_34 
REMARK    3  A    between atoms: O65_32  and  C26_15 
REMARK    4  A    between atoms: C36_19  and  O65_32 
REMARK    5  A    between atoms: N60_30  and  C39_22 
REMARK    6  A    between atoms: C46_23  and  C79_38 
REMARK    7  A    between atoms: N56_28  and  C48_25 
REMARK       I    between atoms: C58_29  and  N56_28 
REMARK       I    between atoms: C58_29  and  N60_30 
REMARK       I    between atoms: C70_34  and  N74_36 
REMARK    8  A    between atoms: N74_36  and  C76_37 
REMARK    9  A    between atoms: C79_38  and  C81_39 
REMARK   10  A    between atoms: C79_38  and  C83_40 
REMARK   11  A    between atoms: C79_38  and  C85_41 
ROOT
ATOM      1  C46 919 d   1      -8.969  35.956 108.604  0.00  0.00     0.066 A 
ATOM      2  C47 919 d   1      -8.976  35.116 109.718  0.00  0.00    -0.012 A 
ATOM      3  C48 919 d   1     -10.207  34.449 109.731  0.00  0.00     0.135 A 
ATOM      4  N49 919 d   1     -10.897  34.869 108.641  0.00  0.00    -0.217 N 
ATOM      5  N50 919 d   1     -10.140  35.784 107.965  0.00  0.00    -0.169 NA
ATOM      6  H13 919 d   1      -8.172  35.000 110.444  0.00  0.00     0.092 H 
ENDROOT
BRANCH   3   7
ATOM      7  N56 919 d   1     -10.667  33.521 110.624  0.00  0.00    -0.293 N 
ATOM      8  C58 919 d   1     -10.158  33.328 111.851  0.00  0.00     0.326 C 
ATOM      9  N60 919 d   1     -10.549  32.181 112.442  0.00  0.00    -0.306 N 
ATOM     10  O63 919 d   1      -9.387  34.137 112.373  0.00  0.00    -0.247 OA
ATOM     11  H15 919 d   1     -10.980  31.493 111.858  0.00  0.00     0.171 HD
ATOM     12  H14 919 d   1     -11.436  32.946 110.344  0.00  0.00     0.172 HD
BRANCH   9  13
ATOM     13  C39 919 d   1     -10.409  31.872 113.774  0.00  0.00     0.075 A 
ATOM     14  C34 919 d   1      -9.643  32.616 114.667  0.00  0.00    -0.051 A 
ATOM     15  C35 919 d   1      -9.546  32.222 116.011  0.00  0.00    -0.048 A 
ATOM     16  H10 919 d   1      -9.120  33.502 114.324  0.00  0.00     0.087 H 
ATOM     17  C36 919 d   1     -10.216  31.083 116.468  0.00  0.00     0.079 A 
ATOM     18  H11 919 d   1      -8.947  32.806 116.700  0.00  0.00     0.087 H 
ATOM     19  C37 919 d   1     -10.974  30.349 115.583  0.00  0.00    -0.011 A 
ATOM     20  C38 919 d   1     -11.067  30.739 114.250  0.00  0.00     0.145 A 
ATOM     21  H12 919 d   1     -11.500  29.465 115.925  0.00  0.00     0.092 H 
ATOM     22  F68 919 d   1     -11.811  29.998 113.421  0.00  0.00    -0.204 F 
BRANCH  17  23
ATOM     23  O65 919 d   1     -10.157  30.662 117.775  0.00  0.00    -0.311 OA
BRANCH  23  24
ATOM     24  C26 919 d   1      -8.999  30.696 118.533  0.00  0.00     0.079 A 
ATOM     25  C25 919 d   1      -9.112  30.853 119.900  0.00  0.00    -0.017 A 
ATOM     26  C24 919 d   1      -7.968  30.895 120.688  0.00  0.00     0.126 A 
ATOM     27  H8  919 d   1     -10.091  30.943 120.358  0.00  0.00     0.091 H 
ATOM     28  N23 919 d   1      -6.732  30.788 120.133  0.00  0.00    -0.255 NA
ATOM     29  C22 919 d   1      -6.601  30.609 118.803  0.00  0.00     0.006 A 
ATOM     30  C27 919 d   1      -7.730  30.565 117.976  0.00  0.00    -0.033 A 
ATOM     31  H7  919 d   1      -5.613  30.498 118.370  0.00  0.00     0.114 H 
ATOM     32  H9  919 d   1      -7.616  30.430 116.906  0.00  0.00     0.090 H 
BRANCH  26  33
ATOM     33  C70 919 d   1      -8.149  31.070 122.156  0.00  0.00     0.269 C 
ATOM     34  O72 919 d   1      -9.287  30.999 122.597  0.00  0.00    -0.266 OA
ATOM     35  N74 919 d   1      -7.095  31.350 122.914  0.00  0.00    -0.360 N 
ATOM     36  H16 919 d   1      -6.199  31.449 122.482  0.00  0.00     0.162 HD
BRANCH  35  37
ATOM     37  C76 919 d   1      -7.208  31.516 124.354  0.00  0.00    -0.018 C 
ATOM     38  H17 919 d   1      -6.218  31.742 124.776  0.00  0.00     0.056 H 
ATOM     39  H18 919 d   1      -7.594  30.588 124.801  0.00  0.00     0.056 H 
ATOM     40  H19 919 d   1      -7.898  32.344 124.575  0.00  0.00     0.056 H 
ENDBRANCH  35  37
ENDBRANCH  26  33
ENDBRANCH  23  24
ENDBRANCH  17  23
ENDBRANCH   9  13
ENDBRANCH   3   7
BRANCH   4  41
ATOM     41  C1  919 d   1     -12.127  34.485 108.258  0.00  0.00     0.061 A 
ATOM     42  C2  919 d   1     -12.376  34.259 106.904  0.00  0.00    -0.053 A 
ATOM     43  C3  919 d   1     -13.649  33.868 106.483  0.00  0.00    -0.052 A 
ATOM     44  H1  919 d   1     -11.581  34.387 106.178  0.00  0.00     0.087 H 
ATOM     45  C4  919 d   1     -14.673  33.700 107.407  0.00  0.00     0.066 A 
ATOM     46  H2  919 d   1     -13.839  33.695 105.430  0.00  0.00     0.087 H 
ATOM     47  C5  919 d   1     -14.427  33.931 108.758  0.00  0.00    -0.005 A 
ATOM     48  N10 919 d   1     -15.905  33.314 106.985  0.00  0.00    -0.260 NA
ATOM     49  C6  919 d   1     -13.154  34.328 109.187  0.00  0.00    -0.043 A 
ATOM     50  C13 919 d   1     -15.457  33.767 109.678  0.00  0.00    -0.069 A 
ATOM     51  H3  919 d   1     -12.968  34.513 110.239  0.00  0.00     0.088 H 
ATOM     52  C14 919 d   1     -16.718  33.363 109.225  0.00  0.00    -0.065 A 
ATOM     53  H5  919 d   1     -15.285  33.950 110.733  0.00  0.00     0.085 H 
ATOM     54  C9  919 d   1     -16.922  33.146 107.865  0.00  0.00     0.003 A 
ATOM     55  H6  919 d   1     -17.530  33.220 109.928  0.00  0.00     0.085 H 
ATOM     56  H4  919 d   1     -17.899  32.841 107.508  0.00  0.00     0.114 H 
ENDBRANCH   4  41
BRANCH   1  57
ATOM     57  C79 919 d   1      -7.861  36.875 108.146  0.00  0.00    -0.005 C 
BRANCH  57  58
ATOM     58  C81 919 d   1      -7.588  37.939 109.204  0.00  0.00    -0.064 C 
ATOM     59  H20 919 d   1      -6.780  38.601 108.859  0.00  0.00     0.028 H 
ATOM     60  H21 919 d   1      -7.287  37.453 110.144  0.00  0.00     0.028 H 
ATOM     61  H22 919 d   1      -8.500  38.531 109.373  0.00  0.00     0.028 H 
ENDBRANCH  57  58
BRANCH  57  62
ATOM     62  C83 919 d   1      -6.615  36.025 107.928  0.00  0.00    -0.064 C 
ATOM     63  H23 919 d   1      -6.821  35.261 107.164  0.00  0.00     0.028 H 
ATOM     64  H24 919 d   1      -6.337  35.534 108.872  0.00  0.00     0.028 H 
ATOM     65  H25 919 d   1      -5.788  36.667 107.591  0.00  0.00     0.028 H 
ENDBRANCH  57  62
BRANCH  57  66
ATOM     66  C85 919 d   1      -8.251  37.550 106.829  0.00  0.00    -0.064 C 
ATOM     67  H26 919 d   1      -9.150  38.164 106.984  0.00  0.00     0.028 H 
ATOM     68  H27 919 d   1      -8.459  36.781 106.070  0.00  0.00     0.028 H 
ATOM     69  H28 919 d   1      -7.425  38.190 106.486  0.00  0.00     0.028 H 
ENDBRANCH  57  66
ENDBRANCH   1  57
TORSDOF 11
