REMARK  9 active torsions:
REMARK  status: ('A' for Active; 'I' for Inactive)
REMARK    1  A    between atoms: C3_3  and  C6_32 
REMARK    2  A    between atoms: C6_32  and  C7_4 
REMARK    3  A    between atoms: C6_32  and  C8_5 
REMARK    4  A    between atoms: C6_32  and  C9_6 
REMARK    5  A    between atoms: C10_7  and  C11_8 
REMARK    6  A    between atoms: C14_11  and  O_23 
REMARK    7  A    between atoms: C18_22  and  C26_20 
REMARK    8  A    between atoms: O_23  and  C17_24 
REMARK    9  A    between atoms: N_28  and  C_29 
ROOT
ATOM      1  C10 K5P d   1      49.655  17.847  73.380  0.00  0.00     0.062 C 
ATOM      2  C19 K5P d   1      51.500  19.515  73.589  0.00  0.00    -0.026 A 
ATOM      3  C20 K5P d   1      52.849  19.741  73.837  0.00  0.00    -0.075 A 
ATOM      4  C21 K5P d   1      53.261  20.862  74.539  0.00  0.00    -0.082 A 
ATOM      5  C22 K5P d   1      52.329  21.771  75.008  0.00  0.00    -0.082 A 
ATOM      6  C24 K5P d   1      50.558  20.439  74.063  0.00  0.00     0.039 A 
ATOM      7  C18 K5P d   1      51.002  18.328  72.791  0.00  0.00     0.081 C 
ATOM      8  C23 K5P d   1      50.985  21.566  74.770  0.00  0.00    -0.067 A 
ATOM      9  C25 K5P d   1      49.127  20.269  73.780  0.00  0.00     0.259 C 
ATOM     10  O1  K5P d   1      48.332  21.192  73.819  0.00  0.00    -0.267 OA
ATOM     11  N   K5P d   1      48.700  18.968  73.488  0.00  0.00    -0.303 N 
ATOM     12  H12 K5P d   1      49.220  17.120  72.678  0.00  0.00     0.083 H 
ATOM     13  H17 K5P d   1      53.586  19.033  73.477  0.00  0.00     0.084 H 
ATOM     14  H18 K5P d   1      54.317  21.028  74.721  0.00  0.00     0.083 H 
ATOM     15  H19 K5P d   1      52.654  22.644  75.562  0.00  0.00     0.083 H 
ATOM     16  H20 K5P d   1      51.738  17.517  72.894  0.00  0.00     0.068 H 
ATOM     17  H24 K5P d   1      50.257  22.283  75.133  0.00  0.00     0.085 H 
ENDROOT
BRANCH  11  18
ATOM     18  C   K5P d   1      47.302  18.708  73.307  0.00  0.00     0.038 A 
ATOM     19  C1  K5P d   1      46.853  17.979  72.208  0.00  0.00    -0.056 A 
ATOM     20  C2  K5P d   1      45.505  17.688  72.074  0.00  0.00    -0.074 A 
ATOM     21  H1  K5P d   1      47.558  17.640  71.458  0.00  0.00     0.086 H 
ATOM     22  C3  K5P d   1      44.575  18.120  73.019  0.00  0.00    -0.051 A 
ATOM     23  H2  K5P d   1      45.167  17.114  71.219  0.00  0.00     0.084 H 
ATOM     24  C4  K5P d   1      45.039  18.887  74.088  0.00  0.00    -0.074 A 
ATOM     25  C5  K5P d   1      46.382  19.180  74.231  0.00  0.00    -0.056 A 
ATOM     26  H26 K5P d   1      44.333  19.260  74.820  0.00  0.00     0.084 H 
ATOM     27  H25 K5P d   1      46.717  19.781  75.069  0.00  0.00     0.086 H 
BRANCH  22  28
ATOM     28  C6  K5P d   1      43.090  17.745  72.924  0.00  0.00    -0.024 C 
BRANCH  28  29
ATOM     29  C7  K5P d   1      42.552  17.906  71.493  0.00  0.00    -0.066 C 
ATOM     30  H3  K5P d   1      41.488  17.628  71.468  0.00  0.00     0.028 H 
ATOM     31  H4  K5P d   1      43.118  17.252  70.813  0.00  0.00     0.028 H 
ATOM     32  H5  K5P d   1      42.665  18.953  71.174  0.00  0.00     0.028 H 
ENDBRANCH  28  29
BRANCH  28  33
ATOM     33  C8  K5P d   1      42.244  18.646  73.837  0.00  0.00    -0.066 C 
ATOM     34  H6  K5P d   1      42.601  18.557  74.874  0.00  0.00     0.028 H 
ATOM     35  H7  K5P d   1      41.190  18.335  73.784  0.00  0.00     0.028 H 
ATOM     36  H8  K5P d   1      42.335  19.691  73.507  0.00  0.00     0.028 H 
ENDBRANCH  28  33
BRANCH  28  37
ATOM     37  C9  K5P d   1      42.885  16.290  73.336  0.00  0.00    -0.066 C 
ATOM     38  H9  K5P d   1      43.487  15.637  72.687  0.00  0.00     0.028 H 
ATOM     39  H10 K5P d   1      41.822  16.027  73.236  0.00  0.00     0.028 H 
ATOM     40  H11 K5P d   1      43.198  16.157  74.382  0.00  0.00     0.028 H 
ENDBRANCH  28  37
ENDBRANCH  22  28
ENDBRANCH  11  18
BRANCH   1  41
ATOM     41  C11 K5P d   1      49.898  17.118  74.689  0.00  0.00    -0.034 A 
ATOM     42  C12 K5P d   1      50.634  15.936  74.687  0.00  0.00    -0.072 A 
ATOM     43  C13 K5P d   1      50.890  15.244  75.861  0.00  0.00    -0.050 A 
ATOM     44  H13 K5P d   1      51.014  15.549  73.749  0.00  0.00     0.084 H 
ATOM     45  C14 K5P d   1      50.388  15.721  77.060  0.00  0.00     0.068 A 
ATOM     46  H14 K5P d   1      51.480  14.335  75.840  0.00  0.00     0.087 H 
ATOM     47  C15 K5P d   1      49.603  16.868  77.084  0.00  0.00    -0.050 A 
ATOM     48  C16 K5P d   1      49.377  17.567  75.902  0.00  0.00    -0.072 A 
ATOM     49  H15 K5P d   1      49.171  17.215  78.016  0.00  0.00     0.087 H 
ATOM     50  H16 K5P d   1      48.786  18.476  75.925  0.00  0.00     0.084 H 
BRANCH  45  51
ATOM     51  O   K5P d   1      50.640  15.128  78.266  0.00  0.00    -0.356 OA
BRANCH  51  52
ATOM     52  C17 K5P d   1      51.443  13.936  78.271  0.00  0.00     0.010 C 
ATOM     53  H21 K5P d   1      51.559  13.576  79.304  0.00  0.00     0.066 H 
ATOM     54  H22 K5P d   1      52.433  14.159  77.847  0.00  0.00     0.066 H 
ATOM     55  H23 K5P d   1      50.951  13.160  77.666  0.00  0.00     0.066 H 
ENDBRANCH  51  52
ENDBRANCH  45  51
ENDBRANCH   1  41
BRANCH   7  56
ATOM     56  C26 K5P d   1      50.848  18.635  71.287  0.00  0.00     0.184 C 
ATOM     57  O3  K5P d   1      50.443  17.709  70.544  0.00  0.00    -0.647 OA
ATOM     58  O2  K5P d   1      51.153  19.772  70.897  0.00  0.00    -0.647 OA
ENDBRANCH   7  56
TORSDOF 9
