REMARK  12 active torsions:
REMARK  status: ('A' for Active; 'I' for Inactive)
REMARK    1  A    between atoms: N29_30  and  C2_2 
REMARK    2  A    between atoms: P1_37  and  C3_3 
REMARK    3  A    between atoms: C4_4  and  N7_17 
REMARK    4  A    between atoms: C11_8  and  N16_19 
REMARK    5  A    between atoms: C13_10  and  O14_11 
REMARK    6  A    between atoms: O14_11  and  C15_12 
REMARK    7  A    between atoms: N7_17  and  C8_18 
REMARK    8  A    between atoms: C19_21  and  N22_24 
REMARK    9  A    between atoms: N25_27  and  C28_29 
REMARK   10  A    between atoms: C30_31  and  N29_30 
REMARK   11  A    between atoms: C31_32  and  P1_37 
REMARK   12  A    between atoms: P1_37  and  C37_38 
ROOT
ATOM      1  C9  6GY d   1       3.492  20.206   7.558  0.00  0.00    -0.052 A 
ATOM      2  C10 6GY d   1       3.708  21.358   6.825  0.00  0.00    -0.055 A 
ATOM      3  C11 6GY d   1       2.642  22.137   6.413  0.00  0.00     0.033 A 
ATOM      4  C12 6GY d   1       1.358  21.756   6.741  0.00  0.00    -0.023 A 
ATOM      5  C13 6GY d   1       1.149  20.609   7.479  0.00  0.00     0.097 A 
ATOM      6  C8  6GY d   1       2.206  19.821   7.886  0.00  0.00     0.082 A 
ATOM      7  H5  6GY d   1       4.334  19.603   7.877  0.00  0.00     0.087 H 
ATOM      8  H6  6GY d   1       4.720  21.653   6.571  0.00  0.00     0.087 H 
ATOM      9  H7  6GY d   1       0.514  22.356   6.420  0.00  0.00     0.091 H 
ENDROOT
BRANCH   3  10
ATOM     10  N16 6GY d   1       2.851  23.316   5.665  0.00  0.00    -0.381 N 
ATOM     11  C17 6GY d   1       3.444  24.465   6.341  0.00  0.00    -0.003 C 
ATOM     12  C18 6GY d   1       3.275  25.760   5.575  0.00  0.00    -0.023 C 
ATOM     13  H16 6GY d   1       2.966  24.576   7.326  0.00  0.00     0.064 H 
ATOM     14  H17 6GY d   1       4.519  24.276   6.474  0.00  0.00     0.064 H 
ATOM     15  C19 6GY d   1       3.701  25.589   4.135  0.00  0.00     0.107 C 
ATOM     16  H11 6GY d   1       3.893  26.540   6.044  0.00  0.00     0.038 H 
ATOM     17  H12 6GY d   1       2.218  26.062   5.605  0.00  0.00     0.038 H 
ATOM     18  C20 6GY d   1       2.894  24.483   3.479  0.00  0.00    -0.023 C 
ATOM     19  H18 6GY d   1       4.745  25.243   4.149  0.00  0.00     0.084 H 
ATOM     20  C21 6GY d   1       3.059  23.170   4.225  0.00  0.00    -0.003 C 
ATOM     21  H19 6GY d   1       3.239  24.353   2.442  0.00  0.00     0.038 H 
ATOM     22  H20 6GY d   1       1.831  24.765   3.479  0.00  0.00     0.038 H 
ATOM     23  H21 6GY d   1       2.328  22.448   3.834  0.00  0.00     0.064 H 
ATOM     24  H22 6GY d   1       4.077  22.791   4.052  0.00  0.00     0.064 H 
BRANCH  15  25
ATOM     25  N22 6GY d   1       3.709  26.887   3.394  0.00  0.00    -0.064 N 
ATOM     26  C23 6GY d   1       2.387  27.562   3.221  0.00  0.00     0.106 C 
ATOM     27  C24 6GY d   1       2.563  28.953   2.646  0.00  0.00     0.105 C 
ATOM     28  H24 6GY d   1       1.890  27.637   4.199  0.00  0.00     0.078 H 
ATOM     29  H25 6GY d   1       1.764  26.966   2.538  0.00  0.00     0.078 H 
ATOM     30  N25 6GY d   1       3.380  28.879   1.408  0.00  0.00    -0.072 N 
ATOM     31  H26 6GY d   1       3.071  29.592   3.383  0.00  0.00     0.078 H 
ATOM     32  H27 6GY d   1       1.577  29.379   2.409  0.00  0.00     0.078 H 
ATOM     33  C26 6GY d   1       4.727  28.287   1.634  0.00  0.00     0.105 C 
ATOM     34  H28 6GY d   1       2.900  28.230   0.804  0.00  0.00     0.279 HD
ATOM     35  C27 6GY d   1       4.581  26.882   2.184  0.00  0.00     0.106 C 
ATOM     36  H13 6GY d   1       5.282  28.906   2.354  0.00  0.00     0.078 H 
ATOM     37  H14 6GY d   1       5.276  28.252   0.681  0.00  0.00     0.078 H 
ATOM     38  H29 6GY d   1       5.574  26.493   2.454  0.00  0.00     0.078 H 
ATOM     39  H30 6GY d   1       4.131  26.236   1.415  0.00  0.00     0.078 H 
ATOM     40  H23 6GY d   1       4.193  27.506   4.025  0.00  0.00     0.280 HD
BRANCH  30  41
ATOM     41  C28 6GY d   1       3.409  30.162   0.666  0.00  0.00     0.066 C 
ATOM     42  H31 6GY d   1       4.026  30.049  -0.238  0.00  0.00     0.068 H 
ATOM     43  H32 6GY d   1       3.838  30.947   1.307  0.00  0.00     0.068 H 
ATOM     44  H33 6GY d   1       2.385  30.442   0.378  0.00  0.00     0.068 H 
ENDBRANCH  30  41
ENDBRANCH  15  25
ENDBRANCH   3  10
BRANCH   5  45
ATOM     45  O14 6GY d   1      -0.123  20.173   7.836  0.00  0.00    -0.354 OA
BRANCH  45  46
ATOM     46  C15 6GY d   1      -1.082  20.878   7.059  0.00  0.00     0.010 C 
ATOM     47  H8  6GY d   1      -2.093  20.542   7.332  0.00  0.00     0.066 H 
ATOM     48  H9  6GY d   1      -0.906  20.680   5.991  0.00  0.00     0.066 H 
ATOM     49  H10 6GY d   1      -0.989  21.957   7.253  0.00  0.00     0.066 H 
ENDBRANCH  45  46
ENDBRANCH   5  45
BRANCH   6  50
ATOM     50  N7  6GY d   1       1.872  18.669   8.628  0.00  0.00    -0.185 N 
ATOM     51  H15 6GY d   1       0.875  18.579   8.868  0.00  0.00     0.184 HD
BRANCH  50  52
ATOM     52  C4  6GY d   1       2.690  17.629   9.088  0.00  0.00     0.728 A 
ATOM     53  N3  6GY d   1       3.923  17.508   8.578  0.00  0.00    -0.043 NA
ATOM     54  C2  6GY d   1       4.705  16.504   8.989  0.00  0.00     0.170 A 
ATOM     55  C1  6GY d   1       4.210  15.596   9.908  0.00  0.00     0.098 A 
ATOM     56  C6  6GY d   1       2.930  15.774  10.373  0.00  0.00     0.046 A 
ATOM     57 CL   6GY d   1       5.148  14.267  10.470  0.00  0.00    -0.079 Cl
ATOM     58  N5  6GY d   1       2.151  16.785   9.978  0.00  0.00    -0.073 NA
ATOM     59  H4  6GY d   1       2.535  15.064  11.091  0.00  0.00     0.118 H 
BRANCH  54  60
ATOM     60  N29 6GY d   1       6.024  16.343   8.490  0.00  0.00    -0.338 N 
ATOM     61  H34 6GY d   1       6.499  15.447   8.671  0.00  0.00     0.167 HD
BRANCH  60  62
ATOM     62  C30 6GY d   1       6.730  17.328   7.762  0.00  0.00     0.047 A 
ATOM     63  C31 6GY d   1       8.047  17.659   8.059  0.00  0.00     0.030 A 
ATOM     64  C32 6GY d   1       8.686  18.629   7.311  0.00  0.00    -0.067 A 
ATOM     65  C33 6GY d   1       8.046  19.271   6.275  0.00  0.00    -0.082 A 
ATOM     66  H35 6GY d   1       9.712  18.890   7.545  0.00  0.00     0.085 H 
ATOM     67  C34 6GY d   1       6.744  18.943   5.975  0.00  0.00    -0.081 A 
ATOM     68  H36 6GY d   1       8.564  20.030   5.700  0.00  0.00     0.083 H 
ATOM     69  C35 6GY d   1       6.099  17.978   6.718  0.00  0.00    -0.056 A 
ATOM     70  H37 6GY d   1       6.229  19.440   5.160  0.00  0.00     0.083 H 
ATOM     71  H38 6GY d   1       5.073  17.723   6.478  0.00  0.00     0.086 H 
BRANCH  63  72
ATOM     72  P1  6GY d   1       8.944  16.880   9.370  0.00  0.00     0.103 P 
ATOM     73  O41 6GY d   1       8.522  15.454   9.634  0.00  0.00    -0.318 OA
BRANCH  72  74
ATOM     74  C3  6GY d   1      10.722  16.948   8.986  0.00  0.00    -0.022 C 
ATOM     75  H1  6GY d   1      11.290  16.466   9.795  0.00  0.00     0.038 H 
ATOM     76  H2  6GY d   1      11.037  17.998   8.892  0.00  0.00     0.038 H 
ATOM     77  H3  6GY d   1      10.913  16.421   8.039  0.00  0.00     0.038 H 
ENDBRANCH  72  74
BRANCH  72  78
ATOM     78  C37 6GY d   1       8.892  17.930  10.841  0.00  0.00    -0.022 C 
ATOM     79  H39 6GY d   1       7.857  17.995  11.209  0.00  0.00     0.038 H 
ATOM     80  H40 6GY d   1       9.254  18.937  10.586  0.00  0.00     0.038 H 
ATOM     81  H41 6GY d   1       9.533  17.497  11.623  0.00  0.00     0.038 H 
ENDBRANCH  72  78
ENDBRANCH  63  72
ENDBRANCH  60  62
ENDBRANCH  54  60
ENDBRANCH  50  52
ENDBRANCH   6  50
TORSDOF 12
