REMARK  6 active torsions:
REMARK  status: ('A' for Active; 'I' for Inactive)
REMARK    1  A    between atoms: P_1  and  O5'_4 
REMARK    2  A    between atoms: O5'_4  and  C5'_6 
REMARK    3  A    between atoms: C5'_6  and  C4'_7 
REMARK    4  A    between atoms: C1'_9  and  N9_10 
REMARK    5  A    between atoms: C2'_21  and  O2'_22 
REMARK    6  A    between atoms: C3'_23  and  O3'_24 
ROOT
ATOM      1  C4' XMP d   1      -9.203   3.179 -51.899  0.00  0.00     0.089 C 
ATOM      2  O4' XMP d   1     -10.349   2.826 -52.347  0.00  0.00    -0.353 OA
ATOM      3  C1' XMP d   1     -10.626   1.501 -51.666  0.00  0.00     0.139 C 
ATOM      4  C2' XMP d   1      -9.212   1.013 -51.112  0.00  0.00     0.105 C 
ATOM      5  C3' XMP d   1      -8.389   1.745 -51.654  0.00  0.00     0.091 C 
ATOM      6  H3  XMP d   1      -9.313   3.725 -50.951  0.00  0.00     0.090 H 
ATOM      7  H4  XMP d   1     -11.336   1.637 -50.837  0.00  0.00     0.122 H 
ATOM      8  H8  XMP d   1      -9.032  -0.040 -51.376  0.00  0.00     0.093 H 
ATOM      9  H10 XMP d   1      -8.055   1.317 -52.611  0.00  0.00     0.091 H 
ENDROOT
BRANCH   3  10
ATOM     10  N9  XMP d   1     -11.130   0.614 -52.540  0.00  0.00    -0.295 N 
ATOM     11  C4  XMP d   1     -11.876  -0.453 -52.218  0.00  0.00     0.149 A 
ATOM     12  N3  XMP d   1     -12.357  -0.987 -50.934  0.00  0.00    -0.292 N 
ATOM     13  C5  XMP d   1     -12.178  -1.074 -53.391  0.00  0.00     0.170 A 
ATOM     14  C2  XMP d   1     -13.197  -2.229 -50.831  0.00  0.00     0.328 A 
ATOM     15  H5  XMP d   1     -12.114  -0.502 -50.093  0.00  0.00     0.172 HD
ATOM     16  N1  XMP d   1     -13.493  -2.861 -52.155  0.00  0.00    -0.273 N 
ATOM     17  O2  XMP d   1     -13.587  -2.664 -49.802  0.00  0.00    -0.247 OA
ATOM     18  C6  XMP d   1     -13.005  -2.310 -53.390  0.00  0.00     0.282 A 
ATOM     19  H6  XMP d   1     -14.048  -3.693 -52.181  0.00  0.00     0.173 HD
ATOM     20  O6  XMP d   1     -13.262  -2.843 -54.411  0.00  0.00    -0.265 OA
ATOM     21  N7  XMP d   1     -11.611  -0.369 -54.384  0.00  0.00    -0.234 NA
ATOM     22  C8  XMP d   1     -10.982   0.650 -53.847  0.00  0.00     0.071 A 
ATOM     23  H7  XMP d   1     -10.425   1.407 -54.397  0.00  0.00     0.144 H 
ENDBRANCH   3  10
BRANCH   4  24
ATOM     24  O2' XMP d   1      -9.151   1.180 -49.611  0.00  0.00    -0.388 OA
ATOM     25  H9  XMP d   1      -8.305   0.886 -49.295  0.00  0.00     0.210 HD
ENDBRANCH   4  24
BRANCH   1  26
ATOM     26  C5' XMP d   1      -8.478   4.051 -52.891  0.00  0.00     0.059 C 
ATOM     27  H1  XMP d   1      -9.153   4.843 -53.246  0.00  0.00     0.079 H 
ATOM     28  H2  XMP d   1      -7.601   4.506 -52.408  0.00  0.00     0.079 H 
BRANCH  26  29
ATOM     29  O5' XMP d   1      -8.054   3.254 -53.997  0.00  0.00    -0.280 OA
BRANCH  29  30
ATOM     30  P   XMP d   1      -7.924   4.000 -55.505  0.00  0.00     0.422 P 
ATOM     31  O1P XMP d   1      -7.379   5.405 -55.327  0.00  0.00    -0.617 OA
ATOM     32  O2P XMP d   1      -9.296   4.068 -56.155  0.00  0.00    -0.617 OA
ATOM     33  O3P XMP d   1      -6.976   3.201 -56.384  0.00  0.00    -0.617 OA
ENDBRANCH  29  30
ENDBRANCH  26  29
ENDBRANCH   1  26
BRANCH   5  34
ATOM     34  O3' XMP d   1      -7.211   1.957 -50.761  0.00  0.00    -0.390 OA
ATOM     35  H11 XMP d   1      -7.498   2.361 -49.950  0.00  0.00     0.210 HD
ENDBRANCH   5  34
TORSDOF 6
