REMARK  6 active torsions:
REMARK  status: ('A' for Active; 'I' for Inactive)
REMARK    1  A    between atoms: P_1  and  O5'_5 
REMARK    2  A    between atoms: O5'_5  and  C5'_6 
REMARK    3  A    between atoms: C5'_6  and  C4'_7 
REMARK    4  A    between atoms: C3'_9  and  O3'_10 
REMARK    5  A    between atoms: C2'_11  and  O2'_12 
REMARK    6  A    between atoms: C1'_13  and  N9_14 
ROOT
ATOM      1  C4' IMP d   1      52.240   5.820  -7.408  0.00  0.00     0.089 C 
ATOM      2  O4' IMP d   1      52.343   6.849  -8.424  0.00  0.00    -0.353 OA
ATOM      3  C3' IMP d   1      51.734   4.603  -8.166  0.00  0.00     0.091 C 
ATOM      4  C2' IMP d   1      50.791   5.218  -9.193  0.00  0.00     0.105 C 
ATOM      5  C1' IMP d   1      51.505   6.533  -9.516  0.00  0.00     0.139 C 
ATOM      6  H3  IMP d   1      51.492   6.105  -6.653  0.00  0.00     0.090 H 
ATOM      7  H4  IMP d   1      52.570   4.105  -8.678  0.00  0.00     0.091 H 
ATOM      8  H6  IMP d   1      50.663   4.576 -10.077  0.00  0.00     0.093 H 
ATOM      9  H8  IMP d   1      50.755   7.326  -9.650  0.00  0.00     0.122 H 
ENDROOT
BRANCH   5  10
ATOM     10  N9  IMP d   1      52.323   6.440 -10.740  0.00  0.00    -0.295 N 
ATOM     11  C8  IMP d   1      53.607   5.974 -10.863  0.00  0.00     0.071 A 
ATOM     12  N7  IMP d   1      53.975   6.072 -12.163  0.00  0.00    -0.234 NA
ATOM     13  H9  IMP d   1      54.226   5.590 -10.053  0.00  0.00     0.144 H 
ATOM     14  C5  IMP d   1      52.947   6.596 -12.869  0.00  0.00     0.172 A 
ATOM     15  C6  IMP d   1      52.791   6.905 -14.215  0.00  0.00     0.300 A 
ATOM     16  C4  IMP d   1      51.906   6.833 -11.985  0.00  0.00     0.146 A 
ATOM     17  O6  IMP d   1      53.776   6.945 -14.950  0.00  0.00    -0.263 OA
ATOM     18  N1  IMP d   1      51.598   7.442 -14.652  0.00  0.00    -0.203 NA
ATOM     19  C2  IMP d   1      50.574   7.670 -13.756  0.00  0.00     0.069 A 
ATOM     20  N3  IMP d   1      50.739   7.361 -12.422  0.00  0.00    -0.335 N 
ATOM     21  H10 IMP d   1      49.633   8.095 -14.103  0.00  0.00     0.143 H 
ATOM     22  H11 IMP d   1      49.972   7.533 -11.756  0.00  0.00     0.168 HD
ENDBRANCH   5  10
BRANCH   4  23
ATOM     23  O2' IMP d   1      49.536   5.524  -8.604  0.00  0.00    -0.388 OA
ATOM     24  H7  IMP d   1      49.144   4.728  -8.265  0.00  0.00     0.210 HD
ENDBRANCH   4  23
BRANCH   1  25
ATOM     25  C5' IMP d   1      53.565   5.661  -6.707  0.00  0.00     0.059 C 
ATOM     26  H1  IMP d   1      54.209   6.515  -6.963  0.00  0.00     0.079 H 
ATOM     27  H2  IMP d   1      53.394   5.644  -5.620  0.00  0.00     0.079 H 
BRANCH  25  28
ATOM     28  O5' IMP d   1      54.219   4.461  -7.089  0.00  0.00    -0.280 OA
BRANCH  28  29
ATOM     29  P   IMP d   1      55.769   4.251  -6.789  0.00  0.00     0.422 P 
ATOM     30  O1P IMP d   1      56.481   5.412  -7.437  0.00  0.00    -0.617 OA
ATOM     31  O2P IMP d   1      56.117   2.851  -7.237  0.00  0.00    -0.617 OA
ATOM     32  O3P IMP d   1      55.972   4.336  -5.294  0.00  0.00    -0.617 OA
ENDBRANCH  28  29
ENDBRANCH  25  28
ENDBRANCH   1  25
BRANCH   3  33
ATOM     33  O3' IMP d   1      51.110   3.649  -7.323  0.00  0.00    -0.390 OA
ATOM     34  H5  IMP d   1      50.366   4.050  -6.889  0.00  0.00     0.210 HD
ENDBRANCH   3  33
TORSDOF 6
