REMARK  8 active torsions:
REMARK  status: ('A' for Active; 'I' for Inactive)
REMARK    1  A    between atoms: N_10  and  C15_11 
REMARK    2  A    between atoms: C18_15  and  C19_16 
REMARK    3  A    between atoms: C19_16  and  C22_17 
REMARK    4  A    between atoms: C19_16  and  C21_18 
REMARK    5  A    between atoms: C19_16  and  C20_19 
REMARK    6  A    between atoms: C6_22  and  C7_28 
REMARK    7  A    between atoms: C3_23  and  C4_24 
REMARK    8  A    between atoms: C4_24  and  C5_25 
ROOT
ATOM      1  F   K5S d   1      52.619  22.824  75.025  0.00  0.00    -0.206 F 
ATOM      2  C28 K5S d   1      52.216  21.686  74.409  0.00  0.00     0.117 A 
ATOM      3  C   K5S d   1      53.173  20.821  73.965  0.00  0.00    -0.045 A 
ATOM      4  C27 K5S d   1      50.865  21.474  74.245  0.00  0.00    -0.030 A 
ATOM      5  C26 K5S d   1      50.460  20.321  73.564  0.00  0.00     0.042 A 
ATOM      6  C2  K5S d   1      51.415  19.408  73.092  0.00  0.00    -0.035 A 
ATOM      7  C1  K5S d   1      52.764  19.682  73.294  0.00  0.00    -0.072 A 
ATOM      8  C25 K5S d   1      49.020  20.126  73.268  0.00  0.00     0.259 C 
ATOM      9  O4  K5S d   1      48.217  21.039  73.287  0.00  0.00    -0.267 OA
ATOM     10  N   K5S d   1      48.634  18.846  72.975  0.00  0.00    -0.304 N 
ATOM     11  C6  K5S d   1      49.581  17.704  72.966  0.00  0.00     0.053 C 
ATOM     12  C3  K5S d   1      50.955  18.164  72.356  0.00  0.00     0.006 C 
ATOM     13  H1  K5S d   1      54.225  21.020  74.133  0.00  0.00     0.088 H 
ATOM     14  H2  K5S d   1      50.138  22.179  74.632  0.00  0.00     0.089 H 
ATOM     15  H3  K5S d   1      53.509  18.990  72.918  0.00  0.00     0.084 H 
ATOM     16  H16 K5S d   1      49.166  16.949  72.282  0.00  0.00     0.082 H 
ATOM     17  H17 K5S d   1      51.696  17.363  72.496  0.00  0.00     0.051 H 
ENDROOT
BRANCH  10  18
ATOM     18  C15 K5S d   1      47.260  18.563  72.678  0.00  0.00     0.040 A 
ATOM     19  C24 K5S d   1      46.266  19.035  73.527  0.00  0.00    -0.035 A 
ATOM     20  C23 K5S d   1      44.940  18.749  73.259  0.00  0.00     0.043 A 
ATOM     21  H4  K5S d   1      46.529  19.626  74.397  0.00  0.00     0.089 H 
ATOM     22 CL   K5S d   1      43.759  19.518  74.272  0.00  0.00    -0.084 Cl
ATOM     23  C18 K5S d   1      44.561  17.946  72.178  0.00  0.00    -0.029 A 
ATOM     24  C17 K5S d   1      45.577  17.510  71.332  0.00  0.00    -0.072 A 
ATOM     25  C16 K5S d   1      46.906  17.817  71.563  0.00  0.00    -0.056 A 
ATOM     26  H14 K5S d   1      45.319  16.912  70.466  0.00  0.00     0.084 H 
ATOM     27  H15 K5S d   1      47.670  17.475  70.874  0.00  0.00     0.086 H 
BRANCH  23  28
ATOM     28  C19 K5S d   1      43.098  17.479  71.939  0.00  0.00    -0.022 C 
BRANCH  28  29
ATOM     29  C22 K5S d   1      42.165  18.661  71.640  0.00  0.00    -0.066 C 
ATOM     30  H5  K5S d   1      41.143  18.289  71.478  0.00  0.00     0.028 H 
ATOM     31  H6  K5S d   1      42.513  19.183  70.737  0.00  0.00     0.028 H 
ATOM     32  H7  K5S d   1      42.171  19.357  72.492  0.00  0.00     0.028 H 
ENDBRANCH  28  29
BRANCH  28  33
ATOM     33  C21 K5S d   1      42.559  16.742  73.173  0.00  0.00    -0.066 C 
ATOM     34  H8  K5S d   1      43.214  15.889  73.406  0.00  0.00     0.028 H 
ATOM     35  H9  K5S d   1      41.542  16.378  72.967  0.00  0.00     0.028 H 
ATOM     36  H10 K5S d   1      42.535  17.431  74.030  0.00  0.00     0.028 H 
ENDBRANCH  28  33
BRANCH  28  37
ATOM     37  C20 K5S d   1      42.990  16.525  70.737  0.00  0.00    -0.066 C 
ATOM     38  H11 K5S d   1      43.370  17.027  69.835  0.00  0.00     0.028 H 
ATOM     39  H12 K5S d   1      41.937  16.245  70.585  0.00  0.00     0.028 H 
ATOM     40  H13 K5S d   1      43.586  15.621  70.932  0.00  0.00     0.028 H 
ENDBRANCH  28  37
ENDBRANCH  23  28
ENDBRANCH  10  18
BRANCH  11  41
ATOM     41  C7  K5S d   1      49.712  17.025  74.313  0.00  0.00    -0.031 A 
ATOM     42  C14 K5S d   1      50.421  15.826  74.404  0.00  0.00    -0.040 A 
ATOM     43  C13 K5S d   1      50.538  15.174  75.620  0.00  0.00     0.102 A 
ATOM     44  H20 K5S d   1      50.882  15.403  73.519  0.00  0.00     0.088 H 
ATOM     45  C10 K5S d   1      49.975  15.737  76.773  0.00  0.00     0.102 A 
ATOM     46  O3  K5S d   1      51.175  13.958  75.634  0.00  0.00    -0.346 OA
ATOM     47  C9  K5S d   1      49.240  16.915  76.682  0.00  0.00    -0.047 A 
ATOM     48  O2  K5S d   1      50.218  15.225  78.024  0.00  0.00    -0.346 OA
ATOM     49  C8  K5S d   1      49.119  17.551  75.455  0.00  0.00    -0.072 A 
ATOM     50  H21 K5S d   1      48.766  17.332  77.563  0.00  0.00     0.087 H 
ATOM     51  H22 K5S d   1      48.553  18.473  75.386  0.00  0.00     0.084 H 
ATOM     52  C11 K5S d   1      51.217  14.190  78.060  0.00  0.00     0.046 C 
ATOM     53  C12 K5S d   1      51.070  13.242  76.873  0.00  0.00     0.046 C 
ATOM     54  H25 K5S d   1      52.215  14.652  78.029  0.00  0.00     0.078 H 
ATOM     55  H26 K5S d   1      51.107  13.617  78.993  0.00  0.00     0.078 H 
ATOM     56  H23 K5S d   1      51.863  12.481  76.918  0.00  0.00     0.078 H 
ATOM     57  H24 K5S d   1      50.087  12.750  76.924  0.00  0.00     0.078 H 
ENDBRANCH  11  41
BRANCH  12  58
ATOM     58  C4  K5S d   1      50.828  18.463  70.856  0.00  0.00     0.025 C 
ATOM     59  H18 K5S d   1      51.755  18.954  70.525  0.00  0.00     0.050 H 
ATOM     60  H19 K5S d   1      49.979  19.148  70.714  0.00  0.00     0.050 H 
BRANCH  58  61
ATOM     61  C5  K5S d   1      50.604  17.250  69.989  0.00  0.00     0.173 C 
ATOM     62  O1  K5S d   1      50.597  17.532  68.726  0.00  0.00    -0.648 OA
ATOM     63  O   K5S d   1      50.462  16.119  70.427  0.00  0.00    -0.648 OA
ENDBRANCH  58  61
ENDBRANCH  12  58
TORSDOF 8
