REMARK  12 active torsions:
REMARK  status: ('A' for Active; 'I' for Inactive)
REMARK    1  A    between atoms: C7_4  and  C4_1 
REMARK    2  A    between atoms: C14_2  and  C18_14 
REMARK    3  A    between atoms: C11_3  and  C10_7 
REMARK    4  A    between atoms: C7_4  and  C8_5 
REMARK    5  A    between atoms: C9_6  and  C7_4 
REMARK    6  A    between atoms: C7_4  and  O34_33 
REMARK    7  A    between atoms: C23_19  and  C13_9 
REMARK    8  A    between atoms: C2_16  and  C1_11 
REMARK    9  A    between atoms: N22_26  and  C20_17 
REMARK   10  A    between atoms: C25_20  and  C31_24 
REMARK   11  A    between atoms: C26_21  and  C27_22 
REMARK       I    between atoms: C27_22  and  N29_28 
REMARK   12  A    between atoms: N29_28  and  C30_23 
REMARK       I    between atoms: C31_24  and  N33_29 
ROOT
ATOM      1  C14 K6Y d   1      43.221  16.333  -1.422  0.00  0.00    -0.037 A 
ATOM      2  C11 K6Y d   1      42.262  18.662  -0.150  0.00  0.00     0.057 A 
ATOM      3  C12 K6Y d   1      42.335  18.584  -1.535  0.00  0.00    -0.048 A 
ATOM      4  C13 K6Y d   1      42.777  17.427  -2.169  0.00  0.00     0.018 A 
ATOM      5  C15 K6Y d   1      43.141  16.386  -0.033  0.00  0.00    -0.037 A 
ATOM      6  C16 K6Y d   1      42.642  17.521   0.563  0.00  0.00     0.135 A 
ATOM      7  F17 K6Y d   1      42.441  17.517   1.896  0.00  0.00    -0.205 F 
ATOM      8  H4  K6Y d   1      42.042  19.440  -2.132  0.00  0.00     0.087 H 
ATOM      9  H9  K6Y d   1      43.467  15.546   0.570  0.00  0.00     0.089 H 
ENDROOT
BRANCH   2  10
ATOM     10  C10 K6Y d   1      41.891  19.929   0.413  0.00  0.00    -0.060 C 
ATOM     11  C9  K6Y d   1      41.608  21.015   0.821  0.00  0.00    -0.056 C 
BRANCH  11  12
ATOM     12  C7  K6Y d   1      41.180  22.295   1.423  0.00  0.00     0.164 C 
BRANCH  12  13
ATOM     13  C4  K6Y d   1      41.857  23.502   0.778  0.00  0.00     0.110 A 
ATOM     14  C3  K6Y d   1      42.109  24.715   1.452  0.00  0.00    -0.023 A 
ATOM     15  C2  K6Y d   1      42.664  25.518   0.532  0.00  0.00     0.077 A 
ATOM     16  H5  K6Y d   1      41.898  24.949   2.494  0.00  0.00     0.090 H 
ATOM     17  O6  K6Y d   1      42.763  24.862  -0.637  0.00  0.00    -0.218 OA
ATOM     18  N5  K6Y d   1      42.238  23.562  -0.467  0.00  0.00    -0.129 NA
BRANCH  15  19
ATOM     19  C1  K6Y d   1      43.152  26.920   0.537  0.00  0.00    -0.029 C 
ATOM     20  H6  K6Y d   1      43.539  27.177  -0.460  0.00  0.00     0.036 H 
ATOM     21  H7  K6Y d   1      43.955  27.026   1.281  0.00  0.00     0.036 H 
ATOM     22  H8  K6Y d   1      42.323  27.596   0.794  0.00  0.00     0.036 H 
ENDBRANCH  15  19
ENDBRANCH  12  13
BRANCH  12  23
ATOM     23  C8  K6Y d   1      39.681  22.337   1.179  0.00  0.00    -0.032 C 
ATOM     24  H1  K6Y d   1      39.208  21.462   1.649  0.00  0.00     0.033 H 
ATOM     25  H2  K6Y d   1      39.485  22.322   0.097  0.00  0.00     0.033 H 
ATOM     26  H3  K6Y d   1      39.264  23.257   1.615  0.00  0.00     0.033 H 
ENDBRANCH  12  23
BRANCH  12  27
ATOM     27  O34 K6Y d   1      41.291  22.349   2.851  0.00  0.00    -0.372 OA
ATOM     28  H22 K6Y d   1      40.842  21.603   3.231  0.00  0.00     0.212 HD
ENDBRANCH  12  27
ENDBRANCH  11  12
ENDBRANCH   2  10
BRANCH   4  29
ATOM     29  C23 K6Y d   1      42.591  17.514  -3.628  0.00  0.00     0.142 A 
ATOM     30  N22 K6Y d   1      42.835  16.560  -4.583  0.00  0.00    -0.319 N 
ATOM     31  C26 K6Y d   1      42.384  17.117  -5.812  0.00  0.00     0.139 A 
ATOM     32  C25 K6Y d   1      41.975  18.396  -5.497  0.00  0.00     0.159 A 
ATOM     33  N24 K6Y d   1      42.092  18.625  -4.136  0.00  0.00    -0.222 NA
BRANCH  30  34
ATOM     34  C20 K6Y d   1      43.509  15.269  -4.320  0.00  0.00     0.020 C 
ATOM     35  C19 K6Y d   1      44.691  15.466  -3.343  0.00  0.00    -0.038 C 
ATOM     36  C18 K6Y d   1      43.774  15.109  -2.131  0.00  0.00    -0.024 C 
ATOM     37  H11 K6Y d   1      45.520  14.760  -3.498  0.00  0.00     0.037 H 
ATOM     38  H12 K6Y d   1      45.083  16.493  -3.318  0.00  0.00     0.037 H 
ATOM     39  C21 K6Y d   1      42.755  14.609  -3.204  0.00  0.00    -0.038 C 
ATOM     40  H10 K6Y d   1      44.165  14.365  -1.421  0.00  0.00     0.047 H 
ATOM     41  H14 K6Y d   1      41.739  15.007  -3.064  0.00  0.00     0.037 H 
ATOM     42  H15 K6Y d   1      42.711  13.513  -3.291  0.00  0.00     0.037 H 
ATOM     43  H13 K6Y d   1      43.703  14.682  -5.230  0.00  0.00     0.073 H 
ENDBRANCH  30  34
BRANCH  31  44
ATOM     44  C27 K6Y d   1      42.369  16.269  -6.991  0.00  0.00     0.270 C 
ATOM     45  N29 K6Y d   1      42.970  16.757  -8.067  0.00  0.00    -0.360 N 
ATOM     46  H19 K6Y d   1      43.449  17.633  -8.005  0.00  0.00     0.162 HD
ATOM     47  O28 K6Y d   1      41.787  15.188  -6.988  0.00  0.00    -0.266 OA
BRANCH  45  48
ATOM     48  C30 K6Y d   1      42.948  16.047  -9.333  0.00  0.00    -0.018 C 
ATOM     49  H16 K6Y d   1      43.503  16.625 -10.087  0.00  0.00     0.056 H 
ATOM     50  H17 K6Y d   1      41.907  15.918  -9.663  0.00  0.00     0.056 H 
ATOM     51  H18 K6Y d   1      43.418  15.060  -9.208  0.00  0.00     0.056 H 
ENDBRANCH  45  48
ENDBRANCH  31  44
BRANCH  32  52
ATOM     52  C31 K6Y d   1      41.627  19.438  -6.448  0.00  0.00     0.270 C 
ATOM     53  N33 K6Y d   1      41.479  20.663  -5.961  0.00  0.00    -0.365 N 
ATOM     54  H20 K6Y d   1      41.240  21.418  -6.571  0.00  0.00     0.159 HD
ATOM     55  H21 K6Y d   1      41.607  20.831  -4.984  0.00  0.00     0.159 HD
ATOM     56  O32 K6Y d   1      41.489  19.162  -7.649  0.00  0.00    -0.266 OA
ENDBRANCH  32  52
ENDBRANCH   4  29
TORSDOF 12
