REMARK  9 active torsions:
REMARK  status: ('A' for Active; 'I' for Inactive)
REMARK    1  A    between atoms: C0N_1  and  O01_2 
REMARK    2  A    between atoms: O01_2  and  C0E_3 
REMARK    3  A    between atoms: C0D_6  and  O02_7 
REMARK    4  A    between atoms: O02_7  and  C0U_8 
REMARK    5  A    between atoms: C0J_10  and  C0S_11 
REMARK    6  A    between atoms: C0H_12  and  C0G_13 
REMARK    7  A    between atoms: C0F_16  and  N05_17 
REMARK    8  A    between atoms: N04_22  and  C0K_23 
REMARK       I    between atoms: N07_27  and  C0P_28 
REMARK    9  A    between atoms: C0P_28  and  C0M_30 
ROOT
ATOM      1  C0G TZ0 d   1     -17.593 -13.148  12.345  0.00  0.00     0.148 A 
ATOM      2  N09 TZ0 d   1     -18.622 -13.998  12.271  0.00  0.00    -0.160 NA
ATOM      3  C0A TZ0 d   1     -17.814 -12.107  13.260  0.00  0.00     0.096 A 
ATOM      4  C0F TZ0 d   1     -17.104 -10.972  13.754  0.00  0.00     0.139 A 
ATOM      5  N06 TZ0 d   1     -17.715 -10.209  14.656  0.00  0.00    -0.224 NA
ATOM      6  C0L TZ0 d   1     -18.988 -10.590  15.034  0.00  0.00     0.091 A 
ATOM      7  N08 TZ0 d   1     -19.771 -11.630  14.674  0.00  0.00    -0.222 NA
ATOM      8  C0B TZ0 d   1     -19.092 -12.354  13.763  0.00  0.00     0.165 A 
ATOM      9  N04 TZ0 d   1     -19.549 -13.480  13.142  0.00  0.00    -0.244 N 
ATOM     10  H12 TZ0 d   1     -19.447  -9.927  15.759  0.00  0.00     0.146 H 
ENDROOT
BRANCH   1  11
ATOM     11  C0H TZ0 d   1     -16.383 -13.183  11.684  0.00  0.00    -0.038 C 
ATOM     12  C0S TZ0 d   1     -15.482 -13.216  11.192  0.00  0.00    -0.060 C 
BRANCH  12  13
ATOM     13  C0J TZ0 d   1     -14.299 -13.177  10.546  0.00  0.00     0.023 A 
ATOM     14  C0O TZ0 d   1     -14.148 -12.356   9.443  0.00  0.00    -0.033 A 
ATOM     15  C0E TZ0 d   1     -12.976 -12.380   8.744  0.00  0.00     0.072 A 
ATOM     16  H4  TZ0 d   1     -14.954 -11.699   9.136  0.00  0.00     0.090 H 
ATOM     17  C0C TZ0 d   1     -11.913 -13.178   9.098  0.00  0.00    -0.019 A 
ATOM     18  C0D TZ0 d   1     -12.042 -13.998  10.215  0.00  0.00     0.072 A 
ATOM     19  H5  TZ0 d   1     -10.996 -13.168   8.520  0.00  0.00     0.092 H 
ATOM     20  C0R TZ0 d   1     -13.243 -14.027  10.939  0.00  0.00    -0.033 A 
ATOM     21  H9  TZ0 d   1     -13.358 -14.692  11.787  0.00  0.00     0.090 H 
BRANCH  15  22
ATOM     22  O01 TZ0 d   1     -12.956 -11.514   7.705  0.00  0.00    -0.356 OA
BRANCH  22  23
ATOM     23  C0N TZ0 d   1     -11.763 -10.736   7.568  0.00  0.00     0.010 C 
ATOM     24  H1  TZ0 d   1     -11.857 -10.071   6.697  0.00  0.00     0.066 H 
ATOM     25  H2  TZ0 d   1     -10.902 -11.406   7.427  0.00  0.00     0.066 H 
ATOM     26  H3  TZ0 d   1     -11.613 -10.132   8.475  0.00  0.00     0.066 H 
ENDBRANCH  22  23
ENDBRANCH  15  22
BRANCH  18  27
ATOM     27  O02 TZ0 d   1     -11.025 -14.797  10.646  0.00  0.00    -0.356 OA
BRANCH  27  28
ATOM     28  C0U TZ0 d   1      -9.809 -14.777   9.864  0.00  0.00     0.010 C 
ATOM     29  H6  TZ0 d   1      -9.073 -15.459  10.314  0.00  0.00     0.066 H 
ATOM     30  H7  TZ0 d   1      -9.400 -13.756   9.847  0.00  0.00     0.066 H 
ATOM     31  H8  TZ0 d   1     -10.029 -15.101   8.836  0.00  0.00     0.066 H 
ENDBRANCH  27  28
ENDBRANCH  18  27
ENDBRANCH  12  13
ENDBRANCH   1  11
BRANCH   9  32
ATOM     32  C0K TZ0 d   1     -20.848 -14.162  13.295  0.00  0.00     0.053 C 
ATOM     33  C0I TZ0 d   1     -20.976 -15.221  12.244  0.00  0.00     0.019 C 
ATOM     34  N07 TZ0 d   1     -21.806 -14.488  11.223  0.00  0.00    -0.347 N 
ATOM     35  H14 TZ0 d   1     -21.495 -16.113  12.626  0.00  0.00     0.067 H 
ATOM     36  H15 TZ0 d   1     -19.996 -15.512  11.838  0.00  0.00     0.067 H 
ATOM     37  C0T TZ0 d   1     -22.560 -13.294  11.763  0.00  0.00    -0.000 C 
ATOM     38  C0P TZ0 d   1     -21.805 -15.022   9.963  0.00  0.00     0.242 C 
ATOM     39  C0Q TZ0 d   1     -22.072 -13.240  13.156  0.00  0.00    -0.028 C 
ATOM     40  H18 TZ0 d   1     -22.306 -12.376  11.213  0.00  0.00     0.064 H 
ATOM     41  H19 TZ0 d   1     -23.647 -13.455  11.725  0.00  0.00     0.064 H 
ATOM     42  H16 TZ0 d   1     -21.786 -12.208  13.407  0.00  0.00     0.038 H 
ATOM     43  H17 TZ0 d   1     -22.866 -13.577  13.838  0.00  0.00     0.038 H 
ATOM     44  O03 TZ0 d   1     -21.129 -16.053   9.705  0.00  0.00    -0.268 OA
ATOM     45  H13 TZ0 d   1     -20.873 -14.627  14.291  0.00  0.00     0.078 H 
BRANCH  38  46
ATOM     46  C0M TZ0 d   1     -22.610 -14.343   8.910  0.00  0.00    -0.026 C 
ATOM     47  C0V TZ0 d   1     -22.651 -14.767   7.632  0.00  0.00    -0.116 C 
ATOM     48  H21 TZ0 d   1     -23.256 -14.234   6.901  0.00  0.00     0.067 H 
ATOM     49  H22 TZ0 d   1     -22.079 -15.643   7.330  0.00  0.00     0.067 H 
ATOM     50  H20 TZ0 d   1     -23.192 -13.464   9.185  0.00  0.00     0.090 H 
ENDBRANCH  38  46
ENDBRANCH   9  32
BRANCH   4  51
ATOM     51  N05 TZ0 d   1     -15.859 -10.645  13.270  0.00  0.00    -0.383 N 
ATOM     52  H10 TZ0 d   1     -15.363  -9.822  13.640  0.00  0.00     0.157 HD
ATOM     53  H11 TZ0 d   1     -15.423 -11.223  12.538  0.00  0.00     0.157 HD
ENDBRANCH   4  51
TORSDOF 9
