REMARK  9 active torsions:
REMARK  status: ('A' for Active; 'I' for Inactive)
REMARK    1  A    between atoms: C0N_1  and  O01_2 
REMARK    2  A    between atoms: O01_2  and  C0E_3 
REMARK    3  A    between atoms: C0D_6  and  O02_7 
REMARK    4  A    between atoms: O02_7  and  C0U_8 
REMARK    5  A    between atoms: C0J_10  and  C0S_11 
REMARK    6  A    between atoms: C0H_12  and  C0G_13 
REMARK    7  A    between atoms: C0F_16  and  N05_17 
REMARK    8  A    between atoms: N04_22  and  C0K_23 
REMARK       I    between atoms: N07_27  and  C0P_28 
REMARK    9  A    between atoms: C0P_28  and  C0M_30 
ROOT
ATOM      1  C0G TZ0 d   1     -17.461  10.882  12.354  0.00  0.00     0.148 A 
ATOM      2  N09 TZ0 d   1     -18.432   9.948  12.219  0.00  0.00    -0.160 NA
ATOM      3  C0A TZ0 d   1     -17.819  11.905  13.261  0.00  0.00     0.096 A 
ATOM      4  C0F TZ0 d   1     -17.319  13.104  13.842  0.00  0.00     0.139 A 
ATOM      5  N06 TZ0 d   1     -18.065  13.797  14.711  0.00  0.00    -0.224 NA
ATOM      6  C0L TZ0 d   1     -19.281  13.289  15.013  0.00  0.00     0.091 A 
ATOM      7  N08 TZ0 d   1     -19.885  12.192  14.580  0.00  0.00    -0.222 NA
ATOM      8  C0B TZ0 d   1     -19.102  11.542  13.695  0.00  0.00     0.165 A 
ATOM      9  N04 TZ0 d   1     -19.451  10.379  13.051  0.00  0.00    -0.244 N 
ATOM     10  H12 TZ0 d   1     -19.854  13.873  15.724  0.00  0.00     0.146 H 
ENDROOT
BRANCH   1  11
ATOM     11  C0H TZ0 d   1     -16.276  10.873  11.706  0.00  0.00    -0.038 C 
ATOM     12  C0S TZ0 d   1     -15.298  10.824  11.171  0.00  0.00    -0.060 C 
BRANCH  12  13
ATOM     13  C0J TZ0 d   1     -14.078  10.883  10.479  0.00  0.00     0.023 A 
ATOM     14  C0O TZ0 d   1     -13.894  11.840   9.498  0.00  0.00    -0.033 A 
ATOM     15  C0E TZ0 d   1     -12.738  11.893   8.769  0.00  0.00     0.072 A 
ATOM     16  H4  TZ0 d   1     -14.680  12.561   9.303  0.00  0.00     0.090 H 
ATOM     17  C0C TZ0 d   1     -11.701  10.985   8.991  0.00  0.00    -0.019 A 
ATOM     18  C0D TZ0 d   1     -11.897  10.020   9.981  0.00  0.00     0.072 A 
ATOM     19  H5  TZ0 d   1     -10.781  11.027   8.418  0.00  0.00     0.092 H 
ATOM     20  C0R TZ0 d   1     -13.079   9.938  10.724  0.00  0.00    -0.033 A 
ATOM     21  H9  TZ0 d   1     -13.216   9.163  11.469  0.00  0.00     0.090 H 
BRANCH  15  22
ATOM     22  O01 TZ0 d   1     -12.752  12.929   7.848  0.00  0.00    -0.356 OA
BRANCH  22  23
ATOM     23  C0N TZ0 d   1     -11.701  12.912   6.879  0.00  0.00     0.010 C 
ATOM     24  H1  TZ0 d   1     -11.810  13.774   6.204  0.00  0.00     0.066 H 
ATOM     25  H2  TZ0 d   1     -11.755  11.981   6.296  0.00  0.00     0.066 H 
ATOM     26  H3  TZ0 d   1     -10.729  12.968   7.391  0.00  0.00     0.066 H 
ENDBRANCH  22  23
ENDBRANCH  15  22
BRANCH  18  27
ATOM     27  O02 TZ0 d   1     -10.987   9.079  10.300  0.00  0.00    -0.356 OA
BRANCH  27  28
ATOM     28  C0U TZ0 d   1      -9.622   9.143   9.890  0.00  0.00     0.010 C 
ATOM     29  H6  TZ0 d   1      -9.083   8.264  10.273  0.00  0.00     0.066 H 
ATOM     30  H7  TZ0 d   1      -9.162  10.058  10.290  0.00  0.00     0.066 H 
ATOM     31  H8  TZ0 d   1      -9.569   9.156   8.791  0.00  0.00     0.066 H 
ENDBRANCH  27  28
ENDBRANCH  18  27
ENDBRANCH  12  13
ENDBRANCH   1  11
BRANCH   9  32
ATOM     32  C0K TZ0 d   1     -20.731   9.659  13.252  0.00  0.00     0.053 C 
ATOM     33  C0I TZ0 d   1     -20.489   8.205  13.272  0.00  0.00     0.019 C 
ATOM     34  N07 TZ0 d   1     -20.756   7.842  11.854  0.00  0.00    -0.347 N 
ATOM     35  H14 TZ0 d   1     -21.181   7.691  13.956  0.00  0.00     0.067 H 
ATOM     36  H15 TZ0 d   1     -19.452   7.974  13.558  0.00  0.00     0.067 H 
ATOM     37  C0T TZ0 d   1     -21.481   8.913  11.086  0.00  0.00    -0.000 C 
ATOM     38  C0P TZ0 d   1     -20.407   6.641  11.307  0.00  0.00     0.242 C 
ATOM     39  C0Q TZ0 d   1     -21.776   9.888  12.172  0.00  0.00    -0.028 C 
ATOM     40  H18 TZ0 d   1     -20.842   9.356  10.308  0.00  0.00     0.064 H 
ATOM     41  H19 TZ0 d   1     -22.403   8.527  10.627  0.00  0.00     0.064 H 
ATOM     42  H16 TZ0 d   1     -21.707  10.917  11.788  0.00  0.00     0.038 H 
ATOM     43  H17 TZ0 d   1     -22.784   9.714  12.576  0.00  0.00     0.038 H 
ATOM     44  O03 TZ0 d   1     -20.678   6.402  10.110  0.00  0.00    -0.268 OA
ATOM     45  H13 TZ0 d   1     -21.149   9.979  14.218  0.00  0.00     0.078 H 
BRANCH  38  46
ATOM     46  C0M TZ0 d   1     -19.678   5.630  12.128  0.00  0.00    -0.026 C 
ATOM     47  C0V TZ0 d   1     -19.325   4.450  11.625  0.00  0.00    -0.116 C 
ATOM     48  H21 TZ0 d   1     -18.794   3.730  12.246  0.00  0.00     0.067 H 
ATOM     49  H22 TZ0 d   1     -19.567   4.204  10.592  0.00  0.00     0.067 H 
ATOM     50  H20 TZ0 d   1     -19.429   5.864  13.162  0.00  0.00     0.090 H 
ENDBRANCH  38  46
ENDBRANCH   9  32
BRANCH   4  51
ATOM     51  N05 TZ0 d   1     -16.127  13.583  13.532  0.00  0.00    -0.383 N 
ATOM     52  H10 TZ0 d   1     -15.792  14.453  13.969  0.00  0.00     0.157 HD
ATOM     53  H11 TZ0 d   1     -15.533  13.086  12.853  0.00  0.00     0.157 HD
ENDBRANCH   4  51
TORSDOF 9
