REMARK  7 active torsions:
REMARK  status: ('A' for Active; 'I' for Inactive)
REMARK    1  A    between atoms: C2_2  and  C1_4 
REMARK    2  A    between atoms: C1_4  and  N1_5 
REMARK    3  A    between atoms: C1_4  and  C3_6 
REMARK    4  A    between atoms: C3_6  and  C4_7 
REMARK    5  A    between atoms: C4_7  and  C6_8 
REMARK    6  A    between atoms: C4_7  and  C5_9 
REMARK    7  A    between atoms: C4_7  and  C7_10 
ROOT
ATOM      1  C4  K94 d   1     -28.664  55.764  75.476  0.00  0.00     0.014 C 
ENDROOT
BRANCH   1   2
ATOM      2  C3  K94 d   1     -29.615  55.475  76.635  0.00  0.00    -0.018 C 
ATOM      3  H5  K94 d   1     -29.222  55.976  77.532  0.00  0.00     0.038 H 
ATOM      4  H6  K94 d   1     -30.599  55.895  76.382  0.00  0.00     0.038 H 
BRANCH   2   5
ATOM      5  C1  K94 d   1     -29.800  54.004  76.960  0.00  0.00     0.183 C 
ATOM      6  H1  K94 d   1     -28.828  53.492  76.914  0.00  0.00     0.101 H 
BRANCH   5   7
ATOM      7  C2  K94 d   1     -30.360  53.919  78.344  0.00  0.00     0.204 C 
ATOM      8  O1  K94 d   1     -31.068  52.983  78.682  0.00  0.00    -0.646 OA
ATOM      9  O2  K94 d   1     -30.102  54.880  79.225  0.00  0.00    -0.646 OA
ENDBRANCH   5   7
BRANCH   5  10
ATOM     10  N1  K94 d   1     -30.740  53.351  76.017  0.00  0.00    -0.065 N 
ATOM     11  H2  K94 d   1     -30.369  53.405  75.081  0.00  0.00     0.275 HD
ATOM     12  H3  K94 d   1     -31.631  53.820  76.052  0.00  0.00     0.275 HD
ATOM     13  H4  K94 d   1     -30.859  52.384  76.276  0.00  0.00     0.275 HD
ENDBRANCH   5  10
ENDBRANCH   2   5
ENDBRANCH   1   2
BRANCH   1  14
ATOM     14  C6  K94 d   1     -28.817  54.794  74.307  0.00  0.00    -0.064 C 
ATOM     15  H7  K94 d   1     -28.104  55.061  73.513  0.00  0.00     0.028 H 
ATOM     16  H8  K94 d   1     -29.843  54.852  73.914  0.00  0.00     0.028 H 
ATOM     17  H9  K94 d   1     -28.614  53.769  74.652  0.00  0.00     0.028 H 
ENDBRANCH   1  14
BRANCH   1  18
ATOM     18  C5  K94 d   1     -27.215  55.698  75.970  0.00  0.00    -0.064 C 
ATOM     19  H10 K94 d   1     -27.084  56.391  76.814  0.00  0.00     0.028 H 
ATOM     20  H11 K94 d   1     -26.536  55.982  75.153  0.00  0.00     0.028 H 
ATOM     21  H12 K94 d   1     -26.986  54.673  76.298  0.00  0.00     0.028 H 
ENDBRANCH   1  18
BRANCH   1  22
ATOM     22  C7  K94 d   1     -29.064  57.178  75.032  0.00  0.00     0.215 C 
ATOM     23  F2  K94 d   1     -28.527  58.008  75.975  0.00  0.00    -0.214 F 
ATOM     24  F1  K94 d   1     -28.668  57.517  73.758  0.00  0.00    -0.214 F 
ATOM     25  H13 K94 d   1     -30.161  57.258  75.064  0.00  0.00     0.146 H 
ENDBRANCH   1  22
TORSDOF 7
