REMARK  10 active torsions:
REMARK  status: ('A' for Active; 'I' for Inactive)
REMARK    1  A    between atoms: C1_1  and  N7_22 
REMARK    2  A    between atoms: C3_2  and  O31_31 
REMARK    3  A    between atoms: C13_5  and  C14_6 
REMARK    4  A    between atoms: C21_11  and  C22_12 
REMARK       I    between atoms: N15_26  and  C21_11 
REMARK    5  A    between atoms: C27_15  and  C29_17 
REMARK    6  A    between atoms: C8_23  and  C5_20 
REMARK    7  A    between atoms: C10_25  and  N15_26 
REMARK    8  A    between atoms: O31_31  and  C32_32 
REMARK    9  A    between atoms: C32_32  and  C34_34 
REMARK   10  A    between atoms: C34_34  and  O35_35 
ROOT
ATOM      1  C1  K81 d   1     -41.141  25.652  -2.995  0.00  0.00     0.129 A 
ATOM      2  C3  K81 d   1     -43.120  26.901  -3.188  0.00  0.00     0.167 A 
ATOM      3  N2  K81 d   1     -41.769  26.881  -2.971  0.00  0.00    -0.207 NA
ATOM      4  C4  K81 d   1     -43.895  25.763  -3.441  0.00  0.00    -0.021 A 
ATOM      5  C5  K81 d   1     -43.218  24.518  -3.466  0.00  0.00    -0.018 A 
ATOM      6  C6  K81 d   1     -41.825  24.434  -3.243  0.00  0.00    -0.028 A 
ATOM      7  H17 K81 d   1     -44.964  25.831  -3.610  0.00  0.00     0.091 H 
ATOM      8  H18 K81 d   1     -41.304  23.484  -3.261  0.00  0.00     0.090 H 
ENDROOT
BRANCH   5   9
ATOM      9  C8  K81 d   1     -43.973  23.266  -3.697  0.00  0.00    -0.018 A 
ATOM     10  C13 K81 d   1     -44.237  22.300  -2.664  0.00  0.00    -0.051 A 
ATOM     11  C12 K81 d   1     -45.003  21.157  -2.965  0.00  0.00    -0.074 A 
ATOM     12  C11 K81 d   1     -45.467  20.915  -4.257  0.00  0.00    -0.057 A 
ATOM     13  H2  K81 d   1     -45.236  20.451  -2.176  0.00  0.00     0.084 H 
ATOM     14  C10 K81 d   1     -45.179  21.852  -5.268  0.00  0.00     0.035 A 
ATOM     15  H1  K81 d   1     -46.039  20.022  -4.479  0.00  0.00     0.086 H 
ATOM     16  C9  K81 d   1     -44.449  23.066  -5.003  0.00  0.00    -0.046 A 
ATOM     17  H19 K81 d   1     -44.274  23.798  -5.783  0.00  0.00     0.088 H 
BRANCH  10  18
ATOM     18  C14 K81 d   1     -43.668  22.441  -1.283  0.00  0.00    -0.050 C 
ATOM     19  H3  K81 d   1     -43.998  21.595  -0.662  0.00  0.00     0.033 H 
ATOM     20  H4  K81 d   1     -44.020  23.383  -0.836  0.00  0.00     0.033 H 
ATOM     21  H5  K81 d   1     -42.569  22.449  -1.338  0.00  0.00     0.033 H 
ENDBRANCH  10  18
BRANCH  14  22
ATOM     22  N15 K81 d   1     -45.582  21.500  -6.580  0.00  0.00    -0.323 N 
ATOM     23  C21 K81 d   1     -44.862  21.663  -7.729  0.00  0.00     0.256 C 
ATOM     24  O23 K81 d   1     -43.755  22.185  -7.742  0.00  0.00    -0.267 OA
ATOM     25  H20 K81 d   1     -46.489  21.089  -6.675  0.00  0.00     0.169 HD
BRANCH  23  26
ATOM     26  C22 K81 d   1     -45.500  21.180  -8.966  0.00  0.00     0.035 A 
ATOM     27  C24 K81 d   1     -46.896  21.095  -9.081  0.00  0.00    -0.051 A 
ATOM     28  C25 K81 d   1     -47.414  20.661 -10.325  0.00  0.00     0.004 A 
ATOM     29  H14 K81 d   1     -47.549  21.350  -8.254  0.00  0.00     0.087 H 
ATOM     30  N26 K81 d   1     -46.613  20.339 -11.385  0.00  0.00    -0.256 NA
ATOM     31  H15 K81 d   1     -48.489  20.581 -10.442  0.00  0.00     0.114 H 
ATOM     32  C27 K81 d   1     -45.254  20.459 -11.210  0.00  0.00     0.141 A 
ATOM     33  C28 K81 d   1     -44.656  20.847 -10.026  0.00  0.00    -0.035 A 
ATOM     34  H16 K81 d   1     -43.578  20.891  -9.925  0.00  0.00     0.088 H 
BRANCH  32  35
ATOM     35  C29 K81 d   1     -44.396  20.287 -12.472  0.00  0.00     0.434 C 
ATOM     36  F30 K81 d   1     -44.919  21.026 -13.472  0.00  0.00    -0.165 F 
ATOM     37  F33 K81 d   1     -43.120  20.708 -12.336  0.00  0.00    -0.165 F 
ATOM     38  F36 K81 d   1     -44.274  19.041 -12.942  0.00  0.00    -0.165 F 
ENDBRANCH  32  35
ENDBRANCH  23  26
ENDBRANCH  14  22
ENDBRANCH   5   9
BRANCH   2  39
ATOM     39  O31 K81 d   1     -43.751  28.131  -3.169  0.00  0.00    -0.332 OA
BRANCH  39  40
ATOM     40  C32 K81 d   1     -43.089  29.214  -2.523  0.00  0.00     0.047 C 
ATOM     41  H21 K81 d   1     -42.212  29.543  -3.100  0.00  0.00     0.078 H 
ATOM     42  H22 K81 d   1     -42.776  28.936  -1.506  0.00  0.00     0.078 H 
BRANCH  40  43
ATOM     43  C34 K81 d   1     -44.176  30.312  -2.490  0.00  0.00     0.037 C 
ATOM     44  H23 K81 d   1     -43.807  31.182  -1.927  0.00  0.00     0.077 H 
ATOM     45  H24 K81 d   1     -45.084  29.921  -2.007  0.00  0.00     0.077 H 
BRANCH  43  46
ATOM     46  O35 K81 d   1     -44.468  30.692  -3.812  0.00  0.00    -0.399 OA
ATOM     47  H25 K81 d   1     -44.784  29.937  -4.295  0.00  0.00     0.209 HD
ENDBRANCH  43  46
ENDBRANCH  40  43
ENDBRANCH  39  40
ENDBRANCH   2  39
BRANCH   1  48
ATOM     48  N7  K81 d   1     -39.737  25.639  -2.798  0.00  0.00    -0.362 N 
ATOM     49  C16 K81 d   1     -38.964  24.361  -3.021  0.00  0.00     0.016 C 
ATOM     50  C17 K81 d   1     -37.493  24.736  -3.210  0.00  0.00     0.034 C 
ATOM     51  H6  K81 d   1     -39.073  23.700  -2.149  0.00  0.00     0.067 H 
ATOM     52  H7  K81 d   1     -39.339  23.848  -3.919  0.00  0.00     0.067 H 
ATOM     53  O18 K81 d   1     -37.075  25.612  -2.162  0.00  0.00    -0.388 OA
ATOM     54  H8  K81 d   1     -37.367  25.241  -4.179  0.00  0.00     0.076 H 
ATOM     55  H9  K81 d   1     -36.879  23.824  -3.189  0.00  0.00     0.076 H 
ATOM     56  C19 K81 d   1     -37.735  26.867  -2.162  0.00  0.00     0.034 C 
ATOM     57  C20 K81 d   1     -39.205  26.595  -1.752  0.00  0.00     0.016 C 
ATOM     58  H10 K81 d   1     -37.259  27.546  -1.439  0.00  0.00     0.076 H 
ATOM     59  H11 K81 d   1     -37.698  27.315  -3.166  0.00  0.00     0.076 H 
ATOM     60  H12 K81 d   1     -39.785  27.530  -1.753  0.00  0.00     0.067 H 
ATOM     61  H13 K81 d   1     -39.249  26.137  -0.753  0.00  0.00     0.067 H 
ENDBRANCH   1  48
TORSDOF 10
