REMARK  6 active torsions:
REMARK  status: ('A' for Active; 'I' for Inactive)
REMARK    1  A    between atoms: C1_1  and  C12_5 
REMARK    2  A    between atoms: N7_23  and  C11_4 
REMARK    3  A    between atoms: C14_7  and  N18_27 
REMARK    4  A    between atoms: C17_10  and  C19_11 
REMARK    5  A    between atoms: C20_12  and  C21_13 
REMARK       I    between atoms: N18_27  and  C20_12 
REMARK    6  A    between atoms: C25_17  and  C28_19 
ROOT
ATOM      1  C12 K7S d   1     -23.800   2.934  -7.378  0.00  0.00    -0.018 A 
ATOM      2  C13 K7S d   1     -23.964   2.456  -6.069  0.00  0.00    -0.046 A 
ATOM      3  C14 K7S d   1     -25.057   1.611  -5.766  0.00  0.00     0.035 A 
ATOM      4  C15 K7S d   1     -25.961   1.212  -6.764  0.00  0.00    -0.057 A 
ATOM      5  C16 K7S d   1     -25.797   1.683  -8.070  0.00  0.00    -0.074 A 
ATOM      6  C17 K7S d   1     -24.745   2.553  -8.404  0.00  0.00    -0.051 A 
ATOM      7  H6  K7S d   1     -23.257   2.733  -5.295  0.00  0.00     0.088 H 
ATOM      8  H7  K7S d   1     -26.780   0.544  -6.523  0.00  0.00     0.086 H 
ATOM      9  H8  K7S d   1     -26.494   1.371  -8.839  0.00  0.00     0.084 H 
ENDROOT
BRANCH   1  10
ATOM     10  C1  K7S d   1     -22.626   3.773  -7.620  0.00  0.00    -0.023 A 
ATOM     11  C2  K7S d   1     -22.777   5.160  -7.868  0.00  0.00    -0.070 A 
ATOM     12  C3  K7S d   1     -21.637   5.971  -8.128  0.00  0.00    -0.054 A 
ATOM     13  H1  K7S d   1     -23.765   5.605  -7.860  0.00  0.00     0.084 H 
ATOM     14  C4  K7S d   1     -20.378   5.343  -8.123  0.00  0.00     0.065 A 
ATOM     15  H2  K7S d   1     -21.735   7.033  -8.323  0.00  0.00     0.087 H 
ATOM     16  C5  K7S d   1     -20.249   3.949  -7.847  0.00  0.00     0.064 A 
ATOM     17  N7  K7S d   1     -19.064   5.830  -8.368  0.00  0.00    -0.302 N 
ATOM     18  C6  K7S d   1     -21.362   3.152  -7.590  0.00  0.00    -0.044 A 
ATOM     19  N9  K7S d   1     -18.886   3.607  -7.923  0.00  0.00    -0.306 N 
ATOM     20  H16 K7S d   1     -21.259   2.095  -7.375  0.00  0.00     0.088 H 
ATOM     21  C8  K7S d   1     -18.133   4.748  -8.249  0.00  0.00     0.327 A 
ATOM     22  H17 K7S d   1     -18.511   2.693  -7.769  0.00  0.00     0.171 HD
ATOM     23  O10 K7S d   1     -16.906   4.776  -8.408  0.00  0.00    -0.246 OA
BRANCH  17  24
ATOM     24  C11 K7S d   1     -18.722   7.221  -8.657  0.00  0.00    -0.009 C 
ATOM     25  H3  K7S d   1     -19.640   7.825  -8.688  0.00  0.00     0.057 H 
ATOM     26  H4  K7S d   1     -18.212   7.279  -9.630  0.00  0.00     0.057 H 
ATOM     27  H5  K7S d   1     -18.056   7.606  -7.870  0.00  0.00     0.057 H 
ENDBRANCH  17  24
ENDBRANCH   1  10
BRANCH   6  28
ATOM     28  C19 K7S d   1     -24.706   3.080  -9.790  0.00  0.00    -0.050 C 
ATOM     29  H9  K7S d   1     -23.835   3.742  -9.906  0.00  0.00     0.033 H 
ATOM     30  H10 K7S d   1     -25.627   3.646  -9.993  0.00  0.00     0.033 H 
ATOM     31  H11 K7S d   1     -24.627   2.243 -10.499  0.00  0.00     0.033 H 
ENDBRANCH   6  28
BRANCH   3  32
ATOM     32  N18 K7S d   1     -25.365   1.204  -4.432  0.00  0.00    -0.323 N 
ATOM     33  C20 K7S d   1     -25.071   1.902  -3.264  0.00  0.00     0.256 C 
ATOM     34  O27 K7S d   1     -24.444   2.967  -3.237  0.00  0.00    -0.267 OA
ATOM     35  H18 K7S d   1     -25.839   0.330  -4.327  0.00  0.00     0.169 HD
BRANCH  33  36
ATOM     36  C21 K7S d   1     -25.575   1.246  -2.021  0.00  0.00     0.033 A 
ATOM     37  C22 K7S d   1     -25.929  -0.129  -1.963  0.00  0.00    -0.068 A 
ATOM     38  C23 K7S d   1     -26.493  -0.658  -0.780  0.00  0.00    -0.081 A 
ATOM     39  H12 K7S d   1     -25.767  -0.769  -2.822  0.00  0.00     0.085 H 
ATOM     40  C24 K7S d   1     -26.694   0.176   0.337  0.00  0.00    -0.068 A 
ATOM     41  H13 K7S d   1     -26.771  -1.705  -0.732  0.00  0.00     0.083 H 
ATOM     42  C25 K7S d   1     -26.316   1.539   0.266  0.00  0.00     0.048 A 
ATOM     43  H14 K7S d   1     -27.134  -0.222   1.244  0.00  0.00     0.084 H 
ATOM     44  C26 K7S d   1     -25.760   2.080  -0.899  0.00  0.00    -0.053 A 
ATOM     45  H15 K7S d   1     -25.476   3.125  -0.938  0.00  0.00     0.086 H 
BRANCH  42  46
ATOM     46  C28 K7S d   1     -26.490   2.495   1.446  0.00  0.00     0.417 C 
ATOM     47  F29 K7S d   1     -27.613   3.224   1.399  0.00  0.00    -0.166 F 
ATOM     48  F30 K7S d   1     -26.503   1.870   2.639  0.00  0.00    -0.166 F 
ATOM     49  F31 K7S d   1     -25.494   3.399   1.566  0.00  0.00    -0.166 F 
ENDBRANCH  42  46
ENDBRANCH  33  36
ENDBRANCH   3  32
TORSDOF 6
