REMARK  6 active torsions:
REMARK  status: ('A' for Active; 'I' for Inactive)
REMARK    1  A    between atoms: C12_11  and  C13_2 
REMARK    2  A    between atoms: C16_12  and  C17_3 
REMARK    3  A    between atoms: C04_6  and  C02_5 
REMARK    4  A    between atoms: C05_7  and  C04_6 
REMARK    5  A    between atoms: C06_8  and  C05_7 
REMARK       I    between atoms: N08_13  and  C06_8 
REMARK    6  A    between atoms: C09_9  and  N08_13 
ROOT
ATOM      1  C10 K8Y d   1       5.993 -15.597 -33.704  0.00  0.00    -0.056 A 
ATOM      2  C20 K8Y d   1       8.349 -15.579 -34.172  0.00  0.00    -0.040 A 
ATOM      3  C09 K8Y d   1       7.198 -16.270 -33.800  0.00  0.00     0.035 A 
ATOM      4  C11 K8Y d   1       5.923 -14.247 -33.993  0.00  0.00    -0.063 A 
ATOM      5  C12 K8Y d   1       7.057 -13.562 -34.374  0.00  0.00     0.058 A 
ATOM      6  C16 K8Y d   1       8.273 -14.226 -34.465  0.00  0.00     0.059 A 
ATOM      7  H1  K8Y d   1       5.100 -16.131 -33.401  0.00  0.00     0.086 H 
ATOM      8  H2  K8Y d   1       9.300 -16.097 -34.232  0.00  0.00     0.088 H 
ATOM      9  H7  K8Y d   1       4.975 -13.726 -33.920  0.00  0.00     0.085 H 
ENDROOT
BRANCH   3  10
ATOM     10  N08 K8Y d   1       7.211 -17.685 -33.450  0.00  0.00    -0.327 N 
ATOM     11  C06 K8Y d   1       8.160 -18.673 -33.918  0.00  0.00     0.222 C 
ATOM     12  O07 K8Y d   1       9.018 -18.401 -34.690  0.00  0.00    -0.273 OA
ATOM     13  H8  K8Y d   1       6.496 -18.004 -32.827  0.00  0.00     0.169 HD
BRANCH  11  14
ATOM     14  C05 K8Y d   1       8.006 -20.108 -33.410  0.00  0.00     0.018 C 
ATOM     15  H5  K8Y d   1       8.458 -20.180 -32.410  0.00  0.00     0.048 H 
ATOM     16  H6  K8Y d   1       6.934 -20.348 -33.347  0.00  0.00     0.048 H 
BRANCH  14  17
ATOM     17  C04 K8Y d   1       8.683 -21.120 -34.329  0.00  0.00     0.024 C 
ATOM     18  H3  K8Y d   1       9.759 -20.895 -34.381  0.00  0.00     0.049 H 
ATOM     19  H4  K8Y d   1       8.539 -22.131 -33.919  0.00  0.00     0.049 H 
BRANCH  17  20
ATOM     20  C02 K8Y d   1       8.092 -21.062 -35.736  0.00  0.00     0.172 C 
ATOM     21  O01 K8Y d   1       6.916 -20.636 -35.904  0.00  0.00    -0.648 OA
ATOM     22  O03 K8Y d   1       8.782 -21.430 -36.725  0.00  0.00    -0.648 OA
ENDBRANCH  17  20
ENDBRANCH  14  17
ENDBRANCH  11  14
ENDBRANCH   3  10
BRANCH   6  23
ATOM     23  C17 K8Y d   1       9.549 -13.494 -34.881  0.00  0.00     0.210 C 
ATOM     24  O18 K8Y d   1      10.590 -13.627 -34.187  0.00  0.00    -0.644 OA
ATOM     25  O19 K8Y d   1       9.565 -12.756 -35.902  0.00  0.00    -0.644 OA
ENDBRANCH   6  23
BRANCH   5  26
ATOM     26  C13 K8Y d   1       6.908 -12.069 -34.665  0.00  0.00     0.210 C 
ATOM     27  O14 K8Y d   1       7.670 -11.237 -34.127  0.00  0.00    -0.644 OA
ATOM     28  O15 K8Y d   1       5.987 -11.665 -35.413  0.00  0.00    -0.644 OA
ENDBRANCH   5  26
TORSDOF 6
