REMARK  7 active torsions:
REMARK  status: ('A' for Active; 'I' for Inactive)
REMARK    1  A    between atoms: N09_14  and  C10_1 
REMARK    2  A    between atoms: C13_2  and  C14_12 
REMARK    3  A    between atoms: C17_3  and  C18_13 
REMARK    4  A    between atoms: C04_6  and  C02_5 
REMARK    5  A    between atoms: C05_7  and  C04_6 
REMARK    6  A    between atoms: C06_8  and  C05_7 
REMARK    7  A    between atoms: C07_9  and  C06_8 
REMARK       I    between atoms: C07_9  and  N09_14 
ROOT
ATOM      1  C07 K8V d   1       8.259 -18.833 -34.205  0.00  0.00     0.222 C 
ATOM      2  N09 K8V d   1       7.201 -17.919 -33.820  0.00  0.00    -0.327 N 
ATOM      3  O08 K8V d   1       9.265 -18.442 -34.664  0.00  0.00    -0.273 OA
ATOM      4  H10 K8V d   1       6.376 -18.327 -33.428  0.00  0.00     0.169 HD
ENDROOT
BRANCH   2   5
ATOM      5  C10 K8V d   1       7.216 -16.468 -33.945  0.00  0.00     0.035 A 
ATOM      6  C21 K8V d   1       8.367 -15.737 -34.202  0.00  0.00    -0.040 A 
ATOM      7  C17 K8V d   1       8.300 -14.356 -34.299  0.00  0.00     0.059 A 
ATOM      8  H1  K8V d   1       9.316 -16.245 -34.327  0.00  0.00     0.088 H 
ATOM      9  C13 K8V d   1       7.085 -13.705 -34.167  0.00  0.00     0.058 A 
ATOM     10  C12 K8V d   1       5.931 -14.433 -33.922  0.00  0.00    -0.063 A 
ATOM     11  C11 K8V d   1       6.003 -15.810 -33.812  0.00  0.00    -0.056 A 
ATOM     12  H9  K8V d   1       4.978 -13.927 -33.817  0.00  0.00     0.085 H 
ATOM     13  H8  K8V d   1       5.102 -16.381 -33.620  0.00  0.00     0.086 H 
BRANCH   7  14
ATOM     14  C18 K8V d   1       9.585 -13.588 -34.590  0.00  0.00     0.210 C 
ATOM     15  O19 K8V d   1       9.631 -12.794 -35.563  0.00  0.00    -0.644 OA
ATOM     16  O20 K8V d   1      10.601 -13.754 -33.867  0.00  0.00    -0.644 OA
ENDBRANCH   7  14
BRANCH   9  17
ATOM     17  C14 K8V d   1       6.966 -12.184 -34.275  0.00  0.00     0.210 C 
ATOM     18  O15 K8V d   1       7.763 -11.439 -33.655  0.00  0.00    -0.644 OA
ATOM     19  O16 K8V d   1       6.030 -11.689 -34.945  0.00  0.00    -0.644 OA
ENDBRANCH   9  17
ENDBRANCH   2   5
BRANCH   1  20
ATOM     20  C06 K8V d   1       8.072 -20.339 -34.031  0.00  0.00     0.010 C 
ATOM     21  H6  K8V d   1       8.654 -20.679 -33.162  0.00  0.00     0.047 H 
ATOM     22  H7  K8V d   1       7.006 -20.556 -33.866  0.00  0.00     0.047 H 
BRANCH  20  23
ATOM     23  C05 K8V d   1       8.551 -21.080 -35.282  0.00  0.00    -0.048 C 
ATOM     24  H4  K8V d   1       9.149 -20.386 -35.891  0.00  0.00     0.034 H 
ATOM     25  H5  K8V d   1       9.179 -21.927 -34.967  0.00  0.00     0.034 H 
BRANCH  23  26
ATOM     26  C04 K8V d   1       7.407 -21.618 -36.143  0.00  0.00     0.016 C 
ATOM     27  H2  K8V d   1       7.053 -22.563 -35.706  0.00  0.00     0.049 H 
ATOM     28  H3  K8V d   1       6.589 -20.883 -36.139  0.00  0.00     0.049 H 
BRANCH  26  29
ATOM     29  C02 K8V d   1       7.826 -21.876 -37.592  0.00  0.00     0.172 C 
ATOM     30  O01 K8V d   1       7.390 -22.882 -38.219  0.00  0.00    -0.648 OA
ATOM     31  O03 K8V d   1       8.611 -21.077 -38.167  0.00  0.00    -0.648 OA
ENDBRANCH  26  29
ENDBRANCH  23  26
ENDBRANCH  20  23
ENDBRANCH   1  20
TORSDOF 7
