REMARK  29 active torsions:
REMARK  status: ('A' for Active; 'I' for Inactive)
REMARK    1  A    between atoms: N_1  and  CA_2 
REMARK    2  A    between atoms: CA_2  and  C_3 
REMARK    3  A    between atoms: CA_2  and  CB_5 
REMARK       I    between atoms: C_3  and  N_9 
REMARK    4  A    between atoms: CB_5  and  CG_6 
REMARK       I    between atoms: CG_6  and  ND2_8 
REMARK    5  A    between atoms: N_9  and  CA_10 
REMARK    6  A    between atoms: CA_10  and  C_11 
REMARK    7  A    between atoms: CA_10  and  CB_13 
REMARK       I    between atoms: C_11  and  N_20 
REMARK    8  A    between atoms: CB_13  and  CG_14 
REMARK    9  A    between atoms: CG_14  and  CD_15 
REMARK   10  A    between atoms: CD_15  and  NE_16 
REMARK       I    between atoms: NE_16  and  CZ_17 
REMARK       I    between atoms: CZ_17  and  NH1_18 
REMARK   11  A    between atoms: N_20  and  CA_21 
REMARK   12  A    between atoms: CA_21  and  C_22 
REMARK   13  A    between atoms: CA_21  and  CB_24 
REMARK       I    between atoms: C_22  and  N_34 
REMARK   14  A    between atoms: CB_24  and  CG_25 
REMARK   15  A    between atoms: N_34  and  CA_35 
REMARK   16  A    between atoms: CA_35  and  C_36 
REMARK   17  A    between atoms: CA_35  and  CB_38 
REMARK       I    between atoms: C_36  and  N_42 
REMARK   18  A    between atoms: CB_38  and  CG_39 
REMARK   19  A    between atoms: N_42  and  CA_43 
REMARK   20  A    between atoms: CA_43  and  C_44 
REMARK   21  A    between atoms: CA_43  and  CB_46 
REMARK       I    between atoms: C_44  and  N_51 
REMARK   22  A    between atoms: CB_46  and  CG_47 
REMARK   23  A    between atoms: CG_47  and  CD_48 
REMARK   24  A    between atoms: N_51  and  CA_52 
REMARK   25  A    between atoms: CA_52  and  C_53 
REMARK   26  A    between atoms: CA_52  and  CB_55 
REMARK       I    between atoms: C_53  and  N_58 
REMARK   27  A    between atoms: CB_55  and  OG1_56 
REMARK   28  A    between atoms: CB_55  and  CG2_57 
REMARK   29  A    between atoms: CA_59  and  C_60 
ROOT
ATOM      1  CA  ASN d   1      14.752 -20.548  11.425  0.00  0.00     0.093 C 
ATOM      2  H23 ASN d   1      14.911 -19.586  10.917  0.00  0.00     0.088 H 
ENDROOT
BRANCH   1   3
ATOM      3  N   ASN d   1      16.006 -20.941  12.048  0.00  0.00    -0.346 N 
ATOM      4  C   ASN d   1      16.616 -20.093  12.871  0.00  0.00     0.241 C 
ATOM      5  O   ASN d   1      16.113 -19.003  13.159  0.00  0.00    -0.271 OA
ATOM      6  H22 ASN d   1      16.405 -21.838  11.860  0.00  0.00     0.163 HD
BRANCH   4   7
ATOM      7  CA  ASN d   1      17.949 -20.498  13.502  0.00  0.00     0.089 C 
ATOM      8  H10 ASN d   1      17.804 -20.538  14.592  0.00  0.00     0.087 H 
BRANCH   7   9
ATOM      9  N   ASN d   1      18.420 -21.804  13.065  0.00  0.00    -0.346 N 
ATOM     10  C   ASN d   1      18.090 -22.916  13.709  0.00  0.00     0.249 C 
ATOM     11  O   ASN d   1      17.357 -22.917  14.696  0.00  0.00    -0.271 OA
ATOM     12  H9  ASN d   1      19.008 -21.865  12.258  0.00  0.00     0.163 HD
BRANCH  10  13
ATOM     13  CA  ASN d   1      18.657 -24.216  13.139  0.00  0.00     0.183 C 
ATOM     14  H4  ASN d   1      19.752 -24.121  13.086  0.00  0.00     0.099 H 
BRANCH  13  15
ATOM     15  N   ASN d   1      18.335 -25.337  14.003  0.00  0.00    -0.066 N 
ATOM     16  H1  ASN d   1      18.717 -26.184  13.611  0.00  0.00     0.275 HD
ATOM     17  H2  ASN d   1      17.334 -25.424  14.081  0.00  0.00     0.275 HD
ATOM     18  H3  ASN d   1      18.731 -25.181  14.917  0.00  0.00     0.275 HD
ENDBRANCH  13  15
BRANCH  13  19
ATOM     19  CB  ASN d   1      18.123 -24.469  11.717  0.00  0.00     0.044 C 
ATOM     20  H5  ASN d   1      18.568 -25.400  11.336  0.00  0.00     0.051 H 
ATOM     21  H6  ASN d   1      18.425 -23.629  11.075  0.00  0.00     0.051 H 
BRANCH  19  22
ATOM     22  CG  ASN d   1      16.608 -24.599  11.664  0.00  0.00     0.217 C 
ATOM     23  OD1 ASN d   1      15.877 -23.782  12.225  0.00  0.00    -0.274 OA
ATOM     24  ND2 ASN d   1      16.130 -25.639  10.984  0.00  0.00    -0.370 N 
ATOM     25  H7  ASN d   1      15.142 -25.779  10.913  0.00  0.00     0.159 HD
ATOM     26  H8  ASN d   1      16.759 -26.280  10.544  0.00  0.00     0.159 HD
ENDBRANCH  19  22
ENDBRANCH  13  19
ENDBRANCH  10  13
ENDBRANCH   7   9
BRANCH   7  27
ATOM     27  CB  ASN d   1      19.020 -19.451  13.194  0.00  0.00    -0.036 C 
ATOM     28  H11 ASN d   1      18.680 -18.477  13.575  0.00  0.00     0.036 H 
ATOM     29  H12 ASN d   1      19.152 -19.392  12.104  0.00  0.00     0.036 H 
BRANCH  27  30
ATOM     30  CG  ASN d   1      20.366 -19.782  13.831  0.00  0.00    -0.048 C 
ATOM     31  H13 ASN d   1      20.684 -20.778  13.490  0.00  0.00     0.035 H 
ATOM     32  H14 ASN d   1      20.249 -19.789  14.925  0.00  0.00     0.035 H 
BRANCH  30  33
ATOM     33  CD  ASN d   1      21.439 -18.770  13.459  0.00  0.00     0.009 C 
ATOM     34  H15 ASN d   1      21.088 -17.769  13.750  0.00  0.00     0.064 H 
ATOM     35  H16 ASN d   1      21.586 -18.805  12.369  0.00  0.00     0.064 H 
BRANCH  33  36
ATOM     36  NE  ASN d   1      22.731 -19.014  14.108  0.00  0.00    -0.227 N 
ATOM     37  CZ  ASN d   1      23.520 -20.063  13.871  0.00  0.00     0.665 C 
ATOM     38  NH1 ASN d   1      23.160 -21.020  13.016  0.00  0.00    -0.235 N 
ATOM     39  NH2 ASN d   1      24.676 -20.167  14.504  0.00  0.00    -0.235 N 
ATOM     40  H18 ASN d   1      23.784 -21.822  12.848  0.00  0.00     0.174 HD
ATOM     41  H19 ASN d   1      22.257 -20.958  12.524  0.00  0.00     0.174 HD
ATOM     42  H20 ASN d   1      24.967 -19.435  15.168  0.00  0.00     0.174 HD
ATOM     43  H21 ASN d   1      25.285 -20.980  14.334  0.00  0.00     0.174 HD
ATOM     44  H17 ASN d   1      23.054 -18.323  14.800  0.00  0.00     0.177 HD
ENDBRANCH  33  36
ENDBRANCH  30  33
ENDBRANCH  27  30
ENDBRANCH   7  27
ENDBRANCH   4   7
ENDBRANCH   1   3
BRANCH   1  45
ATOM     45  C   ASN d   1      13.668 -20.349  12.478  0.00  0.00     0.241 C 
ATOM     46  O   ASN d   1      13.533 -21.137  13.417  0.00  0.00    -0.271 OA
ATOM     47  N   ASN d   1      12.933 -19.248  12.342  0.00  0.00    -0.345 N 
ATOM     48  H32 ASN d   1      13.217 -18.584  11.650  0.00  0.00     0.163 HD
BRANCH  47  49
ATOM     49  CA  ASN d   1      11.749 -18.940  13.125  0.00  0.00     0.098 C 
ATOM     50  H33 ASN d   1      11.259 -18.072  12.659  0.00  0.00     0.088 H 
BRANCH  49  51
ATOM     51  C   ASN d   1      12.080 -18.560  14.560  0.00  0.00     0.241 C 
ATOM     52  O   ASN d   1      11.167 -18.462  15.386  0.00  0.00    -0.271 OA
ATOM     53  N   ASN d   1      13.356 -18.324  14.870  0.00  0.00    -0.346 N 
ATOM     54  H36 ASN d   1      14.058 -18.467  14.172  0.00  0.00     0.163 HD
BRANCH  53  55
ATOM     55  CA  ASN d   1      13.759 -17.864  16.195  0.00  0.00     0.090 C 
ATOM     56  H37 ASN d   1      13.224 -18.449  16.958  0.00  0.00     0.087 H 
BRANCH  55  57
ATOM     57  C   ASN d   1      13.393 -16.392  16.331  0.00  0.00     0.241 C 
ATOM     58  O   ASN d   1      13.805 -15.564  15.505  0.00  0.00    -0.271 OA
ATOM     59  N   ASN d   1      12.642 -16.066  17.369  0.00  0.00    -0.344 N 
ATOM     60  H42 ASN d   1      12.308 -16.794  17.968  0.00  0.00     0.163 HD
BRANCH  59  61
ATOM     61  CA  ASN d   1      12.281 -14.689  17.676  0.00  0.00     0.114 C 
ATOM     62  H43 ASN d   1      12.306 -14.099  16.748  0.00  0.00     0.091 H 
BRANCH  61  63
ATOM     63  C   ASN d   1      13.282 -14.094  18.654  0.00  0.00     0.246 C 
ATOM     64  O   ASN d   1      14.153 -14.789  19.181  0.00  0.00    -0.271 OA
ATOM     65  N   ASN d   1      13.205 -12.778  18.908  0.00  0.00    -0.336 N 
ATOM     66  CA  ASN d   1      14.096 -12.137  19.886  0.00  0.00     0.098 C 
ATOM     67  CD  ASN d   1      12.335 -11.802  18.228  0.00  0.00    -0.001 C 
ATOM     68  CB  ASN d   1      13.663 -10.669  19.845  0.00  0.00    -0.035 C 
ATOM     69  H49 ASN d   1      15.146 -12.244  19.574  0.00  0.00     0.089 H 
ATOM     70  CG  ASN d   1      12.997 -10.490  18.511  0.00  0.00    -0.048 C 
ATOM     71  H50 ASN d   1      14.537 -10.007  19.931  0.00  0.00     0.036 H 
ATOM     72  H51 ASN d   1      12.957 -10.453  20.660  0.00  0.00     0.036 H 
ATOM     73  H52 ASN d   1      13.742 -10.258  17.735  0.00  0.00     0.035 H 
ATOM     74  H53 ASN d   1      12.251  -9.683  18.557  0.00  0.00     0.035 H 
ATOM     75  H54 ASN d   1      11.317 -11.826  18.643  0.00  0.00     0.064 H 
ATOM     76  H55 ASN d   1      12.295 -11.997  17.146  0.00  0.00     0.064 H 
BRANCH  66  77
ATOM     77  C   ASN d   1      13.938 -12.705  21.299  0.00  0.00     0.196 C 
ATOM     78  O   ASN d   1      12.948 -13.398  21.529  0.00  0.00    -0.646 OA
ATOM     79  OXT ASN d   1      14.810 -12.436  22.124  0.00  0.00    -0.646 OA
ENDBRANCH  66  77
ENDBRANCH  61  63
BRANCH  61  80
ATOM     80  CB  ASN d   1      10.863 -14.647  18.244  0.00  0.00     0.060 C 
ATOM     81  H44 ASN d   1      10.734 -13.720  18.822  0.00  0.00     0.086 H 
BRANCH  80  82
ATOM     82  OG1 ASN d   1      10.655 -15.774  19.109  0.00  0.00    -0.393 OA
ATOM     83  H45 ASN d   1      10.774 -16.577  18.615  0.00  0.00     0.210 HD
ENDBRANCH  80  82
BRANCH  80  84
ATOM     84  CG2 ASN d   1       9.847 -14.674  17.114  0.00  0.00    -0.050 C 
ATOM     85  H46 ASN d   1       8.831 -14.643  17.534  0.00  0.00     0.031 H 
ATOM     86  H47 ASN d   1       9.974 -15.597  16.529  0.00  0.00     0.031 H 
ATOM     87  H48 ASN d   1      10.001 -13.802  16.462  0.00  0.00     0.031 H 
ENDBRANCH  80  84
ENDBRANCH  61  80
ENDBRANCH  59  61
ENDBRANCH  55  57
BRANCH  55  88
ATOM     88  CB  ASN d   1      15.263 -18.026  16.407  0.00  0.00    -0.029 C 
ATOM     89  H38 ASN d   1      15.587 -17.245  17.110  0.00  0.00     0.037 H 
ATOM     90  H39 ASN d   1      15.755 -17.872  15.436  0.00  0.00     0.037 H 
BRANCH  88  91
ATOM     91  CG  ASN d   1      15.731 -19.359  16.953  0.00  0.00     0.018 C 
ATOM     92  H40 ASN d   1      15.430 -20.157  16.258  0.00  0.00     0.049 H 
ATOM     93  H41 ASN d   1      15.262 -19.530  17.933  0.00  0.00     0.049 H 
BRANCH  91  94
ATOM     94  CD  ASN d   1      17.240 -19.387  17.115  0.00  0.00     0.172 C 
ATOM     95  OE1 ASN d   1      17.811 -20.497  17.172  0.00  0.00    -0.648 OA
ATOM     96  OE2 ASN d   1      17.853 -18.295  17.171  0.00  0.00    -0.648 OA
ENDBRANCH  91  94
ENDBRANCH  88  91
ENDBRANCH  55  88
ENDBRANCH  53  55
ENDBRANCH  49  51
BRANCH  49  97
ATOM     97  CB  ASN d   1      10.767 -20.114  13.080  0.00  0.00     0.043 C 
ATOM     98  H34 ASN d   1       9.844 -19.830  13.606  0.00  0.00     0.052 H 
ATOM     99  H35 ASN d   1      11.222 -20.982  13.580  0.00  0.00     0.052 H 
BRANCH  97 100
ATOM    100  CG  ASN d   1      10.424 -20.492  11.646  0.00  0.00     0.175 C 
ATOM    101  OD1 ASN d   1       9.974 -19.594  10.901  0.00  0.00    -0.648 OA
ATOM    102  OD2 ASN d   1      10.664 -21.648  11.249  0.00  0.00    -0.648 OA
ENDBRANCH  97 100
ENDBRANCH  49  97
ENDBRANCH  47  49
ENDBRANCH   1  45
BRANCH   1 103
ATOM    103  CB  ASN d   1      14.321 -21.575  10.367  0.00  0.00    -0.012 C 
ATOM    104  H24 ASN d   1      13.266 -21.408  10.103  0.00  0.00     0.044 H 
ATOM    105  H25 ASN d   1      14.442 -22.591  10.772  0.00  0.00     0.044 H 
BRANCH 103 106
ATOM    106  CG  ASN d   1      15.161 -21.424   9.157  0.00  0.00    -0.028 A 
ATOM    107  CD1 ASN d   1      16.146 -22.256   8.720  0.00  0.00    -0.015 A 
ATOM    108  NE1 ASN d   1      16.751 -21.725   7.593  0.00  0.00    -0.365 N 
ATOM    109  H26 ASN d   1      16.418 -23.201   9.188  0.00  0.00     0.112 H 
ATOM    110  CE2 ASN d   1      16.139 -20.540   7.289  0.00  0.00     0.042 A 
ATOM    111  H27 ASN d   1      17.531 -22.151   7.072  0.00  0.00     0.165 HD
ATOM    112  CD2 ASN d   1      15.144 -20.314   8.259  0.00  0.00    -0.002 A 
ATOM    113  CZ2 ASN d   1      16.386 -19.643   6.256  0.00  0.00    -0.056 A 
ATOM    114  CE3 ASN d   1      14.378 -19.151   8.180  0.00  0.00    -0.070 A 
ATOM    115  CZ3 ASN d   1      14.633 -18.257   7.155  0.00  0.00    -0.082 A 
ATOM    116  H28 ASN d   1      13.599 -18.952   8.907  0.00  0.00     0.084 H 
ATOM    117  CH2 ASN d   1      15.619 -18.520   6.204  0.00  0.00    -0.081 A 
ATOM    118  H30 ASN d   1      14.059 -17.340   7.090  0.00  0.00     0.083 H 
ATOM    119  H31 ASN d   1      15.779 -17.810   5.401  0.00  0.00     0.083 H 
ATOM    120  H29 ASN d   1      17.160 -19.831   5.520  0.00  0.00     0.086 H 
ENDBRANCH 103 106
ENDBRANCH   1 103
TORSDOF 29
