REMARK  18 active torsions:
REMARK  status: ('A' for Active; 'I' for Inactive)
REMARK    1  A    between atoms: N_1  and  CA_2 
REMARK    2  A    between atoms: CA_2  and  C_3 
REMARK    3  A    between atoms: CA_2  and  CB_5 
REMARK       I    between atoms: C_3  and  N_7 
REMARK    4  A    between atoms: CB_5  and  OG_6 
REMARK    5  A    between atoms: N_7  and  CA_8 
REMARK    6  A    between atoms: CA_8  and  C_9 
REMARK    7  A    between atoms: CA_8  and  CB_11 
REMARK       I    between atoms: C_9  and  N_18 
REMARK    8  A    between atoms: CB_11  and  CG_12 
REMARK    9  A    between atoms: CG_12  and  CD_13 
REMARK   10  A    between atoms: CD_13  and  NE_14 
REMARK       I    between atoms: NE_14  and  CZ_15 
REMARK       I    between atoms: CZ_15  and  NH1_16 
REMARK   11  A    between atoms: N_18  and  CA_19 
REMARK   12  A    between atoms: CA_19  and  C_20 
REMARK   13  A    between atoms: CA_19  and  CB_22 
REMARK       I    between atoms: C_20  and  N_32 
REMARK   14  A    between atoms: CB_22  and  CG_23 
REMARK   15  A    between atoms: N_32  and  CA_33 
REMARK   16  A    between atoms: CA_33  and  C_34 
REMARK   17  A    between atoms: CA_33  and  CB_36 
REMARK   18  A    between atoms: CB_36  and  CG_37 
ROOT
ATOM      1  C   SER d   1      12.418  -5.365 -12.895  0.00  0.00     0.241 C 
ATOM      2  O   SER d   1      11.321  -4.939 -13.093  0.00  0.00    -0.271 OA
ATOM      3  N   SER d   1      13.320  -4.677 -12.220  0.00  0.00    -0.346 N 
ATOM      4  H21 SER d   1      14.271  -4.985 -12.227  0.00  0.00     0.163 HD
ENDROOT
BRANCH   1   5
ATOM      5  CA  SER d   1      12.859  -6.706 -13.491  0.00  0.00     0.089 C 
ATOM      6  H9  SER d   1      12.722  -6.655 -14.581  0.00  0.00     0.087 H 
BRANCH   5   7
ATOM      7  N   SER d   1      14.220  -7.068 -13.219  0.00  0.00    -0.346 N 
ATOM      8  C   SER d   1      15.134  -6.857 -14.129  0.00  0.00     0.251 C 
ATOM      9  O   SER d   1      14.856  -6.312 -15.169  0.00  0.00    -0.271 OA
ATOM     10  H8  SER d   1      14.467  -7.478 -12.341  0.00  0.00     0.163 HD
BRANCH   8  11
ATOM     11  CA  SER d   1      16.581  -7.258 -13.806  0.00  0.00     0.195 C 
ATOM     12  H4  SER d   1      16.557  -8.025 -13.018  0.00  0.00     0.102 H 
BRANCH  11  13
ATOM     13  N   SER d   1      17.298  -7.804 -14.948  0.00  0.00    -0.064 N 
ATOM     14  H1  SER d   1      18.236  -8.046 -14.671  0.00  0.00     0.275 HD
ATOM     15  H2  SER d   1      17.332  -7.116 -15.684  0.00  0.00     0.275 HD
ATOM     16  H3  SER d   1      16.823  -8.628 -15.280  0.00  0.00     0.275 HD
ENDBRANCH  11  13
BRANCH  11  17
ATOM     17  CB  SER d   1      17.320  -6.043 -13.289  0.00  0.00     0.051 C 
ATOM     18  H5  SER d   1      17.244  -5.233 -14.029  0.00  0.00     0.077 H 
ATOM     19  H6  SER d   1      18.378  -6.303 -13.136  0.00  0.00     0.077 H 
BRANCH  17  20
ATOM     20  OG  SER d   1      16.776  -5.609 -12.079  0.00  0.00    -0.398 OA
ATOM     21  H7  SER d   1      17.254  -4.847 -11.773  0.00  0.00     0.209 HD
ENDBRANCH  17  20
ENDBRANCH  11  17
ENDBRANCH   8  11
ENDBRANCH   5   7
BRANCH   5  22
ATOM     22  CB  SER d   1      11.996  -7.813 -12.920  0.00  0.00    -0.036 C 
ATOM     23  H10 SER d   1      11.004  -7.759 -13.392  0.00  0.00     0.036 H 
ATOM     24  H11 SER d   1      11.896  -7.652 -11.836  0.00  0.00     0.036 H 
BRANCH  22  25
ATOM     25  CG  SER d   1      12.553  -9.187 -13.145  0.00  0.00    -0.048 C 
ATOM     26  H12 SER d   1      13.609  -9.201 -12.838  0.00  0.00     0.035 H 
ATOM     27  H13 SER d   1      12.479  -9.434 -14.214  0.00  0.00     0.035 H 
BRANCH  25  28
ATOM     28  CD  SER d   1      11.809 -10.201 -12.362  0.00  0.00     0.009 C 
ATOM     29  H14 SER d   1      10.915  -9.725 -11.934  0.00  0.00     0.064 H 
ATOM     30  H15 SER d   1      12.458 -10.560 -11.549  0.00  0.00     0.064 H 
BRANCH  28  31
ATOM     31  NE  SER d   1      11.392 -11.334 -13.148  0.00  0.00    -0.227 N 
ATOM     32  CZ  SER d   1      12.211 -12.153 -13.757  0.00  0.00     0.665 C 
ATOM     33  NH1 SER d   1      13.503 -11.947 -13.699  0.00  0.00    -0.235 N 
ATOM     34  NH2 SER d   1      11.725 -13.165 -14.432  0.00  0.00    -0.235 N 
ATOM     35  H17 SER d   1      14.149 -12.591 -14.178  0.00  0.00     0.174 HD
ATOM     36  H18 SER d   1      13.873 -11.141 -13.175  0.00  0.00     0.174 HD
ATOM     37  H19 SER d   1      10.707 -13.317 -14.470  0.00  0.00     0.174 HD
ATOM     38  H20 SER d   1      12.361 -13.809 -14.924  0.00  0.00     0.174 HD
ATOM     39  H16 SER d   1      10.381 -11.511 -13.237  0.00  0.00     0.177 HD
ENDBRANCH  28  31
ENDBRANCH  25  28
ENDBRANCH  22  25
ENDBRANCH   5  22
ENDBRANCH   1   5
BRANCH   3  40
ATOM     40  CA  SER d   1      12.972  -3.498 -11.476  0.00  0.00     0.093 C 
ATOM     41  H22 SER d   1      12.126  -3.769 -10.827  0.00  0.00     0.088 H 
BRANCH  40  42
ATOM     42  C   SER d   1      12.509  -2.352 -12.348  0.00  0.00     0.241 C 
ATOM     43  O   SER d   1      13.133  -2.068 -13.327  0.00  0.00    -0.271 OA
ATOM     44  N   SER d   1      11.454  -1.666 -11.913  0.00  0.00    -0.344 N 
ATOM     45  H31 SER d   1      11.099  -1.911 -11.011  0.00  0.00     0.163 HD
BRANCH  44  46
ATOM     46  CA  SER d   1      10.766  -0.596 -12.617  0.00  0.00     0.105 C 
ATOM     47  H32 SER d   1       9.764  -0.613 -12.162  0.00  0.00     0.090 H 
BRANCH  46  48
ATOM     48  C   SER d   1      10.464  -0.745 -14.118  0.00  0.00     0.197 C 
ATOM     49  O   SER d   1      10.453   0.214 -14.859  0.00  0.00    -0.646 OA
ATOM     50  OXT SER d   1      10.227  -1.826 -14.611  0.00  0.00    -0.646 OA
ENDBRANCH  46  48
BRANCH  46  51
ATOM     51  CB  SER d   1      11.304   0.780 -12.279  0.00  0.00     0.044 C 
ATOM     52  H33 SER d   1      11.684   1.252 -13.197  0.00  0.00     0.053 H 
ATOM     53  H34 SER d   1      12.124   0.676 -11.553  0.00  0.00     0.053 H 
BRANCH  51  54
ATOM     54  CG  SER d   1      10.217   1.668 -11.677  0.00  0.00     0.175 C 
ATOM     55  OD1 SER d   1       9.204   1.119 -11.188  0.00  0.00    -0.648 OA
ATOM     56  OD2 SER d   1      10.357   2.909 -11.720  0.00  0.00    -0.648 OA
ENDBRANCH  51  54
ENDBRANCH  46  51
ENDBRANCH  44  46
ENDBRANCH  40  42
BRANCH  40  57
ATOM     57  CB  SER d   1      14.116  -3.059 -10.573  0.00  0.00    -0.012 C 
ATOM     58  H23 SER d   1      13.998  -1.995 -10.318  0.00  0.00     0.044 H 
ATOM     59  H24 SER d   1      15.074  -3.208 -11.092  0.00  0.00     0.044 H 
BRANCH  57  60
ATOM     60  CG  SER d   1      14.091  -3.847  -9.374  0.00  0.00    -0.028 A 
ATOM     61  CD1 SER d   1      14.936  -4.840  -9.035  0.00  0.00    -0.015 A 
ATOM     62  NE1 SER d   1      14.549  -5.399  -7.876  0.00  0.00    -0.365 N 
ATOM     63  H25 SER d   1      15.806  -5.145  -9.615  0.00  0.00     0.112 H 
ATOM     64  CE2 SER d   1      13.413  -4.780  -7.455  0.00  0.00     0.042 A 
ATOM     65  H26 SER d   1      15.031  -6.167  -7.388  0.00  0.00     0.165 HD
ATOM     66  CD2 SER d   1      13.097  -3.809  -8.392  0.00  0.00    -0.002 A 
ATOM     67  CZ2 SER d   1      12.659  -4.983  -6.345  0.00  0.00    -0.056 A 
ATOM     68  CE3 SER d   1      11.982  -3.024  -8.190  0.00  0.00    -0.070 A 
ATOM     69  CZ3 SER d   1      11.248  -3.232  -7.106  0.00  0.00    -0.082 A 
ATOM     70  H27 SER d   1      11.711  -2.253  -8.902  0.00  0.00     0.084 H 
ATOM     71  CH2 SER d   1      11.574  -4.201  -6.190  0.00  0.00    -0.081 A 
ATOM     72  H29 SER d   1      10.368  -2.622  -6.939  0.00  0.00     0.083 H 
ATOM     73  H30 SER d   1      10.942  -4.340  -5.320  0.00  0.00     0.083 H 
ATOM     74  H28 SER d   1      12.919  -5.741  -5.615  0.00  0.00     0.086 H 
ENDBRANCH  57  60
ENDBRANCH  40  57
ENDBRANCH   3  40
TORSDOF 18
