REMARK  8 active torsions:
REMARK  status: ('A' for Active; 'I' for Inactive)
REMARK    1  A    between atoms: O18_23  and  C17_3 
REMARK    2  A    between atoms: C19_24  and  C20_4 
REMARK       I    between atoms: C02_10  and  N03_11 
REMARK       I    between atoms: N13_20  and  C02_10 
REMARK    3  A    between atoms: N03_11  and  C04_12 
REMARK    4  A    between atoms: C04_12  and  C05_13 
REMARK    5  A    between atoms: C05_13  and  C06_14 
REMARK    6  A    between atoms: C06_14  and  C07_15 
REMARK    7  A    between atoms: C14_21  and  N13_20 
REMARK    8  A    between atoms: O18_23  and  C19_24 
ROOT
ATOM      1  C15 K9V d   1       7.493  89.467 103.710  0.00  0.00    -0.044 C 
ATOM      2  C17 K9V d   1       5.283  89.715 102.411  0.00  0.00     0.039 C 
ATOM      3  C28 K9V d   1       5.415  88.192 102.345  0.00  0.00    -0.039 C 
ATOM      4  C14 K9V d   1       6.823  88.368 104.507  0.00  0.00     0.014 C 
ATOM      5  C16 K9V d   1       6.436  90.406 103.136  0.00  0.00    -0.039 C 
ATOM      6  C29 K9V d   1       5.964  87.496 103.597  0.00  0.00    -0.044 C 
ATOM      7  H2  K9V d   1       8.071  89.021 102.887  0.00  0.00     0.036 H 
ATOM      8  H3  K9V d   1       8.168  90.035 104.367  0.00  0.00     0.036 H 
ATOM      9  H4  K9V d   1       4.329  89.974 102.892  0.00  0.00     0.083 H 
ATOM     10  H6  K9V d   1       6.086  87.951 101.508  0.00  0.00     0.036 H 
ATOM     11  H7  K9V d   1       4.416  87.779 102.144  0.00  0.00     0.036 H 
ATOM     12  H20 K9V d   1       6.178  88.805 105.284  0.00  0.00     0.072 H 
ATOM     13  H21 K9V d   1       6.931  91.082 102.423  0.00  0.00     0.036 H 
ATOM     14  H22 K9V d   1       6.014  90.993 103.965  0.00  0.00     0.036 H 
ATOM     15  H27 K9V d   1       6.575  86.642 103.270  0.00  0.00     0.036 H 
ATOM     16  H28 K9V d   1       5.109  87.131 104.185  0.00  0.00     0.036 H 
ENDROOT
BRANCH   4  17
ATOM     17  N13 K9V d   1       7.907  87.633 105.131  0.00  0.00    -0.339 N 
ATOM     18  C02 K9V d   1       7.746  86.769 106.305  0.00  0.00     0.316 C 
ATOM     19  O01 K9V d   1       6.700  86.597 106.834  0.00  0.00    -0.247 OA
ATOM     20  N03 K9V d   1       8.932  86.108 106.839  0.00  0.00    -0.343 N 
ATOM     21  H8  K9V d   1       9.829  86.236 106.417  0.00  0.00     0.164 HD
ATOM     22  H19 K9V d   1       8.821  87.721 104.736  0.00  0.00     0.164 HD
BRANCH  20  23
ATOM     23  C04 K9V d   1       8.765  85.256 108.007  0.00  0.00    -0.003 C 
ATOM     24  H9  K9V d   1       8.005  84.490 107.793  0.00  0.00     0.064 H 
ATOM     25  H10 K9V d   1       8.438  85.868 108.860  0.00  0.00     0.064 H 
BRANCH  23  26
ATOM     26  C05 K9V d   1      10.086  84.574 108.352  0.00  0.00    -0.046 C 
ATOM     27  H11 K9V d   1       9.924  83.879 109.189  0.00  0.00     0.035 H 
ATOM     28  H12 K9V d   1      10.820  85.339 108.647  0.00  0.00     0.035 H 
BRANCH  26  29
ATOM     29  C06 K9V d   1      10.627  83.799 107.159  0.00  0.00    -0.040 C 
ATOM     30  H13 K9V d   1      11.060  84.494 106.425  0.00  0.00     0.040 H 
ATOM     31  H14 K9V d   1       9.817  83.224 106.686  0.00  0.00     0.040 H 
BRANCH  29  32
ATOM     32  C07 K9V d   1      11.692  82.862 107.672  0.00  0.00    -0.058 A 
ATOM     33  C08 K9V d   1      12.089  82.979 108.997  0.00  0.00    -0.077 A 
ATOM     34  C09 K9V d   1      13.052  82.116 109.499  0.00  0.00    -0.082 A 
ATOM     35  H15 K9V d   1      11.650  83.738 109.634  0.00  0.00     0.084 H 
ATOM     36  C10 K9V d   1      13.609  81.149 108.671  0.00  0.00    -0.083 A 
ATOM     37  H16 K9V d   1      13.369  82.196 110.533  0.00  0.00     0.083 H 
ATOM     38  C11 K9V d   1      13.208  81.037 107.342  0.00  0.00    -0.082 A 
ATOM     39  H1  K9V d   1      14.363  80.476 109.063  0.00  0.00     0.083 H 
ATOM     40  C12 K9V d   1      12.240  81.894 106.836  0.00  0.00    -0.077 A 
ATOM     41  H17 K9V d   1      13.651  80.281 106.703  0.00  0.00     0.083 H 
ATOM     42  H18 K9V d   1      11.916  81.810 105.805  0.00  0.00     0.084 H 
ENDBRANCH  29  32
ENDBRANCH  26  29
ENDBRANCH  23  26
ENDBRANCH  20  23
ENDBRANCH   4  17
BRANCH   2  43
ATOM     43  O18 K9V d   1       5.342  90.221 101.100  0.00  0.00    -0.381 OA
BRANCH  43  44
ATOM     44  C19 K9V d   1       4.146  90.365 100.385  0.00  0.00     0.050 C 
ATOM     45  H23 K9V d   1       3.315  89.879 100.917  0.00  0.00     0.082 H 
ATOM     46  H24 K9V d   1       3.911  91.429 100.233  0.00  0.00     0.082 H 
BRANCH  44  47
ATOM     47  C20 K9V d   1       4.408  89.671  99.042  0.00  0.00     0.043 A 
ATOM     48  C21 K9V d   1       5.692  89.669  98.498  0.00  0.00     0.127 A 
ATOM     49  F22 K9V d   1       6.712  90.290  99.157  0.00  0.00    -0.205 F 
ATOM     50  C23 K9V d   1       5.945  89.034  97.288  0.00  0.00    -0.045 A 
ATOM     51  C24 K9V d   1       4.910  88.390  96.620  0.00  0.00    -0.077 A 
ATOM     52  H25 K9V d   1       6.944  89.041  96.867  0.00  0.00     0.088 H 
ATOM     53  C25 K9V d   1       3.626  88.385  97.159  0.00  0.00    -0.045 A 
ATOM     54  H5  K9V d   1       5.103  87.891  95.677  0.00  0.00     0.083 H 
ATOM     55  C26 K9V d   1       3.374  89.027  98.368  0.00  0.00     0.127 A 
ATOM     56  H26 K9V d   1       2.822  87.880  96.636  0.00  0.00     0.088 H 
ATOM     57  F27 K9V d   1       2.110  89.020  98.894  0.00  0.00    -0.205 F 
ENDBRANCH  44  47
ENDBRANCH  43  44
ENDBRANCH   2  43
TORSDOF 8
