REMARK  8 active torsions:
REMARK  status: ('A' for Active; 'I' for Inactive)
REMARK    1  A    between atoms: N4_16  and  C5_1 
REMARK    2  A    between atoms: C8_4  and  C11_18 
REMARK    3  A    between atoms: O19_25  and  C20_7 
REMARK    4  A    between atoms: C22_9  and  N23_26 
REMARK    5  A    between atoms: C24_10  and  C26_11 
REMARK       I    between atoms: N23_26  and  C24_10 
REMARK    6  A    between atoms: N2_14  and  C1_13 
REMARK    7  A    between atoms: C3_15  and  N4_16 
REMARK    8  A    between atoms: C18_24  and  O19_25 
ROOT
ATOM      1  C17 KAV d   1      14.529 135.763   3.140  0.00  0.00    -0.020 A 
ATOM      2  N2  KAV d   1      12.834 135.050   0.106  0.00  0.00    -0.183 N 
ATOM      3  C3  KAV d   1      13.988 135.608  -0.367  0.00  0.00     0.708 A 
ATOM      4  N15 KAV d   1      14.744 135.937   0.640  0.00  0.00    -0.062 NA
ATOM      5  C16 KAV d   1      14.148 135.633   1.791  0.00  0.00     0.106 A 
ATOM      6  C18 KAV d   1      13.661 135.315   4.142  0.00  0.00     0.080 A 
ATOM      7  C32 KAV d   1      12.405 134.748   3.804  0.00  0.00    -0.048 A 
ATOM      8  C33 KAV d   1      12.012 134.620   2.484  0.00  0.00    -0.051 A 
ATOM      9  C34 KAV d   1      12.896 135.065   1.479  0.00  0.00     0.081 A 
ATOM     10  H4  KAV d   1      15.484 136.205   3.400  0.00  0.00     0.091 H 
ATOM     11  H18 KAV d   1      11.743 134.410   4.593  0.00  0.00     0.087 H 
ATOM     12  H19 KAV d   1      11.050 134.189   2.229  0.00  0.00     0.087 H 
ENDROOT
BRANCH   6  13
ATOM     13  O19 KAV d   1      13.992 135.480   5.480  0.00  0.00    -0.292 OA
BRANCH  13  14
ATOM     14  C20 KAV d   1      14.910 134.794   6.153  0.00  0.00     0.174 A 
ATOM     15  C21 KAV d   1      15.085 135.109   7.484  0.00  0.00     0.013 A 
ATOM     16  C22 KAV d   1      16.015 134.319   8.183  0.00  0.00     0.135 A 
ATOM     17  H5  KAV d   1      14.540 135.915   7.962  0.00  0.00     0.096 H 
ATOM     18  N29 KAV d   1      16.724 133.356   7.518  0.00  0.00    -0.224 NA
ATOM     19  C30 KAV d   1      16.543 133.111   6.234  0.00  0.00     0.091 A 
ATOM     20  N31 KAV d   1      15.634 133.829   5.559  0.00  0.00    -0.217 NA
ATOM     21  H17 KAV d   1      17.120 132.342   5.733  0.00  0.00     0.146 H 
BRANCH  16  22
ATOM     22  N23 KAV d   1      16.316 134.514   9.560  0.00  0.00    -0.311 N 
ATOM     23  C24 KAV d   1      16.076 135.584  10.342  0.00  0.00     0.227 C 
ATOM     24  O25 KAV d   1      15.485 136.540   9.920  0.00  0.00    -0.273 OA
ATOM     25  H14 KAV d   1      16.771 133.747  10.012  0.00  0.00     0.170 HD
BRANCH  23  26
ATOM     26  C26 KAV d   1      16.528 135.602  11.776  0.00  0.00     0.024 A 
ATOM     27  C28 KAV d   1      15.992 136.708  12.674  0.00  0.00    -0.053 A 
ATOM     28  C27 KAV d   1      17.432 136.772  12.153  0.00  0.00    -0.053 A 
ATOM     29  H7  KAV d   1      15.800 136.508  13.739  0.00  0.00     0.034 H 
ATOM     30  H8  KAV d   1      15.237 137.410  12.291  0.00  0.00     0.034 H 
ATOM     31  H15 KAV d   1      17.711 137.519  11.395  0.00  0.00     0.034 H 
ATOM     32  H16 KAV d   1      18.275 136.617  12.843  0.00  0.00     0.034 H 
ATOM     33  H6  KAV d   1      16.696 134.585  12.161  0.00  0.00     0.054 H 
ENDBRANCH  23  26
ENDBRANCH  16  22
ENDBRANCH  13  14
ENDBRANCH   6  13
BRANCH   3  34
ATOM     34  N4  KAV d   1      14.300 135.790  -1.734  0.00  0.00    -0.190 N 
ATOM     35  H12 KAV d   1      13.495 135.851  -2.374  0.00  0.00     0.184 HD
BRANCH  34  36
ATOM     36  C5  KAV d   1      15.597 135.901  -2.347  0.00  0.00     0.049 A 
ATOM     37  C6  KAV d   1      16.707 135.231  -1.817  0.00  0.00    -0.056 A 
ATOM     38  C7  KAV d   1      17.971 135.275  -2.367  0.00  0.00    -0.066 A 
ATOM     39  H1  KAV d   1      16.564 134.641  -0.919  0.00  0.00     0.086 H 
ATOM     40  C8  KAV d   1      18.099 136.037  -3.505  0.00  0.00     0.048 A 
ATOM     41  H2  KAV d   1      18.809 134.744  -1.931  0.00  0.00     0.084 H 
ATOM     42  C9  KAV d   1      17.036 136.739  -4.093  0.00  0.00    -0.066 A 
ATOM     43  C10 KAV d   1      15.780 136.678  -3.514  0.00  0.00    -0.056 A 
ATOM     44  H13 KAV d   1      17.197 137.323  -4.992  0.00  0.00     0.084 H 
ATOM     45  H3  KAV d   1      14.948 137.219  -3.950  0.00  0.00     0.086 H 
BRANCH  40  46
ATOM     46  C11 KAV d   1      19.440 136.115  -4.135  0.00  0.00     0.417 C 
ATOM     47  F12 KAV d   1      19.617 135.187  -5.105  0.00  0.00    -0.166 F 
ATOM     48  F13 KAV d   1      19.415 137.294  -4.782  0.00  0.00    -0.166 F 
ATOM     49  F14 KAV d   1      20.492 135.928  -3.260  0.00  0.00    -0.166 F 
ENDBRANCH  40  46
ENDBRANCH  34  36
ENDBRANCH   3  34
BRANCH   2  50
ATOM     50  C1  KAV d   1      11.687 134.510  -0.636  0.00  0.00     0.003 C 
ATOM     51  H9  KAV d   1      11.870 134.609  -1.716  0.00  0.00     0.058 H 
ATOM     52  H10 KAV d   1      10.779 135.069  -0.365  0.00  0.00     0.058 H 
ATOM     53  H11 KAV d   1      11.553 133.448  -0.382  0.00  0.00     0.058 H 
ENDBRANCH   2  50
TORSDOF 8
