REMARK  8 active torsions:
REMARK  status: ('A' for Active; 'I' for Inactive)
REMARK    1  A    between atoms: C2_16  and  N1_1 
REMARK    2  A    between atoms: C8_6  and  C5_4 
REMARK    3  A    between atoms: C10_7  and  C9_18 
REMARK    4  A    between atoms: N16_22  and  C15_9 
REMARK    5  A    between atoms: S17_23  and  C20_10 
REMARK    6  A    between atoms: C25_27  and  C26_14 
REMARK    7  A    between atoms: C26_14  and  O27_28 
REMARK    8  A    between atoms: N16_22  and  S17_23 
ROOT
ATOM      1  C10 KA4 d   1      -2.283 -15.670  15.803  0.00  0.00     0.097 A 
ATOM      2  C13 KA4 d   1      -1.094 -14.080  14.456  0.00  0.00    -0.042 A 
ATOM      3  C15 KA4 d   1      -2.616 -15.637  13.429  0.00  0.00     0.083 A 
ATOM      4  C11 KA4 d   1      -1.369 -14.615  15.707  0.00  0.00     0.138 A 
ATOM      5  F12 KA4 d   1      -0.776 -14.111  16.816  0.00  0.00    -0.204 F 
ATOM      6  C14 KA4 d   1      -1.713 -14.588  13.319  0.00  0.00    -0.051 A 
ATOM      7  C30 KA4 d   1      -2.884 -16.170  14.660  0.00  0.00     0.165 A 
ATOM      8  F31 KA4 d   1      -3.747 -17.188  14.727  0.00  0.00    -0.202 F 
ATOM      9  H5  KA4 d   1      -0.391 -13.260  14.365  0.00  0.00     0.088 H 
ATOM     10  H10 KA4 d   1      -1.490 -14.165  12.346  0.00  0.00     0.087 H 
ENDROOT
BRANCH   3  11
ATOM     11  N16 KA4 d   1      -3.303 -16.229  12.369  0.00  0.00    -0.277 N 
ATOM     12  H11 KA4 d   1      -3.932 -16.968  12.612  0.00  0.00     0.179 HD
BRANCH  11  13
ATOM     13  S17 KA4 d   1      -3.206 -15.859  10.759  0.00  0.00     0.265 S 
ATOM     14  O18 KA4 d   1      -1.807 -15.581  10.488  0.00  0.00    -0.200 OA
ATOM     15  O19 KA4 d   1      -3.937 -16.918  10.158  0.00  0.00    -0.200 OA
BRANCH  13  16
ATOM     16  C20 KA4 d   1      -4.188 -14.422  10.505  0.00  0.00     0.103 A 
ATOM     17  C21 KA4 d   1      -3.533 -13.289  10.096  0.00  0.00    -0.038 A 
ATOM     18  C22 KA4 d   1      -4.245 -12.135   9.907  0.00  0.00     0.036 A 
ATOM     19  H6  KA4 d   1      -2.463 -13.307   9.924  0.00  0.00     0.088 H 
ATOM     20  C24 KA4 d   1      -5.606 -12.084  10.097  0.00  0.00    -0.052 A 
ATOM     21 CL1  KA4 d   1      -3.406 -10.723   9.414  0.00  0.00    -0.084 Cl
ATOM     22  C25 KA4 d   1      -6.277 -13.216  10.502  0.00  0.00    -0.010 A 
ATOM     23  H7  KA4 d   1      -6.146 -11.159   9.929  0.00  0.00     0.087 H 
ATOM     24  C28 KA4 d   1      -5.561 -14.394  10.719  0.00  0.00     0.065 A 
ATOM     25 CL2  KA4 d   1      -6.419 -15.813  11.245  0.00  0.00    -0.082 Cl
BRANCH  22  26
ATOM     26  C26 KA4 d   1      -7.777 -13.132  10.706  0.00  0.00     0.042 C 
ATOM     27  H8  KA4 d   1      -8.011 -13.388  11.750  0.00  0.00     0.081 H 
ATOM     28  H9  KA4 d   1      -8.270 -13.849  10.033  0.00  0.00     0.081 H 
BRANCH  26  29
ATOM     29  O27 KA4 d   1      -8.273 -11.814  10.427  0.00  0.00    -0.396 OA
ATOM     30  H12 KA4 d   1      -8.079 -11.588   9.525  0.00  0.00     0.209 HD
ENDBRANCH  26  29
ENDBRANCH  22  26
ENDBRANCH  13  16
ENDBRANCH  11  13
ENDBRANCH   3  11
BRANCH   1  31
ATOM     31  C9  KA4 d   1      -2.607 -16.268  17.046  0.00  0.00    -0.055 C 
ATOM     32  C8  KA4 d   1      -2.873 -16.772  18.073  0.00  0.00    -0.058 C 
BRANCH  32  33
ATOM     33  C5  KA4 d   1      -3.218 -17.361  19.333  0.00  0.00     0.054 A 
ATOM     34  C4  KA4 d   1      -2.544 -18.468  19.872  0.00  0.00     0.040 A 
ATOM     35  N3  KA4 d   1      -2.941 -18.950  21.038  0.00  0.00    -0.074 NA
ATOM     36  H3  KA4 d   1      -1.713 -18.920  19.342  0.00  0.00     0.118 H 
ATOM     37  C2  KA4 d   1      -3.958 -18.381  21.684  0.00  0.00     0.719 A 
ATOM     38  N7  KA4 d   1      -4.621 -17.333  21.210  0.00  0.00    -0.074 NA
ATOM     39  C6  KA4 d   1      -4.281 -16.799  20.059  0.00  0.00     0.040 A 
ATOM     40  H4  KA4 d   1      -4.814 -15.937  19.675  0.00  0.00     0.118 H 
BRANCH  37  41
ATOM     41  N1  KA4 d   1      -4.360 -18.872  22.905  0.00  0.00    -0.231 N 
ATOM     42  H1  KA4 d   1      -3.879 -19.684  23.317  0.00  0.00     0.174 HD
ATOM     43  H2  KA4 d   1      -5.142 -18.428  23.407  0.00  0.00     0.174 HD
ENDBRANCH  37  41
ENDBRANCH  32  33
ENDBRANCH   1  31
TORSDOF 8
