REMARK  8 active torsions:
REMARK  status: ('A' for Active; 'I' for Inactive)
REMARK    1  A    between atoms: C10_6  and  C2_11 
REMARK    2  A    between atoms: C17_9  and  N22_22 
REMARK    3  A    between atoms: C1_10  and  C9_13 
REMARK    4  A    between atoms: N23_23  and  C11_14 
REMARK    5  A    between atoms: S29_29  and  C14_16 
REMARK    6  A    between atoms: C16_17  and  O26_26 
REMARK    7  A    between atoms: O26_26  and  C18_18 
REMARK    8  A    between atoms: N23_23  and  S29_29 
ROOT
ATOM      1  C4  KA7 d   1      -0.692 -14.180  14.751  0.00  0.00    -0.042 A 
ATOM      2  C10 KA7 d   1      -1.944 -15.734  16.109  0.00  0.00     0.097 A 
ATOM      3  C13 KA7 d   1      -2.558 -16.176  14.965  0.00  0.00     0.165 A 
ATOM      4  C3  KA7 d   1      -1.323 -14.626  13.607  0.00  0.00    -0.051 A 
ATOM      5  C11 KA7 d   1      -2.259 -15.631  13.742  0.00  0.00     0.083 A 
ATOM      6  C12 KA7 d   1      -1.009 -14.734  15.988  0.00  0.00     0.138 A 
ATOM      7  F27 KA7 d   1      -0.410 -14.297  17.091  0.00  0.00    -0.204 F 
ATOM      8  F28 KA7 d   1      -3.472 -17.149  15.006  0.00  0.00    -0.202 F 
ATOM      9  H1  KA7 d   1       0.053 -13.395  14.686  0.00  0.00     0.088 H 
ATOM     10  H6  KA7 d   1      -1.091 -14.202  12.637  0.00  0.00     0.087 H 
ENDROOT
BRANCH   5  11
ATOM     11  N23 KA7 d   1      -3.029 -16.212  12.700  0.00  0.00    -0.277 N 
ATOM     12  H12 KA7 d   1      -3.736 -16.880  12.935  0.00  0.00     0.179 HD
BRANCH  11  13
ATOM     13  S29 KA7 d   1      -2.790 -15.812  11.075  0.00  0.00     0.267 S 
ATOM     14  O24 KA7 d   1      -1.389 -15.600  10.713  0.00  0.00    -0.200 OA
ATOM     15  O25 KA7 d   1      -3.532 -16.838  10.387  0.00  0.00    -0.200 OA
BRANCH  13  16
ATOM     16  C14 KA7 d   1      -3.668 -14.302  10.725  0.00  0.00     0.134 A 
ATOM     17  C5  KA7 d   1      -2.948 -13.220  10.240  0.00  0.00    -0.034 A 
ATOM     18  C15 KA7 d   1      -3.658 -12.074   9.952  0.00  0.00     0.053 A 
ATOM     19  H2  KA7 d   1      -1.875 -13.273  10.094  0.00  0.00     0.088 H 
ATOM     20  C8  KA7 d   1      -5.024 -12.074  10.168  0.00  0.00     0.026 A 
ATOM     21 CL   KA7 d   1      -2.856 -10.652   9.356  0.00  0.00    -0.083 Cl
ATOM     22  N19 KA7 d   1      -5.743 -13.108  10.632  0.00  0.00    -0.234 NA
ATOM     23  H5  KA7 d   1      -5.561 -11.159   9.943  0.00  0.00     0.117 H 
ATOM     24  C16 KA7 d   1      -5.038 -14.217  10.893  0.00  0.00     0.187 A 
BRANCH  24  25
ATOM     25  O26 KA7 d   1      -5.685 -15.345  11.365  0.00  0.00    -0.338 OA
BRANCH  25  26
ATOM     26  C18 KA7 d   1      -7.077 -15.080  11.594  0.00  0.00     0.012 C 
ATOM     27  H7  KA7 d   1      -7.567 -15.991  11.968  0.00  0.00     0.067 H 
ATOM     28  H8  KA7 d   1      -7.551 -14.769  10.651  0.00  0.00     0.067 H 
ATOM     29  H9  KA7 d   1      -7.180 -14.277  12.338  0.00  0.00     0.067 H 
ENDBRANCH  25  26
ENDBRANCH  24  25
ENDBRANCH  13  16
ENDBRANCH  11  13
ENDBRANCH   5  11
BRANCH   2  30
ATOM     30  C2  KA7 d   1      -2.305 -16.306  17.346  0.00  0.00    -0.055 C 
ATOM     31  C1  KA7 d   1      -2.651 -16.777  18.394  0.00  0.00    -0.058 C 
BRANCH  31  32
ATOM     32  C9  KA7 d   1      -2.955 -17.339  19.678  0.00  0.00     0.054 A 
ATOM     33  C6  KA7 d   1      -2.236 -18.392  20.198  0.00  0.00     0.040 A 
ATOM     34  N20 KA7 d   1      -2.512 -18.934  21.389  0.00  0.00    -0.074 NA
ATOM     35  H3  KA7 d   1      -1.414 -18.797  19.619  0.00  0.00     0.118 H 
ATOM     36  C17 KA7 d   1      -3.523 -18.396  22.080  0.00  0.00     0.719 A 
ATOM     37  N21 KA7 d   1      -4.278 -17.367  21.664  0.00  0.00    -0.074 NA
ATOM     38  C7  KA7 d   1      -3.975 -16.859  20.466  0.00  0.00     0.040 A 
ATOM     39  H4  KA7 d   1      -4.563 -16.026  20.096  0.00  0.00     0.118 H 
BRANCH  36  40
ATOM     40  N22 KA7 d   1      -3.822 -18.935  23.325  0.00  0.00    -0.231 N 
ATOM     41  H10 KA7 d   1      -3.272 -19.726  23.689  0.00  0.00     0.174 HD
ATOM     42  H11 KA7 d   1      -4.594 -18.544  23.884  0.00  0.00     0.174 HD
ENDBRANCH  36  40
ENDBRANCH  31  32
ENDBRANCH   2  30
TORSDOF 8
