REMARK  8 active torsions:
REMARK  status: ('A' for Active; 'I' for Inactive)
REMARK    1  A    between atoms: C10_1  and  O09_15 
REMARK    2  A    between atoms: N14_18  and  C13_2 
REMARK       I    between atoms: C15_3  and  N14_18 
REMARK       I    between atoms: N17_20  and  C15_3 
REMARK    3  A    between atoms: C21_5  and  O22_23 
REMARK    4  A    between atoms: N02_8  and  C01_7 
REMARK       I    between atoms: C03_9  and  N02_8 
REMARK    5  A    between atoms: C05_11  and  C03_9 
REMARK    6  A    between atoms: O09_15  and  C08_14 
REMARK    7  A    between atoms: N17_20  and  C18_21 
REMARK    8  A    between atoms: O22_23  and  C23_24 
ROOT
ATOM      1  C10 KC4 d   1      56.144  12.495  14.865  0.00  0.00     0.045 C 
ATOM      2  C13 KC4 d   1      57.037  11.529  17.472  0.00  0.00     0.014 C 
ATOM      3  C11 KC4 d   1      55.418  11.364  15.584  0.00  0.00    -0.038 C 
ATOM      4  C12 KC4 d   1      56.381  10.590  16.473  0.00  0.00    -0.044 C 
ATOM      5  C29 KC4 d   1      57.785  12.642  16.765  0.00  0.00    -0.044 C 
ATOM      6  C30 KC4 d   1      56.900  13.422  15.809  0.00  0.00    -0.038 C 
ATOM      7  H1  KC4 d   1      56.862  12.056  14.157  0.00  0.00     0.084 H 
ATOM      8  H2  KC4 d   1      56.298  11.913  18.191  0.00  0.00     0.072 H 
ATOM      9  H11 KC4 d   1      54.985  10.681  14.839  0.00  0.00     0.036 H 
ATOM     10  H12 KC4 d   1      54.614  11.787  16.204  0.00  0.00     0.036 H 
ATOM     11  H13 KC4 d   1      55.828   9.809  17.016  0.00  0.00     0.036 H 
ATOM     12  H14 KC4 d   1      57.157  10.123  15.849  0.00  0.00     0.036 H 
ATOM     13  H19 KC4 d   1      58.617  12.202  16.196  0.00  0.00     0.036 H 
ATOM     14  H20 KC4 d   1      58.184  13.335  17.521  0.00  0.00     0.036 H 
ATOM     15  H21 KC4 d   1      56.174  14.008  16.392  0.00  0.00     0.036 H 
ATOM     16  H22 KC4 d   1      57.528  14.102  15.215  0.00  0.00     0.036 H 
ENDROOT
BRANCH   2  17
ATOM     17  N14 KC4 d   1      58.116  10.839  18.099  0.00  0.00    -0.338 N 
ATOM     18  C15 KC4 d   1      58.091   9.543  18.723  0.00  0.00     0.321 C 
ATOM     19  O16 KC4 d   1      57.122   8.859  18.834  0.00  0.00    -0.247 OA
ATOM     20  N17 KC4 d   1      59.415   9.228  19.211  0.00  0.00    -0.309 N 
ATOM     21  H16 KC4 d   1      60.107   9.935  19.064  0.00  0.00     0.170 HD
ATOM     22  H15 KC4 d   1      58.996  11.313  18.106  0.00  0.00     0.164 HD
BRANCH  20  23
ATOM     23  C18 KC4 d   1      59.876   8.041  19.878  0.00  0.00     0.036 A 
ATOM     24  C28 KC4 d   1      59.530   6.811  19.359  0.00  0.00    -0.054 A 
ATOM     25  C27 KC4 d   1      59.995   5.667  19.968  0.00  0.00    -0.048 A 
ATOM     26  H4  KC4 d   1      58.898   6.745  18.480  0.00  0.00     0.087 H 
ATOM     27  C21 KC4 d   1      60.806   5.773  21.083  0.00  0.00     0.078 A 
ATOM     28  H18 KC4 d   1      59.728   4.692  19.577  0.00  0.00     0.087 H 
ATOM     29  C20 KC4 d   1      61.177   7.005  21.595  0.00  0.00    -0.048 A 
ATOM     30  C19 KC4 d   1      60.714   8.147  20.973  0.00  0.00    -0.054 A 
ATOM     31  H3  KC4 d   1      61.818   7.071  22.467  0.00  0.00     0.087 H 
ATOM     32  H17 KC4 d   1      61.006   9.124  21.342  0.00  0.00     0.087 H 
BRANCH  27  33
ATOM     33  O22 KC4 d   1      61.273   4.606  21.664  0.00  0.00    -0.255 OA
BRANCH  33  34
ATOM     34  C23 KC4 d   1      62.440   4.214  21.006  0.00  0.00     0.530 C 
ATOM     35  F24 KC4 d   1      62.876   5.214  20.185  0.00  0.00    -0.144 F 
ATOM     36  F25 KC4 d   1      63.395   3.967  21.944  0.00  0.00    -0.144 F 
ATOM     37  F26 KC4 d   1      62.203   3.115  20.235  0.00  0.00    -0.144 F 
ENDBRANCH  33  34
ENDBRANCH  27  33
ENDBRANCH  20  23
ENDBRANCH   2  17
BRANCH   1  38
ATOM     38  O09 KC4 d   1      55.198  13.245  14.166  0.00  0.00    -0.346 OA
BRANCH  38  39
ATOM     39  C08 KC4 d   1      55.238  12.808  12.844  0.00  0.00     0.069 A 
ATOM     40  C07 KC4 d   1      56.446  12.804  12.167  0.00  0.00    -0.050 A 
ATOM     41  C06 KC4 d   1      56.488  12.365  10.859  0.00  0.00    -0.065 A 
ATOM     42  H10 KC4 d   1      57.350  13.143  12.660  0.00  0.00     0.087 H 
ATOM     43  C05 KC4 d   1      55.319  11.932  10.261  0.00  0.00     0.032 A 
ATOM     44  H9  KC4 d   1      57.422  12.360  10.309  0.00  0.00     0.085 H 
ATOM     45  C32 KC4 d   1      54.112  11.935  10.934  0.00  0.00    -0.065 A 
ATOM     46  C31 KC4 d   1      54.072  12.372  12.241  0.00  0.00    -0.050 A 
ATOM     47  H24 KC4 d   1      53.208  11.598  10.440  0.00  0.00     0.085 H 
ATOM     48  H23 KC4 d   1      53.137  12.374  12.790  0.00  0.00     0.087 H 
BRANCH  43  49
ATOM     49  C03 KC4 d   1      55.332  11.453   8.824  0.00  0.00     0.251 C 
ATOM     50  N02 KC4 d   1      56.290  12.028   7.902  0.00  0.00    -0.361 N 
ATOM     51  H8  KC4 d   1      56.934  12.726   8.215  0.00  0.00     0.162 HD
ATOM     52  O04 KC4 d   1      54.547  10.635   8.482  0.00  0.00    -0.268 OA
BRANCH  50  53
ATOM     53  C01 KC4 d   1      56.309  11.585   6.524  0.00  0.00    -0.018 C 
ATOM     54  H5  KC4 d   1      57.094  12.126   5.976  0.00  0.00     0.056 H 
ATOM     55  H6  KC4 d   1      55.332  11.788   6.060  0.00  0.00     0.056 H 
ATOM     56  H7  KC4 d   1      56.515  10.505   6.489  0.00  0.00     0.056 H 
ENDBRANCH  50  53
ENDBRANCH  43  49
ENDBRANCH  38  39
ENDBRANCH   1  38
TORSDOF 8
