REMARK  22 active torsions:
REMARK  status: ('A' for Active; 'I' for Inactive)
REMARK    1  A    between atoms: C2_2  and  O3_22 
REMARK    2  A    between atoms: C3_3  and  C17_18 
REMARK    3  A    between atoms: C4_4  and  S2_25 
REMARK    4  A    between atoms: S2_25  and  C5_5 
REMARK    5  A    between atoms: N1_12  and  C6_6 
REMARK    6  A    between atoms: C7_7  and  C8_8 
REMARK    7  A    between atoms: C7_7  and  C9_9 
REMARK    8  A    between atoms: N1_12  and  C7_7 
REMARK    9  A    between atoms: S1_24  and  N1_12 
REMARK   10  A    between atoms: C12_13  and  S1_24 
REMARK   11  A    between atoms: O3_22  and  C16_17 
REMARK       I    between atoms: C17_18  and  N2_26 
REMARK   12  A    between atoms: N2_26  and  C18_27 
REMARK   13  A    between atoms: C18_27  and  C20_28 
REMARK   14  A    between atoms: C18_27  and  C21_29 
REMARK   15  A    between atoms: C20_28  and  C22_30 
REMARK   16  A    between atoms: C21_29  and  C32_40 
REMARK   17  A    between atoms: C25_33  and  C28_36 
REMARK   18  A    between atoms: C28_36  and  C29_37 
REMARK   19  A    between atoms: C28_36  and  C30_38 
REMARK   20  A    between atoms: C28_36  and  C31_39 
REMARK       I    between atoms: C32_40  and  N3_42 
REMARK   21  A    between atoms: N3_42  and  C33_43 
REMARK   22  A    between atoms: C33_43  and  C34_44 
ROOT
ATOM      1  C17 KBY d   1      13.099  -5.572 -21.055  0.00  0.00     0.253 C 
ATOM      2  O4  KBY d   1      12.311  -4.672 -21.081  0.00  0.00    -0.268 OA
ATOM      3  N2  KBY d   1      14.547  -5.289 -20.898  0.00  0.00    -0.351 N 
ATOM      4  H21 KBY d   1      15.212  -6.035 -20.862  0.00  0.00     0.163 HD
ENDROOT
BRANCH   1   5
ATOM      5  C3  KBY d   1      12.643  -7.065 -21.151  0.00  0.00     0.050 A 
ATOM      6  C1  KBY d   1      13.508  -8.010 -20.617  0.00  0.00    -0.044 A 
ATOM      7  C12 KBY d   1      13.180  -9.367 -20.643  0.00  0.00     0.075 A 
ATOM      8  H1  KBY d   1      14.446  -7.692 -20.176  0.00  0.00     0.087 H 
ATOM      9  C19 KBY d   1      11.973  -9.760 -21.215  0.00  0.00    -0.059 A 
ATOM     10  C13 KBY d   1      11.097  -8.816 -21.752  0.00  0.00    -0.064 A 
ATOM     11  H20 KBY d   1      11.711 -10.811 -21.244  0.00  0.00     0.085 H 
ATOM     12  C4  KBY d   1      11.426  -7.470 -21.719  0.00  0.00     0.021 A 
ATOM     13  H14 KBY d   1      10.160  -9.135 -22.195  0.00  0.00     0.085 H 
BRANCH   7  14
ATOM     14  S1  KBY d   1      14.335 -10.622 -19.936  0.00  0.00     0.243 S 
ATOM     15  O1  KBY d   1      15.728 -10.075 -19.941  0.00  0.00    -0.206 OA
ATOM     16  O2  KBY d   1      14.419 -11.833 -20.826  0.00  0.00    -0.206 OA
BRANCH  14  17
ATOM     17  N1  KBY d   1      13.864 -11.080 -18.347  0.00  0.00    -0.207 NA
BRANCH  17  18
ATOM     18  C6  KBY d   1      13.529  -9.904 -17.560  0.00  0.00    -0.019 C 
ATOM     19  H2  KBY d   1      13.230 -10.213 -16.548  0.00  0.00     0.050 H 
ATOM     20  H3  KBY d   1      12.698  -9.367 -18.040  0.00  0.00     0.050 H 
ATOM     21  H4  KBY d   1      14.406  -9.243 -17.497  0.00  0.00     0.050 H 
ENDBRANCH  17  18
BRANCH  17  22
ATOM     22  C7  KBY d   1      12.777 -12.096 -18.389  0.00  0.00     0.002 C 
ATOM     23  H5  KBY d   1      12.765 -12.550 -19.391  0.00  0.00     0.064 H 
BRANCH  22  24
ATOM     24  C8  KBY d   1      11.398 -11.466 -18.137  0.00  0.00    -0.061 C 
ATOM     25  H6  KBY d   1      10.625 -12.248 -18.176  0.00  0.00     0.029 H 
ATOM     26  H7  KBY d   1      11.194 -10.710 -18.909  0.00  0.00     0.029 H 
ATOM     27  H8  KBY d   1      11.388 -10.990 -17.145  0.00  0.00     0.029 H 
ENDBRANCH  22  24
BRANCH  22  28
ATOM     28  C9  KBY d   1      13.081 -13.196 -17.358  0.00  0.00    -0.061 C 
ATOM     29  H9  KBY d   1      14.072 -13.627 -17.563  0.00  0.00     0.029 H 
ATOM     30  H10 KBY d   1      12.317 -13.984 -17.427  0.00  0.00     0.029 H 
ATOM     31  H11 KBY d   1      13.072 -12.763 -16.347  0.00  0.00     0.029 H 
ENDBRANCH  22  28
ENDBRANCH  17  22
ENDBRANCH  14  17
ENDBRANCH   7  14
BRANCH  12  32
ATOM     32  S2  KBY d   1      10.244  -6.273 -22.431  0.00  0.00    -0.090 SA
BRANCH  32  33
ATOM     33  C5  KBY d   1       9.069  -7.177 -23.506  0.00  0.00     0.005 A 
ATOM     34  C10 KBY d   1       7.738  -7.333 -23.138  0.00  0.00    -0.064 A 
ATOM     35  C11 KBY d   1       6.869  -8.026 -23.973  0.00  0.00    -0.050 A 
ATOM     36  H12 KBY d   1       7.379  -6.916 -22.204  0.00  0.00     0.085 H 
ATOM     37  C2  KBY d   1       7.332  -8.559 -25.167  0.00  0.00     0.068 A 
ATOM     38  H13 KBY d   1       5.830  -8.150 -23.691  0.00  0.00     0.087 H 
ATOM     39  C14 KBY d   1       8.661  -8.408 -25.532  0.00  0.00    -0.050 A 
ATOM     40  C15 KBY d   1       9.529  -7.717 -24.698  0.00  0.00    -0.064 A 
ATOM     41  H15 KBY d   1       9.021  -8.828 -26.465  0.00  0.00     0.087 H 
ATOM     42  H16 KBY d   1      10.569  -7.599 -24.979  0.00  0.00     0.085 H 
BRANCH  37  43
ATOM     43  O3  KBY d   1       6.447  -9.255 -26.001  0.00  0.00    -0.356 OA
BRANCH  43  44
ATOM     44  C16 KBY d   1       5.441  -9.928 -25.284  0.00  0.00     0.010 C 
ATOM     45  H17 KBY d   1       4.779 -10.454 -25.987  0.00  0.00     0.066 H 
ATOM     46  H18 KBY d   1       4.855  -9.200 -24.704  0.00  0.00     0.066 H 
ATOM     47  H19 KBY d   1       5.902 -10.656 -24.600  0.00  0.00     0.066 H 
ENDBRANCH  43  44
ENDBRANCH  37  43
ENDBRANCH  32  33
ENDBRANCH  12  32
ENDBRANCH   1   5
BRANCH   3  48
ATOM     48  C18 KBY d   1      14.983  -3.891 -20.796  0.00  0.00     0.024 C 
ATOM     49  H22 KBY d   1      14.132  -3.255 -20.512  0.00  0.00     0.073 H 
BRANCH  48  50
ATOM     50  C20 KBY d   1      15.504  -3.441 -22.159  0.00  0.00    -0.022 C 
ATOM     51  H23 KBY d   1      16.196  -4.200 -22.553  0.00  0.00     0.043 H 
ATOM     52  H24 KBY d   1      16.034  -2.483 -22.049  0.00  0.00     0.043 H 
BRANCH  50  53
ATOM     53  C22 KBY d   1      14.315  -3.262 -23.149  0.00  0.00    -0.056 A 
ATOM     54  C23 KBY d   1      14.025  -4.250 -24.083  0.00  0.00    -0.076 A 
ATOM     55  C24 KBY d   1      12.955  -4.084 -24.965  0.00  0.00    -0.076 A 
ATOM     56  H27 KBY d   1      14.629  -5.149 -24.127  0.00  0.00     0.084 H 
ATOM     57  C25 KBY d   1      12.178  -2.929 -24.909  0.00  0.00    -0.051 A 
ATOM     58  H28 KBY d   1      12.729  -4.854 -25.694  0.00  0.00     0.084 H 
ATOM     59  C26 KBY d   1      12.468  -1.943 -23.971  0.00  0.00    -0.076 A 
ATOM     60  C27 KBY d   1      13.534  -2.108 -23.091  0.00  0.00    -0.076 A 
ATOM     61  H29 KBY d   1      11.863  -1.045 -23.925  0.00  0.00     0.084 H 
ATOM     62  H30 KBY d   1      13.757  -1.339 -22.360  0.00  0.00     0.084 H 
BRANCH  57  63
ATOM     63  C28 KBY d   1      10.987  -2.744 -25.888  0.00  0.00    -0.024 C 
BRANCH  63  64
ATOM     64  C29 KBY d   1      11.340  -3.353 -27.247  0.00  0.00    -0.066 C 
ATOM     65  H31 KBY d   1      10.495  -3.221 -27.939  0.00  0.00     0.028 H 
ATOM     66  H32 KBY d   1      11.549  -4.426 -27.125  0.00  0.00     0.028 H 
ATOM     67  H33 KBY d   1      12.229  -2.850 -27.654  0.00  0.00     0.028 H 
ENDBRANCH  63  64
BRANCH  63  68
ATOM     68  C30 KBY d   1      10.687  -1.252 -26.057  0.00  0.00    -0.066 C 
ATOM     69  H34 KBY d   1      10.434  -0.816 -25.079  0.00  0.00     0.028 H 
ATOM     70  H35 KBY d   1       9.839  -1.124 -26.746  0.00  0.00     0.028 H 
ATOM     71  H36 KBY d   1      11.572  -0.744 -26.466  0.00  0.00     0.028 H 
ENDBRANCH  63  68
BRANCH  63  72
ATOM     72  C31 KBY d   1       9.750  -3.448 -25.319  0.00  0.00    -0.066 C 
ATOM     73  H37 KBY d   1       9.962  -4.520 -25.196  0.00  0.00     0.028 H 
ATOM     74  H38 KBY d   1       8.904  -3.318 -26.010  0.00  0.00     0.028 H 
ATOM     75  H39 KBY d   1       9.496  -3.010 -24.342  0.00  0.00     0.028 H 
ENDBRANCH  63  72
ENDBRANCH  57  63
ENDBRANCH  50  53
ENDBRANCH  48  50
BRANCH  48  76
ATOM     76  C21 KBY d   1      16.047  -3.808 -19.711  0.00  0.00     0.028 C 
ATOM     77  H25 KBY d   1      16.565  -2.844 -19.823  0.00  0.00     0.050 H 
ATOM     78  H26 KBY d   1      16.759  -4.629 -19.877  0.00  0.00     0.050 H 
BRANCH  76  79
ATOM     79  C32 KBY d   1      15.550  -3.906 -18.255  0.00  0.00     0.220 C 
ATOM     80  O5  KBY d   1      14.924  -3.017 -17.793  0.00  0.00    -0.274 OA
ATOM     81  N3  KBY d   1      15.846  -5.079 -17.431  0.00  0.00    -0.351 N 
ATOM     82  H40 KBY d   1      15.515  -5.111 -16.488  0.00  0.00     0.163 HD
BRANCH  81  83
ATOM     83  C33 KBY d   1      16.613  -6.201 -17.956  0.00  0.00     0.075 C 
ATOM     84  H41 KBY d   1      17.640  -5.872 -18.170  0.00  0.00     0.080 H 
ATOM     85  H42 KBY d   1      16.143  -6.562 -18.883  0.00  0.00     0.080 H 
BRANCH  83  86
ATOM     86  C34 KBY d   1      16.648  -7.338 -16.928  0.00  0.00     0.191 C 
ATOM     87  O6  KBY d   1      17.364  -8.355 -17.132  0.00  0.00    -0.647 OA
ATOM     88  O7  KBY d   1      15.962  -7.254 -15.874  0.00  0.00    -0.647 OA
ENDBRANCH  83  86
ENDBRANCH  81  83
ENDBRANCH  76  79
ENDBRANCH  48  76
ENDBRANCH   3  48
TORSDOF 22
