REMARK  8 active torsions:
REMARK  status: ('A' for Active; 'I' for Inactive)
REMARK    1  A    between atoms: C02_18  and  C01_1 
REMARK    2  A    between atoms: C02_18  and  C03_2 
REMARK    3  A    between atoms: C05_3  and  C02_18 
REMARK    4  A    between atoms: C14_7  and  C16_8 
REMARK       I    between atoms: N13_22  and  C14_7 
REMARK    5  A    between atoms: C21_12  and  O22_25 
REMARK    6  A    between atoms: O22_25  and  C23_13 
REMARK    7  A    between atoms: C02_18  and  O04_19 
REMARK    8  A    between atoms: C09_21  and  N13_22 
ROOT
ATOM      1  C05 KCD d   1      13.616  30.152 -16.687  0.00  0.00    -0.025 C 
ATOM      2  C08 KCD d   1      12.734  28.279 -15.214  0.00  0.00    -0.046 C 
ATOM      3  C11 KCD d   1      11.174  30.099 -16.006  0.00  0.00    -0.046 C 
ATOM      4  C12 KCD d   1      12.380  30.986 -16.312  0.00  0.00    -0.057 C 
ATOM      5  C07 KCD d   1      13.920  29.206 -15.510  0.00  0.00    -0.057 C 
ATOM      6  C09 KCD d   1      11.480  29.093 -14.903  0.00  0.00     0.012 C 
ATOM      7  H7  KCD d   1      13.363  29.533 -17.560  0.00  0.00     0.044 H 
ATOM      8  H8  KCD d   1      12.978  27.645 -14.348  0.00  0.00     0.036 H 
ATOM      9  H9  KCD d   1      12.544  27.644 -16.092  0.00  0.00     0.036 H 
ATOM     10  H10 KCD d   1      10.892  29.553 -16.918  0.00  0.00     0.036 H 
ATOM     11  H11 KCD d   1      10.336  30.735 -15.686  0.00  0.00     0.036 H 
ATOM     12  H12 KCD d   1      12.130  31.651 -17.152  0.00  0.00     0.033 H 
ATOM     13  H13 KCD d   1      12.613  31.590 -15.423  0.00  0.00     0.033 H 
ATOM     14  H21 KCD d   1      14.136  29.807 -14.615  0.00  0.00     0.033 H 
ATOM     15  H22 KCD d   1      14.799  28.593 -15.761  0.00  0.00     0.033 H 
ATOM     16  H23 KCD d   1      11.663  29.650 -13.972  0.00  0.00     0.072 H 
ENDROOT
BRANCH   6  17
ATOM     17  N13 KCD d   1      10.332  28.234 -14.699  0.00  0.00    -0.352 N 
ATOM     18  C14 KCD d   1       9.479  28.367 -13.608  0.00  0.00     0.253 C 
ATOM     19  O15 KCD d   1       9.635  29.201 -12.713  0.00  0.00    -0.268 OA
ATOM     20  H24 KCD d   1      10.145  27.516 -15.370  0.00  0.00     0.163 HD
BRANCH  18  21
ATOM     21  C16 KCD d   1       8.344  27.408 -13.503  0.00  0.00     0.050 A 
ATOM     22  C17 KCD d   1       7.947  26.989 -12.241  0.00  0.00     0.018 A 
ATOM     23  N18 KCD d   1       6.935  26.115 -12.028  0.00  0.00    -0.259 NA
ATOM     24  H14 KCD d   1       8.475  27.382 -11.380  0.00  0.00     0.116 H 
ATOM     25  C19 KCD d   1       6.277  25.622 -13.089  0.00  0.00     0.069 A 
ATOM     26  C20 KCD d   1       5.237  24.742 -12.871  0.00  0.00    -0.022 A 
ATOM     27  C28 KCD d   1       6.586  25.976 -14.426  0.00  0.00    -0.006 A 
ATOM     28  C21 KCD d   1       4.489  24.190 -13.926  0.00  0.00     0.077 A 
ATOM     29  H15 KCD d   1       4.988  24.467 -11.852  0.00  0.00     0.091 H 
ATOM     30  C26 KCD d   1       4.798  24.512 -15.242  0.00  0.00    -0.050 A 
ATOM     31  C27 KCD d   1       5.845  25.414 -15.494  0.00  0.00    -0.068 A 
ATOM     32  H17 KCD d   1       4.240  24.074 -16.061  0.00  0.00     0.087 H 
ATOM     33  H18 KCD d   1       6.088  25.682 -16.516  0.00  0.00     0.085 H 
ATOM     34  C29 KCD d   1       7.651  26.884 -14.607  0.00  0.00    -0.054 A 
ATOM     35  H19 KCD d   1       7.938  27.181 -15.610  0.00  0.00     0.086 H 
BRANCH  28  36
ATOM     36  O22 KCD d   1       3.519  23.274 -13.632  0.00  0.00    -0.290 OA
BRANCH  36  37
ATOM     37  C23 KCD d   1       4.120  22.270 -12.793  0.00  0.00     0.310 C 
ATOM     38  F24 KCD d   1       3.320  22.151 -11.713  0.00  0.00    -0.184 F 
ATOM     39  F25 KCD d   1       4.350  21.129 -13.475  0.00  0.00    -0.184 F 
ATOM     40  H16 KCD d   1       5.098  22.638 -12.449  0.00  0.00     0.195 H 
ENDBRANCH  36  37
ENDBRANCH  28  36
ENDBRANCH  18  21
ENDBRANCH   6  17
BRANCH   1  41
ATOM     41  C02 KCD d   1      14.807  31.047 -17.096  0.00  0.00     0.054 C 
BRANCH  41  42
ATOM     42  C01 KCD d   1      14.459  32.108 -18.152  0.00  0.00    -0.048 C 
ATOM     43  H1  KCD d   1      15.356  32.700 -18.387  0.00  0.00     0.031 H 
ATOM     44  H2  KCD d   1      13.674  32.772 -17.760  0.00  0.00     0.031 H 
ATOM     45  H3  KCD d   1      14.098  31.612 -19.065  0.00  0.00     0.031 H 
ENDBRANCH  41  42
BRANCH  41  46
ATOM     46  C03 KCD d   1      15.964  30.206 -17.639  0.00  0.00    -0.048 C 
ATOM     47  H4  KCD d   1      16.235  29.436 -16.902  0.00  0.00     0.031 H 
ATOM     48  H5  KCD d   1      16.832  30.855 -17.828  0.00  0.00     0.031 H 
ATOM     49  H6  KCD d   1      15.657  29.722 -18.578  0.00  0.00     0.031 H 
ENDBRANCH  41  46
BRANCH  41  50
ATOM     50  O04 KCD d   1      15.269  31.739 -15.937  0.00  0.00    -0.390 OA
ATOM     51  H20 KCD d   1      14.564  32.268 -15.584  0.00  0.00     0.210 HD
ENDBRANCH  41  50
ENDBRANCH   1  41
TORSDOF 8
