REMARK  20 active torsions:
REMARK  status: ('A' for Active; 'I' for Inactive)
REMARK    1  A    between atoms: C18_1  and  C20_3 
REMARK       I    between atoms: N17_18  and  C18_1 
REMARK    2  A    between atoms: C20_3  and  C21_4 
REMARK    3  A    between atoms: C21_4  and  C22_5 
REMARK    4  A    between atoms: C07_13  and  C09_14 
REMARK       I    between atoms: N06_21  and  C07_13 
REMARK    5  A    between atoms: C09_14  and  C11_15 
REMARK    6  A    between atoms: C09_14  and  N17_18 
REMARK    7  A    between atoms: C11_15  and  C12_16 
REMARK    8  A    between atoms: C04_22  and  N06_21 
REMARK    9  A    between atoms: C28_23  and  C04_22 
REMARK   10  A    between atoms: C04_22  and  C02_25 
REMARK       I    between atoms: N30_41  and  C28_23 
REMARK   11  A    between atoms: C02_25  and  C01_26 
REMARK   12  A    between atoms: C02_25  and  C03_27 
REMARK   13  A    between atoms: C31_28  and  C33_29 
REMARK   14  A    between atoms: C40_33  and  C31_28 
REMARK   15  A    between atoms: C31_28  and  N30_41 
REMARK   16  A    between atoms: C33_29  and  C34_30 
REMARK   17  A    between atoms: C34_30  and  C35_31 
REMARK   18  A    between atoms: C35_31  and  N36_42 
REMARK       I    between atoms: N36_42  and  C37_32 
REMARK       I    between atoms: C37_32  and  N38_43 
REMARK   19  A    between atoms: C42_34  and  C40_33 
REMARK   20  A    between atoms: C40_33  and  O41_46 
ROOT
ATOM      1  C04 KD7 d   1     -18.394  -7.442  24.875  0.00  0.00     0.092 C 
ATOM      2  H17 KD7 d   1     -18.666  -8.481  25.112  0.00  0.00     0.088 H 
ENDROOT
BRANCH   1   3
ATOM      3  N06 KD7 d   1     -18.175  -6.735  26.125  0.00  0.00    -0.346 N 
ATOM      4  C07 KD7 d   1     -17.469  -7.314  27.099  0.00  0.00     0.241 C 
ATOM      5  O08 KD7 d   1     -16.996  -8.443  26.995  0.00  0.00    -0.271 OA
ATOM      6  H16 KD7 d   1     -18.552  -5.818  26.255  0.00  0.00     0.163 HD
BRANCH   4   7
ATOM      7  C09 KD7 d   1     -17.250  -6.508  28.382  0.00  0.00     0.094 C 
ATOM      8  H12 KD7 d   1     -17.911  -5.629  28.377  0.00  0.00     0.088 H 
BRANCH   7   9
ATOM      9  C11 KD7 d   1     -15.790  -6.046  28.446  0.00  0.00     0.002 C 
ATOM     10  H13 KD7 d   1     -15.628  -5.234  27.721  0.00  0.00     0.046 H 
ATOM     11  H14 KD7 d   1     -15.126  -6.889  28.207  0.00  0.00     0.046 H 
BRANCH   9  12
ATOM     12  C12 KD7 d   1     -15.489  -5.541  29.857  0.00  0.00     0.039 A 
ATOM     13  C13 KD7 d   1     -15.926  -4.112  30.179  0.00  0.00    -0.024 A 
ATOM     14  S14 KD7 d   1     -15.319  -4.152  31.885  0.00  0.00    -0.109 SA
ATOM     15  H10 KD7 d   1     -16.425  -3.343  29.591  0.00  0.00     0.097 H 
ATOM     16  C15 KD7 d   1     -14.614  -5.827  32.047  0.00  0.00     0.111 A 
ATOM     17  N16 KD7 d   1     -14.805  -6.496  30.788  0.00  0.00    -0.275 NA
ATOM     18  H11 KD7 d   1     -14.137  -6.243  32.933  0.00  0.00     0.098 H 
ENDBRANCH   9  12
ENDBRANCH   7   9
BRANCH   7  19
ATOM     19  N17 KD7 d   1     -17.555  -7.329  29.538  0.00  0.00    -0.347 N 
ATOM     20  C18 KD7 d   1     -18.246  -6.883  30.592  0.00  0.00     0.218 C 
ATOM     21  O19 KD7 d   1     -18.673  -5.733  30.668  0.00  0.00    -0.274 OA
ATOM     22  H15 KD7 d   1     -17.233  -8.275  29.547  0.00  0.00     0.163 HD
BRANCH  20  23
ATOM     23  C20 KD7 d   1     -18.473  -7.890  31.696  0.00  0.00     0.013 C 
ATOM     24  H1  KD7 d   1     -17.672  -7.783  32.443  0.00  0.00     0.047 H 
ATOM     25  H2  KD7 d   1     -18.440  -8.902  31.265  0.00  0.00     0.047 H 
BRANCH  23  26
ATOM     26  C21 KD7 d   1     -19.826  -7.693  32.391  0.00  0.00    -0.033 C 
ATOM     27  H3  KD7 d   1     -19.890  -6.651  32.736  0.00  0.00     0.040 H 
ATOM     28  H4  KD7 d   1     -19.873  -8.370  33.257  0.00  0.00     0.040 H 
BRANCH  26  29
ATOM     29  C22 KD7 d   1     -21.019  -7.975  31.498  0.00  0.00    -0.058 A 
ATOM     30  C23 KD7 d   1     -22.205  -7.273  31.656  0.00  0.00    -0.077 A 
ATOM     31  C24 KD7 d   1     -23.297  -7.533  30.844  0.00  0.00    -0.082 A 
ATOM     32  H5  KD7 d   1     -22.278  -6.512  32.424  0.00  0.00     0.084 H 
ATOM     33  C25 KD7 d   1     -23.218  -8.499  29.866  0.00  0.00    -0.083 A 
ATOM     34  H6  KD7 d   1     -24.216  -6.974  30.979  0.00  0.00     0.083 H 
ATOM     35  C26 KD7 d   1     -22.043  -9.195  29.691  0.00  0.00    -0.082 A 
ATOM     36  H7  KD7 d   1     -24.076  -8.710  29.238  0.00  0.00     0.083 H 
ATOM     37  C27 KD7 d   1     -20.952  -8.938  30.505  0.00  0.00    -0.077 A 
ATOM     38  H8  KD7 d   1     -21.971  -9.947  28.913  0.00  0.00     0.083 H 
ATOM     39  H9  KD7 d   1     -20.035  -9.498  30.363  0.00  0.00     0.084 H 
ENDBRANCH  26  29
ENDBRANCH  23  26
ENDBRANCH  20  23
ENDBRANCH   7  19
ENDBRANCH   4   7
ENDBRANCH   1   3
BRANCH   1  40
ATOM     40  C28 KD7 d   1     -17.066  -7.453  24.118  0.00  0.00     0.241 C 
ATOM     41  O29 KD7 d   1     -16.219  -6.592  24.338  0.00  0.00    -0.271 OA
ATOM     42  N30 KD7 d   1     -16.884  -8.445  23.247  0.00  0.00    -0.352 N 
ATOM     43  H37 KD7 d   1     -17.624  -9.101  23.098  0.00  0.00     0.163 HD
BRANCH  42  44
ATOM     44  C31 KD7 d   1     -15.638  -8.604  22.503  0.00  0.00     0.040 C 
ATOM     45  H25 KD7 d   1     -14.925  -7.858  22.884  0.00  0.00     0.076 H 
BRANCH  44  46
ATOM     46  C33 KD7 d   1     -15.055  -9.987  22.788  0.00  0.00    -0.042 C 
ATOM     47  H26 KD7 d   1     -14.208 -10.156  22.106  0.00  0.00     0.036 H 
ATOM     48  H27 KD7 d   1     -15.834 -10.740  22.599  0.00  0.00     0.036 H 
BRANCH  46  49
ATOM     49  C34 KD7 d   1     -14.562 -10.149  24.222  0.00  0.00    -0.048 C 
ATOM     50  H28 KD7 d   1     -15.359  -9.816  24.903  0.00  0.00     0.035 H 
ATOM     51  H29 KD7 d   1     -13.674  -9.514  24.358  0.00  0.00     0.035 H 
BRANCH  49  52
ATOM     52  C35 KD7 d   1     -14.188 -11.584  24.582  0.00  0.00     0.009 C 
ATOM     53  H30 KD7 d   1     -13.353 -11.940  23.960  0.00  0.00     0.064 H 
ATOM     54  H31 KD7 d   1     -15.050 -12.257  24.459  0.00  0.00     0.064 H 
BRANCH  52  55
ATOM     55  N36 KD7 d   1     -13.790 -11.495  25.993  0.00  0.00    -0.227 N 
ATOM     56  C37 KD7 d   1     -13.136 -12.671  26.542  0.00  0.00     0.665 C 
ATOM     57  N38 KD7 d   1     -12.591 -12.565  27.735  0.00  0.00    -0.235 N 
ATOM     58  N39 KD7 d   1     -13.115 -13.800  25.862  0.00  0.00    -0.235 N 
ATOM     59  H39 KD7 d   1     -12.118 -13.376  28.159  0.00  0.00     0.174 HD
ATOM     60  H40 KD7 d   1     -12.637 -11.671  28.245  0.00  0.00     0.174 HD
ATOM     61  H41 KD7 d   1     -13.551 -13.848  24.930  0.00  0.00     0.174 HD
ATOM     62  H42 KD7 d   1     -12.662 -14.634  26.262  0.00  0.00     0.174 HD
ATOM     63  H38 KD7 d   1     -13.964 -10.652  26.558  0.00  0.00     0.177 HD
ENDBRANCH  52  55
ENDBRANCH  49  52
ENDBRANCH  46  49
ENDBRANCH  44  46
BRANCH  44  64
ATOM     64  C40 KD7 d   1     -15.810  -8.332  21.006  0.00  0.00     0.094 C 
ATOM     65  H32 KD7 d   1     -16.517  -9.058  20.579  0.00  0.00     0.091 H 
BRANCH  64  66
ATOM     66  C42 KD7 d   1     -16.227  -6.908  20.663  0.00  0.00     0.174 A 
ATOM     67  N43 KD7 d   1     -17.475  -6.424  20.116  0.00  0.00    -0.260 NA
ATOM     68  C44 KD7 d   1     -17.513  -5.047  19.880  0.00  0.00     0.070 A 
ATOM     69  C45 KD7 d   1     -18.588  -4.321  19.371  0.00  0.00    -0.054 A 
ATOM     70  C49 KD7 d   1     -16.332  -4.383  20.201  0.00  0.00     0.031 A 
ATOM     71  C46 KD7 d   1     -18.473  -2.947  19.226  0.00  0.00    -0.081 A 
ATOM     72  H33 KD7 d   1     -19.506  -4.826  19.091  0.00  0.00     0.087 H 
ATOM     73  C47 KD7 d   1     -17.287  -2.301  19.518  0.00  0.00    -0.082 A 
ATOM     74  H34 KD7 d   1     -19.324  -2.372  18.879  0.00  0.00     0.083 H 
ATOM     75  C48 KD7 d   1     -16.212  -3.007  20.029  0.00  0.00    -0.064 A 
ATOM     76  H35 KD7 d   1     -17.198  -1.234  19.346  0.00  0.00     0.083 H 
ATOM     77  H36 KD7 d   1     -15.292  -2.497  20.291  0.00  0.00     0.085 H 
ATOM     78  S50 KD7 d   1     -15.107  -5.475  20.821  0.00  0.00    -0.088 SA
ENDBRANCH  64  66
BRANCH  64  79
ATOM     79  O41 KD7 d   1     -14.525  -8.412  20.396  0.00  0.00    -0.390 OA
ATOM     80  H43 KD7 d   1     -14.157  -9.275  20.547  0.00  0.00     0.210 HD
ENDBRANCH  64  79
ENDBRANCH  44  64
ENDBRANCH  42  44
ENDBRANCH   1  40
BRANCH   1  81
ATOM     81  C02 KD7 d   1     -19.543  -6.852  24.034  0.00  0.00    -0.033 C 
ATOM     82  H18 KD7 d   1     -19.661  -7.488  23.144  0.00  0.00     0.042 H 
BRANCH  81  83
ATOM     83  C01 KD7 d   1     -20.860  -6.878  24.799  0.00  0.00    -0.071 C 
ATOM     84  H19 KD7 d   1     -21.657  -6.451  24.172  0.00  0.00     0.028 H 
ATOM     85  H20 KD7 d   1     -20.761  -6.285  25.720  0.00  0.00     0.028 H 
ATOM     86  H21 KD7 d   1     -21.114  -7.917  25.057  0.00  0.00     0.028 H 
ENDBRANCH  81  83
BRANCH  81  87
ATOM     87  C03 KD7 d   1     -19.225  -5.444  23.554  0.00  0.00    -0.071 C 
ATOM     88  H22 KD7 d   1     -18.272  -5.450  23.006  0.00  0.00     0.028 H 
ATOM     89  H23 KD7 d   1     -19.145  -4.771  24.420  0.00  0.00     0.028 H 
ATOM     90  H24 KD7 d   1     -20.028  -5.093  22.889  0.00  0.00     0.028 H 
ENDBRANCH  81  87
ENDBRANCH   1  81
TORSDOF 20
