REMARK  6 active torsions:
REMARK  status: ('A' for Active; 'I' for Inactive)
REMARK    1  A    between atoms: O5'_20  and  P_1 
REMARK    2  A    between atoms: C1'_10  and  N1_2 
REMARK    3  A    between atoms: C2'_11  and  N3'_13 
REMARK    4  A    between atoms: C3'_12  and  O3'_14 
REMARK    5  A    between atoms: C5'_18  and  C4'_15 
REMARK    6  A    between atoms: C5'_18  and  O5'_20 
ROOT
ATOM      1  N3' UZR d   1      11.923 -22.892 -28.762  0.00  0.00    -0.103 NA
ATOM      2  N4' UZR d   1      12.917 -23.360 -29.002  0.00  0.00    -0.167 NA
ATOM      3  N5' UZR d   1      13.920 -23.793 -29.267  0.00  0.00     0.068 N 
ENDROOT
BRANCH   1   4
ATOM      4  C2' UZR d   1      11.300 -22.915 -27.423  0.00  0.00     0.135 C 
ATOM      5  C1' UZR d   1      12.001 -23.110 -26.046  0.00  0.00     0.140 C 
ATOM      6  O4' UZR d   1      10.842 -23.468 -25.253  0.00  0.00    -0.354 OA
ATOM      7  H4  UZR d   1      12.332 -22.118 -25.706  0.00  0.00     0.122 H 
ATOM      8  C4' UZR d   1      10.069 -22.275 -25.529  0.00  0.00     0.089 C 
ATOM      9  C3' UZR d   1       9.987 -22.171 -27.071  0.00  0.00     0.090 C 
ATOM     10  H8  UZR d   1      10.640 -21.412 -25.156  0.00  0.00     0.090 H 
ATOM     11  H6  UZR d   1       9.091 -22.653 -27.490  0.00  0.00     0.090 H 
ATOM     12  H5  UZR d   1      10.895 -23.931 -27.535  0.00  0.00     0.091 H 
BRANCH   5  13
ATOM     13  N1  UZR d   1      13.227 -23.923 -25.966  0.00  0.00    -0.280 N 
ATOM     14  C2  UZR d   1      13.279 -25.261 -25.793  0.00  0.00     0.331 A 
ATOM     15  O2  UZR d   1      12.256 -25.915 -25.714  0.00  0.00    -0.246 OA
ATOM     16  N3  UZR d   1      14.476 -25.885 -25.719  0.00  0.00    -0.275 N 
ATOM     17  C4  UZR d   1      15.630 -25.186 -25.805  0.00  0.00     0.250 A 
ATOM     18  H1  UZR d   1      14.508 -26.877 -25.599  0.00  0.00     0.173 HD
ATOM     19  O4  UZR d   1      16.713 -25.741 -25.738  0.00  0.00    -0.268 OA
ATOM     20  C5  UZR d   1      15.581 -23.785 -25.975  0.00  0.00    -0.002 A 
ATOM     21  C6  UZR d   1      14.378 -23.191 -26.046  0.00  0.00    -0.008 A 
ATOM     22  H2  UZR d   1      16.497 -23.200 -26.047  0.00  0.00     0.094 H 
ATOM     23  H3  UZR d   1      14.319 -22.111 -26.169  0.00  0.00     0.112 H 
ENDBRANCH   5  13
BRANCH   8  24
ATOM     24  C5' UZR d   1       8.695 -22.211 -24.851  0.00  0.00     0.059 C 
ATOM     25  H9  UZR d   1       8.719 -22.755 -23.895  0.00  0.00     0.079 H 
ATOM     26  H10 UZR d   1       7.929 -22.653 -25.506  0.00  0.00     0.079 H 
BRANCH  24  27
ATOM     27  O5' UZR d   1       8.408 -20.825 -24.622  0.00  0.00    -0.280 OA
BRANCH  27  28
ATOM     28  P   UZR d   1       8.403 -20.126 -23.168  0.00  0.00     0.422 P 
ATOM     29  OP1 UZR d   1       9.294 -20.870 -22.251  0.00  0.00    -0.617 OA
ATOM     30  OP2 UZR d   1       8.932 -18.610 -23.295  0.00  0.00    -0.617 OA
ATOM     31  OP3 UZR d   1       6.906 -20.108 -22.579  0.00  0.00    -0.617 OA
ENDBRANCH  27  28
ENDBRANCH  24  27
ENDBRANCH   8  24
BRANCH   9  32
ATOM     32  O3' UZR d   1      10.068 -20.807 -27.481  0.00  0.00    -0.391 OA
ATOM     33  H7  UZR d   1      10.206 -20.767 -28.420  0.00  0.00     0.210 HD
ENDBRANCH   9  32
ENDBRANCH   1   4
TORSDOF 6
