REMARK  7 active torsions:
REMARK  status: ('A' for Active; 'I' for Inactive)
REMARK    1  A    between atoms: C02_1  and  O01_16 
REMARK    2  A    between atoms: C03_2  and  C04_3 
REMARK    3  A    between atoms: C04_3  and  O05_17 
REMARK    4  A    between atoms: N16_13  and  C11_4 
REMARK    5  A    between atoms: C12_5  and  N13_10 
REMARK    6  A    between atoms: C19_8  and  N23_15 
REMARK    7  A    between atoms: O05_17  and  P06_23 
ROOT
ATOM      1  N13 KEA d   1      11.561 -22.633 -28.095  0.00  0.00    -0.103 NA
ATOM      2  N14 KEA d   1      12.738 -23.108 -28.529  0.00  0.00    -0.167 NA
ATOM      3  N15 KEA d   1      13.770 -23.524 -28.906  0.00  0.00     0.068 N 
ENDROOT
BRANCH   1   4
ATOM      4  C12 KEA d   1      10.989 -23.269 -26.870  0.00  0.00     0.135 C 
ATOM      5  C02 KEA d   1       9.698 -22.471 -26.458  0.00  0.00     0.090 C 
ATOM      6  C03 KEA d   1       9.996 -22.174 -24.963  0.00  0.00     0.089 C 
ATOM      7  H1  KEA d   1       8.796 -23.088 -26.581  0.00  0.00     0.090 H 
ATOM      8  O10 KEA d   1      11.070 -23.048 -24.584  0.00  0.00    -0.354 OA
ATOM      9  H2  KEA d   1      10.308 -21.127 -24.835  0.00  0.00     0.090 H 
ATOM     10  C11 KEA d   1      11.953 -23.266 -25.627  0.00  0.00     0.140 C 
ATOM     11  H5  KEA d   1      12.649 -22.418 -25.706  0.00  0.00     0.122 H 
ATOM     12  H6  KEA d   1      10.726 -24.310 -27.109  0.00  0.00     0.091 H 
BRANCH   5  13
ATOM     13  O01 KEA d   1       9.538 -21.267 -27.162  0.00  0.00    -0.391 OA
ATOM     14  H12 KEA d   1       9.476 -21.451 -28.092  0.00  0.00     0.210 HD
ENDBRANCH   5  13
BRANCH   6  15
ATOM     15  C04 KEA d   1       8.687 -22.431 -24.123  0.00  0.00     0.059 C 
ATOM     16  H3  KEA d   1       8.726 -23.446 -23.701  0.00  0.00     0.079 H 
ATOM     17  H4  KEA d   1       7.813 -22.343 -24.785  0.00  0.00     0.079 H 
BRANCH  15  18
ATOM     18  O05 KEA d   1       8.566 -21.531 -23.106  0.00  0.00    -0.280 OA
BRANCH  18  19
ATOM     19  P06 KEA d   1       8.696 -19.755 -23.232  0.00  0.00     0.422 P 
ATOM     20  O07 KEA d   1       8.767 -19.366 -24.680  0.00  0.00    -0.617 OA
ATOM     21  O08 KEA d   1       7.468 -19.258 -22.473  0.00  0.00    -0.617 OA
ATOM     22  O09 KEA d   1       9.949 -19.447 -22.420  0.00  0.00    -0.617 OA
ENDBRANCH  18  19
ENDBRANCH  15  18
ENDBRANCH   6  15
BRANCH  10  23
ATOM     23  N16 KEA d   1      12.844 -24.595 -25.454  0.00  0.00    -0.280 N 
ATOM     24  C17 KEA d   1      12.343 -25.879 -25.327  0.00  0.00    -0.010 A 
ATOM     25  C18 KEA d   1      13.113 -27.026 -25.174  0.00  0.00    -0.026 A 
ATOM     26  H7  KEA d   1      11.261 -26.000 -25.349  0.00  0.00     0.112 H 
ATOM     27  C19 KEA d   1      14.572 -26.948 -25.134  0.00  0.00     0.103 A 
ATOM     28  H8  KEA d   1      12.623 -27.994 -25.083  0.00  0.00     0.091 H 
ATOM     29  N20 KEA d   1      15.123 -25.722 -25.252  0.00  0.00    -0.295 N 
ATOM     30  C21 KEA d   1      14.325 -24.536 -25.410  0.00  0.00     0.330 A 
ATOM     31  H9  KEA d   1      16.119 -25.635 -25.229  0.00  0.00     0.172 HD
ATOM     32  O22 KEA d   1      14.839 -23.436 -25.514  0.00  0.00    -0.246 OA
BRANCH  27  33
ATOM     33  N23 KEA d   1      15.408 -28.069 -24.981  0.00  0.00    -0.385 N 
ATOM     34  H10 KEA d   1      14.997 -29.009 -24.890  0.00  0.00     0.157 HD
ATOM     35  H11 KEA d   1      16.431 -27.950 -24.960  0.00  0.00     0.157 HD
ENDBRANCH  27  33
ENDBRANCH  10  23
ENDBRANCH   1   4
TORSDOF 7
