REMARK  5 active torsions:
REMARK  status: ('A' for Active; 'I' for Inactive)
REMARK    1  A    between atoms: N1_1  and  C1'_9 
REMARK    2  A    between atoms: C2'_10  and  N3'_12 
REMARK    3  A    between atoms: C3'_11  and  O3'_13 
REMARK    4  A    between atoms: C4'_14  and  C5'_17 
REMARK    5  A    between atoms: C5'_17  and  O5'_19 
ROOT
ATOM      1  N3' UZ0 d   1     108.441 -52.667  44.479  0.00  0.00    -0.103 NA
ATOM      2  N4' UZ0 d   1     107.417 -53.114  44.669  0.00  0.00    -0.167 NA
ATOM      3  N5' UZ0 d   1     106.412 -53.586  44.917  0.00  0.00     0.068 N 
ENDROOT
BRANCH   1   4
ATOM      4  C2' UZ0 d   1     108.746 -51.690  43.427  0.00  0.00     0.135 C 
ATOM      5  C1' UZ0 d   1     107.751 -50.737  42.714  0.00  0.00     0.140 C 
ATOM      6  O4' UZ0 d   1     108.454 -49.457  42.770  0.00  0.00    -0.354 OA
ATOM      7  H4  UZ0 d   1     106.798 -50.697  43.262  0.00  0.00     0.122 H 
ATOM      8  C4' UZ0 d   1     109.798 -49.592  43.318  0.00  0.00     0.088 C 
ATOM      9  C3' UZ0 d   1     110.158 -51.086  43.340  0.00  0.00     0.090 C 
ATOM     10  H8  UZ0 d   1     109.795 -49.202  44.347  0.00  0.00     0.090 H 
ATOM     11  H6  UZ0 d   1     110.696 -51.407  42.436  0.00  0.00     0.090 H 
ATOM     12  H5  UZ0 d   1     108.830 -52.433  42.620  0.00  0.00     0.091 H 
BRANCH   5  13
ATOM     13  N1  UZ0 d   1     107.481 -51.086  41.301  0.00  0.00    -0.280 N 
ATOM     14  C2  UZ0 d   1     106.508 -51.968  41.013  0.00  0.00     0.331 A 
ATOM     15  O2  UZ0 d   1     105.905 -52.454  41.947  0.00  0.00    -0.246 OA
ATOM     16  N3  UZ0 d   1     106.202 -52.311  39.736  0.00  0.00    -0.275 N 
ATOM     17  C4  UZ0 d   1     106.892 -51.757  38.706  0.00  0.00     0.250 A 
ATOM     18  H1  UZ0 d   1     105.471 -52.969  39.554  0.00  0.00     0.173 HD
ATOM     19  O4  UZ0 d   1     106.646 -52.051  37.544  0.00  0.00    -0.268 OA
ATOM     20  C5  UZ0 d   1     107.925 -50.818  38.974  0.00  0.00    -0.002 A 
ATOM     21  C6  UZ0 d   1     108.189 -50.503  40.270  0.00  0.00    -0.008 A 
ATOM     22  H2  UZ0 d   1     108.490 -50.363  38.162  0.00  0.00     0.094 H 
ATOM     23  H3  UZ0 d   1     108.971 -49.780  40.498  0.00  0.00     0.112 H 
ENDBRANCH   5  13
BRANCH   8  24
ATOM     24  C5' UZ0 d   1     110.870 -48.830  42.516  0.00  0.00     0.043 C 
ATOM     25  H9  UZ0 d   1     110.526 -48.696  41.480  0.00  0.00     0.078 H 
ATOM     26  H10 UZ0 d   1     111.808 -49.405  42.519  0.00  0.00     0.078 H 
BRANCH  24  27
ATOM     27  O5' UZ0 d   1     111.096 -47.543  43.116  0.00  0.00    -0.398 OA
ATOM     28  H11 UZ0 d   1     111.394 -47.660  44.011  0.00  0.00     0.209 HD
ENDBRANCH  24  27
ENDBRANCH   8  24
BRANCH   9  29
ATOM     29  O3' UZ0 d   1     110.928 -51.383  44.510  0.00  0.00    -0.391 OA
ATOM     30  H7  UZ0 d   1     111.008 -52.325  44.604  0.00  0.00     0.210 HD
ENDBRANCH   9  29
ENDBRANCH   1   4
TORSDOF 5
