REMARK  13 active torsions:
REMARK  status: ('A' for Active; 'I' for Inactive)
REMARK    1  A    between atoms: N15_1  and  C5_4 
REMARK       I    between atoms: C25_15  and  N15_1 
REMARK    2  A    between atoms: C3_2  and  O13_22 
REMARK    3  A    between atoms: C4_3  and  O14_17 
REMARK    4  A    between atoms: C6_5  and  O16_37 
REMARK    5  A    between atoms: C1_6  and  O11_32 
REMARK    6  A    between atoms: C2_7  and  O12_27 
REMARK    7  A    between atoms: C45_12  and  PB5_9 
REMARK    8  A    between atoms: C45_12  and  C25_15 
REMARK    9  A    between atoms: O14_17  and  PA4_18 
REMARK   10  A    between atoms: O13_22  and  PA3_23 
REMARK   11  A    between atoms: O12_27  and  PA2_28 
REMARK   12  A    between atoms: O11_32  and  PA1_33 
REMARK   13  A    between atoms: O16_37  and  PA6_38 
ROOT
ATOM      1  C3  KDJ d   1      -1.098  20.180  11.155  0.00  0.00     0.107 C 
ATOM      2  C4  KDJ d   1      -0.684  21.340  12.053  0.00  0.00     0.101 C 
ATOM      3  C5  KDJ d   1       0.825  21.189  12.374  0.00  0.00     0.068 C 
ATOM      4  C6  KDJ d   1       1.671  21.113  11.080  0.00  0.00     0.101 C 
ATOM      5  C1  KDJ d   1       1.132  19.998  10.173  0.00  0.00     0.107 C 
ATOM      6  C2  KDJ d   1      -0.311  20.229   9.842  0.00  0.00     0.107 C 
ATOM      7  H2  KDJ d   1      -0.875  19.238  11.678  0.00  0.00     0.092 H 
ATOM      8  H3  KDJ d   1      -0.843  22.290  11.522  0.00  0.00     0.091 H 
ATOM      9  H4  KDJ d   1       0.973  20.260  12.944  0.00  0.00     0.080 H 
ATOM     10  H5  KDJ d   1       1.665  22.083  10.562  0.00  0.00     0.091 H 
ATOM     11  H6  KDJ d   1       1.202  19.058  10.741  0.00  0.00     0.092 H 
ATOM     12  H7  KDJ d   1      -0.671  19.438   9.168  0.00  0.00     0.092 H 
ENDROOT
BRANCH   3  13
ATOM     13  N15 KDJ d   1       1.260  22.316  13.186  0.00  0.00    -0.345 N 
ATOM     14  C25 KDJ d   1       1.833  22.030  14.353  0.00  0.00     0.305 C 
ATOM     15  O35 KDJ d   1       1.949  20.894  14.879  0.00  0.00    -0.266 OA
ATOM     16  H1  KDJ d   1       1.134  23.260  12.882  0.00  0.00     0.163 HD
BRANCH  14  17
ATOM     17  C45 KDJ d   1       2.142  23.323  15.166  0.00  0.00     0.432 C 
ATOM     18  F55 KDJ d   1       1.555  24.384  14.622  0.00  0.00    -0.180 F 
ATOM     19  F65 KDJ d   1       1.643  23.173  16.428  0.00  0.00    -0.180 F 
BRANCH  17  20
ATOM     20  PB5 KDJ d   1       4.048  23.622  15.197  0.00  0.00     0.344 P 
ATOM     21  O75 KDJ d   1       4.458  22.454  16.007  0.00  0.00    -0.635 OA
ATOM     22  O85 KDJ d   1       4.304  23.584  13.728  0.00  0.00    -0.635 OA
ATOM     23  O95 KDJ d   1       3.938  24.942  15.883  0.00  0.00    -0.635 OA
ENDBRANCH  17  20
ENDBRANCH  14  17
ENDBRANCH   3  13
BRANCH   2  24
ATOM     24  O14 KDJ d   1      -1.500  21.335  13.251  0.00  0.00    -0.272 OA
BRANCH  24  25
ATOM     25  PA4 KDJ d   1      -2.679  22.538  13.463  0.00  0.00     0.422 P 
ATOM     26  O34 KDJ d   1      -1.915  23.584  14.152  0.00  0.00    -0.617 OA
ATOM     27  O44 KDJ d   1      -3.668  21.774  14.202  0.00  0.00    -0.617 OA
ATOM     28  O24 KDJ d   1      -3.214  23.005  12.137  0.00  0.00    -0.617 OA
ENDBRANCH  24  25
ENDBRANCH   2  24
BRANCH   4  29
ATOM     29  O16 KDJ d   1       2.991  20.717  11.413  0.00  0.00    -0.272 OA
BRANCH  29  30
ATOM     30  PA6 KDJ d   1       4.304  21.650  11.115  0.00  0.00     0.422 P 
ATOM     31  O36 KDJ d   1       3.905  23.083  11.271  0.00  0.00    -0.617 OA
ATOM     32  O46 KDJ d   1       4.656  21.123   9.777  0.00  0.00    -0.617 OA
ATOM     33  O26 KDJ d   1       5.159  21.153  12.220  0.00  0.00    -0.617 OA
ENDBRANCH  29  30
ENDBRANCH   4  29
BRANCH   1  34
ATOM     34  O13 KDJ d   1      -2.491  20.210  10.831  0.00  0.00    -0.272 OA
BRANCH  34  35
ATOM     35  PA3 KDJ d   1      -3.481  18.955  11.145  0.00  0.00     0.422 P 
ATOM     36  O33 KDJ d   1      -2.898  17.855  10.406  0.00  0.00    -0.617 OA
ATOM     37  O43 KDJ d   1      -4.815  19.480  10.684  0.00  0.00    -0.617 OA
ATOM     38  O23 KDJ d   1      -3.390  18.833  12.637  0.00  0.00    -0.617 OA
ENDBRANCH  34  35
ENDBRANCH   1  34
BRANCH   5  39
ATOM     39  O11 KDJ d   1       1.895  19.819   8.944  0.00  0.00    -0.272 OA
BRANCH  39  40
ATOM     40  PA1 KDJ d   1       1.931  18.311   8.216  0.00  0.00     0.422 P 
ATOM     41  O31 KDJ d   1       0.654  18.101   7.458  0.00  0.00    -0.617 OA
ATOM     42  O41 KDJ d   1       3.137  18.542   7.406  0.00  0.00    -0.617 OA
ATOM     43  O21 KDJ d   1       2.115  17.305   9.325  0.00  0.00    -0.617 OA
ENDBRANCH  39  40
ENDBRANCH   5  39
BRANCH   6  44
ATOM     44  O12 KDJ d   1      -0.457  21.489   9.200  0.00  0.00    -0.272 OA
BRANCH  44  45
ATOM     45  PA2 KDJ d   1      -1.037  21.520   7.651  0.00  0.00     0.422 P 
ATOM     46  O32 KDJ d   1      -0.720  20.232   7.042  0.00  0.00    -0.617 OA
ATOM     47  O42 KDJ d   1      -0.377  22.657   7.082  0.00  0.00    -0.617 OA
ATOM     48  O22 KDJ d   1      -2.504  21.648   7.835  0.00  0.00    -0.617 OA
ENDBRANCH  44  45
ENDBRANCH   6  44
TORSDOF 13
