REMARK  16 active torsions:
REMARK  status: ('A' for Active; 'I' for Inactive)
REMARK    1  A    between atoms: C12_15  and  C13_1 
REMARK    2  A    between atoms: C13_1  and  C14_16 
REMARK    3  A    between atoms: C14_16  and  C15_2 
REMARK    4  A    between atoms: C15_2  and  C16_17 
REMARK    5  A    between atoms: C16_17  and  C17_3 
REMARK    6  A    between atoms: C17_3  and  C18_18 
REMARK    7  A    between atoms: C02_5  and  C01_4 
REMARK    8  A    between atoms: C03_6  and  C02_5 
REMARK    9  A    between atoms: C04_7  and  C03_6 
REMARK   10  A    between atoms: C05_8  and  C04_7 
REMARK   11  A    between atoms: C06_9  and  C05_8 
REMARK   12  A    between atoms: C07_10  and  C06_9 
REMARK   13  A    between atoms: C08_11  and  C07_10 
REMARK   14  A    between atoms: C09_12  and  C08_11 
REMARK       I    between atoms: N11_14  and  C09_12 
REMARK   15  A    between atoms: N11_14  and  C12_15 
REMARK   16  A    between atoms: C18_18  and  C19_19 
REMARK       I    between atoms: C19_19  and  N20_20 
ROOT
ATOM      1  C09 KJ1 d   1       7.419   9.677  19.410  0.00  0.00     0.217 C 
ATOM      2  O10 KJ1 d   1       6.422   9.034  19.605  0.00  0.00    -0.274 OA
ATOM      3  N11 KJ1 d   1       8.669   9.346  20.048  0.00  0.00    -0.361 N 
ATOM      4  H24 KJ1 d   1       9.481   9.897  19.856  0.00  0.00     0.162 HD
ENDROOT
BRANCH   3   5
ATOM      5  C12 KJ1 d   1       8.769   8.204  20.982  0.00  0.00    -0.005 C 
ATOM      6  H25 KJ1 d   1       9.070   8.576  21.972  0.00  0.00     0.064 H 
ATOM      7  H26 KJ1 d   1       7.787   7.715  21.057  0.00  0.00     0.064 H 
BRANCH   5   8
ATOM      8  C13 KJ1 d   1       9.804   7.178  20.495  0.00  0.00    -0.050 C 
ATOM      9  H1  KJ1 d   1      10.684   7.724  20.125  0.00  0.00     0.035 H 
ATOM     10  H2  KJ1 d   1       9.358   6.601  19.672  0.00  0.00     0.035 H 
BRANCH   8  11
ATOM     11  C14 KJ1 d   1      10.274   6.180  21.592  0.00  0.00    -0.064 C 
ATOM     12  H27 KJ1 d   1      10.022   5.166  21.248  0.00  0.00     0.033 H 
ATOM     13  H28 KJ1 d   1       9.712   6.407  22.510  0.00  0.00     0.033 H 
BRANCH  11  14
ATOM     14  C15 KJ1 d   1      11.786   6.191  21.953  0.00  0.00    -0.065 C 
ATOM     15  H3  KJ1 d   1      11.891   6.620  22.960  0.00  0.00     0.033 H 
ATOM     16  H4  KJ1 d   1      12.304   6.832  21.225  0.00  0.00     0.033 H 
BRANCH  14  17
ATOM     17  C16 KJ1 d   1      12.490   4.788  21.949  0.00  0.00    -0.065 C 
ATOM     18  H29 KJ1 d   1      13.184   4.779  21.095  0.00  0.00     0.033 H 
ATOM     19  H30 KJ1 d   1      11.704   4.035  21.791  0.00  0.00     0.033 H 
BRANCH  17  20
ATOM     20  C17 KJ1 d   1      13.300   4.342  23.195  0.00  0.00    -0.057 C 
ATOM     21  H5  KJ1 d   1      12.587   4.261  24.029  0.00  0.00     0.033 H 
ATOM     22  H6  KJ1 d   1      14.025   5.141  23.409  0.00  0.00     0.033 H 
BRANCH  20  23
ATOM     23  C18 KJ1 d   1      14.104   2.995  23.147  0.00  0.00     0.009 C 
ATOM     24  H31 KJ1 d   1      13.573   2.286  22.495  0.00  0.00     0.047 H 
ATOM     25  H32 KJ1 d   1      14.167   2.581  24.164  0.00  0.00     0.047 H 
BRANCH  23  26
ATOM     26  C19 KJ1 d   1      15.530   3.200  22.603  0.00  0.00     0.215 C 
ATOM     27  N20 KJ1 d   1      15.620   4.000  21.406  0.00  0.00    -0.370 N 
ATOM     28  H33 KJ1 d   1      16.512   4.179  20.990  0.00  0.00     0.159 HD
ATOM     29  H34 KJ1 d   1      14.791   4.375  20.992  0.00  0.00     0.159 HD
ATOM     30  O21 KJ1 d   1      16.549   2.729  23.081  0.00  0.00    -0.274 OA
ENDBRANCH  23  26
ENDBRANCH  20  23
ENDBRANCH  17  20
ENDBRANCH  14  17
ENDBRANCH  11  14
ENDBRANCH   8  11
ENDBRANCH   5   8
ENDBRANCH   3   5
BRANCH   1  31
ATOM     31  C08 KJ1 d   1       7.409  10.869  18.466  0.00  0.00     0.009 C 
ATOM     32  H22 KJ1 d   1       6.998  11.738  19.000  0.00  0.00     0.047 H 
ATOM     33  H23 KJ1 d   1       8.443  11.083  18.158  0.00  0.00     0.047 H 
BRANCH  31  34
ATOM     34  C07 KJ1 d   1       6.572  10.621  17.223  0.00  0.00    -0.057 C 
ATOM     35  H20 KJ1 d   1       6.931   9.719  16.705  0.00  0.00     0.033 H 
ATOM     36  H21 KJ1 d   1       5.517  10.487  17.504  0.00  0.00     0.033 H 
BRANCH  34  37
ATOM     37  C06 KJ1 d   1       6.716  11.844  16.302  0.00  0.00    -0.065 C 
ATOM     38  H18 KJ1 d   1       6.590  12.756  16.904  0.00  0.00     0.033 H 
ATOM     39  H19 KJ1 d   1       7.721  11.834  15.856  0.00  0.00     0.033 H 
BRANCH  37  40
ATOM     40  C05 KJ1 d   1       5.675  11.850  15.173  0.00  0.00    -0.065 C 
ATOM     41  H16 KJ1 d   1       5.858  11.001  14.498  0.00  0.00     0.033 H 
ATOM     42  H17 KJ1 d   1       4.665  11.767  15.602  0.00  0.00     0.033 H 
BRANCH  40  43
ATOM     43  C04 KJ1 d   1       5.795  13.173  14.384  0.00  0.00    -0.065 C 
ATOM     44  H14 KJ1 d   1       5.693  14.012  15.088  0.00  0.00     0.033 H 
ATOM     45  H15 KJ1 d   1       6.787  13.210  13.911  0.00  0.00     0.033 H 
BRANCH  43  46
ATOM     46  C03 KJ1 d   1       4.730  13.318  13.295  0.00  0.00    -0.065 C 
ATOM     47  H12 KJ1 d   1       3.737  13.136  13.733  0.00  0.00     0.033 H 
ATOM     48  H13 KJ1 d   1       4.768  14.338  12.885  0.00  0.00     0.033 H 
BRANCH  46  49
ATOM     49  C02 KJ1 d   1       4.975  12.316  12.173  0.00  0.00    -0.069 C 
ATOM     50  H10 KJ1 d   1       4.859  11.295  12.566  0.00  0.00     0.032 H 
ATOM     51  H11 KJ1 d   1       4.244  12.485  11.369  0.00  0.00     0.032 H 
BRANCH  49  52
ATOM     52  C01 KJ1 d   1       6.398  12.486  11.611  0.00  0.00    -0.077 C 
ATOM     53  H7  KJ1 d   1       6.562  11.758  10.803  0.00  0.00     0.027 H 
ATOM     54  H8  KJ1 d   1       7.132  12.316  12.413  0.00  0.00     0.027 H 
ATOM     55  H9  KJ1 d   1       6.517  13.506  11.216  0.00  0.00     0.027 H 
ENDBRANCH  49  52
ENDBRANCH  46  49
ENDBRANCH  43  46
ENDBRANCH  40  43
ENDBRANCH  37  40
ENDBRANCH  34  37
ENDBRANCH  31  34
ENDBRANCH   1  31
TORSDOF 16
