REMARK  5 active torsions:
REMARK  status: ('A' for Active; 'I' for Inactive)
REMARK    1  A    between atoms: C19_24  and  C20_3 
REMARK       I    between atoms: C02_9  and  N03_10 
REMARK       I    between atoms: N15_21  and  C02_9 
REMARK    2  A    between atoms: N03_10  and  C04_11 
REMARK    3  A    between atoms: C07_14  and  O08_15 
REMARK    4  A    between atoms: O08_15  and  C09_16 
REMARK    5  A    between atoms: C18_23  and  C19_24 
ROOT
ATOM      1  C17 KDS d   1       7.687  89.319 102.501  0.00  0.00    -0.046 C 
ATOM      2  O01 KDS d   1       6.618  85.767 105.604  0.00  0.00    -0.247 OA
ATOM      3  C02 KDS d   1       7.423  86.534 105.194  0.00  0.00     0.322 C 
ATOM      4  N03 KDS d   1       8.838  86.418 105.519  0.00  0.00    -0.309 N 
ATOM      5  N15 KDS d   1       7.020  87.628 104.327  0.00  0.00    -0.334 N 
ATOM      6  C16 KDS d   1       8.032  88.616 103.809  0.00  0.00    -0.000 C 
ATOM      7  C18 KDS d   1       6.283  89.767 102.516  0.00  0.00    -0.047 C 
ATOM      8  C30 KDS d   1       5.410  88.577 102.565  0.00  0.00    -0.046 C 
ATOM      9  C31 KDS d   1       5.593  87.881 103.914  0.00  0.00    -0.000 C 
ATOM     10  H2  KDS d   1       7.836  88.621 101.664  0.00  0.00     0.035 H 
ATOM     11  H3  KDS d   1       8.345  90.191 102.373  0.00  0.00     0.035 H 
ATOM     12  H7  KDS d   1       9.465  87.104 105.151  0.00  0.00     0.170 HD
ATOM     13  H11 KDS d   1       8.168  89.390 104.579  0.00  0.00     0.064 H 
ATOM     14  H12 KDS d   1       8.979  88.077 103.659  0.00  0.00     0.064 H 
ATOM     15  H13 KDS d   1       6.101  90.360 103.424  0.00  0.00     0.040 H 
ATOM     16  H19 KDS d   1       5.682  87.886 101.754  0.00  0.00     0.035 H 
ATOM     17  H20 KDS d   1       4.360  88.885 102.448  0.00  0.00     0.035 H 
ATOM     18  H21 KDS d   1       5.123  88.509 104.685  0.00  0.00     0.064 H 
ATOM     19  H22 KDS d   1       5.077  86.911 103.867  0.00  0.00     0.064 H 
ENDROOT
BRANCH   7  20
ATOM     20  C19 KDS d   1       6.056  90.674 101.302  0.00  0.00    -0.036 C 
ATOM     21  H14 KDS d   1       5.912  91.700 101.672  0.00  0.00     0.040 H 
ATOM     22  H15 KDS d   1       6.962  90.633 100.679  0.00  0.00     0.040 H 
BRANCH  20  23
ATOM     23  C20 KDS d   1       4.858  90.326 100.409  0.00  0.00    -0.039 A 
ATOM     24  C21 KDS d   1       3.583  90.801 100.736  0.00  0.00     0.009 A 
ATOM     25  N22 KDS d   1       2.553  90.509  99.952  0.00  0.00    -0.260 NA
ATOM     26  H4  KDS d   1       3.438  91.404 101.625  0.00  0.00     0.115 H 
ATOM     27  C23 KDS d   1       2.701  89.767  98.815  0.00  0.00     0.066 A 
ATOM     28  C24 KDS d   1       1.546  89.496  98.017  0.00  0.00    -0.054 A 
ATOM     29  C28 KDS d   1       3.920  89.288  98.435  0.00  0.00    -0.007 A 
ATOM     30  C25 KDS d   1       1.666  88.743  96.855  0.00  0.00    -0.081 A 
ATOM     31  H5  KDS d   1       0.577  89.878  98.318  0.00  0.00     0.087 H 
ATOM     32  C26 KDS d   1       2.915  88.252  96.466  0.00  0.00    -0.082 A 
ATOM     33  H16 KDS d   1       0.790  88.537  96.250  0.00  0.00     0.083 H 
ATOM     34  C27 KDS d   1       4.043  88.516  97.242  0.00  0.00    -0.071 A 
ATOM     35  H6  KDS d   1       3.007  87.665  95.559  0.00  0.00     0.083 H 
ATOM     36  H17 KDS d   1       5.012  88.135  96.939  0.00  0.00     0.084 H 
ATOM     37  C29 KDS d   1       5.057  89.576  99.251  0.00  0.00    -0.063 A 
ATOM     38  H18 KDS d   1       6.045  89.222  98.978  0.00  0.00     0.085 H 
ENDBRANCH  20  23
ENDBRANCH   7  20
BRANCH   4  39
ATOM     39  C04 KDS d   1       9.390  85.357 106.351  0.00  0.00     0.036 A 
ATOM     40  C05 KDS d   1       9.016  84.046 106.112  0.00  0.00    -0.054 A 
ATOM     41  C06 KDS d   1       9.542  83.025 106.881  0.00  0.00    -0.048 A 
ATOM     42  H8  KDS d   1       8.310  83.820 105.321  0.00  0.00     0.087 H 
ATOM     43  C07 KDS d   1      10.454  83.323 107.878  0.00  0.00     0.078 A 
ATOM     44  H9  KDS d   1       9.242  81.998 106.704  0.00  0.00     0.087 H 
ATOM     45  C13 KDS d   1      10.846  84.631 108.116  0.00  0.00    -0.048 A 
ATOM     46  C14 KDS d   1      10.314  85.649 107.343  0.00  0.00    -0.054 A 
ATOM     47  H1  KDS d   1      11.562  84.855 108.899  0.00  0.00     0.087 H 
ATOM     48  H10 KDS d   1      10.620  86.675 107.513  0.00  0.00     0.087 H 
BRANCH  43  49
ATOM     49  O08 KDS d   1      10.990  82.287 108.641  0.00  0.00    -0.255 OA
BRANCH  49  50
ATOM     50  C09 KDS d   1      12.289  81.962 108.240  0.00  0.00     0.530 C 
ATOM     51  F10 KDS d   1      12.519  82.467 106.992  0.00  0.00    -0.144 F 
ATOM     52  F11 KDS d   1      13.177  82.492 109.131  0.00  0.00    -0.144 F 
ATOM     53  F12 KDS d   1      12.434  80.609 108.192  0.00  0.00    -0.144 F 
ENDBRANCH  49  50
ENDBRANCH  43  49
ENDBRANCH   4  39
TORSDOF 5
