REMARK  5 active torsions:
REMARK  status: ('A' for Active; 'I' for Inactive)
REMARK    1  A    between atoms: C23_5  and  C28_7 
REMARK    2  A    between atoms: O19_30  and  C20_6 
REMARK       I    between atoms: C26_8  and  N18_25 
REMARK       I    between atoms: N11_26  and  C26_8 
REMARK    3  A    between atoms: N18_25  and  C13_22 
REMARK    4  A    between atoms: C16_23  and  O19_30 
REMARK    5  A    between atoms: C7_24  and  N11_26 
ROOT
ATOM      1  C26 AUB d   1       8.648 -25.223 -22.446  0.00  0.00     0.317 C 
ATOM      2  N18 AUB d   1       9.638 -25.451 -21.418  0.00  0.00    -0.339 N 
ATOM      3  N11 AUB d   1       8.902 -24.024 -23.224  0.00  0.00    -0.334 N 
ATOM      4  O27 AUB d   1       7.707 -25.943 -22.595  0.00  0.00    -0.247 OA
ATOM      5  H30 AUB d   1      10.374 -24.781 -21.321  0.00  0.00     0.164 HD
ATOM      6  H31 AUB d   1       9.686 -23.479 -22.928  0.00  0.00     0.165 HD
ENDROOT
BRANCH   2   7
ATOM      7  C13 AUB d   1       9.635 -26.583 -20.521  0.00  0.00     0.014 C 
ATOM      8  C14 AUB d   1      10.081 -27.727 -21.433  0.00  0.00    -0.044 C 
ATOM      9  C15 AUB d   1      10.578 -28.977 -20.701  0.00  0.00    -0.038 C 
ATOM     10  H5  AUB d   1       9.226 -28.016 -22.062  0.00  0.00     0.036 H 
ATOM     11  H6  AUB d   1      10.897 -27.357 -22.071  0.00  0.00     0.036 H 
ATOM     12  C16 AUB d   1      11.589 -28.692 -19.579  0.00  0.00     0.045 C 
ATOM     13  H9  AUB d   1      11.057 -29.640 -21.437  0.00  0.00     0.036 H 
ATOM     14  H10 AUB d   1       9.709 -29.487 -20.260  0.00  0.00     0.036 H 
ATOM     15  C17 AUB d   1      11.117 -27.549 -18.690  0.00  0.00    -0.038 C 
ATOM     16  H29 AUB d   1      12.578 -28.466 -20.003  0.00  0.00     0.084 H 
ATOM     17  C12 AUB d   1      10.711 -26.305 -19.474  0.00  0.00    -0.044 C 
ATOM     18  H11 AUB d   1      10.249 -27.894 -18.108  0.00  0.00     0.036 H 
ATOM     19  H12 AUB d   1      11.934 -27.279 -18.005  0.00  0.00     0.036 H 
ATOM     20  H7  AUB d   1      11.601 -25.906 -19.983  0.00  0.00     0.036 H 
ATOM     21  H8  AUB d   1      10.326 -25.555 -18.767  0.00  0.00     0.036 H 
ATOM     22  H28 AUB d   1       8.654 -26.769 -20.059  0.00  0.00     0.072 H 
BRANCH  12  23
ATOM     23  O19 AUB d   1      11.631 -29.840 -18.766  0.00  0.00    -0.346 OA
BRANCH  23  24
ATOM     24  C20 AUB d   1      12.903 -30.262 -18.369  0.00  0.00     0.069 A 
ATOM     25  C21 AUB d   1      14.068 -29.718 -18.897  0.00  0.00    -0.050 A 
ATOM     26  C22 AUB d   1      15.298 -30.189 -18.464  0.00  0.00    -0.064 A 
ATOM     27  H3  AUB d   1      14.015 -28.932 -19.641  0.00  0.00     0.087 H 
ATOM     28  C23 AUB d   1      15.352 -31.191 -17.507  0.00  0.00     0.041 A 
ATOM     29  H1  AUB d   1      16.213 -29.776 -18.872  0.00  0.00     0.085 H 
ATOM     30  C24 AUB d   1      14.194 -31.737 -16.984  0.00  0.00    -0.064 A 
ATOM     31  C25 AUB d   1      12.970 -31.268 -17.416  0.00  0.00    -0.050 A 
ATOM     32  H2  AUB d   1      14.247 -32.526 -16.242  0.00  0.00     0.085 H 
ATOM     33  H4  AUB d   1      12.057 -31.688 -17.009  0.00  0.00     0.087 H 
BRANCH  28  34
ATOM     34  C28 AUB d   1      16.685 -31.729 -17.011  0.00  0.00     0.209 C 
ATOM     35  O29 AUB d   1      16.694 -32.814 -16.378  0.00  0.00    -0.644 OA
ATOM     36  O30 AUB d   1      17.755 -31.105 -17.236  0.00  0.00    -0.644 OA
ENDBRANCH  28  34
ENDBRANCH  23  24
ENDBRANCH  12  23
ENDBRANCH   2   7
BRANCH   3  37
ATOM     37  C7  AUB d   1       8.180 -23.506 -24.368  0.00  0.00     0.035 C 
ATOM     38  C2  AUB d   1       8.747 -22.103 -24.644  0.00  0.00    -0.038 C 
ATOM     39  C1  AUB d   1       8.213 -21.625 -25.947  0.00  0.00    -0.051 C 
ATOM     40  H19 AUB d   1       8.440 -21.415 -23.843  0.00  0.00     0.037 H 
ATOM     41  H20 AUB d   1       9.845 -22.149 -24.688  0.00  0.00     0.037 H 
ATOM     42  C6  AUB d   1       8.590 -22.645 -27.049  0.00  0.00    -0.058 C 
ATOM     43  C9  AUB d   1       6.656 -21.564 -25.812  0.00  0.00    -0.058 C 
ATOM     44  H25 AUB d   1       8.619 -20.633 -26.192  0.00  0.00     0.040 H 
ATOM     45  C5  AUB d   1       7.819 -24.015 -26.862  0.00  0.00    -0.051 C 
ATOM     46  H13 AUB d   1       9.672 -22.835 -27.004  0.00  0.00     0.034 H 
ATOM     47  H14 AUB d   1       8.332 -22.221 -28.031  0.00  0.00     0.034 H 
ATOM     48  C4  AUB d   1       6.395 -23.849 -26.655  0.00  0.00    -0.058 C 
ATOM     49  C10 AUB d   1       8.596 -24.368 -25.542  0.00  0.00    -0.038 C 
ATOM     50  H26 AUB d   1       7.992 -24.731 -27.679  0.00  0.00     0.040 H 
ATOM     51  C3  AUB d   1       6.077 -22.945 -25.472  0.00  0.00    -0.051 C 
ATOM     52  H17 AUB d   1       5.948 -24.837 -26.473  0.00  0.00     0.034 H 
ATOM     53  H18 AUB d   1       5.956 -23.409 -27.563  0.00  0.00     0.034 H 
ATOM     54  C8  AUB d   1       6.676 -23.404 -24.234  0.00  0.00    -0.038 C 
ATOM     55  H27 AUB d   1       4.987 -22.881 -25.342  0.00  0.00     0.040 H 
ATOM     56  H23 AUB d   1       6.269 -24.394 -23.982  0.00  0.00     0.037 H 
ATOM     57  H24 AUB d   1       6.433 -22.693 -23.431  0.00  0.00     0.037 H 
ATOM     58  H21 AUB d   1       9.672 -24.225 -25.719  0.00  0.00     0.037 H 
ATOM     59  H22 AUB d   1       8.402 -25.421 -25.291  0.00  0.00     0.037 H 
ATOM     60  H15 AUB d   1       6.226 -21.218 -26.764  0.00  0.00     0.034 H 
ATOM     61  H16 AUB d   1       6.392 -20.857 -25.012  0.00  0.00     0.034 H 
ENDBRANCH   3  37
TORSDOF 5
