REMARK  0 active torsions:
REMARK  status: ('A' for Active; 'I' for Inactive)
ROOT
ATOM      1  C2  KDV d   1      12.029   8.417 -16.551  0.00  0.00     0.101 C 
ATOM      2  C3  KDV d   1      11.370   7.196 -16.162  0.00  0.00     0.063 A 
ATOM      3  C6  KDV d   1      10.134   4.898 -15.284  0.00  0.00     0.066 A 
ATOM      4  C7  KDV d   1       9.502   3.720 -14.830  0.00  0.00    -0.054 A 
ATOM      5  C8  KDV d   1       8.969   2.819 -15.725  0.00  0.00    -0.081 A 
ATOM      6  C10 KDV d   1       9.661   4.198 -17.562  0.00  0.00    -0.071 A 
ATOM      7  C11 KDV d   1      10.218   5.146 -16.675  0.00  0.00    -0.006 A 
ATOM      8  C12 KDV d   1      10.852   6.324 -17.114  0.00  0.00    -0.049 A 
ATOM      9  N1  KDV d   1      12.567   9.407 -16.807  0.00  0.00    -0.191 NA
ATOM     10  C4  KDV d   1      11.245   6.876 -14.811  0.00  0.00     0.023 A 
ATOM     11  N5  KDV d   1      10.650   5.766 -14.359  0.00  0.00    -0.259 NA
ATOM     12  C9  KDV d   1       9.048   3.056 -17.086  0.00  0.00    -0.082 A 
ATOM     13  H1  KDV d   1       9.436   3.523 -13.766  0.00  0.00     0.087 H 
ATOM     14  H2  KDV d   1       8.485   1.920 -15.361  0.00  0.00     0.083 H 
ATOM     15  H3  KDV d   1       9.716   4.370 -18.631  0.00  0.00     0.084 H 
ATOM     16  H4  KDV d   1      10.935   6.547 -18.172  0.00  0.00     0.087 H 
ATOM     17  H5  KDV d   1      11.654   7.567 -14.083  0.00  0.00     0.117 H 
ATOM     18  H6  KDV d   1       8.626   2.341 -17.783  0.00  0.00     0.083 H 
ENDROOT
TORSDOF 0
