REMARK  13 active torsions:
REMARK  status: ('A' for Active; 'I' for Inactive)
REMARK    1  A    between atoms: N4_22  and  C1_1 
REMARK    2  A    between atoms: C2_2  and  O1_10 
REMARK    3  A    between atoms: O1_10  and  C3_3 
REMARK    4  A    between atoms: C10_14  and  C13_17 
REMARK    5  A    between atoms: C10_14  and  O2_20 
REMARK    6  A    between atoms: C14_18  and  N4_22 
REMARK    7  A    between atoms: C17_24  and  C20_25 
REMARK       I    between atoms: C20_25  and  N5_27 
REMARK    8  A    between atoms: N5_27  and  C22_28 
REMARK    9  A    between atoms: N5_27  and  C21_29 
REMARK   10  A    between atoms: C19_31  and  O4_32 
REMARK   11  A    between atoms: O4_32  and  C23_33 
REMARK   12  A    between atoms: C23_33  and  C24_34 
REMARK   13  A    between atoms: C23_33  and  C25_35 
ROOT
ATOM      1  C1  KE7 d   1     -18.873  40.624 141.784  0.00  0.00     0.731 A 
ATOM      2  C2  KE7 d   1     -16.775  41.120 140.916  0.00  0.00     0.199 A 
ATOM      3  C4  KE7 d   1     -17.381  41.637 139.781  0.00  0.00     0.087 A 
ATOM      4  C5  KE7 d   1     -18.757  41.629 139.688  0.00  0.00     0.163 A 
ATOM      5  C6  KE7 d   1     -17.986  42.514 137.860  0.00  0.00     0.001 A 
ATOM      6  N1  KE7 d   1     -17.539  40.632 141.896  0.00  0.00    -0.037 NA
ATOM      7  N2  KE7 d   1     -19.090  42.156 138.517  0.00  0.00    -0.348 N 
ATOM      8  N3  KE7 d   1     -19.480  41.124 140.690  0.00  0.00    -0.044 NA
ATOM      9  C7  KE7 d   1     -16.934  42.211 138.606  0.00  0.00     0.067 A 
ATOM     10 CL1  KE7 d   1     -15.281  42.503 138.157  0.00  0.00    -0.082 Cl
ATOM     11  H2  KE7 d   1     -17.955  42.978 136.875  0.00  0.00     0.114 H 
ATOM     12  H3  KE7 d   1     -20.053  42.271 138.169  0.00  0.00     0.167 HD
ENDROOT
BRANCH   1  13
ATOM     13  N4  KE7 d   1     -19.623  40.130 142.769  0.00  0.00    -0.185 N 
ATOM     14  H17 KE7 d   1     -20.646  40.229 142.696  0.00  0.00     0.184 HD
BRANCH  13  15
ATOM     15  C14 KE7 d   1     -19.126  39.514 143.845  0.00  0.00     0.082 A 
ATOM     16  C15 KE7 d   1     -18.056  38.636 143.764  0.00  0.00    -0.053 A 
ATOM     17  C16 KE7 d   1     -17.598  38.014 144.921  0.00  0.00    -0.065 A 
ATOM     18  H15 KE7 d   1     -17.582  38.437 142.810  0.00  0.00     0.087 H 
ATOM     19  C17 KE7 d   1     -18.192  38.271 146.157  0.00  0.00     0.035 A 
ATOM     20  H18 KE7 d   1     -16.768  37.320 144.861  0.00  0.00     0.085 H 
ATOM     21  C18 KE7 d   1     -19.267  39.148 146.231  0.00  0.00    -0.033 A 
ATOM     22  C19 KE7 d   1     -19.730  39.763 145.075  0.00  0.00     0.097 A 
ATOM     23  H25 KE7 d   1     -19.741  39.351 147.185  0.00  0.00     0.089 H 
BRANCH  19  24
ATOM     24  C20 KE7 d   1     -17.688  37.578 147.439  0.00  0.00     0.253 C 
ATOM     25  O3  KE7 d   1     -18.502  37.082 148.211  0.00  0.00    -0.267 OA
ATOM     26  N5  KE7 d   1     -16.367  37.515 147.635  0.00  0.00    -0.357 N 
BRANCH  26  27
ATOM     27  C22 KE7 d   1     -15.442  38.117 146.668  0.00  0.00    -0.016 C 
ATOM     28  H19 KE7 d   1     -14.407  37.961 147.005  0.00  0.00     0.056 H 
ATOM     29  H20 KE7 d   1     -15.643  39.196 146.590  0.00  0.00     0.056 H 
ATOM     30  H21 KE7 d   1     -15.583  37.646 145.684  0.00  0.00     0.056 H 
ENDBRANCH  26  27
BRANCH  26  31
ATOM     31  C21 KE7 d   1     -15.861  36.833 148.828  0.00  0.00    -0.016 C 
ATOM     32  H22 KE7 d   1     -16.707  36.454 149.420  0.00  0.00     0.056 H 
ATOM     33  H23 KE7 d   1     -15.277  37.540 149.435  0.00  0.00     0.056 H 
ATOM     34  H24 KE7 d   1     -15.220  35.992 148.525  0.00  0.00     0.056 H 
ENDBRANCH  26  31
ENDBRANCH  19  24
BRANCH  22  35
ATOM     35  O4  KE7 d   1     -20.764  40.646 145.071  0.00  0.00    -0.335 OA
BRANCH  35  36
ATOM     36  C23 KE7 d   1     -21.590  40.769 146.222  0.00  0.00     0.135 C 
ATOM     37  H26 KE7 d   1     -21.555  39.875 146.863  0.00  0.00     0.097 H 
BRANCH  36  38
ATOM     38  C24 KE7 d   1     -22.996  41.030 145.665  0.00  0.00    -0.043 C 
ATOM     39  H27 KE7 d   1     -23.706  41.139 146.498  0.00  0.00     0.031 H 
ATOM     40  H28 KE7 d   1     -23.302  40.185 145.031  0.00  0.00     0.031 H 
ATOM     41  H29 KE7 d   1     -22.988  41.953 145.067  0.00  0.00     0.031 H 
ENDBRANCH  36  38
BRANCH  36  42
ATOM     42  C25 KE7 d   1     -21.136  42.017 146.968  0.00  0.00     0.413 C 
ATOM     43  F2  KE7 d   1     -21.184  43.075 146.148  0.00  0.00    -0.168 F 
ATOM     44  F3  KE7 d   1     -19.896  41.829 147.424  0.00  0.00    -0.168 F 
ATOM     45  F1  KE7 d   1     -21.961  42.217 147.982  0.00  0.00    -0.168 F 
ENDBRANCH  36  42
ENDBRANCH  35  36
ENDBRANCH  22  35
ENDBRANCH  13  15
ENDBRANCH   1  13
BRANCH   2  46
ATOM     46  O1  KE7 d   1     -15.426  41.128 141.028  0.00  0.00    -0.328 OA
BRANCH  46  47
ATOM     47  C3  KE7 d   1     -14.938  40.402 142.148  0.00  0.00     0.047 C 
ATOM     48  C8  KE7 d   1     -13.679  41.148 142.558  0.00  0.00    -0.038 C 
ATOM     49  C9  KE7 d   1     -12.861  40.380 143.597  0.00  0.00    -0.034 C 
ATOM     50  H4  KE7 d   1     -13.967  42.121 142.983  0.00  0.00     0.036 H 
ATOM     51  H5  KE7 d   1     -13.056  41.308 141.666  0.00  0.00     0.036 H 
ATOM     52  C10 KE7 d   1     -12.498  38.978 143.122  0.00  0.00     0.054 C 
ATOM     53  H6  KE7 d   1     -13.450  40.299 144.522  0.00  0.00     0.037 H 
ATOM     54  H7  KE7 d   1     -11.934  40.936 143.800  0.00  0.00     0.037 H 
ATOM     55  C11 KE7 d   1     -13.766  38.248 142.679  0.00  0.00    -0.034 C 
ATOM     56  C12 KE7 d   1     -14.538  39.034 141.625  0.00  0.00    -0.038 C 
ATOM     57  H8  KE7 d   1     -14.414  38.097 143.555  0.00  0.00     0.037 H 
ATOM     58  H9  KE7 d   1     -13.485  37.271 142.259  0.00  0.00     0.037 H 
ATOM     59  H10 KE7 d   1     -13.904  39.161 140.735  0.00  0.00     0.036 H 
ATOM     60  H11 KE7 d   1     -15.445  38.474 141.352  0.00  0.00     0.036 H 
ATOM     61  H1  KE7 d   1     -15.670  40.333 142.966  0.00  0.00     0.084 H 
BRANCH  52  62
ATOM     62  C13 KE7 d   1     -11.827  38.212 144.266  0.00  0.00    -0.048 C 
ATOM     63  H12 KE7 d   1     -10.916  38.744 144.578  0.00  0.00     0.031 H 
ATOM     64  H13 KE7 d   1     -11.562  37.200 143.924  0.00  0.00     0.031 H 
ATOM     65  H14 KE7 d   1     -12.521  38.142 145.117  0.00  0.00     0.031 H 
ENDBRANCH  52  62
BRANCH  52  66
ATOM     66  O2  KE7 d   1     -11.627  39.070 141.998  0.00  0.00    -0.390 OA
ATOM     67  H16 KE7 d   1     -10.831  39.522 142.252  0.00  0.00     0.210 HD
ENDBRANCH  52  66
ENDBRANCH  46  47
ENDBRANCH   2  46
TORSDOF 13
