REMARK  6 active torsions:
REMARK  status: ('A' for Active; 'I' for Inactive)
REMARK    1  A    between atoms: C3_14  and  C4_1 
REMARK    2  A    between atoms: C11_5  and  C12_10 
REMARK       I    between atoms: N2_13  and  C11_5 
REMARK    3  A    between atoms: C9_8  and  O_26 
REMARK    4  A    between atoms: O_26  and  C10_9 
REMARK    5  A    between atoms: C2_22  and  N2_13 
REMARK    6  A    between atoms: N_24  and  C_25 
ROOT
ATOM      1  N1  KEJ d   1       8.013 -22.257  23.346  0.00  0.00    -0.170 NA
ATOM      2  C3  KEJ d   1       7.014 -23.086  23.037  0.00  0.00     0.118 A 
ATOM      3  C2  KEJ d   1       7.360 -24.457  23.363  0.00  0.00     0.084 A 
ATOM      4  C1  KEJ d   1       8.630 -24.358  23.861  0.00  0.00     0.026 A 
ATOM      5  N   KEJ d   1       8.980 -23.068  23.850  0.00  0.00    -0.282 N 
ATOM      6  H12 KEJ d   1       9.248 -25.186  24.206  0.00  0.00     0.117 H 
ENDROOT
BRANCH   3   7
ATOM      7  N2  KEJ d   1       6.553 -25.612  23.214  0.00  0.00    -0.319 N 
ATOM      8  C11 KEJ d   1       6.842 -26.863  23.713  0.00  0.00     0.261 C 
ATOM      9  O1  KEJ d   1       7.876 -27.113  24.339  0.00  0.00    -0.267 OA
ATOM     10  H8  KEJ d   1       5.700 -25.510  22.702  0.00  0.00     0.169 HD
BRANCH   8  11
ATOM     11  C12 KEJ d   1       5.829 -27.941  23.409  0.00  0.00     0.099 A 
ATOM     12  C14 KEJ d   1       4.638 -27.772  22.675  0.00  0.00     0.167 A 
ATOM     13  N5  KEJ d   1       4.091 -26.672  22.099  0.00  0.00    -0.240 NA
ATOM     14  N4  KEJ d   1       4.061 -29.014  22.593  0.00  0.00    -0.226 N 
ATOM     15  C15 KEJ d   1       2.947 -26.873  21.456  0.00  0.00     0.006 A 
ATOM     16  C16 KEJ d   1       2.298 -28.124  21.350  0.00  0.00    -0.049 A 
ATOM     17  H9  KEJ d   1       2.477 -26.015  20.977  0.00  0.00     0.114 H 
ATOM     18  C17 KEJ d   1       2.877 -29.206  21.923  0.00  0.00     0.007 A 
ATOM     19  H10 KEJ d   1       1.352 -28.216  20.819  0.00  0.00     0.087 H 
ATOM     20  H11 KEJ d   1       2.421 -30.192  21.855  0.00  0.00     0.115 H 
ATOM     21  N3  KEJ d   1       4.810 -29.976  23.237  0.00  0.00    -0.178 NA
ATOM     22  C13 KEJ d   1       5.858 -29.315  23.717  0.00  0.00     0.041 A 
ATOM     23  H7  KEJ d   1       6.656 -29.786  24.289  0.00  0.00     0.119 H 
ENDBRANCH   8  11
ENDBRANCH   3   7
BRANCH   2  24
ATOM     24  C4  KEJ d   1       5.804 -22.527  22.389  0.00  0.00     0.032 A 
ATOM     25  C5  KEJ d   1       5.168 -21.422  22.975  0.00  0.00    -0.047 A 
ATOM     26  C6  KEJ d   1       4.042 -20.882  22.384  0.00  0.00     0.035 A 
ATOM     27  H1  KEJ d   1       5.560 -20.993  23.890  0.00  0.00     0.087 H 
ATOM     28  C7  KEJ d   1       3.515 -21.402  21.218  0.00  0.00    -0.059 A 
ATOM     29 CL   KEJ d   1       3.240 -19.539  23.159  0.00  0.00    -0.084 Cl
ATOM     30  C8  KEJ d   1       4.134 -22.491  20.623  0.00  0.00    -0.048 A 
ATOM     31  H2  KEJ d   1       2.628 -20.964  20.773  0.00  0.00     0.086 H 
ATOM     32  C9  KEJ d   1       5.271 -23.052  21.198  0.00  0.00     0.081 A 
ATOM     33  H3  KEJ d   1       3.731 -22.907  19.707  0.00  0.00     0.087 H 
BRANCH  32  34
ATOM     34  O   KEJ d   1       5.926 -24.139  20.684  0.00  0.00    -0.355 OA
BRANCH  34  35
ATOM     35  C10 KEJ d   1       5.604 -24.554  19.354  0.00  0.00     0.010 C 
ATOM     36  H4  KEJ d   1       6.209 -25.433  19.088  0.00  0.00     0.066 H 
ATOM     37  H5  KEJ d   1       5.819 -23.735  18.652  0.00  0.00     0.066 H 
ATOM     38  H6  KEJ d   1       4.537 -24.813  19.299  0.00  0.00     0.066 H 
ENDBRANCH  34  35
ENDBRANCH  32  34
ENDBRANCH   2  24
BRANCH   5  39
ATOM     39  C   KEJ d   1      10.226 -22.483  24.329  0.00  0.00     0.002 C 
ATOM     40  H13 KEJ d   1      10.887 -23.281  24.699  0.00  0.00     0.059 H 
ATOM     41  H14 KEJ d   1      10.010 -21.778  25.145  0.00  0.00     0.059 H 
ATOM     42  H15 KEJ d   1      10.721 -21.949  23.505  0.00  0.00     0.059 H 
ENDBRANCH   5  39
TORSDOF 6
