REMARK  5 active torsions:
REMARK  status: ('A' for Active; 'I' for Inactive)
REMARK       I    between atoms: C14_2  and  N2_13 
REMARK    1  A    between atoms: C15_17  and  C14_2 
REMARK    2  A    between atoms: C11_5  and  C10_9 
REMARK    3  A    between atoms: N2_13  and  C12_10 
REMARK    4  A    between atoms: C1_26  and  O_27 
REMARK    5  A    between atoms: O_27  and  C_28 
ROOT
ATOM      1  C11 KF1 d   1       0.395 -22.578  67.054  0.00  0.00     0.091 A 
ATOM      2  C12 KF1 d   1       0.087 -22.794  68.420  0.00  0.00     0.083 A 
ATOM      3  C13 KF1 d   1      -1.252 -23.258  68.439  0.00  0.00     0.050 A 
ATOM      4  N1  KF1 d   1      -0.670 -22.910  66.308  0.00  0.00    -0.275 N 
ATOM      5  N   KF1 d   1      -1.639 -23.310  67.161  0.00  0.00    -0.184 NA
ATOM      6  H6  KF1 d   1      -1.844 -23.519  69.315  0.00  0.00     0.121 H 
ATOM      7  H7  KF1 d   1      -0.736 -22.868  65.281  0.00  0.00     0.189 HD
ENDROOT
BRANCH   1   8
ATOM      8  C10 KF1 d   1       1.585 -22.016  66.375  0.00  0.00     0.029 A 
ATOM      9  C9  KF1 d   1       2.093 -22.697  65.290  0.00  0.00    -0.057 A 
ATOM     10  C8  KF1 d   1       3.165 -22.172  64.525  0.00  0.00    -0.025 A 
ATOM     11  H5  KF1 d   1       1.664 -23.654  65.016  0.00  0.00     0.086 H 
ATOM     12  C7  KF1 d   1       3.684 -22.830  63.382  0.00  0.00    -0.072 A 
ATOM     13  C3  KF1 d   1       3.728 -20.924  64.907  0.00  0.00    -0.023 A 
ATOM     14  C6  KF1 d   1       4.688 -22.262  62.640  0.00  0.00    -0.082 A 
ATOM     15  H4  KF1 d   1       3.283 -23.794  63.091  0.00  0.00     0.084 H 
ATOM     16  C5  KF1 d   1       5.228 -21.033  63.005  0.00  0.00    -0.082 A 
ATOM     17  H3  KF1 d   1       5.064 -22.775  61.762  0.00  0.00     0.083 H 
ATOM     18  C4  KF1 d   1       4.781 -20.382  64.125  0.00  0.00    -0.072 A 
ATOM     19  H2  KF1 d   1       6.008 -20.587  62.399  0.00  0.00     0.083 H 
ATOM     20  H1  KF1 d   1       5.237 -19.443  64.417  0.00  0.00     0.084 H 
ATOM     21  C2  KF1 d   1       3.203 -20.255  66.035  0.00  0.00    -0.039 A 
ATOM     22  C1  KF1 d   1       2.165 -20.783  66.750  0.00  0.00     0.081 A 
ATOM     23  H16 KF1 d   1       3.631 -19.306  66.339  0.00  0.00     0.089 H 
BRANCH  22  24
ATOM     24  O   KF1 d   1       1.610 -20.191  67.857  0.00  0.00    -0.355 OA
BRANCH  24  25
ATOM     25  C   KF1 d   1       2.131 -18.932  68.273  0.00  0.00     0.010 C 
ATOM     26  H13 KF1 d   1       1.589 -18.588  69.166  0.00  0.00     0.066 H 
ATOM     27  H14 KF1 d   1       2.006 -18.198  67.463  0.00  0.00     0.066 H 
ATOM     28  H15 KF1 d   1       3.200 -19.038  68.511  0.00  0.00     0.066 H 
ENDBRANCH  24  25
ENDBRANCH  22  24
ENDBRANCH   1   8
BRANCH   2  29
ATOM     29  N2  KF1 d   1       0.970 -22.551  69.511  0.00  0.00    -0.320 N 
ATOM     30  C14 KF1 d   1       0.692 -22.931  70.803  0.00  0.00     0.261 C 
ATOM     31  O1  KF1 d   1      -0.333 -23.550  71.116  0.00  0.00    -0.267 OA
ATOM     32  H8  KF1 d   1       1.834 -22.081  69.329  0.00  0.00     0.169 HD
BRANCH  30  33
ATOM     33  C15 KF1 d   1       1.720 -22.589  71.821  0.00  0.00     0.099 A 
ATOM     34  C17 KF1 d   1       2.954 -21.931  71.623  0.00  0.00     0.167 A 
ATOM     35  N5  KF1 d   1       3.510 -21.380  70.511  0.00  0.00    -0.240 NA
ATOM     36  N4  KF1 d   1       3.544 -21.859  72.853  0.00  0.00    -0.226 N 
ATOM     37  C18 KF1 d   1       4.667 -20.751  70.701  0.00  0.00     0.006 A 
ATOM     38  C19 KF1 d   1       5.317 -20.636  71.949  0.00  0.00    -0.049 A 
ATOM     39  H9  KF1 d   1       5.145 -20.294  69.836  0.00  0.00     0.114 H 
ATOM     40  C20 KF1 d   1       4.744 -21.207  73.034  0.00  0.00     0.007 A 
ATOM     41  H10 KF1 d   1       6.260 -20.099  72.037  0.00  0.00     0.087 H 
ATOM     42  H11 KF1 d   1       5.215 -21.153  74.015  0.00  0.00     0.115 H 
ATOM     43  N3  KF1 d   1       2.771 -22.445  73.840  0.00  0.00    -0.178 NA
ATOM     44  C16 KF1 d   1       1.682 -22.860  73.204  0.00  0.00     0.041 A 
ATOM     45  H12 KF1 d   1       0.848 -23.357  73.698  0.00  0.00     0.119 H 
ENDBRANCH  30  33
ENDBRANCH   2  29
TORSDOF 5
