REMARK  31 active torsions:
REMARK  status: ('A' for Active; 'I' for Inactive)
REMARK    1  A    between atoms: CA_2  and  CB_5 
REMARK    2  A    between atoms: CB_5  and  SG_6 
REMARK    3  A    between atoms: CA_8  and  CB_11 
REMARK    4  A    between atoms: CB_11  and  CG_12 
REMARK    5  A    between atoms: CA_22  and  CB_25 
REMARK    6  A    between atoms: CB_25  and  OG1_26 
REMARK    7  A    between atoms: CB_25  and  CG2_27 
REMARK    8  A    between atoms: CA_29  and  CB_32 
REMARK    9  A    between atoms: CB_32  and  OG1_33 
REMARK   10  A    between atoms: CB_32  and  CG2_34 
REMARK   11  A    between atoms: CA_36  and  CB_39 
REMARK   12  A    between atoms: CB_39  and  CG_40 
REMARK   13  A    between atoms: CG_40  and  CD_41 
REMARK   14  A    between atoms: CD_41  and  NE_42 
REMARK       I    between atoms: NE_42  and  CZ_43 
REMARK       I    between atoms: CZ_43  and  NH1_44 
REMARK   15  A    between atoms: CA_47  and  CB_50 
REMARK   16  A    between atoms: CB_50  and  CG_51 
REMARK   17  A    between atoms: CG_51  and  SD_52 
REMARK   18  A    between atoms: SD_52  and  CE_53 
REMARK   19  A    between atoms: CA_55  and  CB_58 
REMARK   20  A    between atoms: CB_58  and  OG_59 
REMARK   21  A    between atoms: CA_75  and  CB_78 
REMARK   22  A    between atoms: CB_78  and  CG_79 
REMARK   23  A    between atoms: CG_79  and  SD_80 
REMARK   24  A    between atoms: SD_80  and  CE_81 
REMARK   25  A    between atoms: CA_83  and  CB_86 
REMARK   26  A    between atoms: CB_86  and  CG_87 
REMARK   27  A    between atoms: CG_87  and  CD_88 
REMARK       I    between atoms: CD_88  and  NE2_90 
REMARK   28  A    between atoms: CA_92  and  CB_95 
REMARK   29  A    between atoms: CB_95  and  CG1_96 
REMARK   30  A    between atoms: CB_95  and  CG2_97 
REMARK   31  A    between atoms: CG1_96  and  CD1_98 
ROOT
ATOM      1  N   CYS d   1     123.522  -8.240 110.921  0.00  0.00    -0.076 NA
ATOM      2  CA  CYS d   1     122.975  -8.747 109.667  0.00  0.00     0.256 A 
ATOM      3  C   CYS d   1     123.773  -9.915 109.080  0.00  0.00     0.274 C 
ATOM      4  O   CYS d   1     123.267 -10.649 108.231  0.00  0.00    -0.268 OA
ATOM      5  N   CYS d   1     125.018 -10.078 109.521  0.00  0.00    -0.344 N 
ATOM      6  CA  CYS d   1     125.889 -11.121 108.988  0.00  0.00     0.093 C 
ATOM      7  C   CYS d   1     126.294 -12.115 110.066  0.00  0.00     0.241 C 
ATOM      8  O   CYS d   1     126.292 -11.793 111.253  0.00  0.00    -0.271 OA
ATOM      9  N   CYS d   1     126.648 -13.321 109.637  0.00  0.00    -0.344 N 
ATOM     10  CA  CYS d   1     127.143 -14.353 110.536  0.00  0.00     0.113 C 
ATOM     11  C   CYS d   1     128.556 -14.765 110.135  0.00  0.00     0.243 C 
ATOM     12  O   CYS d   1     128.814 -15.068 108.969  0.00  0.00    -0.271 OA
ATOM     13  N   CYS d   1     129.469 -14.763 111.101  0.00  0.00    -0.344 N 
ATOM     14  CA  CYS d   1     130.862 -15.115 110.843  0.00  0.00     0.113 C 
ATOM     15  C   CYS d   1     131.001 -16.590 110.476  0.00  0.00     0.243 C 
ATOM     16  O   CYS d   1     130.464 -17.463 111.157  0.00  0.00    -0.271 OA
ATOM     17  N   CYS d   1     131.721 -16.858 109.392  0.00  0.00    -0.346 N 
ATOM     18  CA  CYS d   1     131.924 -18.223 108.916  0.00  0.00     0.089 C 
ATOM     19  C   CYS d   1     132.931 -18.980 109.776  0.00  0.00     0.241 C 
ATOM     20  O   CYS d   1     132.789 -20.182 109.999  0.00  0.00    -0.271 OA
ATOM     21  N   CYS d   1     133.950 -18.272 110.253  0.00  0.00    -0.346 N 
ATOM     22  CA  CYS d   1     135.004 -18.890 111.051  0.00  0.00     0.090 C 
ATOM     23  C   CYS d   1     134.615 -18.963 112.524  0.00  0.00     0.241 C 
ATOM     24  O   CYS d   1     133.993 -18.044 113.059  0.00  0.00    -0.271 OA
ATOM     25  N   CYS d   1     134.986 -20.063 113.172  0.00  0.00    -0.344 N 
ATOM     26  CA  CYS d   1     134.624 -20.300 114.565  0.00  0.00     0.109 C 
ATOM     27  C   CYS d   1     135.418 -19.406 115.516  0.00  0.00     0.245 C 
ATOM     28  O   CYS d   1     136.592 -19.127 115.273  0.00  0.00    -0.271 OA
ATOM     29  N   CYS d   1     134.776 -18.948 116.605  0.00  0.00    -0.337 N 
ATOM     30  CA  CYS d   1     133.371 -19.212 116.939  0.00  0.00     0.092 C 
ATOM     31  C   CYS d   1     132.402 -18.325 116.158  0.00  0.00     0.243 C 
ATOM     32  O   CYS d   1     132.639 -17.124 116.027  0.00  0.00    -0.271 OA
ATOM     33  CB  CYS d   1     133.309 -18.904 118.436  0.00  0.00    -0.036 C 
ATOM     34  CG  CYS d   1     134.344 -17.854 118.632  0.00  0.00    -0.048 C 
ATOM     35  CD  CYS d   1     135.453 -18.168 117.657  0.00  0.00    -0.001 C 
ATOM     36  N   CYS d   1     131.319 -18.919 115.636  0.00  0.00    -0.337 N 
ATOM     37  CA  CYS d   1     130.332 -18.174 114.848  0.00  0.00     0.091 C 
ATOM     38  C   CYS d   1     129.513 -17.203 115.695  0.00  0.00     0.241 C 
ATOM     39  O   CYS d   1     128.727 -17.627 116.543  0.00  0.00    -0.271 OA
ATOM     40  CB  CYS d   1     129.443 -19.279 114.267  0.00  0.00    -0.036 C 
ATOM     41  CG  CYS d   1     129.572 -20.409 115.230  0.00  0.00    -0.048 C 
ATOM     42  CD  CYS d   1     130.983 -20.350 115.738  0.00  0.00    -0.001 C 
ATOM     43  N   CYS d   1     129.711 -15.908 115.468  0.00  0.00    -0.346 N 
ATOM     44  CA  CYS d   1     128.917 -14.884 116.132  0.00  0.00     0.090 C 
ATOM     45  C   CYS d   1     128.126 -14.098 115.094  0.00  0.00     0.241 C 
ATOM     46  O   CYS d   1     128.584 -13.901 113.968  0.00  0.00    -0.271 OA
ATOM     47  N   CYS d   1     126.929 -13.660 115.467  0.00  0.00    -0.346 N 
ATOM     48  CA  CYS d   1     126.097 -12.896 114.550  0.00  0.00     0.090 C 
ATOM     49  C   CYS d   1     126.280 -11.401 114.769  0.00  0.00     0.241 C 
ATOM     50  O   CYS d   1     125.919 -10.862 115.815  0.00  0.00    -0.271 OA
ATOM     51  N   CYS d   1     126.865 -10.743 113.775  0.00  0.00    -0.346 N 
ATOM     52  CA  CYS d   1     126.984  -9.294 113.777  0.00  0.00     0.092 C 
ATOM     53  C   CYS d   1     125.778  -8.745 113.034  0.00  0.00     0.243 C 
ATOM     54  O   CYS d   1     125.782  -8.704 111.801  0.00  0.00    -0.271 OA
ATOM     55  N   CYS d   1     124.769  -8.287 113.799  0.00  0.00    -0.337 N 
ATOM     56  CA  CYS d   1     123.359  -8.096 113.462  0.00  0.00     0.089 C 
ATOM     57  C   CYS d   1     122.954  -8.602 112.070  0.00  0.00     0.249 C 
ATOM     58  O   CYS d   1     122.128  -9.512 112.056  0.00  0.00    -0.275 OA
ATOM     59  CB  CYS d   1     123.215  -6.583 113.568  0.00  0.00    -0.037 C 
ATOM     60  CG  CYS d   1     124.243  -6.197 114.684  0.00  0.00    -0.048 C 
ATOM     61  CD  CYS d   1     125.105  -7.425 114.943  0.00  0.00    -0.001 C 
ATOM     62  OXT CYS d   1     123.500  -8.042 111.122  0.00  0.00    -0.252 OA
ATOM     63  H4  CYS d   1     125.365  -9.471 110.235  0.00  0.00     0.163 HD
ATOM     64  H5  CYS d   1     125.336 -11.664 108.207  0.00  0.00     0.088 H 
ATOM     65  H14 CYS d   1     126.572 -13.527 108.662  0.00  0.00     0.163 HD
ATOM     66  H15 CYS d   1     127.171 -13.941 111.556  0.00  0.00     0.091 H 
ATOM     67  H21 CYS d   1     129.194 -14.514 112.030  0.00  0.00     0.163 HD
ATOM     68  H22 CYS d   1     131.212 -14.511 109.993  0.00  0.00     0.091 H 
ATOM     69  H28 CYS d   1     132.137 -16.102 108.887  0.00  0.00     0.163 HD
ATOM     70  H29 CYS d   1     130.960 -18.750 108.973  0.00  0.00     0.087 H 
ATOM     71  H41 CYS d   1     133.995 -17.292 110.060  0.00  0.00     0.163 HD
ATOM     72  H42 CYS d   1     135.153 -19.916 110.685  0.00  0.00     0.087 H 
ATOM     73  H50 CYS d   1     135.530 -20.749 112.689  0.00  0.00     0.163 HD
ATOM     74  H51 CYS d   1     133.557 -20.063 114.686  0.00  0.00     0.090 H 
ATOM     75  H55 CYS d   1     133.122 -20.266 116.747  0.00  0.00     0.087 H 
ATOM     76  H56 CYS d   1     133.544 -19.800 119.029  0.00  0.00     0.036 H 
ATOM     77  H57 CYS d   1     132.314 -18.529 118.717  0.00  0.00     0.036 H 
ATOM     78  H58 CYS d   1     134.724 -17.881 119.664  0.00  0.00     0.035 H 
ATOM     79  H59 CYS d   1     133.923 -16.860 118.423  0.00  0.00     0.035 H 
ATOM     80  H60 CYS d   1     135.887 -17.245 117.245  0.00  0.00     0.064 H 
ATOM     81  H61 CYS d   1     136.244 -18.761 118.139  0.00  0.00     0.064 H 
ATOM     82  H62 CYS d   1     130.830 -17.612 114.044  0.00  0.00     0.087 H 
ATOM     83  H63 CYS d   1     129.796 -19.577 113.269  0.00  0.00     0.036 H 
ATOM     84  H64 CYS d   1     128.398 -18.942 114.201  0.00  0.00     0.036 H 
ATOM     85  H65 CYS d   1     129.386 -21.368 114.724  0.00  0.00     0.035 H 
ATOM     86  H66 CYS d   1     128.860 -20.289 116.060  0.00  0.00     0.035 H 
ATOM     87  H67 CYS d   1     131.041 -20.695 116.781  0.00  0.00     0.064 H 
ATOM     88  H68 CYS d   1     131.653 -20.958 115.112  0.00  0.00     0.064 H 
ATOM     89  H69 CYS d   1     130.424 -15.630 114.824  0.00  0.00     0.163 HD
ATOM     90  H70 CYS d   1     128.210 -15.378 116.814  0.00  0.00     0.087 H 
ATOM     91  H78 CYS d   1     126.596 -13.858 116.389  0.00  0.00     0.163 HD
ATOM     92  H79 CYS d   1     126.412 -13.135 113.523  0.00  0.00     0.087 H 
ATOM     93  H86 CYS d   1     127.234 -11.259 113.002  0.00  0.00     0.163 HD
ATOM     94  H87 CYS d   1     126.970  -8.931 114.815  0.00  0.00     0.088 H 
ATOM     95  H97 CYS d   1     122.724  -8.599 114.206  0.00  0.00     0.087 H 
ATOM     96  H98 CYS d   1     122.192  -6.305 113.862  0.00  0.00     0.036 H 
ATOM     97  H99 CYS d   1     123.468  -6.096 112.615  0.00  0.00     0.036 H 
ATOM     98 0H10 CYS d   1     123.712  -5.908 115.603  0.00  0.00     0.035 H 
ATOM     99 1H10 CYS d   1     124.871  -5.360 114.345  0.00  0.00     0.035 H 
ATOM    100 2H10 CYS d   1     126.174  -7.168 114.948  0.00  0.00     0.064 H 
ATOM    101 3H10 CYS d   1     124.839  -7.905 115.896  0.00  0.00     0.064 H 
ENDROOT
BRANCH   6 102
ATOM    102  CB  CYS d   1     127.140 -10.505 108.360  0.00  0.00    -0.012 C 
ATOM    103  H6  CYS d   1     127.791 -11.320 108.011  0.00  0.00     0.044 H 
ATOM    104  H7  CYS d   1     127.665  -9.922 109.131  0.00  0.00     0.044 H 
BRANCH 102 105
ATOM    105  CG  CYS d   1     126.850  -9.605 107.204  0.00  0.00    -0.028 A 
ATOM    106  CD1 CYS d   1     126.822  -9.952 105.886  0.00  0.00    -0.015 A 
ATOM    107  NE1 CYS d   1     126.518  -8.857 105.115  0.00  0.00    -0.365 N 
ATOM    108  H8  CYS d   1     127.013 -10.952 105.500  0.00  0.00     0.112 H 
ATOM    109  CE2 CYS d   1     126.341  -7.775 105.930  0.00  0.00     0.042 A 
ATOM    110  H9  CYS d   1     126.437  -8.852 104.088  0.00  0.00     0.165 HD
ATOM    111  CD2 CYS d   1     126.542  -8.203 107.258  0.00  0.00    -0.002 A 
ATOM    112  CZ2 CYS d   1     126.022  -6.453 105.615  0.00  0.00    -0.056 A 
ATOM    113  CE3 CYS d   1     126.418  -7.275 108.296  0.00  0.00    -0.070 A 
ATOM    114  CZ3 CYS d   1     126.100  -5.962 107.979  0.00  0.00    -0.082 A 
ATOM    115  H10 CYS d   1     126.567  -7.575 109.327  0.00  0.00     0.084 H 
ATOM    116  CH2 CYS d   1     125.907  -5.565 106.648  0.00  0.00    -0.081 A 
ATOM    117  H12 CYS d   1     125.999  -5.231 108.773  0.00  0.00     0.083 H 
ATOM    118  H13 CYS d   1     125.661  -4.531 106.433  0.00  0.00     0.083 H 
ATOM    119  H11 CYS d   1     125.871  -6.142 104.588  0.00  0.00     0.086 H 
ENDBRANCH 102 105
ENDBRANCH   6 102
BRANCH   2 120
ATOM    120  CB  CYS d   1     122.892  -7.617 108.644  0.00  0.00     0.029 C 
ATOM    121  H1  CYS d   1     123.025  -8.050 107.641  0.00  0.00     0.056 H 
ATOM    122  H2  CYS d   1     123.708  -6.908 108.848  0.00  0.00     0.056 H 
BRANCH 120 123
ATOM    123  SG  CYS d   1     121.326  -6.702 108.664  0.00  0.00    -0.177 SA
ATOM    124  H3  CYS d   1     121.352  -5.978 107.963  0.00  0.00     0.101 HD
ENDBRANCH 120 123
ENDBRANCH   2 120
BRANCH  10 125
ATOM    125  CB  CYS d   1     126.224 -15.582 110.533  0.00  0.00     0.060 C 
ATOM    126  H16 CYS d   1     126.228 -16.032 109.529  0.00  0.00     0.086 H 
BRANCH 125 127
ATOM    127  OG1 CYS d   1     124.890 -15.176 110.864  0.00  0.00    -0.393 OA
ATOM    128  H17 CYS d   1     124.320 -15.936 110.863  0.00  0.00     0.210 HD
ENDBRANCH 125 127
BRANCH 125 129
ATOM    129  CG2 CYS d   1     126.706 -16.612 111.539  0.00  0.00    -0.050 C 
ATOM    130  H18 CYS d   1     126.035 -17.484 111.521  0.00  0.00     0.031 H 
ATOM    131  H19 CYS d   1     126.706 -16.169 112.546  0.00  0.00     0.031 H 
ATOM    132  H20 CYS d   1     127.726 -16.930 111.278  0.00  0.00     0.031 H 
ENDBRANCH 125 129
ENDBRANCH  10 125
BRANCH  14 133
ATOM    133  CB  CYS d   1     131.761 -14.807 112.058  0.00  0.00     0.060 C 
ATOM    134  H23 CYS d   1     132.782 -15.156 111.846  0.00  0.00     0.086 H 
BRANCH 133 135
ATOM    135  OG1 CYS d   1     131.260 -15.488 113.214  0.00  0.00    -0.393 OA
ATOM    136  H24 CYS d   1     130.375 -15.194 113.394  0.00  0.00     0.210 HD
ENDBRANCH 133 135
BRANCH 133 137
ATOM    137  CG2 CYS d   1     131.794 -13.311 112.332  0.00  0.00    -0.050 C 
ATOM    138  H25 CYS d   1     132.439 -13.111 113.200  0.00  0.00     0.031 H 
ATOM    139  H26 CYS d   1     130.775 -12.954 112.543  0.00  0.00     0.031 H 
ATOM    140  H27 CYS d   1     132.192 -12.786 111.451  0.00  0.00     0.031 H 
ENDBRANCH 133 137
ENDBRANCH  14 133
BRANCH  52 141
ATOM    141  CB  CYS d   1     128.277  -8.831 113.122  0.00  0.00    -0.030 C 
ATOM    142  H88 CYS d   1     128.250  -9.089 112.053  0.00  0.00     0.043 H 
BRANCH 141 143
ATOM    143  CG1 CYS d   1     129.466  -9.538 113.774  0.00  0.00    -0.063 C 
ATOM    144  H89 CYS d   1     129.273 -10.621 113.762  0.00  0.00     0.033 H 
ATOM    145  H90 CYS d   1     129.545  -9.191 114.815  0.00  0.00     0.033 H 
BRANCH 143 146
ATOM    146  CD1 CYS d   1     130.780  -9.286 113.092  0.00  0.00    -0.076 C 
ATOM    147  H94 CYS d   1     131.578  -9.828 113.621  0.00  0.00     0.027 H 
ATOM    148  H95 CYS d   1     130.999  -8.208 113.104  0.00  0.00     0.027 H 
ATOM    149  H96 CYS d   1     130.726  -9.637 112.051  0.00  0.00     0.027 H 
ENDBRANCH 143 146
ENDBRANCH 141 143
BRANCH 141 150
ATOM    150  CG2 CYS d   1     128.418  -7.333 113.261  0.00  0.00    -0.071 C 
ATOM    151  H91 CYS d   1     127.557  -6.838 112.788  0.00  0.00     0.028 H 
ATOM    152  H92 CYS d   1     129.345  -7.005 112.769  0.00  0.00     0.028 H 
ATOM    153  H93 CYS d   1     128.454  -7.066 114.327  0.00  0.00     0.028 H 
ENDBRANCH 141 150
ENDBRANCH  52 141
BRANCH  18 154
ATOM    154  CB  CYS d   1     132.388 -18.218 107.456  0.00  0.00    -0.036 C 
ATOM    155  H30 CYS d   1     132.683 -19.243 107.186  0.00  0.00     0.036 H 
ATOM    156  H31 CYS d   1     133.260 -17.552 107.375  0.00  0.00     0.036 H 
BRANCH 154 157
ATOM    157  CG  CYS d   1     131.338 -17.748 106.459  0.00  0.00    -0.048 C 
ATOM    158  H32 CYS d   1     131.066 -16.707 106.689  0.00  0.00     0.035 H 
ATOM    159  H33 CYS d   1     130.448 -18.388 106.547  0.00  0.00     0.035 H 
BRANCH 157 160
ATOM    160  CD  CYS d   1     131.861 -17.820 105.031  0.00  0.00     0.009 C 
ATOM    161  H34 CYS d   1     132.378 -18.781 104.890  0.00  0.00     0.064 H 
ATOM    162  H35 CYS d   1     132.570 -16.995 104.870  0.00  0.00     0.064 H 
BRANCH 160 163
ATOM    163  NE  CYS d   1     130.785 -17.715 104.049  0.00  0.00    -0.227 N 
ATOM    164  CZ  CYS d   1     130.445 -16.590 103.428  0.00  0.00     0.665 C 
ATOM    165  NH1 CYS d   1     131.100 -15.466 103.682  0.00  0.00    -0.235 N 
ATOM    166  NH2 CYS d   1     129.450 -16.588 102.550  0.00  0.00    -0.235 N 
ATOM    167  H37 CYS d   1     130.835 -14.595 103.200  0.00  0.00     0.174 HD
ATOM    168  H38 CYS d   1     131.874 -15.463 104.362  0.00  0.00     0.174 HD
ATOM    169  H39 CYS d   1     128.938 -17.459 102.350  0.00  0.00     0.174 HD
ATOM    170  H40 CYS d   1     129.189 -15.715 102.069  0.00  0.00     0.174 HD
ATOM    171  H36 CYS d   1     130.255 -18.569 103.823  0.00  0.00     0.177 HD
ENDBRANCH 160 163
ENDBRANCH 157 160
ENDBRANCH 154 157
ENDBRANCH  18 154
BRANCH  48 172
ATOM    172  CB  CYS d   1     124.623 -13.275 114.699  0.00  0.00    -0.030 C 
ATOM    173  H80 CYS d   1     124.283 -12.961 115.697  0.00  0.00     0.037 H 
ATOM    174  H81 CYS d   1     124.534 -14.368 114.608  0.00  0.00     0.037 H 
BRANCH 172 175
ATOM    175  CG  CYS d   1     123.717 -12.629 113.656  0.00  0.00     0.011 C 
ATOM    176  H82 CYS d   1     124.128 -12.837 112.657  0.00  0.00     0.047 H 
ATOM    177  H83 CYS d   1     123.703 -11.543 113.828  0.00  0.00     0.047 H 
BRANCH 175 178
ATOM    178  CD  CYS d   1     122.295 -13.145 113.711  0.00  0.00     0.215 C 
ATOM    179  OE1 CYS d   1     121.676 -13.172 114.772  0.00  0.00    -0.274 OA
ATOM    180  NE2 CYS d   1     121.771 -13.561 112.563  0.00  0.00    -0.370 N 
ATOM    181  H84 CYS d   1     120.835 -13.912 112.539  0.00  0.00     0.159 HD
ATOM    182  H85 CYS d   1     122.313 -13.523 111.723  0.00  0.00     0.159 HD
ENDBRANCH 175 178
ENDBRANCH 172 175
ENDBRANCH  48 172
BRANCH  22 183
ATOM    183  CB  CYS d   1     136.319 -18.124 110.885  0.00  0.00    -0.030 C 
ATOM    184  H43 CYS d   1     137.081 -18.601 111.519  0.00  0.00     0.037 H 
ATOM    185  H44 CYS d   1     136.161 -17.087 111.218  0.00  0.00     0.037 H 
BRANCH 183 186
ATOM    186  CG  CYS d   1     136.834 -18.096 109.453  0.00  0.00    -0.021 C 
ATOM    187  H45 CYS d   1     136.109 -17.548 108.833  0.00  0.00     0.049 H 
ATOM    188  H46 CYS d   1     136.916 -19.132 109.092  0.00  0.00     0.049 H 
BRANCH 186 189
ATOM    189  SD  CYS d   1     138.445 -17.304 109.282  0.00  0.00    -0.173 SA
BRANCH 189 190
ATOM    190  CE  CYS d   1     138.031 -15.604 109.657  0.00  0.00    -0.035 C 
ATOM    191  H47 CYS d   1     138.937 -14.983 109.591  0.00  0.00     0.041 H 
ATOM    192  H48 CYS d   1     137.618 -15.543 110.674  0.00  0.00     0.041 H 
ATOM    193  H49 CYS d   1     137.284 -15.241 108.936  0.00  0.00     0.041 H 
ENDBRANCH 189 190
ENDBRANCH 186 189
ENDBRANCH 183 186
ENDBRANCH  22 183
BRANCH  44 194
ATOM    194  CB  CYS d   1     129.801 -13.941 116.954  0.00  0.00    -0.030 C 
ATOM    195  H71 CYS d   1     130.387 -14.548 117.660  0.00  0.00     0.037 H 
ATOM    196  H72 CYS d   1     129.146 -13.257 117.514  0.00  0.00     0.037 H 
BRANCH 194 197
ATOM    197  CG  CYS d   1     130.768 -13.104 116.131  0.00  0.00    -0.021 C 
ATOM    198  H73 CYS d   1     130.194 -12.541 115.380  0.00  0.00     0.049 H 
ATOM    199  H74 CYS d   1     131.472 -13.779 115.623  0.00  0.00     0.049 H 
BRANCH 197 200
ATOM    200  SD  CYS d   1     131.711 -11.934 117.131  0.00  0.00    -0.173 SA
BRANCH 200 201
ATOM    201  CE  CYS d   1     130.392 -10.919 117.791  0.00  0.00    -0.035 C 
ATOM    202  H75 CYS d   1     130.819 -10.139 118.438  0.00  0.00     0.041 H 
ATOM    203  H76 CYS d   1     129.705 -11.546 118.377  0.00  0.00     0.041 H 
ATOM    204  H77 CYS d   1     129.842 -10.448 116.963  0.00  0.00     0.041 H 
ENDBRANCH 200 201
ENDBRANCH 197 200
ENDBRANCH 194 197
ENDBRANCH  44 194
BRANCH  26 205
ATOM    205  CB  CYS d   1     134.835 -21.773 114.922  0.00  0.00     0.044 C 
ATOM    206  H52 CYS d   1     134.688 -21.906 116.004  0.00  0.00     0.077 H 
ATOM    207  H53 CYS d   1     135.861 -22.065 114.653  0.00  0.00     0.077 H 
BRANCH 205 208
ATOM    208  OG  CYS d   1     133.919 -22.600 114.224  0.00  0.00    -0.398 OA
ATOM    209  H54 CYS d   1     134.069 -23.508 114.461  0.00  0.00     0.209 HD
ENDBRANCH 205 208
ENDBRANCH  26 205
TORSDOF 30
