REMARK  7 active torsions:
REMARK  status: ('A' for Active; 'I' for Inactive)
REMARK    1  A    between atoms: C4_6  and  NAB_17 
REMARK    2  A    between atoms: CAR_9  and  CAW_10 
REMARK    3  A    between atoms: CAM_14  and  CAO_13 
REMARK    4  A    between atoms: NAB_17  and  CAC_18 
REMARK    5  A    between atoms: CAC_18  and  PAA_19 
REMARK    6  A    between atoms: CAC_18  and  CAV_23 
REMARK    7  A    between atoms: CAV_23  and  CAX_24 
ROOT
ATOM      1  C5  KFA d   1       3.446  72.022  28.107  0.00  0.00     0.047 A 
ATOM      2  C6  KFA d   1       4.743  72.048  27.673  0.00  0.00     0.113 A 
ATOM      3  N1  KFA d   1       5.444  70.926  27.370  0.00  0.00    -0.234 NA
ATOM      4  C2  KFA d   1       4.863  69.650  27.484  0.00  0.00     0.090 A 
ATOM      5  N3  KFA d   1       3.545  69.603  27.917  0.00  0.00    -0.224 NA
ATOM      6  C4  KFA d   1       2.894  70.776  28.203  0.00  0.00     0.139 A 
ATOM      7  CAM KFA d   1       3.725  74.340  28.179  0.00  0.00     0.018 A 
ATOM      8  SAN KFA d   1       5.227  73.654  27.597  0.00  0.00    -0.069 SA
ATOM      9  CAL KFA d   1       2.885  73.279  28.372  0.00  0.00    -0.049 A 
ATOM     10  H1  KFA d   1       5.417  68.749  27.246  0.00  0.00     0.146 H 
ATOM     11  H9  KFA d   1       1.856  73.401  28.707  0.00  0.00     0.087 H 
ENDROOT
BRANCH   6  12
ATOM     12  NAB KFA d   1       1.619  70.731  28.628  0.00  0.00    -0.357 N 
ATOM     13  H10 KFA d   1       1.102  71.615  28.742  0.00  0.00     0.162 HD
BRANCH  12  14
ATOM     14  CAC KFA d   1       0.934  69.460  28.937  0.00  0.00     0.123 C 
ATOM     15  H11 KFA d   1       1.466  68.631  28.446  0.00  0.00     0.095 H 
BRANCH  14  16
ATOM     16  PAA KFA d   1      -0.793  69.601  28.151  0.00  0.00     0.283 P 
ATOM     17  OAE KFA d   1      -0.532  69.586  26.496  0.00  0.00    -0.638 OA
ATOM     18  OAU KFA d   1      -1.298  71.107  28.470  0.00  0.00    -0.638 OA
ATOM     19  OAD KFA d   1      -1.734  68.570  28.686  0.00  0.00    -0.638 OA
ENDBRANCH  14  16
BRANCH  14  20
ATOM     20  CAV KFA d   1       0.972  69.188  30.474  0.00  0.00    -0.010 C 
ATOM     21  H12 KFA d   1       0.541  68.197  30.679  0.00  0.00     0.044 H 
ATOM     22  H13 KFA d   1       0.384  69.958  30.995  0.00  0.00     0.044 H 
BRANCH  20  23
ATOM     23  CAX KFA d   1       2.334  69.224  30.950  0.00  0.00    -0.056 A 
ATOM     24  CAY KFA d   1       2.954  70.437  31.344  0.00  0.00    -0.077 A 
ATOM     25  CAZ KFA d   1       4.277  70.497  31.794  0.00  0.00    -0.082 A 
ATOM     26  H14 KFA d   1       2.379  71.355  31.294  0.00  0.00     0.084 H 
ATOM     27  CBA KFA d   1       5.011  69.319  31.854  0.00  0.00    -0.083 A 
ATOM     28  H15 KFA d   1       4.720  71.441  32.089  0.00  0.00     0.083 H 
ATOM     29  CBB KFA d   1       4.414  68.105  31.481  0.00  0.00    -0.082 A 
ATOM     30  H16 KFA d   1       6.042  69.338  32.188  0.00  0.00     0.083 H 
ATOM     31  CBC KFA d   1       3.088  68.046  31.028  0.00  0.00    -0.077 A 
ATOM     32  H17 KFA d   1       4.992  67.190  31.545  0.00  0.00     0.083 H 
ATOM     33  H18 KFA d   1       2.650  67.097  30.741  0.00  0.00     0.084 H 
ENDBRANCH  20  23
ENDBRANCH  14  20
ENDBRANCH  12  14
ENDBRANCH   6  12
BRANCH   7  34
ATOM     34  CAO KFA d   1       3.518  75.696  28.273  0.00  0.00    -0.019 A 
ATOM     35  CAP KFA d   1       2.224  76.269  28.288  0.00  0.00    -0.071 A 
ATOM     36  CAQ KFA d   1       2.030  77.660  28.316  0.00  0.00    -0.076 A 
ATOM     37  H2  KFA d   1       1.359  75.616  28.278  0.00  0.00     0.084 H 
ATOM     38  CAR KFA d   1       3.123  78.532  28.319  0.00  0.00    -0.062 A 
ATOM     39  H3  KFA d   1       1.023  78.061  28.335  0.00  0.00     0.084 H 
ATOM     40  CAS KFA d   1       4.417  77.995  28.292  0.00  0.00    -0.076 A 
ATOM     41  CAT KFA d   1       4.615  76.601  28.255  0.00  0.00    -0.071 A 
ATOM     42  H7  KFA d   1       5.274  78.659  28.300  0.00  0.00     0.084 H 
ATOM     43  H8  KFA d   1       5.625  76.210  28.212  0.00  0.00     0.084 H 
BRANCH  38  44
ATOM     44  CAW KFA d   1       2.899  79.916  28.347  0.00  0.00    -0.051 C 
ATOM     45  H4  KFA d   1       3.864  80.444  28.345  0.00  0.00     0.033 H 
ATOM     46  H5  KFA d   1       2.339  80.178  29.257  0.00  0.00     0.033 H 
ATOM     47  H6  KFA d   1       2.318  80.211  27.461  0.00  0.00     0.033 H 
ENDBRANCH  38  44
ENDBRANCH   7  34
TORSDOF 7
