REMARK  6 active torsions:
REMARK  status: ('A' for Active; 'I' for Inactive)
REMARK    1  A    between atoms: NAB_5  and  C4_18 
REMARK    2  A    between atoms: CAC_19  and  NAB_5 
REMARK    3  A    between atoms: CAR_8  and  CAW_9 
REMARK    4  A    between atoms: CAC_19  and  PAA_20 
REMARK    5  A    between atoms: CAC_19  and  CAV_23 
REMARK    6  A    between atoms: CAV_23  and  CAX_24 
ROOT
ATOM      1  CAM KF7 d   1       3.250  74.489  27.246  0.00  0.00     0.018 A 
ATOM      2  CAO KF7 d   1       3.149  75.850  27.356  0.00  0.00    -0.019 A 
ATOM      3  CAL KF7 d   1       4.315  73.757  26.849  0.00  0.00    -0.049 A 
ATOM      4  CAP KF7 d   1       1.933  76.432  27.745  0.00  0.00    -0.071 A 
ATOM      5  CAQ KF7 d   1       1.756  77.810  27.857  0.00  0.00    -0.076 A 
ATOM      6  CAR KF7 d   1       2.796  78.667  27.590  0.00  0.00    -0.062 A 
ATOM      7  CAS KF7 d   1       4.017  78.130  27.201  0.00  0.00    -0.076 A 
ATOM      8  CAT KF7 d   1       4.195  76.744  27.072  0.00  0.00    -0.071 A 
ATOM      9  SAN KF7 d   1       2.025  73.391  27.544  0.00  0.00    -0.069 SA
ATOM     10  C5  KF7 d   1       4.124  72.393  26.810  0.00  0.00     0.047 A 
ATOM     11  C6  KF7 d   1       2.869  72.020  27.170  0.00  0.00     0.113 A 
ATOM     12  N1  KF7 d   1       2.479  70.729  27.192  0.00  0.00    -0.234 NA
ATOM     13  C2  KF7 d   1       3.376  69.721  26.841  0.00  0.00     0.090 A 
ATOM     14  N3  KF7 d   1       4.664  70.103  26.474  0.00  0.00    -0.224 NA
ATOM     15  C4  KF7 d   1       4.997  71.412  26.463  0.00  0.00     0.139 A 
ATOM     16  H1  KF7 d   1       5.264  74.216  26.577  0.00  0.00     0.087 H 
ATOM     17  H3  KF7 d   1       1.095  75.782  27.968  0.00  0.00     0.084 H 
ATOM     18  H4  KF7 d   1       0.793  78.207  28.156  0.00  0.00     0.084 H 
ATOM     19  H8  KF7 d   1       4.848  78.794  26.993  0.00  0.00     0.084 H 
ATOM     20  H9  KF7 d   1       5.154  76.357  26.748  0.00  0.00     0.084 H 
ATOM     21  H10 KF7 d   1       3.082  68.678  26.853  0.00  0.00     0.146 H 
ENDROOT
BRANCH  15  22
ATOM     22  NAB KF7 d   1       6.243  71.793  26.116  0.00  0.00    -0.357 N 
ATOM     23  H2  KF7 d   1       6.536  72.755  26.337  0.00  0.00     0.162 HD
BRANCH  22  24
ATOM     24  CAC KF7 d   1       7.212  70.906  25.436  0.00  0.00     0.123 C 
ATOM     25  H11 KF7 d   1       6.698  70.003  25.075  0.00  0.00     0.095 H 
BRANCH  24  26
ATOM     26  PAA KF7 d   1       7.920  71.857  23.974  0.00  0.00     0.283 P 
ATOM     27  OAD KF7 d   1       8.647  73.100  24.328  0.00  0.00    -0.638 OA
ATOM     28  OAE KF7 d   1       6.669  72.239  23.029  0.00  0.00    -0.638 OA
ATOM     29  OAU KF7 d   1       8.805  70.808  23.133  0.00  0.00    -0.638 OA
ENDBRANCH  24  26
BRANCH  24  30
ATOM     30  CAV KF7 d   1       8.334  70.489  26.413  0.00  0.00    -0.010 C 
ATOM     31  H12 KF7 d   1       9.094  71.284  26.455  0.00  0.00     0.044 H 
ATOM     32  H13 KF7 d   1       8.798  69.557  26.058  0.00  0.00     0.044 H 
BRANCH  30  33
ATOM     33  CAX KF7 d   1       7.807  70.285  27.692  0.00  0.00    -0.056 A 
ATOM     34  CAY KF7 d   1       7.734  71.346  28.598  0.00  0.00    -0.077 A 
ATOM     35  CAZ KF7 d   1       7.194  71.148  29.868  0.00  0.00    -0.082 A 
ATOM     36  H14 KF7 d   1       8.098  72.326  28.313  0.00  0.00     0.084 H 
ATOM     37  CBA KF7 d   1       6.725  69.891  30.240  0.00  0.00    -0.083 A 
ATOM     38  H15 KF7 d   1       7.139  71.975  30.567  0.00  0.00     0.083 H 
ATOM     39  CBB KF7 d   1       6.799  68.833  29.338  0.00  0.00    -0.082 A 
ATOM     40  H16 KF7 d   1       6.304  69.737  31.227  0.00  0.00     0.083 H 
ATOM     41  CBC KF7 d   1       7.335  69.026  28.066  0.00  0.00    -0.077 A 
ATOM     42  H17 KF7 d   1       6.437  67.853  29.627  0.00  0.00     0.083 H 
ATOM     43  H18 KF7 d   1       7.385  68.199  27.367  0.00  0.00     0.084 H 
ENDBRANCH  30  33
ENDBRANCH  24  30
ENDBRANCH  22  24
ENDBRANCH  15  22
BRANCH   6  44
ATOM     44  CAW KF7 d   1       2.592  80.044  27.698  0.00  0.00    -0.051 C 
ATOM     45  H5  KF7 d   1       3.524  80.573  27.450  0.00  0.00     0.033 H 
ATOM     46  H6  KF7 d   1       2.293  80.291  28.727  0.00  0.00     0.033 H 
ATOM     47  H7  KF7 d   1       1.799  80.353  27.002  0.00  0.00     0.033 H 
ENDBRANCH   6  44
TORSDOF 6
