REMARK  7 active torsions:
REMARK  status: ('A' for Active; 'I' for Inactive)
REMARK    1  A    between atoms: CAB_4  and  CAG_5 
REMARK    2  A    between atoms: CAE_8  and  CAI_9 
REMARK    3  A    between atoms: C4_17  and  NAR_18 
REMARK    4  A    between atoms: NAR_18  and  CAS_19 
REMARK    5  A    between atoms: CAS_19  and  PBB_20 
REMARK    6  A    between atoms: CAS_19  and  CAT_24 
REMARK    7  A    between atoms: CAT_24  and  CAU_25 
ROOT
ATOM      1  CAI YF7 d   1       3.830  74.267  28.201  0.00  0.00     0.018 A 
ATOM      2  SAJ YF7 d   1       2.645  73.030  28.771  0.00  0.00    -0.069 SA
ATOM      3  CAM YF7 d   1       4.889  73.575  27.704  0.00  0.00    -0.049 A 
ATOM      4  C5  YF7 d   1       4.807  72.183  27.755  0.00  0.00     0.047 A 
ATOM      5  C6  YF7 d   1       3.650  71.689  28.306  0.00  0.00     0.113 A 
ATOM      6  N1  YF7 d   1       3.410  70.357  28.438  0.00  0.00    -0.234 NA
ATOM      7  C2  YF7 d   1       4.344  69.423  28.007  0.00  0.00     0.090 A 
ATOM      8  N3  YF7 d   1       5.521  69.918  27.439  0.00  0.00    -0.224 NA
ATOM      9  C4  YF7 d   1       5.723  71.257  27.327  0.00  0.00     0.139 A 
ATOM     10  H7  YF7 d   1       5.758  74.082  27.287  0.00  0.00     0.087 H 
ATOM     11  H8  YF7 d   1       4.168  68.358  28.107  0.00  0.00     0.146 H 
ENDROOT
BRANCH   9  12
ATOM     12  NAR YF7 d   1       6.877  71.728  26.787  0.00  0.00    -0.357 N 
ATOM     13  H9  YF7 d   1       6.977  72.746  26.666  0.00  0.00     0.162 HD
BRANCH  12  14
ATOM     14  CAS YF7 d   1       8.008  70.855  26.359  0.00  0.00     0.123 C 
ATOM     15  H10 YF7 d   1       7.649  69.818  26.281  0.00  0.00     0.095 H 
BRANCH  14  16
ATOM     16  PBB YF7 d   1       8.543  71.443  24.684  0.00  0.00     0.283 P 
ATOM     17  OBD YF7 d   1       9.675  70.376  24.123  0.00  0.00    -0.638 OA
ATOM     18  OBE YF7 d   1       9.339  72.894  24.922  0.00  0.00    -0.638 OA
ATOM     19  OBC YF7 d   1       7.302  71.540  23.831  0.00  0.00    -0.638 OA
ENDBRANCH  14  16
BRANCH  14  20
ATOM     20  CAT YF7 d   1       9.192  70.884  27.365  0.00  0.00    -0.010 C 
ATOM     21  H11 YF7 d   1       9.501  71.920  27.567  0.00  0.00     0.044 H 
ATOM     22  H12 YF7 d   1      10.047  70.316  26.970  0.00  0.00     0.044 H 
BRANCH  20  23
ATOM     23  CAU YF7 d   1       8.703  70.287  28.522  0.00  0.00    -0.053 A 
ATOM     24  CAZ YF7 d   1       8.208  71.099  29.547  0.00  0.00    -0.040 A 
ATOM     25  CAY YF7 d   1       7.670  70.517  30.689  0.00  0.00     0.116 A 
ATOM     26  H13 YF7 d   1       8.244  72.178  29.451  0.00  0.00     0.089 H 
ATOM     27  FBA YF7 d   1       7.230  71.313  31.643  0.00  0.00    -0.206 F 
ATOM     28  CAX YF7 d   1       7.623  69.123  30.813  0.00  0.00    -0.046 A 
ATOM     29  CAW YF7 d   1       8.106  68.311  29.782  0.00  0.00    -0.080 A 
ATOM     30  H14 YF7 d   1       7.212  68.673  31.709  0.00  0.00     0.088 H 
ATOM     31  CAV YF7 d   1       8.637  68.892  28.628  0.00  0.00    -0.077 A 
ATOM     32  H15 YF7 d   1       8.068  67.232  29.878  0.00  0.00     0.083 H 
ATOM     33  H16 YF7 d   1       8.996  68.266  27.819  0.00  0.00     0.084 H 
ENDBRANCH  20  23
ENDBRANCH  14  20
ENDBRANCH  12  14
ENDBRANCH   9  12
BRANCH   1  34
ATOM     34  CAE YF7 d   1       3.646  75.634  28.261  0.00  0.00    -0.017 A 
ATOM     35  CAF YF7 d   1       2.342  76.109  28.466  0.00  0.00    -0.050 A 
ATOM     36  CAA YF7 d   1       2.043  77.458  28.549  0.00  0.00     0.040 A 
ATOM     37  H1  YF7 d   1       1.536  75.391  28.563  0.00  0.00     0.087 H 
ATOM     38 CLA  YF7 d   1       0.297  77.963  28.859  0.00  0.00    -0.084 Cl
ATOM     39  CAB YF7 d   1       3.054  78.413  28.403  0.00  0.00    -0.040 A 
ATOM     40  CAC YF7 d   1       4.391  77.979  28.209  0.00  0.00    -0.075 A 
ATOM     41  CAD YF7 d   1       4.672  76.603  28.127  0.00  0.00    -0.071 A 
ATOM     42  H5  YF7 d   1       5.192  78.704  28.124  0.00  0.00     0.084 H 
ATOM     43  H6  YF7 d   1       5.692  76.278  27.958  0.00  0.00     0.084 H 
BRANCH  39  44
ATOM     44  CAG YF7 d   1       2.694  79.759  28.471  0.00  0.00    -0.050 C 
ATOM     45  H2  YF7 d   1       3.589  80.385  28.340  0.00  0.00     0.033 H 
ATOM     46  H3  YF7 d   1       2.241  79.968  29.451  0.00  0.00     0.033 H 
ATOM     47  H4  YF7 d   1       1.968  79.985  27.676  0.00  0.00     0.033 H 
ENDBRANCH  39  44
ENDBRANCH   1  34
TORSDOF 7
