REMARK WARNING: 32 MAX_TORS EXCEEDED!!!
REMARK  39 active torsions:
REMARK  status: ('A' for Active; 'I' for Inactive)
REMARK    1  A    between atoms: CB_5  and  CA_2 
REMARK    2  A    between atoms: SG_6  and  CB_5 
REMARK    3  A    between atoms: S1_113  and  SG_6 
REMARK    4  A    between atoms: CA_8  and  CB_11 
REMARK    5  A    between atoms: CB_11  and  CG_12 
REMARK    6  A    between atoms: CA_22  and  CB_25 
REMARK    7  A    between atoms: CB_25  and  OG1_26 
REMARK    8  A    between atoms: CB_25  and  CG2_27 
REMARK    9  A    between atoms: CA_29  and  CB_32 
REMARK   10  A    between atoms: CB_32  and  OG1_33 
REMARK   11  A    between atoms: CB_32  and  CG2_34 
REMARK   12  A    between atoms: CA_36  and  CB_39 
REMARK   13  A    between atoms: CB_39  and  CG_40 
REMARK   14  A    between atoms: CG_40  and  CD_41 
REMARK   15  A    between atoms: CD_41  and  NE_42 
REMARK       I    between atoms: NE_42  and  CZ_43 
REMARK       I    between atoms: CZ_43  and  NH1_44 
REMARK   16  A    between atoms: CA_47  and  CB_50 
REMARK   17  A    between atoms: CB_50  and  CG_51 
REMARK   18  A    between atoms: CG_51  and  SD_52 
REMARK   19  A    between atoms: SD_52  and  CE_53 
REMARK   20  A    between atoms: CA_55  and  CB_58 
REMARK   21  A    between atoms: CB_58  and  OG_59 
REMARK   22  A    between atoms: CA_75  and  CB_78 
REMARK   23  A    between atoms: CB_78  and  CG_79 
REMARK   24  A    between atoms: CG_79  and  SD_80 
REMARK   25  A    between atoms: SD_80  and  CE_81 
REMARK   26  A    between atoms: CA_83  and  CB_86 
REMARK   27  A    between atoms: CB_86  and  CG_87 
REMARK   28  A    between atoms: CG_87  and  CD_88 
REMARK       I    between atoms: CD_88  and  NE2_90 
REMARK   29  A    between atoms: CA_92  and  CB_95 
REMARK   30  A    between atoms: CB_95  and  CG1_96 
REMARK   31  A    between atoms: CB_95  and  CG2_97 
REMARK   32  A    between atoms: CG1_96  and  CD1_98 
REMARK   33  A    between atoms: C_101  and  O_102 
REMARK   34  A    between atoms: C1_109  and  C8_117 
REMARK   35  A    between atoms: C1_109  and  C9_118 
REMARK   36  A    between atoms: C4_112  and  C3_111 
REMARK   37  A    between atoms: C4_112  and  S1_113 
REMARK   38  A    between atoms: C5_114  and  C6_115 
REMARK   39  A    between atoms: C5_114  and  C7_116 
ROOT
ATOM      1  N   CYS d   1      89.088  10.032   7.136  0.00  0.00     0.124 N 
ATOM      2  CA  CYS d   1      87.969  10.879   6.733  0.00  0.00     0.223 C 
ATOM      3  C   CYS d   1      87.635  12.039   7.681  0.00  0.00     0.253 C 
ATOM      4  O   CYS d   1      86.721  12.822   7.391  0.00  0.00    -0.271 OA
ATOM      5  N   CYS d   1      88.334  12.134   8.812  0.00  0.00    -0.346 N 
ATOM      6  CA  CYS d   1      87.969  13.097   9.847  0.00  0.00     0.093 C 
ATOM      7  C   CYS d   1      89.152  14.007  10.126  0.00  0.00     0.241 C 
ATOM      8  O   CYS d   1      90.310  13.654   9.872  0.00  0.00    -0.271 OA
ATOM      9  N   CYS d   1      88.835  15.190  10.655  0.00  0.00    -0.344 N 
ATOM     10  CA  CYS d   1      89.826  16.169  11.081  0.00  0.00     0.113 C 
ATOM     11  C   CYS d   1      89.498  16.534  12.514  0.00  0.00     0.243 C 
ATOM     12  O   CYS d   1      88.321  16.770  12.815  0.00  0.00    -0.271 OA
ATOM     13  N   CYS d   1      90.501  16.557  13.410  0.00  0.00    -0.344 N 
ATOM     14  CA  CYS d   1      90.204  16.936  14.791  0.00  0.00     0.113 C 
ATOM     15  C   CYS d   1      89.880  18.417  14.876  0.00  0.00     0.243 C 
ATOM     16  O   CYS d   1      90.404  19.237  14.107  0.00  0.00    -0.271 OA
ATOM     17  N   CYS d   1      88.945  18.746  15.756  0.00  0.00    -0.346 N 
ATOM     18  CA  CYS d   1      88.543  20.123  15.980  0.00  0.00     0.089 C 
ATOM     19  C   CYS d   1      89.422  20.829  16.998  0.00  0.00     0.241 C 
ATOM     20  O   CYS d   1      89.731  22.023  16.832  0.00  0.00    -0.271 OA
ATOM     21  N   CYS d   1      89.884  20.119  18.006  0.00  0.00    -0.346 N 
ATOM     22  CA  CYS d   1      90.742  20.729  19.011  0.00  0.00     0.090 C 
ATOM     23  C   CYS d   1      92.202  20.669  18.556  0.00  0.00     0.241 C 
ATOM     24  O   CYS d   1      92.632  19.719  17.895  0.00  0.00    -0.271 OA
ATOM     25  N   CYS d   1      92.947  21.716  18.880  0.00  0.00    -0.344 N 
ATOM     26  CA  CYS d   1      94.364  21.748  18.551  0.00  0.00     0.109 C 
ATOM     27  C   CYS d   1      95.113  20.655  19.314  0.00  0.00     0.245 C 
ATOM     28  O   CYS d   1      94.750  20.334  20.456  0.00  0.00    -0.271 OA
ATOM     29  N   CYS d   1      96.165  20.057  18.713  0.00  0.00    -0.337 N 
ATOM     30  CA  CYS d   1      96.596  20.464  17.371  0.00  0.00     0.092 C 
ATOM     31  C   CYS d   1      95.774  19.746  16.304  0.00  0.00     0.243 C 
ATOM     32  O   CYS d   1      95.610  18.524  16.367  0.00  0.00    -0.271 OA
ATOM     33  CB  CYS d   1      98.058  20.025  17.333  0.00  0.00    -0.036 C 
ATOM     34  CG  CYS d   1      98.058  18.772  18.159  0.00  0.00    -0.048 C 
ATOM     35  CD  CYS d   1      96.986  18.940  19.224  0.00  0.00    -0.001 C 
ATOM     36  N   CYS d   1      95.256  20.490  15.335  0.00  0.00    -0.337 N 
ATOM     37  CA  CYS d   1      94.389  19.865  14.334  0.00  0.00     0.091 C 
ATOM     38  C   CYS d   1      95.143  18.763  13.605  0.00  0.00     0.241 C 
ATOM     39  O   CYS d   1      96.340  18.870  13.333  0.00  0.00    -0.271 OA
ATOM     40  CB  CYS d   1      94.019  21.029  13.412  0.00  0.00    -0.036 C 
ATOM     41  CG  CYS d   1      95.191  21.960  13.541  0.00  0.00    -0.048 C 
ATOM     42  CD  CYS d   1      95.598  21.877  14.984  0.00  0.00    -0.001 C 
ATOM     43  N   CYS d   1      94.442  17.674  13.322  0.00  0.00    -0.346 N 
ATOM     44  CA  CYS d   1      95.085  16.485  12.795  0.00  0.00     0.090 C 
ATOM     45  C   CYS d   1      94.118  15.783  11.850  0.00  0.00     0.241 C 
ATOM     46  O   CYS d   1      92.900  15.775  12.084  0.00  0.00    -0.271 OA
ATOM     47  N   CYS d   1      94.662  15.228  10.766  0.00  0.00    -0.346 N 
ATOM     48  CA  CYS d   1      93.892  14.410   9.847  0.00  0.00     0.090 C 
ATOM     49  C   CYS d   1      93.887  12.987  10.377  0.00  0.00     0.241 C 
ATOM     50  O   CYS d   1      94.934  12.455  10.770  0.00  0.00    -0.271 OA
ATOM     51  N   CYS d   1      92.700  12.400  10.442  0.00  0.00    -0.346 N 
ATOM     52  CA  CYS d   1      92.537  11.017  10.872  0.00  0.00     0.092 C 
ATOM     53  C   CYS d   1      91.614  10.461   9.796  0.00  0.00     0.243 C 
ATOM     54  O   CYS d   1      90.380  10.418   9.970  0.00  0.00    -0.271 OA
ATOM     55  N   CYS d   1      92.194  10.088   8.641  0.00  0.00    -0.338 N 
ATOM     56  CA  CYS d   1      91.764  10.113   7.247  0.00  0.00     0.101 C 
ATOM     57  C   CYS d   1      90.342  10.500   6.979  0.00  0.00     0.416 A 
ATOM     58  CB  CYS d   1      92.094   8.698   6.786  0.00  0.00    -0.037 C 
ATOM     59  CG  CYS d   1      93.428   8.435   7.553  0.00  0.00    -0.048 C 
ATOM     60  CD  CYS d   1      93.731   9.714   8.382  0.00  0.00    -0.002 C 
ATOM     61  OXT CYS d   1      89.704   9.523   7.352  0.00  0.00    -0.123 OA
ATOM     62  H1  CYS d   1      88.805  10.206   8.088  0.00  0.00     0.326 HD
ATOM     63  H2  CYS d   1      88.228  11.318   5.758  0.00  0.00     0.106 H 
ATOM     64  H5  CYS d   1      89.122  11.535   8.954  0.00  0.00     0.163 HD
ATOM     65  H6  CYS d   1      87.131  13.705   9.474  0.00  0.00     0.088 H 
ATOM     66  H15 CYS d   1      87.867  15.416  10.765  0.00  0.00     0.163 HD
ATOM     67  H16 CYS d   1      90.835  15.736  11.021  0.00  0.00     0.091 H 
ATOM     68  H22 CYS d   1      91.433  16.319  13.137  0.00  0.00     0.163 HD
ATOM     69  H23 CYS d   1      89.320  16.368  15.118  0.00  0.00     0.091 H 
ATOM     70  H29 CYS d   1      88.501  18.021  16.283  0.00  0.00     0.163 HD
ATOM     71  H30 CYS d   1      88.630  20.660  15.024  0.00  0.00     0.087 H 
ATOM     72  H42 CYS d   1      89.643  19.151  18.082  0.00  0.00     0.163 HD
ATOM     73  H43 CYS d   1      90.458  21.786  19.125  0.00  0.00     0.087 H 
ATOM     74  H51 CYS d   1      92.531  22.491  19.355  0.00  0.00     0.163 HD
ATOM     75  H52 CYS d   1      94.480  21.570  17.472  0.00  0.00     0.090 H 
ATOM     76  H56 CYS d   1      96.506  21.552  17.236  0.00  0.00     0.087 H 
ATOM     77  H57 CYS d   1      98.712  20.790  17.776  0.00  0.00     0.036 H 
ATOM     78  H58 CYS d   1      98.382  19.819  16.302  0.00  0.00     0.036 H 
ATOM     79  H59 CYS d   1      99.041  18.631  18.632  0.00  0.00     0.035 H 
ATOM     80  H60 CYS d   1      97.828  17.902  17.526  0.00  0.00     0.035 H 
ATOM     81  H61 CYS d   1      96.385  18.024  19.325  0.00  0.00     0.064 H 
ATOM     82  H62 CYS d   1      97.434  19.194  20.196  0.00  0.00     0.064 H 
ATOM     83  H63 CYS d   1      93.488  19.440  14.801  0.00  0.00     0.087 H 
ATOM     84  H64 CYS d   1      93.091  21.516  13.746  0.00  0.00     0.036 H 
ATOM     85  H65 CYS d   1      93.901  20.686  12.373  0.00  0.00     0.036 H 
ATOM     86  H66 CYS d   1      94.898  22.988  13.281  0.00  0.00     0.035 H 
ATOM     87  H67 CYS d   1      96.015  21.637  12.888  0.00  0.00     0.035 H 
ATOM     88  H68 CYS d   1      96.676  22.063  15.104  0.00  0.00     0.064 H 
ATOM     89  H69 CYS d   1      95.032  22.593  15.598  0.00  0.00     0.064 H 
ATOM     90  H70 CYS d   1      93.454  17.672  13.474  0.00  0.00     0.163 HD
ATOM     91  H71 CYS d   1      95.980  16.782  12.229  0.00  0.00     0.087 H 
ATOM     92  H79 CYS d   1      95.633  15.381  10.580  0.00  0.00     0.163 HD
ATOM     93  H80 CYS d   1      92.860  14.788   9.812  0.00  0.00     0.087 H 
ATOM     94  H87 CYS d   1      91.888  12.925  10.187  0.00  0.00     0.163 HD
ATOM     95  H88 CYS d   1      93.501  10.489  10.837  0.00  0.00     0.088 H 
ATOM     96  H98 CYS d   1      92.392  10.832   6.700  0.00  0.00     0.084 H 
ATOM     97 0H10 CYS d   1      92.239   8.652   5.697  0.00  0.00     0.036 H 
ATOM     98 1H10 CYS d   1      91.311   7.984   7.082  0.00  0.00     0.036 H 
ATOM     99 2H10 CYS d   1      94.243   8.245   6.840  0.00  0.00     0.035 H 
ATOM    100 3H10 CYS d   1      93.316   7.569   8.222  0.00  0.00     0.035 H 
ATOM    101 4H10 CYS d   1      94.282   9.502   9.310  0.00  0.00     0.064 H 
ATOM    102 5H10 CYS d   1      94.267  10.482   7.804  0.00  0.00     0.064 H 
ENDROOT
BRANCH   2 103
ATOM    103  CB  CYS d   1      86.711  10.006   6.561  0.00  0.00     0.025 C 
ATOM    104  H3  CYS d   1      85.820  10.647   6.485  0.00  0.00     0.054 H 
ATOM    105  H4  CYS d   1      86.605   9.332   7.424  0.00  0.00     0.054 H 
BRANCH 103 106
ATOM    106  SG  CYS d   1      86.897   9.035   5.044  0.00  0.00    -0.095 SA
BRANCH 106 107
ATOM    107  S1  CYS d   1      86.071  10.093   3.429  0.00  0.00    -0.093 SA
BRANCH 107 108
ATOM    108  C4  CYS d   1      84.452   9.352   3.255  0.00  0.00     0.009 C 
ATOM    109 7H10 CYS d   1      84.026   9.634   2.281  0.00  0.00     0.057 H 
ATOM    110 8H10 CYS d   1      84.545   8.258   3.312  0.00  0.00     0.057 H 
BRANCH 108 111
ATOM    111  C3  CYS d   1      83.533   9.835   4.362  0.00  0.00    -0.047 C 
ATOM    112  C2  CYS d   1      83.585  11.120   4.889  0.00  0.00    -0.075 C 
ATOM    113  C1  CYS d   1      82.567  11.280   5.876  0.00  0.00     0.053 C 
ATOM    114 6H10 CYS d   1      84.296  11.890   4.593  0.00  0.00     0.080 H 
ATOM    115  N1  CYS d   1      81.702  10.105   5.726  0.00  0.00    -0.137 NA
ATOM    116  O1  CYS d   1      81.222   9.777   6.646  0.00  0.00    -0.118 OA
ATOM    117  C5  CYS d   1      82.510   9.094   5.030  0.00  0.00     0.059 C 
BRANCH 113 118
ATOM    118  C8  CYS d   1      81.700  12.519   5.770  0.00  0.00    -0.052 C 
ATOM    119 5H11 CYS d   1      82.327  13.416   5.880  0.00  0.00     0.030 H 
ATOM    120 6H11 CYS d   1      80.940  12.504   6.565  0.00  0.00     0.030 H 
ATOM    121 7H11 CYS d   1      81.204  12.536   4.788  0.00  0.00     0.030 H 
ENDBRANCH 113 118
BRANCH 113 122
ATOM    122  C9  CYS d   1      83.095  11.441   7.293  0.00  0.00    -0.052 C 
ATOM    123 8H11 CYS d   1      83.735  12.334   7.347  0.00  0.00     0.030 H 
ATOM    124 9H11 CYS d   1      83.682  10.553   7.569  0.00  0.00     0.030 H 
ATOM    125 0H12 CYS d   1      82.250  11.553   7.989  0.00  0.00     0.030 H 
ENDBRANCH 113 122
BRANCH 117 126
ATOM    126  C6  CYS d   1      83.036   7.993   5.943  0.00  0.00    -0.052 C 
ATOM    127 9H10 CYS d   1      83.628   7.279   5.352  0.00  0.00     0.030 H 
ATOM    128 0H11 CYS d   1      82.189   7.469   6.411  0.00  0.00     0.030 H 
ATOM    129 1H11 CYS d   1      83.670   8.437   6.725  0.00  0.00     0.030 H 
ENDBRANCH 117 126
BRANCH 117 130
ATOM    130  C7  CYS d   1      81.626   8.340   4.053  0.00  0.00    -0.052 C 
ATOM    131 2H11 CYS d   1      82.224   7.581   3.528  0.00  0.00     0.030 H 
ATOM    132 3H11 CYS d   1      81.204   9.045   3.321  0.00  0.00     0.030 H 
ATOM    133 4H11 CYS d   1      80.809   7.848   4.602  0.00  0.00     0.030 H 
ENDBRANCH 117 130
ENDBRANCH 108 111
ENDBRANCH 107 108
ENDBRANCH 106 107
ENDBRANCH 103 106
ENDBRANCH   2 103
BRANCH  57 134
ATOM    134  O   CYS d   1      90.436  11.625   6.504  0.00  0.00    -0.338 OA
ATOM    135  H99 CYS d   1      91.352  11.874   6.462  0.00  0.00     0.215 HD
ENDBRANCH  57 134
BRANCH   6 136
ATOM    136  CB  CYS d   1      87.524  12.410  11.167  0.00  0.00    -0.012 C 
ATOM    137  H7  CYS d   1      87.249  13.177  11.906  0.00  0.00     0.044 H 
ATOM    138  H8  CYS d   1      88.350  11.800  11.561  0.00  0.00     0.044 H 
BRANCH 136 139
ATOM    139  CG  CYS d   1      86.353  11.542  10.895  0.00  0.00    -0.028 A 
ATOM    140  CD1 CYS d   1      85.037  11.929  10.909  0.00  0.00    -0.015 A 
ATOM    141  NE1 CYS d   1      84.228  10.872  10.536  0.00  0.00    -0.365 N 
ATOM    142  H9  CYS d   1      84.682  12.923  11.175  0.00  0.00     0.112 H 
ATOM    143  CE2 CYS d   1      85.017   9.793  10.218  0.00  0.00     0.042 A 
ATOM    144  H10 CYS d   1      83.199  10.890  10.502  0.00  0.00     0.165 HD
ATOM    145  CD2 CYS d   1      86.365  10.172  10.432  0.00  0.00    -0.002 A 
ATOM    146  CZ2 CYS d   1      84.664   8.513   9.780  0.00  0.00    -0.056 A 
ATOM    147  CE3 CYS d   1      87.379   9.226  10.191  0.00  0.00    -0.070 A 
ATOM    148  CZ3 CYS d   1      87.024   7.964   9.767  0.00  0.00    -0.082 A 
ATOM    149  H11 CYS d   1      88.421   9.486  10.336  0.00  0.00     0.084 H 
ATOM    150  CH2 CYS d   1      85.681   7.617   9.552  0.00  0.00    -0.081 A 
ATOM    151  H13 CYS d   1      87.797   7.224   9.596  0.00  0.00     0.083 H 
ATOM    152  H14 CYS d   1      85.441   6.621   9.198  0.00  0.00     0.083 H 
ATOM    153  H12 CYS d   1      83.627   8.238   9.626  0.00  0.00     0.086 H 
ENDBRANCH 136 139
ENDBRANCH   6 136
BRANCH  52 154
ATOM    154  CB  CYS d   1      92.011  10.930  12.310  0.00  0.00    -0.030 C 
ATOM    155  H89 CYS d   1      91.015  11.396  12.348  0.00  0.00     0.043 H 
BRANCH 154 156
ATOM    156  CG1 CYS d   1      92.959  11.702  13.257  0.00  0.00    -0.063 C 
ATOM    157  H90 CYS d   1      93.072  12.727  12.873  0.00  0.00     0.033 H 
ATOM    158  H91 CYS d   1      93.937  11.199  13.253  0.00  0.00     0.033 H 
BRANCH 156 159
ATOM    159  CD1 CYS d   1      92.464  11.781  14.701  0.00  0.00    -0.076 C 
ATOM    160  H95 CYS d   1      93.190  12.343  15.307  0.00  0.00     0.027 H 
ATOM    161  H96 CYS d   1      92.355  10.765  15.107  0.00  0.00     0.027 H 
ATOM    162  H97 CYS d   1      91.491  12.293  14.727  0.00  0.00     0.027 H 
ENDBRANCH 156 159
ENDBRANCH 154 156
BRANCH 154 163
ATOM    163  CG2 CYS d   1      91.883   9.474  12.765  0.00  0.00    -0.071 C 
ATOM    164  H92 CYS d   1      91.207   8.935  12.085  0.00  0.00     0.028 H 
ATOM    165  H93 CYS d   1      91.476   9.443  13.786  0.00  0.00     0.028 H 
ATOM    166  H94 CYS d   1      92.874   8.997  12.751  0.00  0.00     0.028 H 
ENDBRANCH 154 163
ENDBRANCH  52 154
BRANCH  10 167
ATOM    167  CB  CYS d   1      89.751  17.403  10.204  0.00  0.00     0.060 C 
ATOM    168  H17 CYS d   1      88.781  17.902  10.345  0.00  0.00     0.086 H 
BRANCH 167 169
ATOM    169  OG1 CYS d   1      89.897  17.002   8.829  0.00  0.00    -0.393 OA
ATOM    170  H18 CYS d   1      89.851  17.769   8.270  0.00  0.00     0.210 HD
ENDBRANCH 167 169
BRANCH 167 171
ATOM    171  CG2 CYS d   1      90.860  18.345  10.573  0.00  0.00    -0.050 C 
ATOM    172  H19 CYS d   1      90.807  19.241   9.937  0.00  0.00     0.031 H 
ATOM    173  H20 CYS d   1      91.829  17.847  10.424  0.00  0.00     0.031 H 
ATOM    174  H21 CYS d   1      90.757  18.638  11.628  0.00  0.00     0.031 H 
ENDBRANCH 167 171
ENDBRANCH  10 167
BRANCH  48 175
ATOM    175  CB  CYS d   1      94.469  14.443   8.434  0.00  0.00    -0.030 C 
ATOM    176  H81 CYS d   1      94.213  13.498   7.932  0.00  0.00     0.037 H 
ATOM    177  H82 CYS d   1      95.563  14.534   8.507  0.00  0.00     0.037 H 
BRANCH 175 178
ATOM    178  CG  CYS d   1      93.952  15.581   7.598  0.00  0.00     0.011 C 
ATOM    179  H83 CYS d   1      94.748  15.905   6.912  0.00  0.00     0.047 H 
ATOM    180  H84 CYS d   1      93.681  16.413   8.264  0.00  0.00     0.047 H 
BRANCH 178 181
ATOM    181  CD  CYS d   1      92.743  15.197   6.788  0.00  0.00     0.215 C 
ATOM    182  OE1 CYS d   1      91.989  14.282   7.149  0.00  0.00    -0.274 OA
ATOM    183  NE2 CYS d   1      92.545  15.891   5.672  0.00  0.00    -0.370 N 
ATOM    184  H85 CYS d   1      91.759  15.686   5.088  0.00  0.00     0.159 HD
ATOM    185  H86 CYS d   1      93.182  16.619   5.416  0.00  0.00     0.159 HD
ENDBRANCH 178 181
ENDBRANCH 175 178
ENDBRANCH  48 175
BRANCH  14 186
ATOM    186  CB  CYS d   1      91.362  16.597  15.730  0.00  0.00     0.060 C 
ATOM    187  H24 CYS d   1      91.146  17.006  16.728  0.00  0.00     0.086 H 
BRANCH 186 188
ATOM    188  OG1 CYS d   1      92.582  17.186  15.244  0.00  0.00    -0.393 OA
ATOM    189  H25 CYS d   1      93.294  16.969  15.834  0.00  0.00     0.210 HD
ENDBRANCH 186 188
BRANCH 186 190
ATOM    190  CG2 CYS d   1      91.496  15.104  15.835  0.00  0.00    -0.050 C 
ATOM    191  H26 CYS d   1      92.329  14.857  16.510  0.00  0.00     0.031 H 
ATOM    192  H27 CYS d   1      91.695  14.683  14.838  0.00  0.00     0.031 H 
ATOM    193  H28 CYS d   1      90.563  14.679  16.233  0.00  0.00     0.031 H 
ENDBRANCH 186 190
ENDBRANCH  14 186
BRANCH  44 194
ATOM    194  CB  CYS d   1      95.517  15.567  13.937  0.00  0.00    -0.030 C 
ATOM    195  H72 CYS d   1      94.669  15.451  14.628  0.00  0.00     0.037 H 
ATOM    196  H73 CYS d   1      96.358  16.041  14.464  0.00  0.00     0.037 H 
BRANCH 194 197
ATOM    197  CG  CYS d   1      95.950  14.204  13.486  0.00  0.00    -0.021 C 
ATOM    198  H74 CYS d   1      96.588  14.316  12.597  0.00  0.00     0.049 H 
ATOM    199  H75 CYS d   1      95.055  13.621  13.224  0.00  0.00     0.049 H 
BRANCH 197 200
ATOM    200  SD  CYS d   1      96.874  13.301  14.746  0.00  0.00    -0.173 SA
BRANCH 200 201
ATOM    201  CE  CYS d   1      95.759  13.336  16.138  0.00  0.00    -0.035 C 
ATOM    202  H76 CYS d   1      96.216  12.807  16.987  0.00  0.00     0.041 H 
ATOM    203  H77 CYS d   1      94.815  12.842  15.864  0.00  0.00     0.041 H 
ATOM    204  H78 CYS d   1      95.558  14.380  16.421  0.00  0.00     0.041 H 
ENDBRANCH 200 201
ENDBRANCH 197 200
ENDBRANCH 194 197
ENDBRANCH  44 194
BRANCH  18 205
ATOM    205  CB  CYS d   1      87.101  20.179  16.433  0.00  0.00    -0.036 C 
ATOM    206  H31 CYS d   1      86.854  21.223  16.675  0.00  0.00     0.036 H 
ATOM    207  H32 CYS d   1      86.997  19.559  17.336  0.00  0.00     0.036 H 
BRANCH 205 208
ATOM    208  CG  CYS d   1      86.100  19.676  15.384  0.00  0.00    -0.048 C 
ATOM    209  H33 CYS d   1      86.305  18.620  15.154  0.00  0.00     0.035 H 
ATOM    210  H34 CYS d   1      86.193  20.276  14.467  0.00  0.00     0.035 H 
BRANCH 208 211
ATOM    211  CD  CYS d   1      84.690  19.813  15.944  0.00  0.00     0.009 C 
ATOM    212  H35 CYS d   1      84.626  20.740  16.533  0.00  0.00     0.064 H 
ATOM    213  H36 CYS d   1      84.476  18.951  16.593  0.00  0.00     0.064 H 
BRANCH 211 214
ATOM    214  NE  CYS d   1      83.694  19.860  14.865  0.00  0.00    -0.227 N 
ATOM    215  CZ  CYS d   1      82.905  18.827  14.561  0.00  0.00     0.665 C 
ATOM    216  NH1 CYS d   1      83.022  17.682  15.267  0.00  0.00    -0.235 N 
ATOM    217  NH2 CYS d   1      82.023  18.940  13.555  0.00  0.00    -0.235 N 
ATOM    218  H38 CYS d   1      82.420  16.876  15.045  0.00  0.00     0.174 HD
ATOM    219  H39 CYS d   1      83.713  17.614  16.028  0.00  0.00     0.174 HD
ATOM    220  H40 CYS d   1      81.951  19.823  13.030  0.00  0.00     0.174 HD
ATOM    221  H41 CYS d   1      81.418  18.143  13.308  0.00  0.00     0.174 HD
ATOM    222  H37 CYS d   1      83.600  20.728  14.319  0.00  0.00     0.177 HD
ENDBRANCH 211 214
ENDBRANCH 208 211
ENDBRANCH 205 208
ENDBRANCH  18 205
BRANCH  22 223
ATOM    223  CB  CYS d   1      90.537  20.025  20.355  0.00  0.00    -0.030 C 
ATOM    224  H44 CYS d   1      91.288  20.399  21.066  0.00  0.00     0.037 H 
ATOM    225  H45 CYS d   1      90.677  18.944  20.210  0.00  0.00     0.037 H 
BRANCH 223 226
ATOM    226  CG  CYS d   1      89.140  20.264  20.947  0.00  0.00    -0.021 C 
ATOM    227  H46 CYS d   1      88.393  19.846  20.256  0.00  0.00     0.049 H 
ATOM    228  H47 CYS d   1      88.984  21.349  21.043  0.00  0.00     0.049 H 
BRANCH 226 229
ATOM    229  SD  CYS d   1      88.905  19.508  22.568  0.00  0.00    -0.173 SA
BRANCH 229 230
ATOM    230  CE  CYS d   1      88.665  17.797  22.095  0.00  0.00    -0.035 C 
ATOM    231  H48 CYS d   1      88.504  17.187  22.996  0.00  0.00     0.041 H 
ATOM    232  H49 CYS d   1      89.557  17.436  21.562  0.00  0.00     0.041 H 
ATOM    233  H50 CYS d   1      87.787  17.718  21.437  0.00  0.00     0.041 H 
ENDBRANCH 229 230
ENDBRANCH 226 229
ENDBRANCH 223 226
ENDBRANCH  22 223
BRANCH  26 234
ATOM    234  CB  CYS d   1      94.950  23.107  18.890  0.00  0.00     0.044 C 
ATOM    235  H53 CYS d   1      95.235  23.135  19.952  0.00  0.00     0.077 H 
ATOM    236  H54 CYS d   1      94.207  23.893  18.689  0.00  0.00     0.077 H 
BRANCH 234 237
ATOM    237  OG  CYS d   1      96.085  23.310  18.088  0.00  0.00    -0.398 OA
ATOM    238  H55 CYS d   1      96.465  24.157  18.288  0.00  0.00     0.209 HD
ENDBRANCH 234 237
ENDBRANCH  26 234
TORSDOF 38
