REMARK  13 active torsions:
REMARK  status: ('A' for Active; 'I' for Inactive)
REMARK    1  A    between atoms: C6_3  and  N6_13 
REMARK    2  A    between atoms: C8_4  and  CAL_15 
REMARK    3  A    between atoms: CAF_8  and  CAA_7 
REMARK    4  A    between atoms: CAG_9  and  CAF_8 
REMARK    5  A    between atoms: CAK_10  and  CAG_9 
REMARK    6  A    between atoms: CAK_10  and  N9_11 
REMARK    7  A    between atoms: CAL_15  and  CAS_16 
REMARK    8  A    between atoms: CAU_19  and  OAP_20 
REMARK    9  A    between atoms: OAP_20  and  CAB_21 
REMARK   10  A    between atoms: CAX_22  and  OAR_23 
REMARK   11  A    between atoms: OAR_23  and  CAD_24 
REMARK   12  A    between atoms: CAV_25  and  OAQ_26 
REMARK   13  A    between atoms: OAQ_26  and  CAC_27 
ROOT
ATOM      1  C4  KFY d   1      -0.977 -10.222 -22.515  0.00  0.00     0.165 A 
ATOM      2  C5  KFY d   1      -0.170 -10.941 -23.317  0.00  0.00     0.150 A 
ATOM      3  C6  KFY d   1       1.143 -11.103 -22.972  0.00  0.00     0.155 A 
ATOM      4  C8  KFY d   1      -2.152 -10.874 -24.168  0.00  0.00     0.113 A 
ATOM      5  N1  KFY d   1       1.607 -10.593 -21.821  0.00  0.00    -0.222 NA
ATOM      6  N3  KFY d   1      -0.552  -9.678 -21.356  0.00  0.00    -0.222 NA
ATOM      7  N9  KFY d   1      -2.202 -10.181 -23.043  0.00  0.00    -0.317 N 
ATOM      8  C2  KFY d   1       0.768  -9.866 -20.991  0.00  0.00     0.091 A 
ATOM      9  N7  KFY d   1      -0.918 -11.331 -24.370  0.00  0.00    -0.227 NA
ATOM     10  H10 KFY d   1       1.144  -9.448 -20.064  0.00  0.00     0.146 H 
ENDROOT
BRANCH   4  11
ATOM     11  CAL KFY d   1      -3.343 -11.074 -25.130  0.00  0.00     0.014 C 
ATOM     12  H13 KFY d   1      -3.004 -11.697 -25.971  0.00  0.00     0.051 H 
ATOM     13  H14 KFY d   1      -3.650 -10.087 -25.506  0.00  0.00     0.051 H 
BRANCH  11  14
ATOM     14  CAS KFY d   1      -4.492 -11.706 -24.538  0.00  0.00    -0.046 A 
ATOM     15  CAJ KFY d   1      -5.761 -11.171 -24.812  0.00  0.00    -0.041 A 
ATOM     16  CAV KFY d   1      -6.905 -11.750 -24.260  0.00  0.00     0.104 A 
ATOM     17  H15 KFY d   1      -5.853 -10.304 -25.456  0.00  0.00     0.088 H 
ATOM     18  CAX KFY d   1      -6.793 -12.868 -23.451  0.00  0.00     0.135 A 
ATOM     19  CAU KFY d   1      -5.542 -13.406 -23.152  0.00  0.00     0.104 A 
ATOM     20  CAI KFY d   1      -4.385 -12.830 -23.700  0.00  0.00    -0.041 A 
ATOM     21  H16 KFY d   1      -3.411 -13.251 -23.478  0.00  0.00     0.088 H 
BRANCH  16  22
ATOM     22  OAQ KFY d   1      -8.194 -11.312 -24.488  0.00  0.00    -0.353 OA
BRANCH  22  23
ATOM     23  CAC KFY d   1      -8.253 -10.196 -25.390  0.00  0.00     0.010 C 
ATOM     24  H23 KFY d   1      -9.301  -9.894 -25.531  0.00  0.00     0.066 H 
ATOM     25  H24 KFY d   1      -7.821 -10.485 -26.359  0.00  0.00     0.066 H 
ATOM     26  H25 KFY d   1      -7.682  -9.354 -24.970  0.00  0.00     0.066 H 
ENDBRANCH  22  23
ENDBRANCH  16  22
BRANCH  18  27
ATOM     27  OAR KFY d   1      -7.960 -13.390 -22.917  0.00  0.00    -0.351 OA
BRANCH  27  28
ATOM     28  CAD KFY d   1      -8.259 -14.739 -23.303  0.00  0.00     0.011 C 
ATOM     29  H20 KFY d   1      -9.199 -15.056 -22.828  0.00  0.00     0.067 H 
ATOM     30  H21 KFY d   1      -7.443 -15.402 -22.980  0.00  0.00     0.067 H 
ATOM     31  H22 KFY d   1      -8.364 -14.793 -24.397  0.00  0.00     0.067 H 
ENDBRANCH  27  28
ENDBRANCH  18  27
BRANCH  19  32
ATOM     32  OAP KFY d   1      -5.525 -14.488 -22.324  0.00  0.00    -0.353 OA
BRANCH  32  33
ATOM     33  CAB KFY d   1      -4.313 -15.237 -22.313  0.00  0.00     0.010 C 
ATOM     34  H17 KFY d   1      -4.410 -16.081 -21.615  0.00  0.00     0.066 H 
ATOM     35  H18 KFY d   1      -3.484 -14.589 -21.991  0.00  0.00     0.066 H 
ATOM     36  H19 KFY d   1      -4.109 -15.619 -23.324  0.00  0.00     0.066 H 
ENDBRANCH  32  33
ENDBRANCH  19  32
ENDBRANCH  11  14
ENDBRANCH   4  11
BRANCH   7  37
ATOM     37  CAK KFY d   1      -3.344  -9.481 -22.438  0.00  0.00     0.003 C 
ATOM     38  H8  KFY d   1      -4.261 -10.072 -22.576  0.00  0.00     0.065 H 
ATOM     39  H9  KFY d   1      -3.164  -9.330 -21.363  0.00  0.00     0.065 H 
BRANCH  37  40
ATOM     40  CAG KFY d   1      -3.486  -8.117 -23.144  0.00  0.00    -0.050 C 
ATOM     41  H6  KFY d   1      -3.299  -7.326 -22.403  0.00  0.00     0.035 H 
ATOM     42  H7  KFY d   1      -2.728  -8.062 -23.939  0.00  0.00     0.035 H 
BRANCH  40  43
ATOM     43  CAF KFY d   1      -4.844  -7.868 -23.768  0.00  0.00    -0.067 C 
ATOM     44  H4  KFY d   1      -5.022  -8.660 -24.511  0.00  0.00     0.032 H 
ATOM     45  H5  KFY d   1      -5.598  -7.937 -22.970  0.00  0.00     0.032 H 
BRANCH  43  46
ATOM     46  CAA KFY d   1      -5.028  -6.524 -24.467  0.00  0.00    -0.076 C 
ATOM     47  H1  KFY d   1      -6.047  -6.460 -24.877  0.00  0.00     0.027 H 
ATOM     48  H2  KFY d   1      -4.297  -6.433 -25.284  0.00  0.00     0.027 H 
ATOM     49  H3  KFY d   1      -4.873  -5.710 -23.744  0.00  0.00     0.027 H 
ENDBRANCH  43  46
ENDBRANCH  40  43
ENDBRANCH  37  40
ENDBRANCH   7  37
BRANCH   3  50
ATOM     50  N6  KFY d   1       1.986 -11.777 -23.767  0.00  0.00    -0.382 N 
ATOM     51  H11 KFY d   1       2.972 -11.890 -23.493  0.00  0.00     0.157 HD
ATOM     52  H12 KFY d   1       1.647 -12.181 -24.652  0.00  0.00     0.157 HD
ENDBRANCH   3  50
TORSDOF 13
