REMARK  28 active torsions:
REMARK  status: ('A' for Active; 'I' for Inactive)
REMARK    1  A    between atoms: C6_6  and  N6_7 
REMARK    2  A    between atoms: N9_10  and  C1'_11 
REMARK    3  A    between atoms: C2'_12  and  O2'_13 
REMARK    4  A    between atoms: C3'_14  and  O3'_15 
REMARK    5  A    between atoms: O3'_15  and  P3_21 
REMARK    6  A    between atoms: C4'_16  and  C5'_18 
REMARK    7  A    between atoms: C5'_18  and  O5'_19 
REMARK    8  A    between atoms: O5'_19  and  P1_24 
REMARK    9  A    between atoms: P1_24  and  O6_27 
REMARK   10  A    between atoms: O6_27  and  P2_28 
REMARK   11  A    between atoms: P2_28  and  O7_31 
REMARK   12  A    between atoms: O7_31  and  CPB_32 
REMARK   13  A    between atoms: CPB_32  and  CPA_33 
REMARK   14  A    between atoms: CPA_33  and  CP9_34 
REMARK   15  A    between atoms: CPA_33  and  CP8_35 
REMARK   16  A    between atoms: CPA_33  and  CP7_36 
REMARK   17  A    between atoms: CP7_36  and  OP3_37 
REMARK   18  A    between atoms: CP7_36  and  CP6_38 
REMARK       I    between atoms: CP6_38  and  NP2_40 
REMARK   19  A    between atoms: NP2_40  and  CP5_41 
REMARK   20  A    between atoms: CP5_41  and  CP4_42 
REMARK   21  A    between atoms: CP4_42  and  CP3_43 
REMARK       I    between atoms: CP3_43  and  NP1_45 
REMARK   22  A    between atoms: NP1_45  and  CP2_46 
REMARK   23  A    between atoms: CP2_46  and  CP1_47 
REMARK   24  A    between atoms: CP1_47  and  S_48 
REMARK   25  A    between atoms: S_48  and  CS1_49 
REMARK   26  A    between atoms: CS1_49  and  CS2_51 
REMARK   27  A    between atoms: CS2_51  and  CS3_52 
REMARK   28  A    between atoms: CS2_51  and  NS4_53 
ROOT
ATOM      1  CPB KFV d   1      20.784  21.043  22.413  0.00  0.00     0.041 C 
ATOM      2  H12 KFV d   1      20.979  21.308  23.463  0.00  0.00     0.076 H 
ATOM      3  H13 KFV d   1      21.130  21.857  21.759  0.00  0.00     0.076 H 
ENDROOT
BRANCH   1   4
ATOM      4  O7  KFV d   1      19.388  20.838  22.223  0.00  0.00    -0.289 OA
BRANCH   4   5
ATOM      5  P2  KFV d   1      18.460  22.185  22.205  0.00  0.00     0.417 P 
ATOM      6  O21 KFV d   1      18.634  22.900  23.493  0.00  0.00    -0.624 OA
ATOM      7  O22 KFV d   1      17.101  21.666  22.068  0.00  0.00    -0.624 OA
BRANCH   5   8
ATOM      8  O6  KFV d   1      18.977  23.293  21.187  0.00  0.00    -0.180 OA
BRANCH   8   9
ATOM      9  P1  KFV d   1      18.902  23.174  19.576  0.00  0.00     0.417 P 
ATOM     10  O11 KFV d   1      17.664  23.986  19.231  0.00  0.00    -0.624 OA
ATOM     11  O12 KFV d   1      18.719  21.786  19.133  0.00  0.00    -0.624 OA
BRANCH   9  12
ATOM     12  O5' KFV d   1      20.163  23.929  18.977  0.00  0.00    -0.287 OA
BRANCH  12  13
ATOM     13  C5' KFV d   1      20.458  25.322  19.152  0.00  0.00     0.058 C 
ATOM     14  H10 KFV d   1      19.540  25.899  19.333  0.00  0.00     0.079 H 
ATOM     15  H11 KFV d   1      21.158  25.475  19.987  0.00  0.00     0.079 H 
BRANCH  13  16
ATOM     16  C4' KFV d   1      21.101  25.717  17.817  0.00  0.00     0.090 C 
ATOM     17  C3' KFV d   1      20.415  25.016  16.649  0.00  0.00     0.107 C 
ATOM     18  C2' KFV d   1      21.218  23.736  16.422  0.00  0.00     0.106 C 
ATOM     19  H8  KFV d   1      19.369  24.790  16.905  0.00  0.00     0.092 H 
ATOM     20  C1' KFV d   1      22.572  24.265  16.797  0.00  0.00     0.140 C 
ATOM     21  H6  KFV d   1      20.892  22.931  17.098  0.00  0.00     0.093 H 
ATOM     22  O4' KFV d   1      22.454  25.224  17.877  0.00  0.00    -0.353 OA
ATOM     23  H5  KFV d   1      22.991  24.781  15.920  0.00  0.00     0.122 H 
ATOM     24  H9  KFV d   1      21.074  26.808  17.679  0.00  0.00     0.090 H 
BRANCH  17  25
ATOM     25  O3' KFV d   1      20.460  25.771  15.438  0.00  0.00    -0.272 OA
BRANCH  25  26
ATOM     26  P3  KFV d   1      19.253  26.807  15.013  0.00  0.00     0.422 P 
ATOM     27  O31 KFV d   1      19.724  27.235  13.666  0.00  0.00    -0.617 OA
ATOM     28  O32 KFV d   1      18.034  25.932  15.012  0.00  0.00    -0.617 OA
ATOM     29  O33 KFV d   1      19.315  27.899  16.039  0.00  0.00    -0.617 OA
ENDBRANCH  25  26
ENDBRANCH  17  25
BRANCH  18  30
ATOM     30  O2' KFV d   1      21.173  23.250  15.074  0.00  0.00    -0.388 OA
ATOM     31  H7  KFV d   1      21.387  23.957  14.476  0.00  0.00     0.210 HD
ENDBRANCH  18  30
BRANCH  20  32
ATOM     32  N9  KFV d   1      23.513  23.163  17.181  0.00  0.00    -0.294 N 
ATOM     33  C4  KFV d   1      24.648  22.954  16.517  0.00  0.00     0.167 A 
ATOM     34  N3  KFV d   1      25.214  23.510  15.444  0.00  0.00    -0.222 NA
ATOM     35  C5  KFV d   1      25.272  21.814  17.234  0.00  0.00     0.149 A 
ATOM     36  C2  KFV d   1      26.397  22.989  15.037  0.00  0.00     0.091 A 
ATOM     37  N1  KFV d   1      27.031  21.962  15.645  0.00  0.00    -0.222 NA
ATOM     38  H1  KFV d   1      26.867  23.426  14.164  0.00  0.00     0.146 H 
ATOM     39  C6  KFV d   1      26.522  21.352  16.739  0.00  0.00     0.155 A 
ATOM     40  N7  KFV d   1      24.481  21.434  18.258  0.00  0.00    -0.236 NA
ATOM     41  C8  KFV d   1      23.408  22.303  18.228  0.00  0.00     0.071 A 
ATOM     42  H4  KFV d   1      22.589  22.299  18.946  0.00  0.00     0.144 H 
BRANCH  39  43
ATOM     43  N6  KFV d   1      27.148  20.342  17.380  0.00  0.00    -0.382 N 
ATOM     44  H2  KFV d   1      26.715  19.912  18.210  0.00  0.00     0.157 HD
ATOM     45  H3  KFV d   1      28.058  20.001  17.039  0.00  0.00     0.157 HD
ENDBRANCH  39  43
ENDBRANCH  20  32
ENDBRANCH  13  16
ENDBRANCH  12  13
ENDBRANCH   9  12
ENDBRANCH   8   9
ENDBRANCH   5   8
ENDBRANCH   4   5
ENDBRANCH   1   4
BRANCH   1  46
ATOM     46  CPA KFV d   1      21.529  19.750  22.062  0.00  0.00     0.009 C 
BRANCH  46  47
ATOM     47  CP9 KFV d   1      21.178  18.713  23.116  0.00  0.00    -0.065 C 
ATOM     48  H14 KFV d   1      21.699  17.771  22.891  0.00  0.00     0.028 H 
ATOM     49  H15 KFV d   1      20.092  18.541  23.113  0.00  0.00     0.028 H 
ATOM     50  H16 KFV d   1      21.489  19.077  24.106  0.00  0.00     0.028 H 
ENDBRANCH  46  47
BRANCH  46  51
ATOM     51  CP8 KFV d   1      23.047  19.963  22.172  0.00  0.00    -0.065 C 
ATOM     52  H17 KFV d   1      23.367  20.709  21.430  0.00  0.00     0.028 H 
ATOM     53  H18 KFV d   1      23.565  19.011  21.983  0.00  0.00     0.028 H 
ATOM     54  H19 KFV d   1      23.295  20.322  23.182  0.00  0.00     0.028 H 
ENDBRANCH  46  51
BRANCH  46  55
ATOM     55  CP7 KFV d   1      21.130  19.385  20.601  0.00  0.00     0.120 C 
ATOM     56  H20 KFV d   1      20.084  19.046  20.602  0.00  0.00     0.099 H 
BRANCH  55  57
ATOM     57  OP3 KFV d   1      21.250  20.522  19.770  0.00  0.00    -0.385 OA
ATOM     58  H21 KFV d   1      20.676  21.208  20.090  0.00  0.00     0.210 HD
ENDBRANCH  55  57
BRANCH  55  59
ATOM     59  CP6 KFV d   1      21.978  18.308  20.037  0.00  0.00     0.247 C 
ATOM     60  OP2 KFV d   1      21.803  17.131  20.370  0.00  0.00    -0.271 OA
ATOM     61  NP2 KFV d   1      22.946  18.735  19.265  0.00  0.00    -0.358 N 
ATOM     62  H22 KFV d   1      23.046  19.716  19.096  0.00  0.00     0.162 HD
BRANCH  61  63
ATOM     63  CP5 KFV d   1      23.877  17.805  18.650  0.00  0.00     0.003 C 
ATOM     64  H23 KFV d   1      24.361  18.297  17.793  0.00  0.00     0.064 H 
ATOM     65  H24 KFV d   1      23.322  16.922  18.300  0.00  0.00     0.064 H 
BRANCH  63  66
ATOM     66  CP4 KFV d   1      24.938  17.363  19.624  0.00  0.00     0.024 C 
ATOM     67  H25 KFV d   1      24.467  16.865  20.485  0.00  0.00     0.049 H 
ATOM     68  H26 KFV d   1      25.509  18.236  19.973  0.00  0.00     0.049 H 
BRANCH  66  69
ATOM     69  CP3 KFV d   1      25.861  16.400  18.922  0.00  0.00     0.219 C 
ATOM     70  OP1 KFV d   1      25.418  15.288  18.632  0.00  0.00    -0.274 OA
ATOM     71  NP1 KFV d   1      27.109  16.821  18.650  0.00  0.00    -0.360 N 
ATOM     72  H27 KFV d   1      27.372  17.751  18.908  0.00  0.00     0.162 HD
BRANCH  71  73
ATOM     73  CP2 KFV d   1      28.072  15.987  18.006  0.00  0.00     0.003 C 
ATOM     74  H28 KFV d   1      27.565  15.087  17.627  0.00  0.00     0.065 H 
ATOM     75  H29 KFV d   1      28.836  15.695  18.741  0.00  0.00     0.065 H 
BRANCH  73  76
ATOM     76  CP1 KFV d   1      28.753  16.691  16.845  0.00  0.00    -0.001 C 
ATOM     77  H30 KFV d   1      29.404  17.496  17.217  0.00  0.00     0.052 H 
ATOM     78  H31 KFV d   1      28.001  17.113  16.162  0.00  0.00     0.052 H 
BRANCH  76  79
ATOM     79  S   KFV d   1      29.726  15.445  16.003  0.00  0.00    -0.089 SA
BRANCH  79  80
ATOM     80  CS1 KFV d   1      31.150  15.369  16.926  0.00  0.00     0.214 C 
ATOM     81  OS1 KFV d   1      31.250  16.069  17.937  0.00  0.00    -0.283 OA
BRANCH  80  82
ATOM     82  CS2 KFV d   1      32.244  14.574  16.347  0.00  0.00     0.137 C 
ATOM     83  H32 KFV d   1      32.060  13.774  17.080  0.00  0.00     0.095 H 
BRANCH  82  84
ATOM     84  CS3 KFV d   1      33.660  14.741  16.867  0.00  0.00    -0.044 C 
ATOM     85  H33 KFV d   1      33.666  15.476  17.686  0.00  0.00     0.031 H 
ATOM     86  H34 KFV d   1      34.310  15.094  16.053  0.00  0.00     0.031 H 
ATOM     87  H35 KFV d   1      34.030  13.774  17.239  0.00  0.00     0.031 H 
ENDBRANCH  82  84
BRANCH  82  88
ATOM     88  NS4 KFV d   1      32.006  13.746  15.370  0.00  0.00    -0.143 N 
ATOM     89  OS4 KFV d   1      32.878  13.012  14.976  0.00  0.00    -0.536 OA
ATOM     90  OS5 KFV d   1      30.899  13.627  14.893  0.00  0.00    -0.536 OA
ENDBRANCH  82  88
ENDBRANCH  80  82
ENDBRANCH  79  80
ENDBRANCH  76  79
ENDBRANCH  73  76
ENDBRANCH  71  73
ENDBRANCH  66  69
ENDBRANCH  63  66
ENDBRANCH  61  63
ENDBRANCH  55  59
ENDBRANCH  46  55
ENDBRANCH   1  46
TORSDOF 28
