REMARK  24 active torsions:
REMARK  status: ('A' for Active; 'I' for Inactive)
REMARK    1  A    between atoms: C6_6  and  N6_7 
REMARK    2  A    between atoms: N9_10  and  C1'_11 
REMARK    3  A    between atoms: C2'_12  and  O2'_13 
REMARK    4  A    between atoms: C3'_14  and  O3'_15 
REMARK    5  A    between atoms: O3'_15  and  P3_21 
REMARK    6  A    between atoms: C4'_16  and  C5'_18 
REMARK    7  A    between atoms: C5'_18  and  O5'_19 
REMARK    8  A    between atoms: O5'_19  and  P1_24 
REMARK    9  A    between atoms: P1_24  and  O6_27 
REMARK   10  A    between atoms: O6_27  and  P2_28 
REMARK   11  A    between atoms: P2_28  and  O7_31 
REMARK   12  A    between atoms: O7_31  and  CPB_32 
REMARK   13  A    between atoms: CPB_32  and  CPA_33 
REMARK   14  A    between atoms: CPA_33  and  CP9_34 
REMARK   15  A    between atoms: CPA_33  and  CP8_35 
REMARK   16  A    between atoms: CPA_33  and  CP7_36 
REMARK   17  A    between atoms: CP7_36  and  OP3_37 
REMARK   18  A    between atoms: CP7_36  and  CP6_38 
REMARK       I    between atoms: CP6_38  and  NP2_40 
REMARK   19  A    between atoms: NP2_40  and  CP5_41 
REMARK   20  A    between atoms: CP5_41  and  CP4_42 
REMARK   21  A    between atoms: CP4_42  and  CP3_43 
REMARK       I    between atoms: CP3_43  and  NP1_45 
REMARK   22  A    between atoms: NP1_45  and  CP2_46 
REMARK   23  A    between atoms: CP2_46  and  CP1_47 
REMARK   24  A    between atoms: CP1_47  and  O_48 
ROOT
ATOM      1  P2  KGA d   1      18.590  22.124  22.049  0.00  0.00     0.417 P 
ATOM      2  O21 KGA d   1      17.273  21.559  21.658  0.00  0.00    -0.624 OA
ATOM      3  O22 KGA d   1      18.616  22.885  23.345  0.00  0.00    -0.624 OA
ENDROOT
BRANCH   1   4
ATOM      4  O6  KGA d   1      19.043  23.343  21.101  0.00  0.00    -0.180 OA
BRANCH   4   5
ATOM      5  P1  KGA d   1      19.148  23.334  19.479  0.00  0.00     0.417 P 
ATOM      6  O11 KGA d   1      18.087  24.355  19.119  0.00  0.00    -0.624 OA
ATOM      7  O12 KGA d   1      18.961  21.906  18.962  0.00  0.00    -0.624 OA
BRANCH   5   8
ATOM      8  O5' KGA d   1      20.515  24.080  19.084  0.00  0.00    -0.287 OA
BRANCH   8   9
ATOM      9  C5' KGA d   1      20.775  25.498  19.144  0.00  0.00     0.058 C 
ATOM     10  H10 KGA d   1      19.833  26.053  19.262  0.00  0.00     0.079 H 
ATOM     11  H11 KGA d   1      21.444  25.727  19.986  0.00  0.00     0.079 H 
BRANCH   9  12
ATOM     12  C4' KGA d   1      21.451  25.872  17.808  0.00  0.00     0.090 C 
ATOM     13  C3' KGA d   1      20.745  25.139  16.656  0.00  0.00     0.107 C 
ATOM     14  C2' KGA d   1      21.526  23.843  16.455  0.00  0.00     0.106 C 
ATOM     15  H8  KGA d   1      19.701  24.931  16.934  0.00  0.00     0.092 H 
ATOM     16  C1' KGA d   1      22.906  24.374  16.803  0.00  0.00     0.140 C 
ATOM     17  H6  KGA d   1      21.197  23.078  17.174  0.00  0.00     0.093 H 
ATOM     18  O4' KGA d   1      22.835  25.415  17.832  0.00  0.00    -0.353 OA
ATOM     19  H5  KGA d   1      23.333  24.834  15.899  0.00  0.00     0.122 H 
ATOM     20  H9  KGA d   1      21.407  26.960  17.654  0.00  0.00     0.090 H 
BRANCH  13  21
ATOM     21  O3' KGA d   1      20.771  25.848  15.426  0.00  0.00    -0.272 OA
BRANCH  21  22
ATOM     22  P3  KGA d   1      19.536  26.792  14.902  0.00  0.00     0.422 P 
ATOM     23  O31 KGA d   1      19.417  27.911  15.907  0.00  0.00    -0.617 OA
ATOM     24  O33 KGA d   1      20.132  27.234  13.616  0.00  0.00    -0.617 OA
ATOM     25  O32 KGA d   1      18.363  25.857  14.718  0.00  0.00    -0.617 OA
ENDBRANCH  21  22
ENDBRANCH  13  21
BRANCH  14  26
ATOM     26  O2' KGA d   1      21.472  23.261  15.135  0.00  0.00    -0.388 OA
ATOM     27  H7  KGA d   1      21.703  23.919  14.490  0.00  0.00     0.210 HD
ENDBRANCH  14  26
BRANCH  16  28
ATOM     28  N9  KGA d   1      23.776  23.246  17.191  0.00  0.00    -0.294 N 
ATOM     29  C4  KGA d   1      24.877  22.974  16.509  0.00  0.00     0.167 A 
ATOM     30  N3  KGA d   1      25.485  23.509  15.438  0.00  0.00    -0.222 NA
ATOM     31  C5  KGA d   1      25.463  21.825  17.229  0.00  0.00     0.149 A 
ATOM     32  C2  KGA d   1      26.629  22.933  15.037  0.00  0.00     0.091 A 
ATOM     33  N1  KGA d   1      27.209  21.881  15.655  0.00  0.00    -0.222 NA
ATOM     34  H1  KGA d   1      27.120  23.338  14.160  0.00  0.00     0.146 H 
ATOM     35  C6  KGA d   1      26.682  21.303  16.730  0.00  0.00     0.155 A 
ATOM     36  N7  KGA d   1      24.659  21.512  18.254  0.00  0.00    -0.236 NA
ATOM     37  C8  KGA d   1      23.621  22.390  18.229  0.00  0.00     0.071 A 
ATOM     38  H4  KGA d   1      22.792  22.403  18.935  0.00  0.00     0.144 H 
BRANCH  35  39
ATOM     39  N6  KGA d   1      27.243  20.272  17.382  0.00  0.00    -0.382 N 
ATOM     40  H2  KGA d   1      26.779  19.872  18.210  0.00  0.00     0.157 HD
ATOM     41  H3  KGA d   1      28.138  19.881  17.054  0.00  0.00     0.157 HD
ENDBRANCH  35  39
ENDBRANCH  16  28
ENDBRANCH   9  12
ENDBRANCH   8   9
ENDBRANCH   5   8
ENDBRANCH   4   5
ENDBRANCH   1   4
BRANCH   1  42
ATOM     42  O7  KGA d   1      19.509  20.790  22.146  0.00  0.00    -0.289 OA
BRANCH  42  43
ATOM     43  CPB KGA d   1      20.854  20.937  22.539  0.00  0.00     0.041 C 
ATOM     44  H12 KGA d   1      20.909  21.091  23.627  0.00  0.00     0.076 H 
ATOM     45  H13 KGA d   1      21.300  21.800  22.023  0.00  0.00     0.076 H 
BRANCH  43  46
ATOM     46  CPA KGA d   1      21.600  19.677  22.164  0.00  0.00     0.009 C 
BRANCH  46  47
ATOM     47  CP9 KGA d   1      21.178  18.583  23.140  0.00  0.00    -0.065 C 
ATOM     48  H14 KGA d   1      21.705  17.649  22.894  0.00  0.00     0.028 H 
ATOM     49  H15 KGA d   1      20.092  18.423  23.064  0.00  0.00     0.028 H 
ATOM     50  H16 KGA d   1      21.433  18.888  24.166  0.00  0.00     0.028 H 
ENDBRANCH  46  47
BRANCH  46  51
ATOM     51  CP8 KGA d   1      23.105  19.958  22.282  0.00  0.00    -0.065 C 
ATOM     52  H17 KGA d   1      23.387  20.748  21.571  0.00  0.00     0.028 H 
ATOM     53  H18 KGA d   1      23.668  19.041  22.054  0.00  0.00     0.028 H 
ATOM     54  H19 KGA d   1      23.338  20.286  23.306  0.00  0.00     0.028 H 
ENDBRANCH  46  51
BRANCH  46  55
ATOM     55  CP7 KGA d   1      21.210  19.327  20.713  0.00  0.00     0.120 C 
ATOM     56  H20 KGA d   1      20.154  19.023  20.660  0.00  0.00     0.099 H 
BRANCH  55  57
ATOM     57  OP3 KGA d   1      21.461  20.463  19.915  0.00  0.00    -0.385 OA
ATOM     58  H21 KGA d   1      20.940  21.192  20.231  0.00  0.00     0.210 HD
ENDBRANCH  55  57
BRANCH  55  59
ATOM     59  CP6 KGA d   1      22.079  18.280  20.191  0.00  0.00     0.247 C 
ATOM     60  OP2 KGA d   1      22.103  17.147  20.685  0.00  0.00    -0.271 OA
ATOM     61  NP2 KGA d   1      22.882  18.827  19.292  0.00  0.00    -0.358 N 
ATOM     62  H22 KGA d   1      22.647  19.744  18.969  0.00  0.00     0.162 HD
BRANCH  61  63
ATOM     63  CP5 KGA d   1      24.073  18.215  18.733  0.00  0.00     0.003 C 
ATOM     64  H23 KGA d   1      24.787  19.020  18.506  0.00  0.00     0.064 H 
ATOM     65  H24 KGA d   1      23.782  17.709  17.801  0.00  0.00     0.064 H 
BRANCH  63  66
ATOM     66  CP4 KGA d   1      24.784  17.204  19.601  0.00  0.00     0.024 C 
ATOM     67  H25 KGA d   1      24.051  16.507  20.034  0.00  0.00     0.049 H 
ATOM     68  H26 KGA d   1      25.319  17.722  20.410  0.00  0.00     0.049 H 
BRANCH  66  69
ATOM     69  CP3 KGA d   1      25.774  16.436  18.744  0.00  0.00     0.219 C 
ATOM     70  OP1 KGA d   1      25.469  15.358  18.256  0.00  0.00    -0.274 OA
ATOM     71  NP1 KGA d   1      26.993  16.956  18.679  0.00  0.00    -0.359 N 
ATOM     72  H27 KGA d   1      27.095  17.942  18.812  0.00  0.00     0.162 HD
BRANCH  71  73
ATOM     73  CP2 KGA d   1      28.176  16.175  18.427  0.00  0.00     0.015 C 
ATOM     74  H28 KGA d   1      27.963  15.138  18.724  0.00  0.00     0.067 H 
ATOM     75  H29 KGA d   1      28.984  16.578  19.055  0.00  0.00     0.067 H 
BRANCH  73  76
ATOM     76  CP1 KGA d   1      28.670  16.153  16.996  0.00  0.00     0.031 C 
ATOM     77  H30 KGA d   1      29.228  17.081  16.801  0.00  0.00     0.076 H 
ATOM     78  H31 KGA d   1      27.801  16.099  16.323  0.00  0.00     0.076 H 
BRANCH  76  79
ATOM     79  O   KGA d   1      29.534  15.028  16.728  0.00  0.00    -0.399 OA
ATOM     80  H32 KGA d   1      29.817  15.057  15.822  0.00  0.00     0.209 HD
ENDBRANCH  76  79
ENDBRANCH  73  76
ENDBRANCH  71  73
ENDBRANCH  66  69
ENDBRANCH  63  66
ENDBRANCH  61  63
ENDBRANCH  55  59
ENDBRANCH  46  55
ENDBRANCH  43  46
ENDBRANCH  42  43
ENDBRANCH   1  42
TORSDOF 24
