REMARK  27 active torsions:
REMARK  status: ('A' for Active; 'I' for Inactive)
REMARK    1  A    between atoms: C6_6  and  N6_7 
REMARK    2  A    between atoms: N9_10  and  C1'_11 
REMARK    3  A    between atoms: C2'_12  and  O2'_13 
REMARK    4  A    between atoms: C3'_14  and  O3'_15 
REMARK    5  A    between atoms: O3'_15  and  P3_21 
REMARK    6  A    between atoms: C4'_16  and  C5'_18 
REMARK    7  A    between atoms: C5'_18  and  O5'_19 
REMARK    8  A    between atoms: O5'_19  and  P1_24 
REMARK    9  A    between atoms: P1_24  and  O6_27 
REMARK   10  A    between atoms: O6_27  and  P2_28 
REMARK   11  A    between atoms: P2_28  and  O7_31 
REMARK   12  A    between atoms: O7_31  and  CPB_32 
REMARK   13  A    between atoms: CPB_32  and  CPA_33 
REMARK   14  A    between atoms: CPA_33  and  CP9_34 
REMARK   15  A    between atoms: CPA_33  and  CP8_35 
REMARK   16  A    between atoms: CPA_33  and  CP7_36 
REMARK   17  A    between atoms: CP7_36  and  OP3_37 
REMARK   18  A    between atoms: CP7_36  and  CP6_38 
REMARK       I    between atoms: CP6_38  and  NP2_40 
REMARK   19  A    between atoms: NP2_40  and  CP5_41 
REMARK   20  A    between atoms: CP5_41  and  CP4_42 
REMARK   21  A    between atoms: CP4_42  and  CP3_43 
REMARK       I    between atoms: CP3_43  and  NP1_45 
REMARK   22  A    between atoms: NP1_45  and  CP2_46 
REMARK   23  A    between atoms: CP2_46  and  CP1_47 
REMARK   24  A    between atoms: CP1_47  and  N_48 
REMARK       I    between atoms: N_48  and  CS1_49 
REMARK   25  A    between atoms: CS1_49  and  CS2_51 
REMARK   26  A    between atoms: CS2_51  and  CS3_52 
REMARK   27  A    between atoms: CS2_51  and  NS4_53 
ROOT
ATOM      1  CPA KGJ d   1      21.114  20.193  21.973  0.00  0.00     0.009 C 
ENDROOT
BRANCH   1   2
ATOM      2  CPB KGJ d   1      20.511  21.455  22.512  0.00  0.00     0.041 C 
ATOM      3  H12 KGJ d   1      20.614  21.489  23.607  0.00  0.00     0.076 H 
ATOM      4  H13 KGJ d   1      21.006  22.332  22.070  0.00  0.00     0.076 H 
BRANCH   2   5
ATOM      5  O7  KGJ d   1      19.162  21.430  22.154  0.00  0.00    -0.289 OA
BRANCH   5   6
ATOM      6  P2  KGJ d   1      18.344  22.828  22.086  0.00  0.00     0.417 P 
ATOM      7  O21 KGJ d   1      16.947  22.475  21.696  0.00  0.00    -0.624 OA
ATOM      8  O22 KGJ d   1      18.422  23.471  23.434  0.00  0.00    -0.624 OA
BRANCH   6   9
ATOM      9  O6  KGJ d   1      18.904  24.051  21.181  0.00  0.00    -0.180 OA
BRANCH   9  10
ATOM     10  P1  KGJ d   1      19.112  24.191  19.567  0.00  0.00     0.417 P 
ATOM     11  O11 KGJ d   1      18.833  22.789  19.050  0.00  0.00    -0.624 OA
ATOM     12  O12 KGJ d   1      18.232  25.308  19.048  0.00  0.00    -0.624 OA
BRANCH  10  13
ATOM     13  O5' KGJ d   1      20.517  24.818  19.157  0.00  0.00    -0.287 OA
BRANCH  13  14
ATOM     14  C5' KGJ d   1      20.975  26.170  19.230  0.00  0.00     0.058 C 
ATOM     15  H10 KGJ d   1      20.128  26.852  19.393  0.00  0.00     0.079 H 
ATOM     16  H11 KGJ d   1      21.701  26.284  20.048  0.00  0.00     0.079 H 
BRANCH  14  17
ATOM     17  C4' KGJ d   1      21.639  26.460  17.887  0.00  0.00     0.090 C 
ATOM     18  C3' KGJ d   1      20.836  25.790  16.755  0.00  0.00     0.107 C 
ATOM     19  C2' KGJ d   1      21.492  24.437  16.534  0.00  0.00     0.106 C 
ATOM     20  H8  KGJ d   1      19.783  25.675  17.052  0.00  0.00     0.092 H 
ATOM     21  C1' KGJ d   1      22.925  24.863  16.836  0.00  0.00     0.140 C 
ATOM     22  H6  KGJ d   1      21.141  23.726  17.296  0.00  0.00     0.093 H 
ATOM     23  O4' KGJ d   1      22.997  25.920  17.863  0.00  0.00    -0.353 OA
ATOM     24  H5  KGJ d   1      23.357  25.267  15.909  0.00  0.00     0.122 H 
ATOM     25  H9  KGJ d   1      21.672  27.548  17.726  0.00  0.00     0.090 H 
BRANCH  18  26
ATOM     26  O3' KGJ d   1      20.916  26.522  15.539  0.00  0.00    -0.272 OA
BRANCH  26  27
ATOM     27  P3  KGJ d   1      19.704  27.523  15.058  0.00  0.00     0.422 P 
ATOM     28  O31 KGJ d   1      20.292  27.982  13.743  0.00  0.00    -0.617 OA
ATOM     29  O32 KGJ d   1      19.722  28.658  16.077  0.00  0.00    -0.617 OA
ATOM     30  O33 KGJ d   1      18.460  26.639  15.063  0.00  0.00    -0.617 OA
ENDBRANCH  26  27
ENDBRANCH  18  26
BRANCH  19  31
ATOM     31  O2' KGJ d   1      21.283  23.786  15.241  0.00  0.00    -0.388 OA
ATOM     32  H7  KGJ d   1      21.538  24.379  14.544  0.00  0.00     0.210 HD
ENDBRANCH  19  31
BRANCH  21  33
ATOM     33  N9  KGJ d   1      23.741  23.676  17.256  0.00  0.00    -0.294 N 
ATOM     34  C4  KGJ d   1      24.785  23.314  16.550  0.00  0.00     0.167 A 
ATOM     35  N3  KGJ d   1      25.344  23.787  15.410  0.00  0.00    -0.222 NA
ATOM     36  C5  KGJ d   1      25.325  22.163  17.294  0.00  0.00     0.149 A 
ATOM     37  C2  KGJ d   1      26.452  23.191  14.969  0.00  0.00     0.091 A 
ATOM     38  N1  KGJ d   1      26.989  22.089  15.596  0.00  0.00    -0.222 NA
ATOM     39  H1  KGJ d   1      26.946  23.587  14.089  0.00  0.00     0.146 H 
ATOM     40  C6  KGJ d   1      26.501  21.569  16.742  0.00  0.00     0.155 A 
ATOM     41  N7  KGJ d   1      24.525  21.911  18.369  0.00  0.00    -0.236 NA
ATOM     42  C8  KGJ d   1      23.562  22.852  18.347  0.00  0.00     0.071 A 
ATOM     43  H4  KGJ d   1      22.762  22.948  19.080  0.00  0.00     0.144 H 
BRANCH  40  44
ATOM     44  N6  KGJ d   1      27.056  20.544  17.397  0.00  0.00    -0.382 N 
ATOM     45  H2  KGJ d   1      26.629  20.198  18.268  0.00  0.00     0.157 HD
ATOM     46  H3  KGJ d   1      27.910  20.101  17.031  0.00  0.00     0.157 HD
ENDBRANCH  40  44
ENDBRANCH  21  33
ENDBRANCH  14  17
ENDBRANCH  13  14
ENDBRANCH  10  13
ENDBRANCH   9  10
ENDBRANCH   6   9
ENDBRANCH   5   6
ENDBRANCH   2   5
ENDBRANCH   1   2
BRANCH   1  47
ATOM     47  CP9 KGJ d   1      20.547  19.011  22.750  0.00  0.00    -0.065 C 
ATOM     48  H14 KGJ d   1      20.981  18.077  22.365  0.00  0.00     0.028 H 
ATOM     49  H15 KGJ d   1      19.454  18.984  22.630  0.00  0.00     0.028 H 
ATOM     50  H16 KGJ d   1      20.797  19.119  23.816  0.00  0.00     0.028 H 
ENDBRANCH   1  47
BRANCH   1  51
ATOM     51  CP8 KGJ d   1      22.607  20.309  22.257  0.00  0.00    -0.065 C 
ATOM     52  H17 KGJ d   1      23.021  21.161  21.698  0.00  0.00     0.028 H 
ATOM     53  H18 KGJ d   1      23.113  19.384  21.943  0.00  0.00     0.028 H 
ATOM     54  H19 KGJ d   1      22.764  20.466  23.334  0.00  0.00     0.028 H 
ENDBRANCH   1  51
BRANCH   1  55
ATOM     55  CP7 KGJ d   1      20.847  20.061  20.456  0.00  0.00     0.120 C 
ATOM     56  H20 KGJ d   1      19.778  19.860  20.295  0.00  0.00     0.099 H 
BRANCH  55  57
ATOM     57  OP3 KGJ d   1      21.221  21.250  19.787  0.00  0.00    -0.385 OA
ATOM     58  H21 KGJ d   1      20.715  21.977  20.130  0.00  0.00     0.210 HD
ENDBRANCH  55  57
BRANCH  55  59
ATOM     59  CP6 KGJ d   1      21.658  18.968  19.866  0.00  0.00     0.247 C 
ATOM     60  OP2 KGJ d   1      21.456  17.781  20.166  0.00  0.00    -0.271 OA
ATOM     61  NP2 KGJ d   1      22.675  19.364  19.112  0.00  0.00    -0.358 N 
ATOM     62  H22 KGJ d   1      22.814  20.337  18.931  0.00  0.00     0.162 HD
BRANCH  61  63
ATOM     63  CP5 KGJ d   1      23.581  18.388  18.553  0.00  0.00     0.003 C 
ATOM     64  H23 KGJ d   1      24.228  18.881  17.812  0.00  0.00     0.064 H 
ATOM     65  H24 KGJ d   1      22.997  17.596  18.061  0.00  0.00     0.064 H 
BRANCH  63  66
ATOM     66  CP4 KGJ d   1      24.441  17.772  19.625  0.00  0.00     0.024 C 
ATOM     67  H25 KGJ d   1      23.807  17.230  20.342  0.00  0.00     0.049 H 
ATOM     68  H26 KGJ d   1      24.997  18.561  20.152  0.00  0.00     0.049 H 
BRANCH  66  69
ATOM     69  CP3 KGJ d   1      25.412  16.812  18.979  0.00  0.00     0.219 C 
ATOM     70  OP1 KGJ d   1      24.981  15.789  18.511  0.00  0.00    -0.274 OA
ATOM     71  NP1 KGJ d   1      26.696  17.130  18.928  0.00  0.00    -0.359 N 
ATOM     72  H27 KGJ d   1      26.972  18.030  19.265  0.00  0.00     0.162 HD
BRANCH  71  73
ATOM     73  CP2 KGJ d   1      27.708  16.265  18.421  0.00  0.00     0.010 C 
ATOM     74  H28 KGJ d   1      27.236  15.318  18.122  0.00  0.00     0.066 H 
ATOM     75  H29 KGJ d   1      28.436  16.075  19.224  0.00  0.00     0.066 H 
BRANCH  73  76
ATOM     76  CP1 KGJ d   1      28.435  16.813  17.253  0.00  0.00     0.010 C 
ATOM     77  H30 KGJ d   1      29.035  17.688  17.544  0.00  0.00     0.066 H 
ATOM     78  H31 KGJ d   1      27.732  17.099  16.456  0.00  0.00     0.066 H 
BRANCH  76  79
ATOM     79  N   KGJ d   1      29.300  15.714  16.812  0.00  0.00    -0.358 N 
ATOM     80  CS1 KGJ d   1      30.708  15.634  17.230  0.00  0.00     0.246 C 
ATOM     81  OS1 KGJ d   1      31.212  16.420  18.009  0.00  0.00    -0.271 OA
ATOM     82  H32 KGJ d   1      28.925  15.005  16.215  0.00  0.00     0.162 HD
BRANCH  80  83
ATOM     83  CS2 KGJ d   1      31.541  14.589  16.587  0.00  0.00     0.146 C 
ATOM     84  H33 KGJ d   1      31.471  13.938  17.471  0.00  0.00     0.097 H 
BRANCH  83  85
ATOM     85  CS3 KGJ d   1      33.043  14.716  16.731  0.00  0.00    -0.043 C 
ATOM     86  H34 KGJ d   1      33.277  15.552  17.407  0.00  0.00     0.031 H 
ATOM     87  H35 KGJ d   1      33.491  14.905  15.745  0.00  0.00     0.031 H 
ATOM     88  H36 KGJ d   1      33.452  13.783  17.147  0.00  0.00     0.031 H 
ENDBRANCH  83  85
BRANCH  83  89
ATOM     89  NS4 KGJ d   1      31.027  13.681  15.846  0.00  0.00    -0.142 N 
ATOM     90  OS4 KGJ d   1      29.850  13.710  15.538  0.00  0.00    -0.536 OA
ATOM     91  OS5 KGJ d   1      31.740  12.849  15.337  0.00  0.00    -0.536 OA
ENDBRANCH  83  89
ENDBRANCH  80  83
ENDBRANCH  76  79
ENDBRANCH  73  76
ENDBRANCH  71  73
ENDBRANCH  66  69
ENDBRANCH  63  66
ENDBRANCH  61  63
ENDBRANCH  55  59
ENDBRANCH   1  55
TORSDOF 27
