REMARK  9 active torsions:
REMARK  status: ('A' for Active; 'I' for Inactive)
REMARK    1  A    between atoms: O6_6  and  P2_8 
REMARK    2  A    between atoms: P1_11  and  O6_6 
REMARK    3  A    between atoms: O5'_14  and  P1_11 
REMARK    4  A    between atoms: C5'_15  and  O5'_14 
REMARK    5  A    between atoms: C4'_16  and  C5'_15 
REMARK    6  A    between atoms: C1'_18  and  N9_27 
REMARK    7  A    between atoms: C2'_19  and  O2'_20 
REMARK    8  A    between atoms: C3'_21  and  O3'_22 
REMARK    9  A    between atoms: O3'_22  and  P3_23 
ROOT
ATOM      1  C4' LCV d   1      33.468 -23.644  42.942  0.00  0.00     0.090 C 
ATOM      2  O4' LCV d   1      32.858 -22.928  41.857  0.00  0.00    -0.353 OA
ATOM      3  C1' LCV d   1      33.247 -23.553  40.639  0.00  0.00     0.140 C 
ATOM      4  C2' LCV d   1      34.518 -24.310  40.865  0.00  0.00     0.106 C 
ATOM      5  C3' LCV d   1      34.392 -24.690  42.320  0.00  0.00     0.107 C 
ATOM      6  H4  LCV d   1      32.709 -24.141  43.563  0.00  0.00     0.090 H 
ATOM      7  H5  LCV d   1      32.464 -24.277  40.370  0.00  0.00     0.122 H 
ATOM      8  H6  LCV d   1      35.426 -23.727  40.651  0.00  0.00     0.093 H 
ATOM      9  H8  LCV d   1      35.350 -24.754  42.856  0.00  0.00     0.092 H 
ENDROOT
BRANCH   3  10
ATOM     10  N9  LCV d   1      33.371 -22.607  39.513  0.00  0.00    -0.294 N 
ATOM     11  C4  LCV d   1      32.318 -21.940  39.096  0.00  0.00     0.167 A 
ATOM     12  C5  LCV d   1      32.780 -21.114  37.954  0.00  0.00     0.149 A 
ATOM     13  N3  LCV d   1      31.032 -21.931  39.496  0.00  0.00    -0.222 NA
ATOM     14  C6  LCV d   1      31.761 -20.261  37.316  0.00  0.00     0.155 A 
ATOM     15  N7  LCV d   1      34.092 -21.373  37.781  0.00  0.00    -0.236 NA
ATOM     16  N1  LCV d   1      30.513 -20.316  37.804  0.00  0.00    -0.222 NA
ATOM     17  N6  LCV d   1      32.053 -19.466  36.274  0.00  0.00    -0.382 N 
ATOM     18  C2  LCV d   1      30.156 -21.103  38.856  0.00  0.00     0.091 A 
ATOM     19  H1  LCV d   1      29.129 -21.070  39.201  0.00  0.00     0.146 H 
ATOM     20  H10 LCV d   1      31.318 -18.882  35.850  0.00  0.00     0.157 HD
ATOM     21  H11 LCV d   1      33.012 -19.441  35.898  0.00  0.00     0.157 HD
ATOM     22  C8  LCV d   1      34.452 -22.276  38.748  0.00  0.00     0.071 A 
ATOM     23  H9  LCV d   1      35.457 -22.672  38.886  0.00  0.00     0.144 H 
ENDBRANCH   3  10
BRANCH   4  24
ATOM     24  O2' LCV d   1      34.426 -25.481  40.050  0.00  0.00    -0.388 OA
ATOM     25  H7  LCV d   1      33.669 -25.991  40.315  0.00  0.00     0.210 HD
ENDBRANCH   4  24
BRANCH   1  26
ATOM     26  C5' LCV d   1      34.209 -22.626  43.760  0.00  0.00     0.058 C 
ATOM     27  H2  LCV d   1      33.688 -21.657  43.733  0.00  0.00     0.079 H 
ATOM     28  H3  LCV d   1      34.302 -22.964  44.803  0.00  0.00     0.079 H 
BRANCH  26  29
ATOM     29  O5' LCV d   1      35.496 -22.518  43.153  0.00  0.00    -0.287 OA
BRANCH  29  30
ATOM     30  P1  LCV d   1      36.737 -22.165  44.123  0.00  0.00     0.418 P 
ATOM     31  O11 LCV d   1      37.636 -21.170  43.490  0.00  0.00    -0.624 OA
ATOM     32  O12 LCV d   1      37.348 -23.516  44.508  0.00  0.00    -0.624 OA
BRANCH  30  33
ATOM     33  O6  LCV d   1      36.113 -21.481  45.443  0.00  0.00    -0.173 OA
BRANCH  33  34
ATOM     34  P2  LCV d   1      35.895 -19.916  45.792  0.00  0.00     0.431 P 
ATOM     35  O7  LCV d   1      35.437 -19.875  47.337  0.00  0.00    -0.616 OA
ATOM     36  O21 LCV d   1      34.792 -19.316  44.991  0.00  0.00    -0.616 OA
ATOM     37  O22 LCV d   1      37.191 -19.102  45.831  0.00  0.00    -0.616 OA
ENDBRANCH  33  34
ENDBRANCH  30  33
ENDBRANCH  29  30
ENDBRANCH  26  29
ENDBRANCH   1  26
BRANCH   5  38
ATOM     38  O3' LCV d   1      33.761 -25.942  42.173  0.00  0.00    -0.272 OA
BRANCH  38  39
ATOM     39  P3  LCV d   1      33.866 -27.189  43.183  0.00  0.00     0.422 P 
ATOM     40  O31 LCV d   1      32.835 -26.822  44.217  0.00  0.00    -0.617 OA
ATOM     41  O32 LCV d   1      33.483 -28.456  42.440  0.00  0.00    -0.617 OA
ATOM     42  O33 LCV d   1      35.255 -27.399  43.776  0.00  0.00    -0.617 OA
ENDBRANCH  38  39
ENDBRANCH   5  38
TORSDOF 9
