REMARK  26 active torsions:
REMARK  status: ('A' for Active; 'I' for Inactive)
REMARK    1  A    between atoms: P3_2  and  O3'_5 
REMARK    2  A    between atoms: O3'_5  and  C3'_6 
REMARK    3  A    between atoms: C2'_7  and  O2'_8 
REMARK    4  A    between atoms: C1'_9  and  N9_10 
REMARK    5  A    between atoms: C4'_21  and  C5'_22 
REMARK    6  A    between atoms: C5'_22  and  O5'_23 
REMARK    7  A    between atoms: O5'_23  and  P1_24 
REMARK    8  A    between atoms: P1_24  and  O6_27 
REMARK    9  A    between atoms: O6_27  and  P2_28 
REMARK   10  A    between atoms: P2_28  and  O7_31 
REMARK   11  A    between atoms: O7_31  and  CPB_32 
REMARK   12  A    between atoms: CPB_32  and  CPA_33 
REMARK   13  A    between atoms: CPA_33  and  CP9_34 
REMARK   14  A    between atoms: CPA_33  and  CP8_35 
REMARK   15  A    between atoms: CPA_33  and  CP7_36 
REMARK   16  A    between atoms: CP7_36  and  OP3_37 
REMARK   17  A    between atoms: CP7_36  and  CP6_38 
REMARK       I    between atoms: CP6_38  and  NP2_40 
REMARK   18  A    between atoms: NP2_40  and  CP5_41 
REMARK   19  A    between atoms: CP5_41  and  CP4_42 
REMARK   20  A    between atoms: CP4_42  and  CP3_43 
REMARK       I    between atoms: CP3_43  and  NP1_45 
REMARK   21  A    between atoms: NP1_45  and  CP2_46 
REMARK   22  A    between atoms: CP2_46  and  CP1_47 
REMARK   23  A    between atoms: CP1_47  and  N_48 
REMARK       I    between atoms: N_48  and  CS1_49 
REMARK   24  A    between atoms: CS1_49  and  CS2_51 
REMARK   25  A    between atoms: CS2_51  and  CS3_52 
REMARK   26  A    between atoms: CS2_51  and  SS4_53 
ROOT
ATOM      1  CPA KGP d   1      21.701  20.387  21.642  0.00  0.00     0.009 C 
ENDROOT
BRANCH   1   2
ATOM      2  CPB KGP d   1      20.809  21.225  22.533  0.00  0.00     0.041 C 
ATOM      3  H12 KGP d   1      20.828  20.816  23.554  0.00  0.00     0.076 H 
ATOM      4  H13 KGP d   1      21.179  22.261  22.546  0.00  0.00     0.076 H 
BRANCH   2   5
ATOM      5  O7  KGP d   1      19.476  21.210  22.048  0.00  0.00    -0.289 OA
BRANCH   5   6
ATOM      6  P2  KGP d   1      18.614  22.578  22.078  0.00  0.00     0.417 P 
ATOM      7  O21 KGP d   1      18.742  23.237  23.419  0.00  0.00    -0.624 OA
ATOM      8  O22 KGP d   1      17.215  22.202  21.736  0.00  0.00    -0.624 OA
BRANCH   6   9
ATOM      9  O6  KGP d   1      19.137  23.655  21.046  0.00  0.00    -0.180 OA
BRANCH   9  10
ATOM     10  P1  KGP d   1      18.909  23.511  19.470  0.00  0.00     0.417 P 
ATOM     11  O11 KGP d   1      18.586  22.099  19.078  0.00  0.00    -0.624 OA
ATOM     12  O12 KGP d   1      17.783  24.444  19.125  0.00  0.00    -0.624 OA
BRANCH  10  13
ATOM     13  O5' KGP d   1      20.173  24.100  18.738  0.00  0.00    -0.287 OA
BRANCH  13  14
ATOM     14  C5' KGP d   1      20.567  25.457  18.913  0.00  0.00     0.058 C 
ATOM     15  H10 KGP d   1      19.682  26.088  19.083  0.00  0.00     0.079 H 
ATOM     16  H11 KGP d   1      21.250  25.544  19.771  0.00  0.00     0.079 H 
BRANCH  14  17
ATOM     17  C4' KGP d   1      21.279  25.885  17.629  0.00  0.00     0.090 C 
ATOM     18  C3' KGP d   1      20.625  25.204  16.432  0.00  0.00     0.107 C 
ATOM     19  C2' KGP d   1      21.411  23.928  16.235  0.00  0.00     0.106 C 
ATOM     20  H1  KGP d   1      19.559  25.007  16.619  0.00  0.00     0.092 H 
ATOM     21  C1' KGP d   1      22.787  24.468  16.595  0.00  0.00     0.140 C 
ATOM     22  H2  KGP d   1      21.085  23.143  16.933  0.00  0.00     0.093 H 
ATOM     23  O4' KGP d   1      22.655  25.438  17.654  0.00  0.00    -0.353 OA
ATOM     24  H4  KGP d   1      23.209  24.968  15.711  0.00  0.00     0.122 H 
ATOM     25  H9  KGP d   1      21.232  26.979  17.523  0.00  0.00     0.090 H 
BRANCH  18  26
ATOM     26  O3' KGP d   1      20.797  25.983  15.255  0.00  0.00    -0.272 OA
BRANCH  26  27
ATOM     27  P3  KGP d   1      19.649  26.970  14.669  0.00  0.00     0.422 P 
ATOM     28  O33 KGP d   1      18.453  26.105  14.332  0.00  0.00    -0.617 OA
ATOM     29  O31 KGP d   1      20.285  27.613  13.464  0.00  0.00    -0.617 OA
ATOM     30  O32 KGP d   1      19.318  28.024  15.684  0.00  0.00    -0.617 OA
ENDBRANCH  26  27
ENDBRANCH  18  26
BRANCH  19  31
ATOM     31  O2' KGP d   1      21.356  23.402  14.889  0.00  0.00    -0.388 OA
ATOM     32  H3  KGP d   1      21.709  24.044  14.284  0.00  0.00     0.210 HD
ENDBRANCH  19  31
BRANCH  21  33
ATOM     33  N9  KGP d   1      23.700  23.384  16.989  0.00  0.00    -0.294 N 
ATOM     34  C4  KGP d   1      24.838  23.167  16.339  0.00  0.00     0.167 A 
ATOM     35  N3  KGP d   1      25.424  23.696  15.245  0.00  0.00    -0.222 NA
ATOM     36  C5  KGP d   1      25.472  22.052  17.042  0.00  0.00     0.149 A 
ATOM     37  C2  KGP d   1      26.604  23.201  14.823  0.00  0.00     0.091 A 
ATOM     38  N1  KGP d   1      27.247  22.162  15.430  0.00  0.00    -0.222 NA
ATOM     39  H5  KGP d   1      27.068  23.653  13.954  0.00  0.00     0.146 H 
ATOM     40  C6  KGP d   1      26.741  21.568  16.521  0.00  0.00     0.155 A 
ATOM     41  N6  KGP d   1      27.354  20.539  17.150  0.00  0.00    -0.382 N 
ATOM     42  H6  KGP d   1      26.924  20.116  17.985  0.00  0.00     0.157 HD
ATOM     43  H7  KGP d   1      28.250  20.178  16.794  0.00  0.00     0.157 HD
ATOM     44  N7  KGP d   1      24.667  21.697  18.066  0.00  0.00    -0.236 NA
ATOM     45  C8  KGP d   1      23.587  22.526  18.038  0.00  0.00     0.071 A 
ATOM     46  H8  KGP d   1      22.760  22.505  18.747  0.00  0.00     0.144 H 
ENDBRANCH  21  33
ENDBRANCH  14  17
ENDBRANCH  13  14
ENDBRANCH  10  13
ENDBRANCH   9  10
ENDBRANCH   6   9
ENDBRANCH   5   6
ENDBRANCH   2   5
ENDBRANCH   1   2
BRANCH   1  47
ATOM     47  CP9 KGP d   1      23.126  20.089  22.062  0.00  0.00    -0.065 C 
ATOM     48  H14 KGP d   1      23.613  19.472  21.293  0.00  0.00     0.028 H 
ATOM     49  H15 KGP d   1      23.120  19.546  23.019  0.00  0.00     0.028 H 
ATOM     50  H16 KGP d   1      23.679  21.033  22.179  0.00  0.00     0.028 H 
ENDBRANCH   1  47
BRANCH   1  51
ATOM     51  CP8 KGP d   1      21.215  19.158  22.419  0.00  0.00    -0.065 C 
ATOM     52  H17 KGP d   1      20.123  19.068  22.317  0.00  0.00     0.028 H 
ATOM     53  H18 KGP d   1      21.476  19.269  23.482  0.00  0.00     0.028 H 
ATOM     54  H19 KGP d   1      21.696  18.255  22.015  0.00  0.00     0.028 H 
ENDBRANCH   1  51
BRANCH   1  55
ATOM     55  CP7 KGP d   1      21.202  19.773  20.347  0.00  0.00     0.120 C 
ATOM     56  H20 KGP d   1      20.162  19.426  20.430  0.00  0.00     0.099 H 
BRANCH  55  57
ATOM     57  OP3 KGP d   1      21.337  20.928  19.564  0.00  0.00    -0.385 OA
ATOM     58  H21 KGP d   1      20.795  21.619  19.925  0.00  0.00     0.210 HD
ENDBRANCH  55  57
BRANCH  55  59
ATOM     59  CP6 KGP d   1      22.057  18.662  19.784  0.00  0.00     0.247 C 
ATOM     60  OP2 KGP d   1      21.923  17.476  20.102  0.00  0.00    -0.271 OA
ATOM     61  NP2 KGP d   1      22.990  19.046  18.937  0.00  0.00    -0.358 N 
ATOM     62  H22 KGP d   1      23.044  20.012  18.682  0.00  0.00     0.162 HD
BRANCH  61  63
ATOM     63  CP5 KGP d   1      23.938  18.120  18.364  0.00  0.00     0.003 C 
ATOM     64  H23 KGP d   1      24.469  18.615  17.537  0.00  0.00     0.064 H 
ATOM     65  H24 KGP d   1      23.396  17.243  17.980  0.00  0.00     0.064 H 
BRANCH  63  66
ATOM     66  CP4 KGP d   1      24.948  17.664  19.399  0.00  0.00     0.024 C 
ATOM     67  H25 KGP d   1      24.436  17.106  20.197  0.00  0.00     0.049 H 
ATOM     68  H26 KGP d   1      25.458  18.538  19.831  0.00  0.00     0.049 H 
BRANCH  66  69
ATOM     69  CP3 KGP d   1      25.951  16.775  18.722  0.00  0.00     0.219 C 
ATOM     70  OP1 KGP d   1      25.599  15.794  18.116  0.00  0.00    -0.274 OA
ATOM     71  NP1 KGP d   1      27.213  17.100  18.769  0.00  0.00    -0.359 N 
ATOM     72  H27 KGP d   1      27.500  17.906  19.286  0.00  0.00     0.162 HD
BRANCH  71  73
ATOM     73  CP2 KGP d   1      28.189  16.311  18.086  0.00  0.00     0.010 C 
ATOM     74  H28 KGP d   1      27.705  15.416  17.669  0.00  0.00     0.066 H 
ATOM     75  H29 KGP d   1      28.972  16.007  18.797  0.00  0.00     0.066 H 
BRANCH  73  76
ATOM     76  CP1 KGP d   1      28.819  17.111  16.958  0.00  0.00     0.010 C 
ATOM     77  H30 KGP d   1      29.425  17.925  17.383  0.00  0.00     0.066 H 
ATOM     78  H31 KGP d   1      28.026  17.536  16.326  0.00  0.00     0.066 H 
BRANCH  76  79
ATOM     79  N   KGP d   1      29.657  16.262  16.161  0.00  0.00    -0.358 N 
ATOM     80  CS1 KGP d   1      31.005  15.932  16.631  0.00  0.00     0.238 C 
ATOM     81  OS1 KGP d   1      31.441  16.449  17.654  0.00  0.00    -0.272 OA
ATOM     82  H32 KGP d   1      29.324  15.898  15.291  0.00  0.00     0.162 HD
BRANCH  80  83
ATOM     83  CS2 KGP d   1      31.751  14.934  15.805  0.00  0.00     0.135 C 
ATOM     84  H33 KGP d   1      31.495  15.089  14.747  0.00  0.00     0.082 H 
BRANCH  83  85
ATOM     85  CS3 KGP d   1      33.255  15.044  15.972  0.00  0.00    -0.049 C 
ATOM     86  H34 KGP d   1      33.585  16.049  15.671  0.00  0.00     0.029 H 
ATOM     87  H35 KGP d   1      33.750  14.291  15.341  0.00  0.00     0.029 H 
ATOM     88  H36 KGP d   1      33.521  14.871  17.025  0.00  0.00     0.029 H 
ENDBRANCH  83  85
BRANCH  83  89
ATOM     89  SS4 KGP d   1      31.302  13.384  16.277  0.00  0.00     0.115 S 
ATOM     90  O56 KGP d   1      31.726  13.309  17.641  0.00  0.00    -0.594 OA
ATOM     91  OS5 KGP d   1      29.868  13.224  16.263  0.00  0.00    -0.594 OA
ATOM     92  OS4 KGP d   1      31.963  12.545  15.338  0.00  0.00    -0.594 OA
ENDBRANCH  83  89
ENDBRANCH  80  83
ENDBRANCH  76  79
ENDBRANCH  73  76
ENDBRANCH  71  73
ENDBRANCH  66  69
ENDBRANCH  63  66
ENDBRANCH  61  63
ENDBRANCH  55  59
ENDBRANCH   1  55
TORSDOF 26
