REMARK  1 active torsions:
REMARK  status: ('A' for Active; 'I' for Inactive)
REMARK    1  A    between atoms: N1_1  and  C10_2 
ROOT
ATOM      1  C10 MOL d   1      25.001 -14.429 -32.843  0.00  0.00     0.124 C 
ATOM      2  C7  MOL d   1      24.049 -13.311 -32.319  0.00  0.00    -0.031 C 
ATOM      3  C1  MOL d   1      24.013 -13.315 -30.771  0.00  0.00    -0.051 C 
ATOM      4  C8  MOL d   1      24.499 -15.809 -32.320  0.00  0.00    -0.031 C 
ATOM      5  C5  MOL d   1      24.513 -15.834 -30.772  0.00  0.00    -0.051 C 
ATOM      6  C6  MOL d   1      23.539 -14.723 -30.264  0.00  0.00    -0.058 C 
ATOM      7  C4  MOL d   1      25.966 -15.541 -30.252  0.00  0.00    -0.058 C 
ATOM      8  C9  MOL d   1      26.442 -14.170 -32.304  0.00  0.00    -0.031 C 
ATOM      9  C3  MOL d   1      26.444 -14.141 -30.755  0.00  0.00    -0.051 C 
ATOM     10  C2  MOL d   1      25.458 -13.028 -30.253  0.00  0.00    -0.058 C 
ATOM     11  H4  MOL d   1      23.035 -13.488 -32.706  0.00  0.00     0.037 H 
ATOM     12  H5  MOL d   1      24.410 -12.333 -32.671  0.00  0.00     0.037 H 
ATOM     13  H6  MOL d   1      23.323 -12.539 -30.408  0.00  0.00     0.040 H 
ATOM     14  H7  MOL d   1      25.157 -16.603 -32.702  0.00  0.00     0.037 H 
ATOM     15  H8  MOL d   1      23.473 -15.981 -32.676  0.00  0.00     0.037 H 
ATOM     16  H9  MOL d   1      24.182 -16.818 -30.409  0.00  0.00     0.040 H 
ATOM     17  H10 MOL d   1      22.527 -14.925 -30.645  0.00  0.00     0.034 H 
ATOM     18  H11 MOL d   1      23.524 -14.727 -29.164  0.00  0.00     0.034 H 
ATOM     19  H12 MOL d   1      26.650 -16.316 -30.628  0.00  0.00     0.034 H 
ATOM     20  H13 MOL d   1      25.968 -15.553 -29.152  0.00  0.00     0.034 H 
ATOM     21  H14 MOL d   1      26.803 -13.203 -32.685  0.00  0.00     0.037 H 
ATOM     22  H15 MOL d   1      27.109 -14.973 -32.652  0.00  0.00     0.037 H 
ATOM     23  H16 MOL d   1      27.458 -13.933 -30.382  0.00  0.00     0.040 H 
ATOM     24  H17 MOL d   1      25.454 -13.015 -29.153  0.00  0.00     0.034 H 
ATOM     25  H18 MOL d   1      25.792 -12.050 -30.630  0.00  0.00     0.034 H 
ENDROOT
BRANCH   1  26
ATOM     26  N1  MOL d   1      24.985 -14.431 -34.320  0.00  0.00    -0.070 N 
ATOM     27  H1  MOL d   1      24.046 -14.600 -34.646  0.00  0.00     0.275 HD
ATOM     28  H2  MOL d   1      25.595 -15.157 -34.662  0.00  0.00     0.275 HD
ATOM     29  H3  MOL d   1      25.303 -13.537 -34.661  0.00  0.00     0.275 HD
ENDBRANCH   1  26
TORSDOF 1
