REMARK  9 active torsions:
REMARK  status: ('A' for Active; 'I' for Inactive)
REMARK    1  A    between atoms: C4_2  and  N7_23 
REMARK    2  A    between atoms: C8_5  and  C5_3 
REMARK    3  A    between atoms: C6_4  and  O21_22 
REMARK    4  A    between atoms: O14_29  and  C15_8 
REMARK    5  A    between atoms: O21_22  and  C22_11 
REMARK    6  A    between atoms: C26_13  and  N28_18 
REMARK    7  A    between atoms: C29_15  and  C30_16 
REMARK       I    between atoms: N28_18  and  C29_15 
REMARK    8  A    between atoms: C30_16  and  C32_17 
REMARK    9  A    between atoms: C11_27  and  O14_29 
ROOT
ATOM      1  N3  KHD d   1      18.161   5.151   0.700  0.00  0.00    -0.243 NA
ATOM      2  C4  KHD d   1      18.075   5.287   2.036  0.00  0.00     0.134 A 
ATOM      3  C5  KHD d   1      19.153   5.772   2.770  0.00  0.00     0.053 A 
ATOM      4  C6  KHD d   1      20.316   6.137   2.098  0.00  0.00     0.092 A 
ATOM      5  C2  KHD d   1      19.273   5.495   0.035  0.00  0.00     0.007 A 
ATOM      6  C1  KHD d   1      20.378   5.993   0.715  0.00  0.00    -0.032 A 
ATOM      7  H17 KHD d   1      19.311   5.384  -1.043  0.00  0.00     0.115 H 
ATOM      8  H18 KHD d   1      21.277   6.266   0.175  0.00  0.00     0.090 H 
ENDROOT
BRANCH   3   9
ATOM      9  C8  KHD d   1      18.959   5.895   4.249  0.00  0.00    -0.019 A 
ATOM     10  C13 KHD d   1      18.958   7.150   4.869  0.00  0.00    -0.069 A 
ATOM     11  C12 KHD d   1      18.743   7.260   6.242  0.00  0.00    -0.049 A 
ATOM     12  H2  KHD d   1      19.126   8.043   4.277  0.00  0.00     0.085 H 
ATOM     13  C11 KHD d   1      18.517   6.115   7.006  0.00  0.00     0.076 A 
ATOM     14  H20 KHD d   1      18.751   8.235   6.716  0.00  0.00     0.087 H 
ATOM     15  C10 KHD d   1      18.509   4.861   6.393  0.00  0.00    -0.049 A 
ATOM     16  C9  KHD d   1      18.722   4.756   5.018  0.00  0.00    -0.069 A 
ATOM     17  H1  KHD d   1      18.337   3.969   6.985  0.00  0.00     0.087 H 
ATOM     18  H19 KHD d   1      18.703   3.781   4.544  0.00  0.00     0.085 H 
BRANCH  13  19
ATOM     19  O14 KHD d   1      18.296   6.225   8.354  0.00  0.00    -0.311 OA
BRANCH  19  20
ATOM     20  C15 KHD d   1      17.166   6.873   8.813  0.00  0.00     0.076 A 
ATOM     21  C20 KHD d   1      17.090   7.274  10.138  0.00  0.00    -0.050 A 
ATOM     22  C19 KHD d   1      15.960   7.931  10.614  0.00  0.00    -0.080 A 
ATOM     23  H4  KHD d   1      17.918   7.074  10.809  0.00  0.00     0.087 H 
ATOM     24  C18 KHD d   1      14.894   8.188   9.764  0.00  0.00    -0.083 A 
ATOM     25  H23 KHD d   1      15.912   8.243  11.651  0.00  0.00     0.083 H 
ATOM     26  C17 KHD d   1      14.963   7.790   8.434  0.00  0.00    -0.080 A 
ATOM     27  H22 KHD d   1      14.012   8.697  10.135  0.00  0.00     0.083 H 
ATOM     28  C16 KHD d   1      16.092   7.136   7.963  0.00  0.00    -0.050 A 
ATOM     29  H3  KHD d   1      14.134   7.991   7.765  0.00  0.00     0.083 H 
ATOM     30  H21 KHD d   1      16.140   6.827   6.925  0.00  0.00     0.087 H 
ENDBRANCH  19  20
ENDBRANCH  13  19
ENDBRANCH   3   9
BRANCH   2  31
ATOM     31  N7  KHD d   1      16.913   4.937   2.647  0.00  0.00    -0.383 N 
ATOM     32  H15 KHD d   1      16.820   5.031   3.668  0.00  0.00     0.157 HD
ATOM     33  H16 KHD d   1      16.125   4.578   2.089  0.00  0.00     0.157 HD
ENDBRANCH   2  31
BRANCH   4  34
ATOM     34  O21 KHD d   1      21.400   6.626   2.769  0.00  0.00    -0.310 OA
BRANCH  34  35
ATOM     35  C22 KHD d   1      22.498   7.170   2.145  0.00  0.00     0.078 A 
ATOM     36  C27 KHD d   1      22.659   8.555   2.188  0.00  0.00    -0.025 A 
ATOM     37  C26 KHD d   1      23.746   9.167   1.574  0.00  0.00     0.037 A 
ATOM     38  H12 KHD d   1      21.927   9.162   2.707  0.00  0.00     0.091 H 
ATOM     39  C25 KHD d   1      24.709   8.386   0.929  0.00  0.00    -0.057 A 
ATOM     40  C24 KHD d   1      24.561   6.996   0.889  0.00  0.00    -0.078 A 
ATOM     41  H14 KHD d   1      25.567   8.856   0.462  0.00  0.00     0.086 H 
ATOM     42  C23 KHD d   1      23.458   6.382   1.504  0.00  0.00    -0.050 A 
ATOM     43  H5  KHD d   1      25.302   6.389   0.381  0.00  0.00     0.083 H 
ATOM     44  H13 KHD d   1      23.352   5.303   1.482  0.00  0.00     0.087 H 
BRANCH  37  45
ATOM     45  N28 KHD d   1      23.851  10.565   1.658  0.00  0.00    -0.327 N 
ATOM     46  C29 KHD d   1      24.671  11.261   0.889  0.00  0.00     0.221 C 
ATOM     47  O31 KHD d   1      25.381  10.736   0.049  0.00  0.00    -0.273 OA
ATOM     48  H11 KHD d   1      23.285  11.052   2.324  0.00  0.00     0.169 HD
BRANCH  46  49
ATOM     49  C30 KHD d   1      24.691  12.759   1.122  0.00  0.00     0.006 C 
ATOM     50  H6  KHD d   1      25.731  13.113   1.064  0.00  0.00     0.046 H 
ATOM     51  H7  KHD d   1      24.288  12.968   2.124  0.00  0.00     0.046 H 
BRANCH  49  52
ATOM     52  C32 KHD d   1      23.866  13.502   0.102  0.00  0.00    -0.068 C 
ATOM     53  H8  KHD d   1      23.910  14.581   0.310  0.00  0.00     0.028 H 
ATOM     54  H9  KHD d   1      22.822  13.161   0.156  0.00  0.00     0.028 H 
ATOM     55  H10 KHD d   1      24.264  13.306  -0.905  0.00  0.00     0.028 H 
ENDBRANCH  49  52
ENDBRANCH  46  49
ENDBRANCH  37  45
ENDBRANCH  34  35
ENDBRANCH   4  34
TORSDOF 9
