REMARK WARNING: 32 MAX_TORS EXCEEDED!!!
REMARK  34 active torsions:
REMARK  status: ('A' for Active; 'I' for Inactive)
REMARK    1  A    between atoms: CA_2  and  N_1 
REMARK    2  A    between atoms: C_3  and  CA_2 
REMARK    3  A    between atoms: CA_2  and  CB_5 
REMARK       I    between atoms: N_9  and  C_3 
REMARK    4  A    between atoms: CB_5  and  CG_6 
REMARK    5  A    between atoms: CA_10  and  N_9 
REMARK    6  A    between atoms: CA_16  and  CB_19 
REMARK    7  A    between atoms: CA_21  and  CB_24 
REMARK    8  A    between atoms: CB_24  and  CG_25 
REMARK    9  A    between atoms: CA_35  and  CB_38 
REMARK   10  A    between atoms: CB_38  and  CG_39 
REMARK   11  A    between atoms: CA_45  and  CB_48 
REMARK   12  A    between atoms: CB_48  and  CG_49 
REMARK   13  A    between atoms: CG_49  and  CD1_50 
REMARK   14  A    between atoms: CG_49  and  CD2_51 
REMARK   15  A    between atoms: CA_57  and  CB_60 
REMARK   16  A    between atoms: CB_60  and  CG_61 
REMARK   17  A    between atoms: CG_61  and  CD_62 
REMARK   18  A    between atoms: CA_66  and  CB_69 
REMARK   19  A    between atoms: CB_69  and  CG_70 
REMARK   20  A    between atoms: CG_70  and  CD1_71 
REMARK   21  A    between atoms: CG_70  and  CD2_72 
REMARK   22  A    between atoms: CA_76  and  CB_77 
REMARK   23  A    between atoms: CB_77  and  CG_78 
REMARK   24  A    between atoms: CZ_83  and  CN1_84 
REMARK   25  A    between atoms: CN1_84  and  ON2_85 
REMARK   26  A    between atoms: CN1_84  and  CT_86 
REMARK   27  A    between atoms: CA_93  and  CB_96 
REMARK   28  A    between atoms: CB_96  and  CG_97 
REMARK   29  A    between atoms: CA_107  and  C_108 
REMARK       I    between atoms: C_108  and  N_112 
REMARK   30  A    between atoms: N_112  and  CA_113 
REMARK   31  A    between atoms: CA_113  and  C_114 
REMARK   32  A    between atoms: CA_113  and  CB_116 
REMARK   33  A    between atoms: CB_116  and  OG1_117 
REMARK   34  A    between atoms: CB_116  and  CG2_118 
ROOT
ATOM      1  CA  ASP d   1     -28.292 -13.735 156.190  0.00  0.00     0.098 C 
ATOM      2  C   ASP d   1     -28.173 -12.284 156.640  0.00  0.00     0.241 C 
ATOM      3  O   ASP d   1     -28.103 -11.989 157.836  0.00  0.00    -0.271 OA
ATOM      4  CB  ASP d   1     -29.768 -14.086 155.999  0.00  0.00     0.013 C 
ATOM      5  SG  ASP d   1     -30.055 -15.717 155.271  0.00  0.00    -0.095 SA
ATOM      6  N   ASP d   1     -28.154 -11.378 155.664  0.00  0.00    -0.346 N 
ATOM      7  CA  ASP d   1     -28.168  -9.944 155.914  0.00  0.00     0.086 C 
ATOM      8  C   ASP d   1     -29.393  -9.322 155.257  0.00  0.00     0.240 C 
ATOM      9  O   ASP d   1     -29.798  -9.732 154.164  0.00  0.00    -0.271 OA
ATOM     10  N   ASP d   1     -29.978  -8.330 155.930  0.00  0.00    -0.346 N 
ATOM     11  CA  ASP d   1     -31.166  -7.633 155.452  0.00  0.00     0.093 C 
ATOM     12  C   ASP d   1     -30.950  -6.129 155.539  0.00  0.00     0.241 C 
ATOM     13  O   ASP d   1     -30.401  -5.628 156.524  0.00  0.00    -0.271 OA
ATOM     14  N   ASP d   1     -31.382  -5.411 154.505  0.00  0.00    -0.346 N 
ATOM     15  CA  ASP d   1     -31.250  -3.959 154.445  0.00  0.00     0.094 C 
ATOM     16  C   ASP d   1     -32.600  -3.366 154.077  0.00  0.00     0.241 C 
ATOM     17  O   ASP d   1     -33.111  -3.620 152.981  0.00  0.00    -0.271 OA
ATOM     18  N   ASP d   1     -33.180  -2.595 155.000  0.00  0.00    -0.346 N 
ATOM     19  CA  ASP d   1     -34.494  -1.975 154.819  0.00  0.00     0.089 C 
ATOM     20  C   ASP d   1     -35.581  -3.006 154.508  0.00  0.00     0.240 C 
ATOM     21  O   ASP d   1     -36.672  -2.651 154.047  0.00  0.00    -0.271 OA
ATOM     22  N   ASP d   1     -35.303  -4.287 154.758  0.00  0.00    -0.351 N 
ATOM     23  CA  ASP d   1     -36.242  -5.355 154.495  0.00  0.00     0.069 C 
ATOM     24  C   ASP d   1     -35.953  -6.174 153.254  0.00  0.00     0.236 C 
ATOM     25  O   ASP d   1     -36.621  -7.193 153.040  0.00  0.00    -0.272 OA
ATOM     26  N   ASP d   1     -34.990  -5.765 152.432  0.00  0.00    -0.346 N 
ATOM     27  CA  ASP d   1     -34.657  -6.493 151.214  0.00  0.00     0.090 C 
ATOM     28  C   ASP d   1     -33.603  -7.551 151.518  0.00  0.00     0.241 C 
ATOM     29  O   ASP d   1     -32.548  -7.240 152.080  0.00  0.00    -0.271 OA
ATOM     30  N   ASP d   1     -33.898  -8.798 151.156  0.00  0.00    -0.346 N 
ATOM     31  CA  ASP d   1     -32.950  -9.892 151.334  0.00  0.00     0.089 C 
ATOM     32  C   ASP d   1     -31.684  -9.627 150.535  0.00  0.00     0.241 C 
ATOM     33  O   ASP d   1     -31.707  -9.599 149.304  0.00  0.00    -0.271 OA
ATOM     34  N   ASP d   1     -30.578  -9.431 151.241  0.00  0.00    -0.346 N 
ATOM     35  C   ASP d   1     -28.613 -10.328 150.141  0.00  0.00     0.241 C 
ATOM     36  O   ASP d   1     -28.421 -10.535 148.923  0.00  0.00    -0.271 OA
ATOM     37  CA  ASP d   1     -29.328  -9.096 150.597  0.00  0.00     0.093 C 
ATOM     38  N   ASP d   1     -28.219 -11.162 151.093  0.00  0.00    -0.346 N 
ATOM     39  CA  ASP d   1     -27.430 -12.340 150.783  0.00  0.00     0.093 C 
ATOM     40  C   ASP d   1     -27.454 -13.301 151.957  0.00  0.00     0.241 C 
ATOM     41  O   ASP d   1     -27.779 -12.909 153.076  0.00  0.00    -0.271 OA
ATOM     42  N   ASP d   1     -27.102 -14.560 151.711  0.00  0.00    -0.345 N 
ATOM     43  CA  ASP d   1     -27.090 -15.565 152.762  0.00  0.00     0.098 C 
ATOM     44  CB  ASP d   1     -28.392 -16.374 152.785  0.00  0.00     0.013 C 
ATOM     45  SG  ASP d   1     -29.904 -15.473 153.215  0.00  0.00    -0.095 SA
ATOM     46  H8  ASP d   1     -27.780 -13.844 155.222  0.00  0.00     0.088 H 
ATOM     47  H9  ASP d   1     -30.220 -13.330 155.340  0.00  0.00     0.053 H 
ATOM     48  H10 ASP d   1     -30.260 -14.056 156.982  0.00  0.00     0.053 H 
ATOM     49  H11 ASP d   1     -28.129 -11.697 154.717  0.00  0.00     0.163 HD
ATOM     50  H12 ASP d   1     -28.227  -9.781 157.000  0.00  0.00     0.086 H 
ATOM     51  H16 ASP d   1     -29.582  -8.051 156.805  0.00  0.00     0.163 HD
ATOM     52  H17 ASP d   1     -31.334  -7.908 154.400  0.00  0.00     0.088 H 
ATOM     53  H26 ASP d   1     -31.814  -5.886 153.738  0.00  0.00     0.163 HD
ATOM     54  H27 ASP d   1     -30.956  -3.588 155.438  0.00  0.00     0.088 H 
ATOM     55  H33 ASP d   1     -32.693  -2.433 155.858  0.00  0.00     0.163 HD
ATOM     56  H34 ASP d   1     -34.761  -1.484 155.767  0.00  0.00     0.087 H 
ATOM     57  H44 ASP d   1     -34.409  -4.518 155.143  0.00  0.00     0.163 HD
ATOM     58  H45 ASP d   1     -37.242  -4.910 154.384  0.00  0.00     0.078 H 
ATOM     59  H46 ASP d   1     -36.237  -6.034 155.360  0.00  0.00     0.078 H 
ATOM     60  H47 ASP d   1     -34.480  -4.934 152.656  0.00  0.00     0.163 HD
ATOM     61  H48 ASP d   1     -35.564  -6.995 150.846  0.00  0.00     0.087 H 
ATOM     62  H53 ASP d   1     -34.792  -8.989 150.752  0.00  0.00     0.163 HD
ATOM     63  H54 ASP d   1     -32.687  -9.954 152.400  0.00  0.00     0.087 H 
ATOM     64  H64 ASP d   1     -30.610  -9.517 152.237  0.00  0.00     0.163 HD
ATOM     65  H65 ASP d   1     -29.544  -8.475 149.715  0.00  0.00     0.088 H 
ATOM     66  H79 ASP d   1     -28.470 -10.976 152.043  0.00  0.00     0.163 HD
ATOM     67  H80 ASP d   1     -27.868 -12.840 149.907  0.00  0.00     0.088 H 
ATOM     68  H89 ASP d   1     -26.840 -14.821 150.782  0.00  0.00     0.163 HD
ATOM     69  H90 ASP d   1     -26.980 -15.054 153.730  0.00  0.00     0.088 H 
ATOM     70  H91 ASP d   1     -28.267 -17.185 153.518  0.00  0.00     0.053 H 
ATOM     71  H92 ASP d   1     -28.535 -16.805 151.783  0.00  0.00     0.053 H 
ENDROOT
BRANCH  37  72
ATOM     72  CB  ASP d   1     -28.456  -8.292 151.556  0.00  0.00    -0.014 C 
ATOM     73  H66 ASP d   1     -27.425  -8.676 151.561  0.00  0.00     0.043 H 
ATOM     74  H67 ASP d   1     -28.865  -8.326 152.577  0.00  0.00     0.043 H 
BRANCH  72  75
ATOM     75  CG  ASP d   1     -28.501  -6.890 151.009  0.00  0.00    -0.056 A 
ATOM     76  CD1 ASP d   1     -27.337  -6.208 150.669  0.00  0.00    -0.076 A 
ATOM     77  CE1 ASP d   1     -27.425  -4.920 150.152  0.00  0.00    -0.074 A 
ATOM     78  H68 ASP d   1     -26.369  -6.677 150.806  0.00  0.00     0.084 H 
ATOM     79  CZ  ASP d   1     -28.673  -4.312 150.009  0.00  0.00    -0.025 A 
ATOM     80  H70 ASP d   1     -26.526  -4.389 149.861  0.00  0.00     0.084 H 
ATOM     81  CE2 ASP d   1     -29.830  -5.016 150.323  0.00  0.00    -0.074 A 
ATOM     82  CD2 ASP d   1     -29.744  -6.299 150.838  0.00  0.00    -0.076 A 
ATOM     83  H71 ASP d   1     -30.801  -4.560 150.165  0.00  0.00     0.084 H 
ATOM     84  H69 ASP d   1     -30.645  -6.839 151.106  0.00  0.00     0.084 H 
BRANCH  79  85
ATOM     85  CN1 ASP d   1     -28.845  -2.940 149.422  0.00  0.00     0.086 C 
ATOM     86  H72 ASP d   1     -28.640  -3.018 148.344  0.00  0.00     0.098 H 
BRANCH  85  87
ATOM     87  ON2 ASP d   1     -30.279  -2.532 149.624  0.00  0.00    -0.386 OA
ATOM     88  H73 ASP d   1     -30.476  -2.521 150.553  0.00  0.00     0.210 HD
ENDBRANCH  85  87
BRANCH  85  89
ATOM     89  CT  ASP d   1     -27.965  -1.836 149.966  0.00  0.00    -0.025 A 
ATOM     90  CI1 ASP d   1     -27.329  -1.920 151.202  0.00  0.00    -0.074 A 
ATOM     91  CK1 ASP d   1     -26.540  -0.873 151.669  0.00  0.00    -0.082 A 
ATOM     92  H74 ASP d   1     -27.450  -2.811 151.807  0.00  0.00     0.084 H 
ATOM     93  CL  ASP d   1     -26.394   0.278 150.907  0.00  0.00    -0.083 A 
ATOM     94  H76 ASP d   1     -26.040  -0.956 152.627  0.00  0.00     0.083 H 
ATOM     95  CK2 ASP d   1     -27.037   0.380 149.679  0.00  0.00    -0.082 A 
ATOM     96  H78 ASP d   1     -25.780   1.095 151.269  0.00  0.00     0.083 H 
ATOM     97  CI2 ASP d   1     -27.823  -0.671 149.217  0.00  0.00    -0.074 A 
ATOM     98  H77 ASP d   1     -26.926   1.278 149.082  0.00  0.00     0.083 H 
ATOM     99  H75 ASP d   1     -28.331  -0.582 148.263  0.00  0.00     0.084 H 
ENDBRANCH  85  89
ENDBRANCH  79  85
ENDBRANCH  72  75
ENDBRANCH  37  72
BRANCH  31 100
ATOM    100  CB  ASP d   1     -33.565 -11.226 150.908  0.00  0.00    -0.035 C 
ATOM    101  H55 ASP d   1     -33.883 -11.130 149.859  0.00  0.00     0.037 H 
ATOM    102  H56 ASP d   1     -34.445 -11.408 151.542  0.00  0.00     0.037 H 
BRANCH 100 103
ATOM    103  CG  ASP d   1     -32.652 -12.454 151.010  0.00  0.00    -0.059 C 
ATOM    104  H57 ASP d   1     -31.735 -12.242 150.440  0.00  0.00     0.038 H 
BRANCH 103 105
ATOM    105  CD1 ASP d   1     -32.254 -12.725 152.456  0.00  0.00    -0.073 C 
ATOM    106  H58 ASP d   1     -31.601 -13.609 152.497  0.00  0.00     0.028 H 
ATOM    107  H59 ASP d   1     -33.157 -12.908 153.057  0.00  0.00     0.028 H 
ATOM    108  H60 ASP d   1     -31.716 -11.854 152.858  0.00  0.00     0.028 H 
ENDBRANCH 103 105
BRANCH 103 109
ATOM    109  CD2 ASP d   1     -33.314 -13.679 150.396  0.00  0.00    -0.073 C 
ATOM    110  H61 ASP d   1     -33.593 -13.462 149.354  0.00  0.00     0.028 H 
ATOM    111  H62 ASP d   1     -34.216 -13.935 150.971  0.00  0.00     0.028 H 
ATOM    112  H63 ASP d   1     -32.612 -14.525 150.419  0.00  0.00     0.028 H 
ENDBRANCH 103 109
ENDBRANCH 100 103
ENDBRANCH  31 100
BRANCH  39 113
ATOM    113  CB  ASP d   1     -25.995 -11.940 150.453  0.00  0.00    -0.012 C 
ATOM    114  H81 ASP d   1     -25.445 -11.817 151.398  0.00  0.00     0.044 H 
ATOM    115  H82 ASP d   1     -26.019 -10.981 149.915  0.00  0.00     0.044 H 
BRANCH 113 116
ATOM    116  CG  ASP d   1     -25.267 -12.928 149.614  0.00  0.00    -0.028 A 
ATOM    117  CD1 ASP d   1     -24.440 -13.921 150.049  0.00  0.00    -0.015 A 
ATOM    118  NE1 ASP d   1     -23.945 -14.626 148.979  0.00  0.00    -0.365 N 
ATOM    119  H83 ASP d   1     -24.206 -14.125 151.093  0.00  0.00     0.112 H 
ATOM    120  CE2 ASP d   1     -24.449 -14.090 147.823  0.00  0.00     0.042 A 
ATOM    121  H84 ASP d   1     -23.300 -15.427 149.036  0.00  0.00     0.165 HD
ATOM    122  CD2 ASP d   1     -25.288 -13.017 148.186  0.00  0.00    -0.002 A 
ATOM    123  CZ2 ASP d   1     -24.241 -14.459 146.493  0.00  0.00    -0.056 A 
ATOM    124  CE3 ASP d   1     -25.935 -12.293 147.178  0.00  0.00    -0.070 A 
ATOM    125  CZ3 ASP d   1     -25.726 -12.659 145.860  0.00  0.00    -0.082 A 
ATOM    126  H85 ASP d   1     -26.587 -11.463 147.425  0.00  0.00     0.084 H 
ATOM    127  CH2 ASP d   1     -24.886 -13.733 145.530  0.00  0.00    -0.081 A 
ATOM    128  H87 ASP d   1     -26.220 -12.106 145.069  0.00  0.00     0.083 H 
ATOM    129  H88 ASP d   1     -24.745 -13.994 144.487  0.00  0.00     0.083 H 
ATOM    130  H86 ASP d   1     -23.593 -15.289 146.233  0.00  0.00     0.086 H 
ENDBRANCH 113 116
ENDBRANCH  39 113
BRANCH  27 131
ATOM    131  CB  ASP d   1     -34.155  -5.538 150.126  0.00  0.00    -0.029 C 
ATOM    132  H49 ASP d   1     -33.349  -4.923 150.552  0.00  0.00     0.037 H 
ATOM    133  H50 ASP d   1     -34.990  -4.889 149.825  0.00  0.00     0.037 H 
BRANCH 131 134
ATOM    134  CG  ASP d   1     -33.615  -6.237 148.874  0.00  0.00     0.018 C 
ATOM    135  H51 ASP d   1     -34.385  -6.927 148.500  0.00  0.00     0.049 H 
ATOM    136  H52 ASP d   1     -32.716  -6.807 149.152  0.00  0.00     0.049 H 
BRANCH 134 137
ATOM    137  CD  ASP d   1     -33.247  -5.268 147.754  0.00  0.00     0.172 C 
ATOM    138  OE1 ASP d   1     -33.521  -5.579 146.575  0.00  0.00    -0.648 OA
ATOM    139  OE2 ASP d   1     -32.684  -4.193 148.049  0.00  0.00    -0.648 OA
ENDBRANCH 134 137
ENDBRANCH 131 134
ENDBRANCH  27 131
BRANCH  43 140
ATOM    140  C   ASP d   1     -25.909 -16.502 152.566  0.00  0.00     0.242 C 
ATOM    141  O   ASP d   1     -25.600 -16.899 151.441  0.00  0.00    -0.271 OA
ATOM    142  N   ASP d   1     -25.257 -16.855 153.667  0.00  0.00    -0.343 N 
ATOM    143  H93 ASP d   1     -25.511 -16.430 154.536  0.00  0.00     0.163 HD
BRANCH 142 144
ATOM    144  CA  ASP d   1     -24.186 -17.839 153.652  0.00  0.00     0.120 C 
ATOM    145  H94 ASP d   1     -23.932 -18.066 152.606  0.00  0.00     0.093 H 
BRANCH 144 146
ATOM    146  C   ASP d   1     -24.674 -19.113 154.333  0.00  0.00     0.199 C 
ATOM    147  O   ASP d   1     -24.448 -19.317 155.528  0.00  0.00    -0.646 OA
ATOM    148  OXT ASP d   1     -25.304 -19.965 153.702  0.00  0.00    -0.646 OA
ENDBRANCH 144 146
BRANCH 144 149
ATOM    149  CB  ASP d   1     -22.920 -17.318 154.360  0.00  0.00     0.061 C 
ATOM    150  H95 ASP d   1     -22.168 -18.120 154.387  0.00  0.00     0.086 H 
BRANCH 149 151
ATOM    151  OG1 ASP d   1     -23.246 -16.930 155.700  0.00  0.00    -0.393 OA
ATOM    152  H96 ASP d   1     -23.587 -17.681 156.172  0.00  0.00     0.210 HD
ENDBRANCH 149 151
BRANCH 149 153
ATOM    153  CG2 ASP d   1     -22.347 -16.124 153.612  0.00  0.00    -0.050 C 
ATOM    154  H97 ASP d   1     -21.445 -15.765 154.130  0.00  0.00     0.031 H 
ATOM    155  H98 ASP d   1     -23.096 -15.319 153.578  0.00  0.00     0.031 H 
ATOM    156  H99 ASP d   1     -22.086 -16.425 152.587  0.00  0.00     0.031 H 
ENDBRANCH 149 153
ENDBRANCH 144 149
ENDBRANCH 142 144
ENDBRANCH  43 140
BRANCH   1 157
ATOM    157  N   ASP d   1     -27.654 -14.633 157.143  0.00  0.00    -0.345 N 
ATOM    158  C   ASP d   1     -26.567 -15.343 156.840  0.00  0.00     0.249 C 
ATOM    159  O   ASP d   1     -26.004 -15.262 155.749  0.00  0.00    -0.271 OA
ATOM    160  H7  ASP d   1     -28.046 -14.720 158.059  0.00  0.00     0.163 HD
BRANCH 158 161
ATOM    161  CA  ASP d   1     -26.019 -16.282 157.915  0.00  0.00     0.185 C 
ATOM    162  H4  ASP d   1     -26.049 -17.309 157.521  0.00  0.00     0.100 H 
BRANCH 161 163
ATOM    163  N   ASP d   1     -24.633 -15.952 158.229  0.00  0.00    -0.066 N 
ATOM    164  H1  ASP d   1     -24.290 -16.581 158.938  0.00  0.00     0.275 HD
ATOM    165  H2  ASP d   1     -24.582 -15.004 158.567  0.00  0.00     0.275 HD
ATOM    166  H3  ASP d   1     -24.069 -16.043 157.398  0.00  0.00     0.275 HD
ENDBRANCH 161 163
BRANCH 161 167
ATOM    167  CB  ASP d   1     -26.877 -16.229 159.182  0.00  0.00     0.050 C 
ATOM    168  H5  ASP d   1     -26.666 -17.123 159.788  0.00  0.00     0.052 H 
ATOM    169  H6  ASP d   1     -27.937 -16.226 158.889  0.00  0.00     0.052 H 
BRANCH 167 170
ATOM    170  CG  ASP d   1     -26.601 -14.997 160.022  0.00  0.00     0.175 C 
ATOM    171  OD1 ASP d   1     -27.557 -14.449 160.612  0.00  0.00    -0.648 OA
ATOM    172  OD2 ASP d   1     -25.429 -14.569 160.077  0.00  0.00    -0.648 OA
ENDBRANCH 167 170
ENDBRANCH 161 167
ENDBRANCH 158 161
ENDBRANCH   1 157
BRANCH  19 173
ATOM    173  CB  ASP d   1     -34.455  -0.899 153.727  0.00  0.00    -0.035 C 
ATOM    174  H35 ASP d   1     -35.474  -0.498 153.619  0.00  0.00     0.037 H 
ATOM    175  H36 ASP d   1     -34.152  -1.388 152.789  0.00  0.00     0.037 H 
BRANCH 173 176
ATOM    176  CG  ASP d   1     -33.514   0.285 153.957  0.00  0.00    -0.059 C 
ATOM    177  H37 ASP d   1     -32.490  -0.104 154.055  0.00  0.00     0.038 H 
BRANCH 176 178
ATOM    178  CD1 ASP d   1     -33.549   1.237 152.770  0.00  0.00    -0.073 C 
ATOM    179  H38 ASP d   1     -32.867   2.080 152.956  0.00  0.00     0.028 H 
ATOM    180  H39 ASP d   1     -34.572   1.617 152.635  0.00  0.00     0.028 H 
ATOM    181  H40 ASP d   1     -33.233   0.703 151.862  0.00  0.00     0.028 H 
ENDBRANCH 176 178
BRANCH 176 182
ATOM    182  CD2 ASP d   1     -33.869   1.016 155.244  0.00  0.00    -0.073 C 
ATOM    183  H41 ASP d   1     -33.838   0.310 156.087  0.00  0.00     0.028 H 
ATOM    184  H42 ASP d   1     -34.880   1.440 155.158  0.00  0.00     0.028 H 
ATOM    185  H43 ASP d   1     -33.145   1.826 155.417  0.00  0.00     0.028 H 
ENDBRANCH 176 182
ENDBRANCH 173 176
ENDBRANCH  19 173
BRANCH   7 186
ATOM    186  CB  ASP d   1     -26.897  -9.268 155.393  0.00  0.00    -0.049 C 
ATOM    187  H13 ASP d   1     -26.945  -8.189 155.600  0.00  0.00     0.030 H 
ATOM    188  H14 ASP d   1     -26.814  -9.430 154.308  0.00  0.00     0.030 H 
ATOM    189  H15 ASP d   1     -26.019  -9.699 155.897  0.00  0.00     0.030 H 
ENDBRANCH   7 186
BRANCH  15 190
ATOM    190  CB  ASP d   1     -30.177  -3.538 153.433  0.00  0.00     0.004 C 
ATOM    191  H28 ASP d   1     -30.366  -4.069 152.488  0.00  0.00     0.046 H 
ATOM    192  H29 ASP d   1     -29.194  -3.832 153.829  0.00  0.00     0.046 H 
BRANCH 190 193
ATOM    193  CG  ASP d   1     -30.149  -2.066 153.149  0.00  0.00     0.053 A 
ATOM    194  ND1 ASP d   1     -30.531  -1.534 151.936  0.00  0.00    -0.247 NA
ATOM    195  CE1 ASP d   1     -30.399  -0.219 151.971  0.00  0.00     0.064 A 
ATOM    196  NE2 ASP d   1     -29.946   0.121 153.164  0.00  0.00    -0.359 N 
ATOM    197  H31 ASP d   1     -30.625   0.467 151.156  0.00  0.00     0.143 H 
ATOM    198  CD2 ASP d   1     -29.779  -1.014 153.919  0.00  0.00     0.002 A 
ATOM    199  H32 ASP d   1     -29.750   1.082 153.478  0.00  0.00     0.166 HD
ATOM    200  H30 ASP d   1     -29.417  -1.060 154.945  0.00  0.00     0.114 H 
ENDBRANCH 190 193
ENDBRANCH  15 190
BRANCH  11 201
ATOM    201  CB  ASP d   1     -32.408  -8.027 156.266  0.00  0.00    -0.012 C 
ATOM    202  H18 ASP d   1     -33.278  -7.502 155.845  0.00  0.00     0.044 H 
ATOM    203  H19 ASP d   1     -32.255  -7.707 157.307  0.00  0.00     0.044 H 
BRANCH 201 204
ATOM    204  CG  ASP d   1     -32.698  -9.497 156.262  0.00  0.00    -0.028 A 
ATOM    205  CD1 ASP d   1     -32.039 -10.466 156.964  0.00  0.00    -0.015 A 
ATOM    206  NE1 ASP d   1     -32.595 -11.696 156.709  0.00  0.00    -0.365 N 
ATOM    207  H20 ASP d   1     -31.195 -10.289 157.629  0.00  0.00     0.112 H 
ATOM    208  CE2 ASP d   1     -33.637 -11.539 155.833  0.00  0.00     0.042 A 
ATOM    209  H21 ASP d   1     -32.280 -12.591 157.111  0.00  0.00     0.165 HD
ATOM    210  CD2 ASP d   1     -33.732 -10.165 155.530  0.00  0.00    -0.002 A 
ATOM    211  CZ2 ASP d   1     -34.499 -12.486 155.282  0.00  0.00    -0.056 A 
ATOM    212  CE3 ASP d   1     -34.728  -9.736 154.646  0.00  0.00    -0.070 A 
ATOM    213  CZ3 ASP d   1     -35.582 -10.677 154.101  0.00  0.00    -0.082 A 
ATOM    214  H22 ASP d   1     -34.828  -8.687 154.393  0.00  0.00     0.084 H 
ATOM    215  CH2 ASP d   1     -35.462 -12.037 154.421  0.00  0.00    -0.081 A 
ATOM    216  H24 ASP d   1     -36.358 -10.358 153.414  0.00  0.00     0.083 H 
ATOM    217  H25 ASP d   1     -36.148 -12.748 153.976  0.00  0.00     0.083 H 
ATOM    218  H23 ASP d   1     -34.409 -13.538 155.527  0.00  0.00     0.086 H 
ENDBRANCH 201 204
ENDBRANCH  11 201
TORSDOF 34
