REMARK  12 active torsions:
REMARK  status: ('A' for Active; 'I' for Inactive)
REMARK    1  A    between atoms: C13_2  and  C14_15 
REMARK    2  A    between atoms: C18_17  and  C21_5 
REMARK    3  A    between atoms: O02_41  and  C01_7 
REMARK    4  A    between atoms: C03_8  and  O02_41 
REMARK    5  A    between atoms: C25_19  and  C08_12 
REMARK    6  A    between atoms: C14_15  and  N15_37 
REMARK    7  A    between atoms: C27_20  and  C25_19 
REMARK    8  A    between atoms: C25_19  and  C34_24 
REMARK    9  A    between atoms: C25_19  and  O26_42 
REMARK   10  A    between atoms: C30_21  and  C31_22 
REMARK   11  A    between atoms: N32_39  and  C33_23 
REMARK   12  A    between atoms: C38_27  and  C40_29 
ROOT
ATOM      1  C10 KHY d   1     115.562 -24.416   2.912  0.00  0.00     0.016 A 
ATOM      2  C13 KHY d   1     118.044 -24.368   2.807  0.00  0.00     0.043 A 
ATOM      3  C03 KHY d   1     117.920 -23.956   1.476  0.00  0.00     0.174 A 
ATOM      4  C05 KHY d   1     115.512 -24.010   1.604  0.00  0.00     0.071 A 
ATOM      5  C06 KHY d   1     114.230 -23.813   0.929  0.00  0.00    -0.054 A 
ATOM      6  C07 KHY d   1     113.067 -24.034   1.615  0.00  0.00    -0.071 A 
ATOM      7  C08 KHY d   1     113.110 -24.453   2.990  0.00  0.00    -0.012 A 
ATOM      8  C09 KHY d   1     114.343 -24.649   3.634  0.00  0.00    -0.059 A 
ATOM      9  C11 KHY d   1     116.855 -24.604   3.559  0.00  0.00     0.059 A 
ATOM     10  N04 KHY d   1     116.686 -23.780   0.881  0.00  0.00    -0.224 NA
ATOM     11 CL12 KHY d   1     116.946 -25.120   5.221  0.00  0.00    -0.083 Cl
ATOM     12  H9  KHY d   1     114.201 -23.494  -0.107  0.00  0.00     0.087 H 
ATOM     13  H10 KHY d   1     112.112 -23.893   1.121  0.00  0.00     0.084 H 
ATOM     14  H11 KHY d   1     114.374 -24.974   4.668  0.00  0.00     0.086 H 
ENDROOT
BRANCH   7  15
ATOM     15  C25 KHY d   1     111.788 -24.709   3.732  0.00  0.00     0.156 C 
BRANCH  15  16
ATOM     16  C27 KHY d   1     111.192 -23.426   4.166  0.00  0.00     0.074 A 
ATOM     17  C28 KHY d   1     111.737 -22.185   3.986  0.00  0.00     0.030 A 
ATOM     18  N29 KHY d   1     110.897 -21.296   4.523  0.00  0.00    -0.246 NA
ATOM     19  H5  KHY d   1     112.683 -21.962   3.495  0.00  0.00     0.118 H 
ATOM     20  C30 KHY d   1     109.846 -21.960   5.034  0.00  0.00     0.102 A 
ATOM     21  N32 KHY d   1     110.015 -23.245   4.825  0.00  0.00    -0.339 N 
BRANCH  20  22
ATOM     22  C31 KHY d   1     108.636 -21.327   5.748  0.00  0.00    -0.021 C 
ATOM     23  H19 KHY d   1     108.760 -20.235   5.781  0.00  0.00     0.037 H 
ATOM     24  H20 KHY d   1     108.569 -21.719   6.774  0.00  0.00     0.037 H 
ATOM     25  H21 KHY d   1     107.715 -21.575   5.199  0.00  0.00     0.037 H 
ENDBRANCH  20  22
BRANCH  21  26
ATOM     26  C33 KHY d   1     109.082 -24.267   5.238  0.00  0.00    -0.013 C 
ATOM     27  H22 KHY d   1     109.464 -25.255   4.940  0.00  0.00     0.057 H 
ATOM     28  H23 KHY d   1     108.109 -24.091   4.757  0.00  0.00     0.057 H 
ATOM     29  H24 KHY d   1     108.963 -24.234   6.331  0.00  0.00     0.057 H 
ENDBRANCH  21  26
ENDBRANCH  15  16
BRANCH  15  30
ATOM     30  C34 KHY d   1     110.910 -25.468   2.741  0.00  0.00    -0.010 A 
ATOM     31  C35 KHY d   1     109.953 -24.813   1.956  0.00  0.00    -0.056 A 
ATOM     32  C36 KHY d   1     109.200 -25.562   1.067  0.00  0.00     0.003 A 
ATOM     33  H25 KHY d   1     109.805 -23.743   2.042  0.00  0.00     0.086 H 
ATOM     34  N37 KHY d   1     109.369 -26.898   0.940  0.00  0.00    -0.256 NA
ATOM     35  H26 KHY d   1     108.455 -25.064   0.457  0.00  0.00     0.114 H 
ATOM     36  C38 KHY d   1     110.290 -27.539   1.691  0.00  0.00     0.140 A 
ATOM     37  C39 KHY d   1     111.080 -26.850   2.597  0.00  0.00    -0.041 A 
ATOM     38  H27 KHY d   1     111.822 -27.375   3.188  0.00  0.00     0.088 H 
BRANCH  36  39
ATOM     39  C40 KHY d   1     110.474 -29.053   1.536  0.00  0.00     0.434 C 
ATOM     40  F41 KHY d   1     111.751 -29.313   1.121  0.00  0.00    -0.165 F 
ATOM     41  F42 KHY d   1     109.608 -29.518   0.628  0.00  0.00    -0.165 F 
ATOM     42  F43 KHY d   1     110.267 -29.674   2.737  0.00  0.00    -0.165 F 
ENDBRANCH  36  39
ENDBRANCH  15  30
BRANCH  15  43
ATOM     43  O26 KHY d   1     112.041 -25.530   4.864  0.00  0.00    -0.374 OA
ATOM     44  H29 KHY d   1     112.423 -26.352   4.579  0.00  0.00     0.212 HD
ENDBRANCH  15  43
ENDBRANCH   7  15
BRANCH   2  45
ATOM     45  C14 KHY d   1     119.449 -24.551   3.426  0.00  0.00     0.113 C 
ATOM     46  H12 KHY d   1     119.457 -24.068   4.414  0.00  0.00     0.083 H 
ATOM     47  H13 KHY d   1     120.183 -24.058   2.771  0.00  0.00     0.083 H 
BRANCH  45  48
ATOM     48  N15 KHY d   1     119.787 -25.741   3.568  0.00  0.00    -0.067 N 
ATOM     49  C20 KHY d   1     119.944 -26.455   2.361  0.00  0.00     0.085 C 
ATOM     50  C19 KHY d   1     120.189 -27.938   2.606  0.00  0.00    -0.031 C 
ATOM     51  H3  KHY d   1     119.031 -26.340   1.759  0.00  0.00     0.076 H 
ATOM     52  H4  KHY d   1     120.801 -26.039   1.811  0.00  0.00     0.076 H 
ATOM     53  C18 KHY d   1     120.998 -28.264   3.758  0.00  0.00     0.043 C 
ATOM     54  H17 KHY d   1     120.689 -28.348   1.716  0.00  0.00     0.036 H 
ATOM     55  H18 KHY d   1     119.211 -28.424   2.733  0.00  0.00     0.036 H 
ATOM     56  C17 KHY d   1     121.626 -27.194   4.448  0.00  0.00    -0.031 C 
ATOM     57  H16 KHY d   1     120.312 -28.723   4.485  0.00  0.00     0.053 H 
ATOM     58  C16 KHY d   1     121.036 -25.790   4.254  0.00  0.00     0.085 C 
ATOM     59  H1  KHY d   1     121.585 -27.424   5.523  0.00  0.00     0.036 H 
ATOM     60  H2  KHY d   1     122.675 -27.160   4.120  0.00  0.00     0.036 H 
ATOM     61  H14 KHY d   1     121.761 -25.193   3.681  0.00  0.00     0.076 H 
ATOM     62  H15 KHY d   1     120.895 -25.341   5.248  0.00  0.00     0.076 H 
ATOM     63  H28 KHY d   1     119.081 -26.202   4.120  0.00  0.00     0.280 HD
BRANCH  53  64
ATOM     64  C21 KHY d   1     122.039 -29.335   3.372  0.00  0.00     0.391 C 
ATOM     65  F22 KHY d   1     122.744 -29.661   4.435  0.00  0.00    -0.171 F 
ATOM     66  F23 KHY d   1     122.893 -28.870   2.394  0.00  0.00    -0.171 F 
ATOM     67  F24 KHY d   1     121.389 -30.431   2.909  0.00  0.00    -0.171 F 
ENDBRANCH  53  64
ENDBRANCH  45  48
ENDBRANCH   2  45
BRANCH   3  68
ATOM     68  O02 KHY d   1     119.097 -23.716   0.722  0.00  0.00    -0.339 OA
BRANCH  68  69
ATOM     69  C01 KHY d   1     118.908 -23.252  -0.581  0.00  0.00     0.012 C 
ATOM     70  H6  KHY d   1     119.886 -23.104  -1.063  0.00  0.00     0.067 H 
ATOM     71  H7  KHY d   1     118.364 -22.297  -0.555  0.00  0.00     0.067 H 
ATOM     72  H8  KHY d   1     118.326 -23.990  -1.152  0.00  0.00     0.067 H 
ENDBRANCH  68  69
ENDBRANCH   3  68
TORSDOF 12
