REMARK  1 active torsions:
REMARK  status: ('A' for Active; 'I' for Inactive)
REMARK    1  A    between atoms: N1_1  and  C10_2 
ROOT
ATOM      1  C10 MOL d   1      25.289 -14.620  35.866  0.00  0.00     0.124 C 
ATOM      2  C7  MOL d   1      23.882 -14.345  35.321  0.00  0.00    -0.031 C 
ATOM      3  C1  MOL d   1      23.914 -14.285  33.802  0.00  0.00    -0.051 C 
ATOM      4  C8  MOL d   1      26.238 -13.515  35.387  0.00  0.00    -0.031 C 
ATOM      5  C5  MOL d   1      26.299 -13.508  33.866  0.00  0.00    -0.051 C 
ATOM      6  C6  MOL d   1      24.905 -13.199  33.323  0.00  0.00    -0.058 C 
ATOM      7  C4  MOL d   1      26.752 -14.886  33.336  0.00  0.00    -0.058 C 
ATOM      8  C9  MOL d   1      25.777 -15.974  35.335  0.00  0.00    -0.031 C 
ATOM      9  C3  MOL d   1      25.780 -15.963  33.813  0.00  0.00    -0.051 C 
ATOM     10  C2  MOL d   1      24.368 -15.644  33.272  0.00  0.00    -0.058 C 
ATOM     11  H4  MOL d   1      23.520 -13.384  35.716  0.00  0.00     0.037 H 
ATOM     12  H5  MOL d   1      23.204 -15.151  35.639  0.00  0.00     0.037 H 
ATOM     13  H6  MOL d   1      22.908 -14.054  33.422  0.00  0.00     0.040 H 
ATOM     14  H7  MOL d   1      27.244 -13.698  35.791  0.00  0.00     0.037 H 
ATOM     15  H8  MOL d   1      25.872 -12.540  35.742  0.00  0.00     0.037 H 
ATOM     16  H9  MOL d   1      27.008 -12.737  33.531  0.00  0.00     0.040 H 
ATOM     17  H10 MOL d   1      24.578 -12.216  33.691  0.00  0.00     0.034 H 
ATOM     18  H11 MOL d   1      24.934 -13.188  32.223  0.00  0.00     0.034 H 
ATOM     19  H12 MOL d   1      27.761 -15.110  33.714  0.00  0.00     0.034 H 
ATOM     20  H13 MOL d   1      26.768 -14.868  32.236  0.00  0.00     0.034 H 
ATOM     21  H14 MOL d   1      25.106 -16.769  35.693  0.00  0.00     0.037 H 
ATOM     22  H15 MOL d   1      26.797 -16.163  35.700  0.00  0.00     0.037 H 
ATOM     23  H16 MOL d   1      26.101 -16.946  33.439  0.00  0.00     0.040 H 
ATOM     24  H17 MOL d   1      24.394 -15.619  32.173  0.00  0.00     0.034 H 
ATOM     25  H18 MOL d   1      23.664 -16.421  33.605  0.00  0.00     0.034 H 
ENDROOT
BRANCH   1  26
ATOM     26  N1  MOL d   1      25.243 -14.642  37.318  0.00  0.00    -0.070 N 
ATOM     27  H1  MOL d   1      24.922 -13.749  37.657  0.00  0.00     0.275 HD
ATOM     28  H2  MOL d   1      26.165 -14.827  37.681  0.00  0.00     0.275 HD
ATOM     29  H3  MOL d   1      24.610 -15.365  37.623  0.00  0.00     0.275 HD
ENDBRANCH   1  26
TORSDOF 1
