REMARK  5 active torsions:
REMARK  status: ('A' for Active; 'I' for Inactive)
REMARK    1  A    between atoms: C14_19  and  C13_2 
REMARK    2  A    between atoms: C21_5  and  C22_6 
REMARK    3  A    between atoms: C02_9  and  O01_8 
REMARK    4  A    between atoms: C04_11  and  C05_12 
REMARK       I    between atoms: N15_20  and  C14_19 
REMARK    5  A    between atoms: N15_20  and  C16_21 
ROOT
ATOM      1  C13 KHM d   1     -29.473  15.551 -23.572  0.00  0.00     0.099 A 
ATOM      2  C26 KHM d   1     -29.316  14.275 -23.093  0.00  0.00     0.041 A 
ATOM      3  C02 KHM d   1     -28.811  16.245 -20.187  0.00  0.00     0.167 A 
ATOM      4  C03 KHM d   1     -28.868  17.617 -20.080  0.00  0.00    -0.003 A 
ATOM      5  C04 KHM d   1     -29.121  18.404 -21.204  0.00  0.00     0.073 A 
ATOM      6  N11 KHM d   1     -29.354  17.784 -22.370  0.00  0.00    -0.227 NA
ATOM      7  C12 KHM d   1     -29.308  16.406 -22.470  0.00  0.00     0.171 A 
ATOM      8  N28 KHM d   1     -29.025  15.666 -21.391  0.00  0.00    -0.192 N 
ATOM      9  N27 KHM d   1     -29.022  14.347 -21.736  0.00  0.00    -0.175 NA
ATOM     10  H7  KHM d   1     -29.406  13.360 -23.677  0.00  0.00     0.119 H 
ATOM     11  H9  KHM d   1     -28.715  18.091 -19.111  0.00  0.00     0.093 H 
ENDROOT
BRANCH   1  12
ATOM     12  C14 KHM d   1     -29.869  15.970 -24.989  0.00  0.00     0.257 C 
ATOM     13  N15 KHM d   1     -30.363  17.323 -25.222  0.00  0.00    -0.351 N 
ATOM     14  H14 KHM d   1     -30.414  17.945 -24.441  0.00  0.00     0.163 HD
ATOM     15  O25 KHM d   1     -29.810  15.179 -25.870  0.00  0.00    -0.267 OA
BRANCH  13  16
ATOM     16  C16 KHM d   1     -30.792  17.828 -26.539  0.00  0.00     0.025 C 
ATOM     17  C17 KHM d   1     -32.121  18.598 -26.350  0.00  0.00    -0.045 C 
ATOM     18  C18 KHM d   1     -32.052  20.143 -26.473  0.00  0.00    -0.063 C 
ATOM     19  H2  KHM d   1     -32.505  18.360 -25.347  0.00  0.00     0.036 H 
ATOM     20  H3  KHM d   1     -32.829  18.234 -27.110  0.00  0.00     0.036 H 
ATOM     21  C19 KHM d   1     -30.726  20.802 -26.034  0.00  0.00    -0.064 C 
ATOM     22  H16 KHM d   1     -32.858  20.566 -25.855  0.00  0.00     0.033 H 
ATOM     23  H17 KHM d   1     -32.224  20.404 -27.528  0.00  0.00     0.033 H 
ATOM     24  C20 KHM d   1     -29.452  19.965 -26.276  0.00  0.00    -0.051 C 
ATOM     25  H18 KHM d   1     -30.619  21.748 -26.586  0.00  0.00     0.033 H 
ATOM     26  H19 KHM d   1     -30.793  21.012 -24.956  0.00  0.00     0.033 H 
ATOM     27  C21 KHM d   1     -29.717  18.737 -27.159  0.00  0.00     0.050 C 
ATOM     28  H4  KHM d   1     -28.701  20.599 -26.770  0.00  0.00     0.034 H 
ATOM     29  H5  KHM d   1     -29.063  19.625 -25.305  0.00  0.00     0.034 H 
ATOM     30  H6  KHM d   1     -30.114  19.102 -28.118  0.00  0.00     0.059 H 
ATOM     31  H15 KHM d   1     -30.962  16.976 -27.213  0.00  0.00     0.073 H 
BRANCH  27  32
ATOM     32  C22 KHM d   1     -28.414  17.971 -27.469  0.00  0.00     0.179 C 
ATOM     33  O23 KHM d   1     -27.411  18.109 -26.722  0.00  0.00    -0.648 OA
ATOM     34  O24 KHM d   1     -28.336  17.238 -28.502  0.00  0.00    -0.648 OA
ENDBRANCH  27  32
ENDBRANCH  13  16
ENDBRANCH   1  12
BRANCH   5  35
ATOM     35  C05 KHM d   1     -29.235  19.939 -21.172  0.00  0.00    -0.007 A 
ATOM     36  C10 KHM d   1     -28.836  20.690 -20.066  0.00  0.00    -0.071 A 
ATOM     37  C09 KHM d   1     -29.009  22.077 -20.060  0.00  0.00    -0.082 A 
ATOM     38  H1  KHM d   1     -28.391  20.197 -19.209  0.00  0.00     0.084 H 
ATOM     39  C08 KHM d   1     -29.546  22.729 -21.163  0.00  0.00    -0.083 A 
ATOM     40  H13 KHM d   1     -28.721  22.650 -19.186  0.00  0.00     0.083 H 
ATOM     41  C07 KHM d   1     -29.925  21.995 -22.280  0.00  0.00    -0.082 A 
ATOM     42  H12 KHM d   1     -29.669  23.806 -21.152  0.00  0.00     0.083 H 
ATOM     43  C06 KHM d   1     -29.781  20.608 -22.279  0.00  0.00    -0.071 A 
ATOM     44  H11 KHM d   1     -30.331  22.499 -23.149  0.00  0.00     0.083 H 
ATOM     45  H10 KHM d   1     -30.095  20.038 -23.146  0.00  0.00     0.084 H 
ENDBRANCH   5  35
BRANCH   3  46
ATOM     46  O01 KHM d   1     -28.538  15.446 -19.062  0.00  0.00    -0.345 OA
ATOM     47  H8  KHM d   1     -28.413  16.002 -18.302  0.00  0.00     0.219 HD
ENDBRANCH   3  46
TORSDOF 5
