REMARK  13 active torsions:
REMARK  status: ('A' for Active; 'I' for Inactive)
REMARK    1  A    between atoms: C13_1  and  C3_13 
REMARK    2  A    between atoms: C18_2  and  C19_5 
REMARK    3  A    between atoms: C17_3  and  C28_30 
REMARK    4  A    between atoms: C19_5  and  C20_6 
REMARK    5  A    between atoms: C19_5  and  O23_27 
REMARK    6  A    between atoms: C24_7  and  C27_9 
REMARK    7  A    between atoms: O23_27  and  C24_7 
REMARK    8  A    between atoms: C24_7  and  C25_28 
REMARK    9  A    between atoms: C24_7  and  C26_29 
REMARK   10  A    between atoms: C33_10  and  C34_8 
REMARK   11  A    between atoms: N31_33  and  C33_10 
REMARK   12  A    between atoms: C2_12  and  C1_11 
REMARK   13  A    between atoms: C36_36  and  C37_37 
ROOT
ATOM      1  C13 KJJ d   1     -26.638  14.898 -17.266  0.00  0.00    -0.004 A 
ATOM      2  C18 KJJ d   1     -25.746  13.810 -17.237  0.00  0.00     0.017 A 
ATOM      3  C17 KJJ d   1     -24.386  14.048 -16.946  0.00  0.00     0.041 A 
ATOM      4  C15 KJJ d   1     -24.813  16.373 -16.677  0.00  0.00     0.045 A 
ATOM      5  C14 KJJ d   1     -26.178  16.207 -17.030  0.00  0.00     0.004 A 
ATOM      6  N16 KJJ d   1     -23.989  15.302 -16.641  0.00  0.00    -0.257 NA
ATOM      7  C29 KJJ d   1     -24.208  17.753 -16.391  0.00  0.00    -0.002 C 
ATOM      8  C30 KJJ d   1     -25.270  18.851 -16.193  0.00  0.00     0.089 C 
ATOM      9  N31 KJJ d   1     -26.448  18.749 -17.099  0.00  0.00    -0.066 N 
ATOM     10  C32 KJJ d   1     -27.113  17.410 -17.066  0.00  0.00     0.110 C 
ATOM     11  H27 KJJ d   1     -23.566  18.036 -17.238  0.00  0.00     0.044 H 
ATOM     12  H28 KJJ d   1     -23.600  17.686 -15.477  0.00  0.00     0.044 H 
ATOM     13  H29 KJJ d   1     -24.790  19.826 -16.363  0.00  0.00     0.076 H 
ATOM     14  H30 KJJ d   1     -25.630  18.796 -15.155  0.00  0.00     0.076 H 
ATOM     15  H31 KJJ d   1     -26.092  18.874 -18.034  0.00  0.00     0.280 HD
ATOM     16  H32 KJJ d   1     -27.749  17.371 -16.169  0.00  0.00     0.083 H 
ATOM     17  H33 KJJ d   1     -27.741  17.323 -17.965  0.00  0.00     0.083 H 
ENDROOT
BRANCH   1  18
ATOM     18  C3  KJJ d   1     -28.091  14.678 -17.556  0.00  0.00    -0.015 A 
ATOM     19  C2  KJJ d   1     -28.648  14.662 -18.842  0.00  0.00    -0.042 A 
ATOM     20  C7  KJJ d   1     -30.015  14.372 -18.987  0.00  0.00    -0.015 A 
ATOM     21  C6  KJJ d   1     -30.799  14.081 -17.852  0.00  0.00     0.114 A 
ATOM     22  C8  KJJ d   1     -30.627  14.354 -20.388  0.00  0.00    -0.036 C 
ATOM     23  C5  KJJ d   1     -30.233  14.110 -16.575  0.00  0.00     0.151 A 
ATOM     24  O11 KJJ d   1     -32.094  13.809 -17.962  0.00  0.00    -0.347 OA
ATOM     25  C4  KJJ d   1     -28.885  14.404 -16.433  0.00  0.00    -0.032 A 
ATOM     26  F12 KJJ d   1     -30.962  13.856 -15.490  0.00  0.00    -0.203 F 
ATOM     27  H11 KJJ d   1     -28.441  14.422 -15.444  0.00  0.00     0.089 H 
ATOM     28  C10 KJJ d   1     -32.663  13.448 -19.255  0.00  0.00     0.026 C 
ATOM     29  C9  KJJ d   1     -32.155  14.430 -20.320  0.00  0.00    -0.041 C 
ATOM     30  H16 KJJ d   1     -32.355  12.426 -19.520  0.00  0.00     0.075 H 
ATOM     31  H17 KJJ d   1     -33.761  13.498 -19.201  0.00  0.00     0.075 H 
ATOM     32  H14 KJJ d   1     -32.580  14.164 -21.299  0.00  0.00     0.036 H 
ATOM     33  H15 KJJ d   1     -32.461  15.452 -20.053  0.00  0.00     0.036 H 
ATOM     34  H12 KJJ d   1     -30.335  13.423 -20.896  0.00  0.00     0.040 H 
ATOM     35  H13 KJJ d   1     -30.249  15.216 -20.957  0.00  0.00     0.040 H 
BRANCH  19  36
ATOM     36  C1  KJJ d   1     -27.814  14.960 -20.077  0.00  0.00    -0.050 C 
ATOM     37  H8  KJJ d   1     -26.775  15.163 -19.778  0.00  0.00     0.033 H 
ATOM     38  H9  KJJ d   1     -28.225  15.840 -20.594  0.00  0.00     0.033 H 
ATOM     39  H10 KJJ d   1     -27.838  14.093 -20.753  0.00  0.00     0.033 H 
ENDBRANCH  19  36
ENDBRANCH   1  18
BRANCH   2  40
ATOM     40  C19 KJJ d   1     -26.240  12.406 -17.561  0.00  0.00     0.151 C 
ATOM     41  H1  KJJ d   1     -27.340  12.413 -17.566  0.00  0.00     0.108 H 
BRANCH  40  42
ATOM     42  C20 KJJ d   1     -25.727  12.011 -18.925  0.00  0.00     0.208 C 
ATOM     43  O21 KJJ d   1     -25.453  12.866 -19.757  0.00  0.00    -0.646 OA
ATOM     44  O22 KJJ d   1     -25.549  10.735 -19.202  0.00  0.00    -0.646 OA
ENDBRANCH  40  42
BRANCH  40  45
ATOM     45  O23 KJJ d   1     -25.787  11.417 -16.623  0.00  0.00    -0.360 OA
BRANCH  45  46
ATOM     46  C24 KJJ d   1     -26.466  11.186 -15.374  0.00  0.00     0.051 C 
BRANCH  46  47
ATOM     47  C27 KJJ d   1     -26.275  12.318 -14.354  0.00  0.00    -0.048 C 
ATOM     48  H3  KJJ d   1     -26.819  12.074 -13.430  0.00  0.00     0.031 H 
ATOM     49  H4  KJJ d   1     -26.665  13.258 -14.772  0.00  0.00     0.031 H 
ATOM     50  H5  KJJ d   1     -25.204  12.433 -14.130  0.00  0.00     0.031 H 
ENDBRANCH  46  47
BRANCH  46  51
ATOM     51  C25 KJJ d   1     -27.969  10.903 -15.537  0.00  0.00    -0.048 C 
ATOM     52  H18 KJJ d   1     -28.112  10.093 -16.267  0.00  0.00     0.031 H 
ATOM     53  H19 KJJ d   1     -28.477  11.811 -15.893  0.00  0.00     0.031 H 
ATOM     54  H20 KJJ d   1     -28.393  10.602 -14.567  0.00  0.00     0.031 H 
ENDBRANCH  46  51
BRANCH  46  55
ATOM     55  C26 KJJ d   1     -25.778   9.931 -14.815  0.00  0.00    -0.048 C 
ATOM     56  H21 KJJ d   1     -25.898   9.100 -15.526  0.00  0.00     0.031 H 
ATOM     57  H22 KJJ d   1     -26.236   9.659 -13.853  0.00  0.00     0.031 H 
ATOM     58  H23 KJJ d   1     -24.707  10.135 -14.667  0.00  0.00     0.031 H 
ENDBRANCH  46  55
ENDBRANCH  45  46
ENDBRANCH  40  45
ENDBRANCH   2  40
BRANCH   3  59
ATOM     59  C28 KJJ d   1     -23.298  12.980 -16.861  0.00  0.00    -0.035 C 
ATOM     60  H24 KJJ d   1     -22.336  13.455 -16.619  0.00  0.00     0.035 H 
ATOM     61  H25 KJJ d   1     -23.218  12.461 -17.827  0.00  0.00     0.035 H 
ATOM     62  H26 KJJ d   1     -23.557  12.255 -16.075  0.00  0.00     0.035 H 
ENDBRANCH   3  59
BRANCH   9  63
ATOM     63  C33 KJJ d   1     -27.467  19.823 -16.878  0.00  0.00     0.088 C 
ATOM     64  H6  KJJ d   1     -28.369  19.573 -17.457  0.00  0.00     0.076 H 
ATOM     65  H7  KJJ d   1     -27.715  19.854 -15.807  0.00  0.00     0.076 H 
BRANCH  63  66
ATOM     66  C34 KJJ d   1     -26.981  21.222 -17.308  0.00  0.00    -0.023 A 
ATOM     67  C35 KJJ d   1     -27.216  21.625 -18.769  0.00  0.00    -0.052 A 
ATOM     68  C36 KJJ d   1     -27.994  22.322 -17.641  0.00  0.00    -0.023 A 
ATOM     69  H34 KJJ d   1     -27.736  20.938 -19.453  0.00  0.00     0.034 H 
ATOM     70  H35 KJJ d   1     -26.438  22.173 -19.321  0.00  0.00     0.034 H 
ATOM     71  H36 KJJ d   1     -27.774  23.366 -17.375  0.00  0.00     0.048 H 
ATOM     72  H2  KJJ d   1     -26.042  21.474 -16.793  0.00  0.00     0.043 H 
BRANCH  68  73
ATOM     73  C37 KJJ d   1     -29.489  22.067 -17.516  0.00  0.00    -0.054 A 
ATOM     74  C38 KJJ d   1     -30.257  21.609 -18.602  0.00  0.00    -0.076 A 
ATOM     75  C39 KJJ d   1     -31.634  21.380 -18.456  0.00  0.00    -0.082 A 
ATOM     76  H37 KJJ d   1     -29.781  21.431 -19.560  0.00  0.00     0.084 H 
ATOM     77  C40 KJJ d   1     -32.263  21.643 -17.234  0.00  0.00    -0.083 A 
ATOM     78  H38 KJJ d   1     -32.211  20.999 -19.291  0.00  0.00     0.083 H 
ATOM     79  C41 KJJ d   1     -31.499  22.106 -16.151  0.00  0.00    -0.082 A 
ATOM     80  H39 KJJ d   1     -33.331  21.491 -17.125  0.00  0.00     0.083 H 
ATOM     81  C42 KJJ d   1     -30.118  22.318 -16.294  0.00  0.00    -0.076 A 
ATOM     82  H40 KJJ d   1     -31.978  22.301 -15.198  0.00  0.00     0.083 H 
ATOM     83  H41 KJJ d   1     -29.538  22.678 -15.452  0.00  0.00     0.084 H 
ENDBRANCH  68  73
ENDBRANCH  63  66
ENDBRANCH   9  63
TORSDOF 13
