REMARK  20 active torsions:
REMARK  status: ('A' for Active; 'I' for Inactive)
REMARK    1  A    between atoms: N_1  and  CA_2 
REMARK    2  A    between atoms: CA_2  and  C_3 
REMARK    3  A    between atoms: CA_2  and  CB_5 
REMARK       I    between atoms: C_3  and  N_11 
REMARK    4  A    between atoms: CB_5  and  CG_6 
REMARK    5  A    between atoms: N_11  and  CA_12 
REMARK    6  A    between atoms: CA_12  and  C_13 
REMARK    7  A    between atoms: CA_12  and  CB_15 
REMARK       I    between atoms: C_13  and  N_21 
REMARK    8  A    between atoms: CB_15  and  CG_16 
REMARK    9  A    between atoms: N_21  and  CA_22 
REMARK   10  A    between atoms: CA_22  and  C_23 
REMARK   11  A    between atoms: CA_22  and  CB_25 
REMARK       I    between atoms: C_23  and  N_31 
REMARK   12  A    between atoms: CB_25  and  CG_26 
REMARK   13  A    between atoms: N_31  and  CA_32 
REMARK   14  A    between atoms: CA_32  and  C_33 
REMARK   15  A    between atoms: CA_32  and  CB_35 
REMARK       I    between atoms: C_33  and  N_41 
REMARK   16  A    between atoms: CB_35  and  CG_36 
REMARK   17  A    between atoms: N_41  and  CA_42 
REMARK   18  A    between atoms: CA_42  and  C_43 
REMARK   19  A    between atoms: CA_42  and  CB_45 
REMARK   20  A    between atoms: CB_45  and  CG_46 
ROOT
ATOM      1  CA  HIS d   1      78.854  76.586   7.645  0.00  0.00     0.094 C 
ATOM      2  H18 HIS d   1      79.660  77.332   7.579  0.00  0.00     0.088 H 
ENDROOT
BRANCH   1   3
ATOM      3  N   HIS d   1      78.535  76.122   6.298  0.00  0.00    -0.346 N 
ATOM      4  C   HIS d   1      79.461  76.012   5.345  0.00  0.00     0.241 C 
ATOM      5  O   HIS d   1      80.638  76.348   5.511  0.00  0.00    -0.271 OA
ATOM      6  H17 HIS d   1      77.589  75.878   6.083  0.00  0.00     0.163 HD
BRANCH   4   7
ATOM      7  CA  HIS d   1      78.994  75.438   4.011  0.00  0.00     0.094 C 
ATOM      8  H11 HIS d   1      77.895  75.402   4.011  0.00  0.00     0.088 H 
BRANCH   7   9
ATOM      9  N   HIS d   1      79.431  76.282   2.906  0.00  0.00    -0.346 N 
ATOM     10  C   HIS d   1      78.903  77.487   2.711  0.00  0.00     0.249 C 
ATOM     11  O   HIS d   1      78.066  77.978   3.468  0.00  0.00    -0.271 OA
ATOM     12  H10 HIS d   1      80.140  75.949   2.284  0.00  0.00     0.163 HD
BRANCH  10  13
ATOM     13  CA  HIS d   1      79.393  78.257   1.483  0.00  0.00     0.181 C 
ATOM     14  H4  HIS d   1      80.478  78.410   1.583  0.00  0.00     0.099 H 
BRANCH  13  15
ATOM     15  N   HIS d   1      79.149  77.505   0.257  0.00  0.00    -0.066 N 
ATOM     16  H1  HIS d   1      79.481  78.035  -0.534  0.00  0.00     0.275 HD
ATOM     17  H2  HIS d   1      78.160  77.336   0.157  0.00  0.00     0.275 HD
ATOM     18  H3  HIS d   1      79.637  76.624   0.300  0.00  0.00     0.275 HD
ENDBRANCH  13  15
BRANCH  13  19
ATOM     19  CB  HIS d   1      78.716  79.629   1.412  0.00  0.00     0.011 C 
ATOM     20  H5  HIS d   1      79.233  80.231   0.650  0.00  0.00     0.046 H 
ATOM     21  H6  HIS d   1      78.816  80.115   2.393  0.00  0.00     0.046 H 
BRANCH  19  22
ATOM     22  CG  HIS d   1      77.260  79.572   1.060  0.00  0.00     0.053 A 
ATOM     23  ND1 HIS d   1      76.340  78.861   1.803  0.00  0.00    -0.247 NA
ATOM     24  CE1 HIS d   1      75.143  78.992   1.262  0.00  0.00     0.064 A 
ATOM     25  NE2 HIS d   1      75.250  79.767   0.197  0.00  0.00    -0.359 N 
ATOM     26  H8  HIS d   1      74.224  78.539   1.631  0.00  0.00     0.143 H 
ATOM     27  CD2 HIS d   1      76.563  80.145   0.050  0.00  0.00     0.002 A 
ATOM     28  H9  HIS d   1      74.475  80.043  -0.423  0.00  0.00     0.166 HD
ATOM     29  H7  HIS d   1      76.967  80.785  -0.732  0.00  0.00     0.114 H 
ENDBRANCH  19  22
ENDBRANCH  13  19
ENDBRANCH  10  13
ENDBRANCH   7   9
BRANCH   7  30
ATOM     30  CB  HIS d   1      79.530  74.019   3.829  0.00  0.00     0.004 C 
ATOM     31  H12 HIS d   1      80.628  74.066   3.789  0.00  0.00     0.046 H 
ATOM     32  H13 HIS d   1      79.145  73.623   2.878  0.00  0.00     0.046 H 
BRANCH  30  33
ATOM     33  CG  HIS d   1      79.139  73.076   4.924  0.00  0.00     0.053 A 
ATOM     34  ND1 HIS d   1      77.825  72.798   5.233  0.00  0.00    -0.247 NA
ATOM     35  CE1 HIS d   1      77.783  71.938   6.235  0.00  0.00     0.064 A 
ATOM     36  NE2 HIS d   1      79.023  71.648   6.587  0.00  0.00    -0.359 N 
ATOM     37  H15 HIS d   1      76.880  71.537   6.693  0.00  0.00     0.143 H 
ATOM     38  CD2 HIS d   1      79.890  72.345   5.781  0.00  0.00     0.002 A 
ATOM     39  H16 HIS d   1      79.295  71.004   7.343  0.00  0.00     0.166 HD
ATOM     40  H14 HIS d   1      80.978  72.315   5.824  0.00  0.00     0.114 H 
ENDBRANCH  30  33
ENDBRANCH   7  30
ENDBRANCH   4   7
ENDBRANCH   1   3
BRANCH   1  41
ATOM     41  C   HIS d   1      79.337  75.406   8.478  0.00  0.00     0.241 C 
ATOM     42  O   HIS d   1      78.617  74.411   8.628  0.00  0.00    -0.271 OA
ATOM     43  N   HIS d   1      80.540  75.524   9.031  0.00  0.00    -0.346 N 
ATOM     44  H24 HIS d   1      81.057  76.372   8.915  0.00  0.00     0.163 HD
BRANCH  43  45
ATOM     45  CA  HIS d   1      81.110  74.434   9.802  0.00  0.00     0.094 C 
ATOM     46  H25 HIS d   1      80.972  73.501   9.237  0.00  0.00     0.088 H 
BRANCH  45  47
ATOM     47  C   HIS d   1      80.385  74.289  11.142  0.00  0.00     0.241 C 
ATOM     48  O   HIS d   1      79.574  75.133  11.538  0.00  0.00    -0.271 OA
ATOM     49  N   HIS d   1      80.687  73.187  11.830  0.00  0.00    -0.344 N 
ATOM     50  H31 HIS d   1      81.410  72.599  11.469  0.00  0.00     0.163 HD
BRANCH  49  51
ATOM     51  CA  HIS d   1      80.035  72.775  13.079  0.00  0.00     0.101 C 
ATOM     52  H32 HIS d   1      79.089  72.281  12.813  0.00  0.00     0.090 H 
BRANCH  51  53
ATOM     53  C   HIS d   1      79.703  73.924  14.030  0.00  0.00     0.197 C 
ATOM     54  O   HIS d   1      78.553  74.357  14.115  0.00  0.00    -0.646 OA
ATOM     55  OXT HIS d   1      80.574  74.448  14.726  0.00  0.00    -0.646 OA
ENDBRANCH  51  53
BRANCH  51  56
ATOM     56  CB  HIS d   1      80.929  71.764  13.802  0.00  0.00     0.005 C 
ATOM     57  H33 HIS d   1      81.716  72.319  14.333  0.00  0.00     0.046 H 
ATOM     58  H34 HIS d   1      81.388  71.109  13.047  0.00  0.00     0.046 H 
BRANCH  56  59
ATOM     59  CG  HIS d   1      80.210  70.903  14.796  0.00  0.00     0.053 A 
ATOM     60  ND1 HIS d   1      78.856  70.652  14.731  0.00  0.00    -0.247 NA
ATOM     61  CE1 HIS d   1      78.508  69.860  15.730  0.00  0.00     0.064 A 
ATOM     62  NE2 HIS d   1      79.588  69.583  16.438  0.00  0.00    -0.359 N 
ATOM     63  H36 HIS d   1      77.502  69.497  15.935  0.00  0.00     0.143 H 
ATOM     64  CD2 HIS d   1      80.666  70.221  15.875  0.00  0.00     0.002 A 
ATOM     65  H37 HIS d   1      79.617  68.985  17.276  0.00  0.00     0.166 HD
ATOM     66  H35 HIS d   1      81.695  70.186  16.229  0.00  0.00     0.114 H 
ENDBRANCH  56  59
ENDBRANCH  51  56
ENDBRANCH  49  51
ENDBRANCH  45  47
BRANCH  45  67
ATOM     67  CB  HIS d   1      82.608  74.656   9.997  0.00  0.00     0.004 C 
ATOM     68  H26 HIS d   1      82.966  73.959  10.769  0.00  0.00     0.046 H 
ATOM     69  H27 HIS d   1      82.765  75.691  10.335  0.00  0.00     0.046 H 
BRANCH  67  70
ATOM     70  CG  HIS d   1      83.412  74.437   8.752  0.00  0.00     0.053 A 
ATOM     71  ND1 HIS d   1      84.771  74.210   8.768  0.00  0.00    -0.247 NA
ATOM     72  CE1 HIS d   1      85.205  74.051   7.530  0.00  0.00     0.064 A 
ATOM     73  NE2 HIS d   1      84.176  74.166   6.711  0.00  0.00    -0.359 N 
ATOM     74  H29 HIS d   1      86.236  73.858   7.236  0.00  0.00     0.143 H 
ATOM     75  CD2 HIS d   1      83.043  74.408   7.449  0.00  0.00     0.002 A 
ATOM     76  H30 HIS d   1      84.216  74.087   5.685  0.00  0.00     0.166 HD
ATOM     77  H28 HIS d   1      82.036  74.550   7.059  0.00  0.00     0.114 H 
ENDBRANCH  67  70
ENDBRANCH  45  67
ENDBRANCH  43  45
ENDBRANCH   1  41
BRANCH   1  78
ATOM     78  CB  HIS d   1      77.644  77.236   8.314  0.00  0.00     0.004 C 
ATOM     79  H19 HIS d   1      78.005  78.030   8.984  0.00  0.00     0.046 H 
ATOM     80  H20 HIS d   1      77.121  76.468   8.903  0.00  0.00     0.046 H 
BRANCH  78  81
ATOM     81  CG  HIS d   1      76.668  77.838   7.356  0.00  0.00     0.053 A 
ATOM     82  ND1 HIS d   1      76.988  78.895   6.532  0.00  0.00    -0.247 NA
ATOM     83  CE1 HIS d   1      75.934  79.216   5.804  0.00  0.00     0.064 A 
ATOM     84  NE2 HIS d   1      74.941  78.408   6.126  0.00  0.00    -0.359 N 
ATOM     85  H22 HIS d   1      75.891  80.013   5.063  0.00  0.00     0.143 H 
ATOM     86  CD2 HIS d   1      75.373  77.538   7.097  0.00  0.00     0.002 A 
ATOM     87  H23 HIS d   1      73.996  78.427   5.716  0.00  0.00     0.166 HD
ATOM     88  H21 HIS d   1      74.784  76.754   7.570  0.00  0.00     0.114 H 
ENDBRANCH  78  81
ENDBRANCH   1  78
TORSDOF 20
