REMARK  4 active torsions:
REMARK  status: ('A' for Active; 'I' for Inactive)
REMARK    1  A    between atoms: C03_3  and  O04_4 
REMARK    2  A    between atoms: C06_6  and  C07_7 
REMARK    3  A    between atoms: C10_10  and  C11_11 
REMARK    4  A    between atoms: C16_16  and  C17_17 
ROOT
ATOM      1  O01 KKV d   1       9.028  20.022  -8.438  0.00  0.00    -0.265 OA
ATOM      2  C02 KKV d   1       9.587  20.844  -9.179  0.00  0.00     0.279 A 
ATOM      3  C03 KKV d   1       9.993  22.188  -8.812  0.00  0.00     0.135 A 
ATOM      4  C05 KKV d   1      10.592  22.990  -9.713  0.00  0.00    -0.033 A 
ATOM      5  C06 KKV d   1      10.869  22.570 -11.059  0.00  0.00     0.005 A 
ATOM      6  C16 KKV d   1      10.500  21.284 -11.454  0.00  0.00     0.056 A 
ATOM      7  N24 KKV d   1       9.877  20.465 -10.497  0.00  0.00    -0.320 N 
ATOM      8  H2  KKV d   1      10.878  23.996  -9.410  0.00  0.00     0.089 H 
ATOM      9  H11 KKV d   1       9.621  19.540 -10.778  0.00  0.00     0.169 HD
ENDROOT
BRANCH   5  10
ATOM     10  C07 KKV d   1      11.549  23.522 -11.965  0.00  0.00    -0.024 A 
ATOM     11  C08 KKV d   1      12.836  23.320 -12.454  0.00  0.00    -0.071 A 
ATOM     12  C09 KKV d   1      13.454  24.275 -13.266  0.00  0.00    -0.066 A 
ATOM     13  H3  KKV d   1      13.367  22.409 -12.202  0.00  0.00     0.084 H 
ATOM     14  C10 KKV d   1      12.828  25.473 -13.614  0.00  0.00     0.040 A 
ATOM     15  H4  KKV d   1      14.453  24.079 -13.638  0.00  0.00     0.085 H 
ATOM     16  C14 KKV d   1      11.549  25.672 -13.101  0.00  0.00    -0.066 A 
ATOM     17  C15 KKV d   1      10.922  24.729 -12.289  0.00  0.00    -0.071 A 
ATOM     18  H5  KKV d   1      11.024  26.590 -13.341  0.00  0.00     0.085 H 
ATOM     19  H6  KKV d   1       9.931  24.935 -11.902  0.00  0.00     0.084 H 
BRANCH  14  20
ATOM     20  C11 KKV d   1      13.526  26.563 -14.525  0.00  0.00     0.209 C 
ATOM     21  O12 KKV d   1      12.791  27.391 -15.077  0.00  0.00    -0.644 OA
ATOM     22  O13 KKV d   1      14.761  26.523 -14.597  0.00  0.00    -0.644 OA
ENDBRANCH  14  20
ENDBRANCH   5  10
BRANCH   6  23
ATOM     23  C17 KKV d   1      10.714  20.681 -12.787  0.00  0.00    -0.008 A 
ATOM     24  C18 KKV d   1      10.307  21.320 -13.973  0.00  0.00    -0.068 A 
ATOM     25  C19 KKV d   1      10.517  20.722 -15.213  0.00  0.00    -0.045 A 
ATOM     26  H7  KKV d   1       9.824  22.289 -13.921  0.00  0.00     0.085 H 
ATOM     27  C20 KKV d   1      11.123  19.471 -15.219  0.00  0.00     0.116 A 
ATOM     28  H8  KKV d   1      10.221  21.211 -16.134  0.00  0.00     0.088 H 
ATOM     29  F21 KKV d   1      11.329  18.866 -16.418  0.00  0.00    -0.206 F 
ATOM     30  C22 KKV d   1      11.529  18.797 -14.082  0.00  0.00    -0.045 A 
ATOM     31  C23 KKV d   1      11.305  19.426 -12.866  0.00  0.00    -0.068 A 
ATOM     32  H9  KKV d   1      12.000  17.823 -14.138  0.00  0.00     0.088 H 
ATOM     33  H10 KKV d   1      11.599  18.924 -11.951  0.00  0.00     0.085 H 
ENDBRANCH   6  23
BRANCH   3  34
ATOM     34  O04 KKV d   1       9.707  22.531  -7.543  0.00  0.00    -0.356 OA
ATOM     35  H1  KKV d   1      10.149  21.936  -6.948  0.00  0.00     0.218 HD
ENDBRANCH   3  34
TORSDOF 4
