REMARK  5 active torsions:
REMARK  status: ('A' for Active; 'I' for Inactive)
REMARK    1  A    between atoms: C02_5  and  O01_4 
REMARK    2  A    between atoms: C05_8  and  C04_7 
REMARK    3  A    between atoms: C06_9  and  C05_8 
REMARK    4  A    between atoms: C16_16  and  C17_17 
REMARK    5  A    between atoms: C20_20  and  C21_21 
ROOT
ATOM      1  C02 KKS d   1       9.498  20.100 -10.044  0.00  0.00     0.134 A 
ATOM      2  C03 KKS d   1       9.805  19.584 -11.275  0.00  0.00    -0.037 A 
ATOM      3  C04 KKS d   1      10.537  20.415 -12.189  0.00  0.00    -0.023 A 
ATOM      4  C16 KKS d   1      10.855  21.690 -11.776  0.00  0.00     0.052 A 
ATOM      5  N28 KKS d   1      10.538  22.186 -10.539  0.00  0.00    -0.320 N 
ATOM      6  C29 KKS d   1       9.845  21.453  -9.600  0.00  0.00     0.279 A 
ATOM      7  O30 KKS d   1       9.585  21.979  -8.530  0.00  0.00    -0.265 OA
ATOM      8  H4  KKS d   1       9.503  18.575 -11.552  0.00  0.00     0.089 H 
ATOM      9  H17 KKS d   1      10.821  23.117 -10.308  0.00  0.00     0.169 HD
ENDROOT
BRANCH   3  10
ATOM     10  C05 KKS d   1      10.896  19.891 -13.492  0.00  0.00    -0.014 C 
ATOM     11  H5  KKS d   1      11.226  18.850 -13.359  0.00  0.00     0.047 H 
ATOM     12  H6  KKS d   1      11.731  20.493 -13.880  0.00  0.00     0.047 H 
BRANCH  10  13
ATOM     13  C06 KKS d   1       9.807  19.901 -14.515  0.00  0.00    -0.043 A 
ATOM     14  C07 KKS d   1      10.026  19.334 -15.768  0.00  0.00    -0.019 A 
ATOM     15  C12 KKS d   1       9.010  19.356 -16.726  0.00  0.00    -0.025 A 
ATOM     16  C08 KKS d   1      11.242  18.731 -16.120  0.00  0.00    -0.072 A 
ATOM     17  C11 KKS d   1       9.211  18.776 -18.015  0.00  0.00    -0.072 A 
ATOM     18  C13 KKS d   1       7.751  19.954 -16.414  0.00  0.00    -0.072 A 
ATOM     19  C10 KKS d   1      10.395  18.191 -18.323  0.00  0.00    -0.082 A 
ATOM     20  H2  KKS d   1       8.415  18.803 -18.750  0.00  0.00     0.084 H 
ATOM     21  C09 KKS d   1      11.423  18.176 -17.364  0.00  0.00    -0.082 A 
ATOM     22  H1  KKS d   1      10.547  17.740 -19.297  0.00  0.00     0.083 H 
ATOM     23  H8  KKS d   1      12.375  17.719 -17.610  0.00  0.00     0.083 H 
ATOM     24  C14 KKS d   1       7.558  20.516 -15.189  0.00  0.00    -0.082 A 
ATOM     25  H9  KKS d   1       6.954  19.960 -17.148  0.00  0.00     0.084 H 
ATOM     26  C15 KKS d   1       8.598  20.484 -14.230  0.00  0.00    -0.076 A 
ATOM     27  H10 KKS d   1       6.611  20.986 -14.949  0.00  0.00     0.083 H 
ATOM     28  H11 KKS d   1       8.437  20.927 -13.254  0.00  0.00     0.084 H 
ATOM     29  H7  KKS d   1      12.052  18.702 -15.400  0.00  0.00     0.084 H 
ENDBRANCH  10  13
ENDBRANCH   3  10
BRANCH   4  30
ATOM     30  C17 KKS d   1      11.601  22.708 -12.524  0.00  0.00    -0.009 A 
ATOM     31  C18 KKS d   1      11.220  23.093 -13.833  0.00  0.00    -0.070 A 
ATOM     32  C19 KKS d   1      11.949  24.079 -14.504  0.00  0.00    -0.068 A 
ATOM     33  H12 KKS d   1      10.367  22.625 -14.312  0.00  0.00     0.084 H 
ATOM     34  C20 KKS d   1      13.063  24.690 -13.844  0.00  0.00     0.013 A 
ATOM     35  H13 KKS d   1      11.675  24.377 -15.510  0.00  0.00     0.085 H 
ATOM     36  C26 KKS d   1      13.419  24.309 -12.515  0.00  0.00    -0.068 A 
ATOM     37  C27 KKS d   1      12.689  23.327 -11.869  0.00  0.00    -0.070 A 
ATOM     38  H15 KKS d   1      14.255  24.785 -12.016  0.00  0.00     0.085 H 
ATOM     39  H16 KKS d   1      12.952  23.032 -10.860  0.00  0.00     0.084 H 
BRANCH  34  40
ATOM     40  C21 KKS d   1      13.806  25.743 -14.545  0.00  0.00     0.179 A 
ATOM     41  N22 KKS d   1      13.564  26.154 -15.863  0.00  0.00    -0.239 N 
ATOM     42  N23 KKS d   1      14.443  27.179 -16.155  0.00  0.00    -0.046 NA
ATOM     43  H14 KKS d   1      12.857  25.762 -16.500  0.00  0.00     0.192 HD
ATOM     44  N24 KKS d   1      15.155  27.379 -15.106  0.00  0.00    -0.023 NA
ATOM     45  N25 KKS d   1      14.799  26.539 -14.073  0.00  0.00    -0.108 NA
ENDBRANCH  34  40
ENDBRANCH   4  30
BRANCH   1  46
ATOM     46  O01 KKS d   1       8.841  19.495  -9.072  0.00  0.00    -0.356 OA
ATOM     47  H3  KKS d   1       8.768  20.081  -8.328  0.00  0.00     0.218 HD
ENDBRANCH   1  46
TORSDOF 5
