REMARK  3 active torsions:
REMARK  status: ('A' for Active; 'I' for Inactive)
REMARK    1  A    between atoms: C13_2  and  C14_14 
REMARK    2  A    between atoms: C04_6  and  C05_7 
REMARK       I    between atoms: C14_14  and  N15_15 
REMARK    3  A    between atoms: N15_15  and  C16_16 
ROOT
ATOM      1  C13 KKP d   1     -30.120  15.670 -24.822  0.00  0.00     0.096 A 
ATOM      2  O01 KKP d   1     -28.558  15.931 -20.508  0.00  0.00    -0.170 OA
ATOM      3  C02 KKP d   1     -29.110  16.613 -21.597  0.00  0.00     0.204 A 
ATOM      4  C03 KKP d   1     -29.262  17.974 -21.562  0.00  0.00    -0.000 A 
ATOM      5  C04 KKP d   1     -29.794  18.628 -22.658  0.00  0.00     0.073 A 
ATOM      6  N11 KKP d   1     -30.055  17.947 -23.765  0.00  0.00    -0.227 NA
ATOM      7  C12 KKP d   1     -29.888  16.589 -23.797  0.00  0.00     0.169 A 
ATOM      8  C18 KKP d   1     -29.805  14.430 -24.334  0.00  0.00     0.013 A 
ATOM      9  N20 KKP d   1     -29.433  15.937 -22.729  0.00  0.00    -0.212 N 
ATOM     10  N19 KKP d   1     -29.367  14.593 -23.028  0.00  0.00    -0.300 N 
ATOM     11  H2  KKP d   1     -28.966  18.537 -20.678  0.00  0.00     0.094 H 
ATOM     12  H11 KKP d   1     -29.884  13.487 -24.873  0.00  0.00     0.115 H 
ATOM     13  H12 KKP d   1     -29.050  13.845 -22.395  0.00  0.00     0.186 HD
ENDROOT
BRANCH   5  14
ATOM     14  C05 KKP d   1     -29.948  20.130 -22.735  0.00  0.00    -0.007 A 
ATOM     15  C10 KKP d   1     -30.067  20.703 -23.997  0.00  0.00    -0.071 A 
ATOM     16  C09 KKP d   1     -30.145  22.072 -24.102  0.00  0.00    -0.082 A 
ATOM     17  H1  KKP d   1     -30.098  20.080 -24.884  0.00  0.00     0.084 H 
ATOM     18  C08 KKP d   1     -30.100  22.836 -22.938  0.00  0.00    -0.083 A 
ATOM     19  H6  KKP d   1     -30.240  22.547 -25.072  0.00  0.00     0.083 H 
ATOM     20  C07 KKP d   1     -30.033  22.280 -21.691  0.00  0.00    -0.082 A 
ATOM     21  H5  KKP d   1     -30.119  23.916 -23.025  0.00  0.00     0.083 H 
ATOM     22  C06 KKP d   1     -29.902  20.914 -21.589  0.00  0.00    -0.071 A 
ATOM     23  H4  KKP d   1     -30.082  22.901 -20.803  0.00  0.00     0.083 H 
ATOM     24  H3  KKP d   1     -29.764  20.451 -20.618  0.00  0.00     0.084 H 
ENDBRANCH   5  14
BRANCH   1  25
ATOM     25  C14 KKP d   1     -30.709  16.028 -26.179  0.00  0.00     0.256 C 
ATOM     26  N15 KKP d   1     -31.356  17.322 -26.361  0.00  0.00    -0.361 N 
ATOM     27  H7  KKP d   1     -31.397  17.974 -25.604  0.00  0.00     0.162 HD
ATOM     28  O17 KKP d   1     -30.661  15.224 -27.052  0.00  0.00    -0.267 OA
BRANCH  26  29
ATOM     29  C16 KKP d   1     -31.935  17.657 -27.635  0.00  0.00    -0.018 C 
ATOM     30  H8  KKP d   1     -32.374  18.664 -27.585  0.00  0.00     0.056 H 
ATOM     31  H9  KKP d   1     -32.719  16.927 -27.885  0.00  0.00     0.056 H 
ATOM     32  H10 KKP d   1     -31.154  17.636 -28.410  0.00  0.00     0.056 H 
ENDBRANCH  26  29
ENDBRANCH   1  25
TORSDOF 3
