REMARK  10 active torsions:
REMARK  status: ('A' for Active; 'I' for Inactive)
REMARK    1  A    between atoms: S2_16  and  C1_1 
REMARK    2  A    between atoms: C6_2  and  N5_19 
REMARK    3  A    between atoms: C16_7  and  C17_8 
REMARK    4  A    between atoms: N15_24  and  C16_7 
REMARK    5  A    between atoms: C18_9  and  C19_10 
REMARK    6  A    between atoms: C23_12  and  C24_13 
REMARK    7  A    between atoms: C27_14  and  O28_15 
REMARK    8  A    between atoms: O28_15  and  C29_29 
REMARK    9  A    between atoms: N5_19  and  S2_16 
REMARK   10  A    between atoms: C14_23  and  N15_24 
ROOT
ATOM      1  C6  KLP d   1     -19.912  -6.096 -20.821  0.00  0.00     0.076 A 
ATOM      2  C7  KLP d   1     -19.697  -6.102 -19.428  0.00  0.00    -0.047 A 
ATOM      3  C8  KLP d   1     -18.455  -5.778 -18.908  0.00  0.00    -0.039 A 
ATOM      4  C11 KLP d   1     -16.215  -5.137 -18.988  0.00  0.00     0.098 A 
ATOM      5  N13 KLP d   1     -14.360  -4.602 -17.877  0.00  0.00    -0.262 N 
ATOM      6  C27 KLP d   1     -18.859  -5.739 -21.682  0.00  0.00     0.096 A 
ATOM      7  C9  KLP d   1     -17.894  -5.693 -17.507  0.00  0.00    -0.010 A 
ATOM      8  C10 KLP d   1     -16.454  -5.249 -17.664  0.00  0.00     0.022 A 
ATOM      9  N12 KLP d   1     -14.939  -4.731 -19.132  0.00  0.00    -0.172 NA
ATOM     10  C14 KLP d   1     -15.262  -4.910 -16.994  0.00  0.00     0.126 A 
ATOM     11  C25 KLP d   1     -17.409  -5.452 -19.772  0.00  0.00     0.004 A 
ATOM     12  C26 KLP d   1     -17.614  -5.427 -21.153  0.00  0.00    -0.036 A 
ATOM     13  H4  KLP d   1     -20.509  -6.362 -18.759  0.00  0.00     0.088 H 
ATOM     14  H5  KLP d   1     -13.391  -4.314 -17.681  0.00  0.00     0.191 HD
ATOM     15  H16 KLP d   1     -17.940  -6.676 -17.016  0.00  0.00     0.047 H 
ATOM     16  H17 KLP d   1     -18.458  -4.959 -16.913  0.00  0.00     0.047 H 
ATOM     17  H21 KLP d   1     -16.797  -5.163 -21.815  0.00  0.00     0.089 H 
ENDROOT
BRANCH  10  18
ATOM     18  N15 KLP d   1     -15.036  -4.881 -15.620  0.00  0.00    -0.370 N 
ATOM     19  H18 KLP d   1     -14.079  -4.861 -15.240  0.00  0.00     0.161 HD
BRANCH  18  20
ATOM     20  C16 KLP d   1     -16.200  -4.880 -14.733  0.00  0.00     0.019 C 
ATOM     21  H6  KLP d   1     -16.896  -4.087 -15.044  0.00  0.00     0.071 H 
ATOM     22  H7  KLP d   1     -16.706  -5.855 -14.793  0.00  0.00     0.071 H 
BRANCH  20  23
ATOM     23  C17 KLP d   1     -15.759  -4.631 -13.314  0.00  0.00    -0.029 A 
ATOM     24  C18 KLP d   1     -15.598  -3.319 -12.853  0.00  0.00    -0.054 A 
ATOM     25  C20 KLP d   1     -15.202  -3.092 -11.548  0.00  0.00    -0.077 A 
ATOM     26  C21 KLP d   1     -14.954  -4.152 -10.691  0.00  0.00    -0.082 A 
ATOM     27  H19 KLP d   1     -15.084  -2.075 -11.192  0.00  0.00     0.084 H 
ATOM     28  C22 KLP d   1     -15.108  -5.447 -11.153  0.00  0.00    -0.077 A 
ATOM     29  H11 KLP d   1     -14.643  -3.969  -9.669  0.00  0.00     0.083 H 
ATOM     30  C23 KLP d   1     -15.507  -5.703 -12.453  0.00  0.00    -0.054 A 
ATOM     31  H20 KLP d   1     -14.912  -6.277 -10.484  0.00  0.00     0.084 H 
BRANCH  24  32
ATOM     32  C19 KLP d   1     -15.847  -2.103 -13.716  0.00  0.00    -0.051 C 
ATOM     33  H8  KLP d   1     -15.653  -1.192 -13.131  0.00  0.00     0.033 H 
ATOM     34  H9  KLP d   1     -16.892  -2.104 -14.058  0.00  0.00     0.033 H 
ATOM     35  H10 KLP d   1     -15.176  -2.128 -14.588  0.00  0.00     0.033 H 
ENDBRANCH  24  32
BRANCH  30  36
ATOM     36  C24 KLP d   1     -15.650  -7.149 -12.869  0.00  0.00    -0.051 C 
ATOM     37  H12 KLP d   1     -15.397  -7.801 -12.020  0.00  0.00     0.033 H 
ATOM     38  H13 KLP d   1     -14.970  -7.358 -13.708  0.00  0.00     0.033 H 
ATOM     39  H14 KLP d   1     -16.687  -7.340 -13.182  0.00  0.00     0.033 H 
ENDBRANCH  30  36
ENDBRANCH  20  23
ENDBRANCH  18  20
ENDBRANCH  10  18
BRANCH   6  40
ATOM     40  O28 KLP d   1     -19.028  -5.737 -23.038  0.00  0.00    -0.354 OA
BRANCH  40  41
ATOM     41  C29 KLP d   1     -18.635  -4.584 -23.792  0.00  0.00     0.010 C 
ATOM     42  H22 KLP d   1     -18.841  -4.756 -24.859  0.00  0.00     0.066 H 
ATOM     43  H23 KLP d   1     -17.559  -4.403 -23.651  0.00  0.00     0.066 H 
ATOM     44  H24 KLP d   1     -19.203  -3.708 -23.445  0.00  0.00     0.066 H 
ENDBRANCH  40  41
ENDBRANCH   6  40
BRANCH   1  45
ATOM     45  N5  KLP d   1     -21.163  -6.409 -21.379  0.00  0.00    -0.282 N 
ATOM     46  H15 KLP d   1     -21.505  -5.839 -22.127  0.00  0.00     0.178 HD
BRANCH  45  47
ATOM     47  S2  KLP d   1     -22.103  -7.676 -20.861  0.00  0.00     0.227 S 
ATOM     48  O3  KLP d   1     -21.189  -8.696 -20.475  0.00  0.00    -0.206 OA
ATOM     49  O4  KLP d   1     -23.006  -7.885 -21.937  0.00  0.00    -0.206 OA
BRANCH  47  50
ATOM     50  C1  KLP d   1     -23.015  -7.040 -19.429  0.00  0.00     0.033 C 
ATOM     51  H1  KLP d   1     -22.318  -6.877 -18.593  0.00  0.00     0.051 H 
ATOM     52  H2  KLP d   1     -23.782  -7.769 -19.130  0.00  0.00     0.051 H 
ATOM     53  H3  KLP d   1     -23.498  -6.088 -19.695  0.00  0.00     0.051 H 
ENDBRANCH  47  50
ENDBRANCH  45  47
ENDBRANCH   1  45
TORSDOF 10
