REMARK  5 active torsions:
REMARK  status: ('A' for Active; 'I' for Inactive)
REMARK    1  A    between atoms: C2_2  and  C15_15 
REMARK    2  A    between atoms: O1_18  and  C3_3 
REMARK    3  A    between atoms: C8_8  and  C9_9 
REMARK    4  A    between atoms: C8_8  and  O1_18 
REMARK    5  A    between atoms: N1_17  and  C16_16 
ROOT
ATOM      1  C1  BCG d   1      74.049  44.778  86.243  0.00  0.00     0.119 C 
ATOM      2  C2  BCG d   1      74.086  46.280  85.998  0.00  0.00     0.083 C 
ATOM      3  C3  BCG d   1      73.292  46.634  84.737  0.00  0.00     0.065 C 
ATOM      4  C4  BCG d   1      73.652  45.689  83.600  0.00  0.00    -0.013 C 
ATOM      5  C5  BCG d   1      73.649  44.235  84.063  0.00  0.00     0.106 C 
ATOM      6  C6  BCG d   1      72.347  43.840  84.789  0.00  0.00    -0.036 C 
ATOM      7  C7  BCG d   1      72.651  44.110  86.282  0.00  0.00    -0.035 C 
ATOM      8  N1  BCG d   1      74.685  44.095  85.101  0.00  0.00    -0.065 N 
ATOM      9  H1  BCG d   1      74.584  44.568  87.181  0.00  0.00     0.086 H 
ATOM     10  H2  BCG d   1      73.596  46.774  86.850  0.00  0.00     0.064 H 
ATOM     11  H3  BCG d   1      72.218  46.539  84.954  0.00  0.00     0.085 H 
ATOM     12  H4  BCG d   1      74.655  45.944  83.227  0.00  0.00     0.040 H 
ATOM     13  H5  BCG d   1      72.918  45.808  82.790  0.00  0.00     0.040 H 
ATOM     14  H6  BCG d   1      73.835  43.569  83.208  0.00  0.00     0.084 H 
ATOM     15  H7  BCG d   1      72.115  42.778  84.624  0.00  0.00     0.036 H 
ATOM     16  H8  BCG d   1      71.505  44.458  84.444  0.00  0.00     0.036 H 
ATOM     17  H9  BCG d   1      71.903  44.786  86.721  0.00  0.00     0.036 H 
ATOM     18  H10 BCG d   1      72.678  43.172  86.855  0.00  0.00     0.036 H 
ATOM     19  H19 BCG d   1      75.538  44.556  84.826  0.00  0.00     0.280 HD
ENDROOT
BRANCH   3  20
ATOM     20  O1  BCG d   1      73.575  47.995  84.345  0.00  0.00    -0.311 OA
BRANCH  20  21
ATOM     21  C8  BCG d   1      72.943  48.979  85.010  0.00  0.00     0.293 C 
ATOM     22  O2  BCG d   1      72.228  48.794  85.961  0.00  0.00    -0.259 OA
BRANCH  21  23
ATOM     23  C9  BCG d   1      73.206  50.310  84.410  0.00  0.00     0.039 A 
ATOM     24  C10 BCG d   1      72.697  51.459  84.998  0.00  0.00    -0.067 A 
ATOM     25  C11 BCG d   1      72.949  52.698  84.435  0.00  0.00    -0.082 A 
ATOM     26  H11 BCG d   1      72.101  51.386  85.900  0.00  0.00     0.085 H 
ATOM     27  C12 BCG d   1      73.702  52.797  83.287  0.00  0.00    -0.083 A 
ATOM     28  H12 BCG d   1      72.552  53.593  84.900  0.00  0.00     0.083 H 
ATOM     29  C13 BCG d   1      74.208  51.662  82.695  0.00  0.00    -0.082 A 
ATOM     30  H13 BCG d   1      73.897  53.769  82.849  0.00  0.00     0.083 H 
ATOM     31  C14 BCG d   1      73.961  50.419  83.252  0.00  0.00    -0.067 A 
ATOM     32  H14 BCG d   1      74.801  51.742  81.791  0.00  0.00     0.083 H 
ATOM     33  H15 BCG d   1      74.359  49.528  82.781  0.00  0.00     0.085 H 
ENDBRANCH  21  23
ENDBRANCH  20  21
ENDBRANCH   3  20
BRANCH   2  34
ATOM     34  C15 BCG d   1      75.524  46.784  85.940  0.00  0.00     0.181 C 
ATOM     35  O3  BCG d   1      75.786  47.808  86.521  0.00  0.00    -0.648 OA
ATOM     36  O4  BCG d   1      76.350  46.137  85.341  0.00  0.00    -0.648 OA
ENDBRANCH   2  34
BRANCH   8  37
ATOM     37  C16 BCG d   1      74.976  42.694  85.419  0.00  0.00     0.067 C 
ATOM     38  H16 BCG d   1      75.753  42.648  86.196  0.00  0.00     0.068 H 
ATOM     39  H17 BCG d   1      75.332  42.179  84.514  0.00  0.00     0.068 H 
ATOM     40  H18 BCG d   1      74.062  42.203  85.785  0.00  0.00     0.068 H 
ENDBRANCH   8  37
TORSDOF 5
