REMARK  6 active torsions:
REMARK  status: ('A' for Active; 'I' for Inactive)
REMARK    1  A    between atoms: C14_16  and  C13_2 
REMARK    2  A    between atoms: C16_18  and  C17_3 
REMARK    3  A    between atoms: C17_3  and  O18_19 
REMARK    4  A    between atoms: C04_8  and  C05_9 
REMARK       I    between atoms: N15_17  and  C14_16 
REMARK    5  A    between atoms: N15_17  and  C16_18 
REMARK    6  A    between atoms: C16_18  and  C19_20 
ROOT
ATOM      1  C13 KKM d   1     -29.398  15.602 -24.164  0.00  0.00     0.096 A 
ATOM      2  C21 KKM d   1     -29.220  14.291 -23.807  0.00  0.00     0.013 A 
ATOM      3  O01 KKM d   1     -28.212  15.178 -19.764  0.00  0.00    -0.170 OA
ATOM      4  C02 KKM d   1     -28.590  16.059 -20.775  0.00  0.00     0.204 A 
ATOM      5  C03 KKM d   1     -28.602  17.408 -20.557  0.00  0.00    -0.000 A 
ATOM      6  C04 KKM d   1     -28.908  18.260 -21.611  0.00  0.00     0.073 A 
ATOM      7  N11 KKM d   1     -29.221  17.742 -22.799  0.00  0.00    -0.227 NA
ATOM      8  C12 KKM d   1     -29.193  16.381 -23.009  0.00  0.00     0.169 A 
ATOM      9  N23 KKM d   1     -28.910  15.564 -21.994  0.00  0.00    -0.212 N 
ATOM     10  N22 KKM d   1     -28.900  14.264 -22.456  0.00  0.00    -0.300 N 
ATOM     11  H4  KKM d   1     -29.313  13.427 -24.464  0.00  0.00     0.115 H 
ATOM     12  H5  KKM d   1     -28.375  17.810 -19.571  0.00  0.00     0.094 H 
ATOM     13  H16 KKM d   1     -28.692  13.423 -21.898  0.00  0.00     0.186 HD
ENDROOT
BRANCH   1  14
ATOM     14  C14 KKM d   1     -29.835  16.130 -25.525  0.00  0.00     0.257 C 
ATOM     15  N15 KKM d   1     -29.859  17.561 -25.776  0.00  0.00    -0.350 N 
ATOM     16  H10 KKM d   1     -29.567  18.187 -25.052  0.00  0.00     0.163 HD
ATOM     17  O20 KKM d   1     -30.172  15.363 -26.356  0.00  0.00    -0.267 OA
BRANCH  15  18
ATOM     18  C16 KKM d   1     -30.293  18.105 -27.044  0.00  0.00     0.029 C 
ATOM     19  H11 KKM d   1     -30.069  17.385 -27.845  0.00  0.00     0.075 H 
BRANCH  18  20
ATOM     20  C17 KKM d   1     -29.502  19.393 -27.325  0.00  0.00     0.035 C 
ATOM     21  H2  KKM d   1     -29.652  19.683 -28.375  0.00  0.00     0.077 H 
ATOM     22  H3  KKM d   1     -28.433  19.203 -27.146  0.00  0.00     0.077 H 
BRANCH  20  23
ATOM     23  O18 KKM d   1     -29.925  20.450 -26.492  0.00  0.00    -0.399 OA
ATOM     24  H12 KKM d   1     -29.419  21.229 -26.689  0.00  0.00     0.209 HD
ENDBRANCH  20  23
ENDBRANCH  18  20
BRANCH  18  25
ATOM     25  C19 KKM d   1     -31.822  18.299 -26.986  0.00  0.00    -0.055 C 
ATOM     26  H13 KKM d   1     -32.307  17.333 -26.782  0.00  0.00     0.030 H 
ATOM     27  H14 KKM d   1     -32.179  18.692 -27.950  0.00  0.00     0.030 H 
ATOM     28  H15 KKM d   1     -32.071  19.011 -26.185  0.00  0.00     0.030 H 
ENDBRANCH  18  25
ENDBRANCH  15  18
ENDBRANCH   1  14
BRANCH   6  29
ATOM     29  C05 KKM d   1     -29.006  19.778 -21.482  0.00  0.00    -0.007 A 
ATOM     30  C10 KKM d   1     -28.519  20.458 -20.370  0.00  0.00    -0.071 A 
ATOM     31  C09 KKM d   1     -28.655  21.851 -20.307  0.00  0.00    -0.082 A 
ATOM     32  H1  KKM d   1     -28.040  19.916 -19.562  0.00  0.00     0.084 H 
ATOM     33  C08 KKM d   1     -29.279  22.563 -21.329  0.00  0.00    -0.083 A 
ATOM     34  H9  KKM d   1     -28.267  22.385 -19.447  0.00  0.00     0.083 H 
ATOM     35  C07 KKM d   1     -29.712  21.892 -22.460  0.00  0.00    -0.082 A 
ATOM     36  H8  KKM d   1     -29.424  23.634 -21.239  0.00  0.00     0.083 H 
ATOM     37  C06 KKM d   1     -29.570  20.508 -22.536  0.00  0.00    -0.071 A 
ATOM     38  H7  KKM d   1     -30.159  22.440 -23.282  0.00  0.00     0.083 H 
ATOM     39  H6  KKM d   1     -29.902  19.987 -23.427  0.00  0.00     0.084 H 
ENDBRANCH   6  29
TORSDOF 6
