REMARK  11 active torsions:
REMARK  status: ('A' for Active; 'I' for Inactive)
REMARK    1  A    between atoms: C14_13  and  C4_1 
REMARK    2  A    between atoms: C13_5  and  C3_11 
REMARK    3  A    between atoms: C19_16  and  C22_10 
REMARK       I    between atoms: C22_10  and  N25_19 
REMARK    4  A    between atoms: C18_15  and  C12_12 
REMARK    5  A    between atoms: N25_19  and  C37_23 
REMARK    6  A    between atoms: C37_23  and  C38_24 
REMARK    7  A    between atoms: C38_24  and  N4_25 
REMARK    8  A    between atoms: N4_25  and  C39_26 
REMARK    9  A    between atoms: N4_25  and  C40_27 
REMARK   10  A    between atoms: C39_26  and  C42_29 
REMARK   11  A    between atoms: C40_27  and  C41_28 
ROOT
ATOM      1  C13 B49 d   1     184.562 225.604 156.859  0.00  0.00    -0.018 A 
ATOM      2  C14 B49 d   1     184.330 223.845 155.464  0.00  0.00     0.022 A 
ATOM      3  C18 B49 d   1     184.300 226.065 155.569  0.00  0.00     0.040 A 
ATOM      4  C19 B49 d   1     184.586 224.192 156.806  0.00  0.00     0.062 A 
ATOM      5  N23 B49 d   1     184.161 224.976 154.744  0.00  0.00    -0.359 N 
ATOM      6  H11 B49 d   1     183.959 225.015 153.735  0.00  0.00     0.166 HD
ENDROOT
BRANCH   4   7
ATOM      7  C22 B49 d   1     184.834 223.235 158.000  0.00  0.00     0.254 C 
ATOM      8  N25 B49 d   1     185.168 221.843 157.777  0.00  0.00    -0.355 N 
ATOM      9  H13 B49 d   1     185.247 221.496 156.842  0.00  0.00     0.162 HD
ATOM     10  O28 B49 d   1     184.735 223.661 159.135  0.00  0.00    -0.268 OA
BRANCH   8  11
ATOM     11  C37 B49 d   1     185.391 220.941 158.903  0.00  0.00     0.018 C 
ATOM     12  H14 B49 d   1     185.902 220.037 158.540  0.00  0.00     0.066 H 
ATOM     13  H15 B49 d   1     184.418 220.663 159.336  0.00  0.00     0.066 H 
BRANCH  11  14
ATOM     14  C38 B49 d   1     186.255 221.599 159.997  0.00  0.00     0.098 C 
ATOM     15  H16 B49 d   1     185.634 221.792 160.884  0.00  0.00     0.078 H 
ATOM     16  H17 B49 d   1     186.660 222.549 159.619  0.00  0.00     0.078 H 
BRANCH  14  17
ATOM     17  N4  B49 d   1     187.367 220.708 160.366  0.00  0.00    -0.070 N 
ATOM     18  H18 B49 d   1     186.995 219.813 160.642  0.00  0.00     0.279 HD
BRANCH  17  19
ATOM     19  C39 B49 d   1     188.256 220.525 159.224  0.00  0.00     0.080 C 
ATOM     20  H19 B49 d   1     188.945 221.380 159.162  0.00  0.00     0.075 H 
ATOM     21  H20 B49 d   1     187.656 220.471 158.304  0.00  0.00     0.075 H 
BRANCH  19  22
ATOM     22  C42 B49 d   1     189.072 219.227 159.373  0.00  0.00    -0.053 C 
ATOM     23  H26 B49 d   1     189.734 219.108 158.503  0.00  0.00     0.029 H 
ATOM     24  H27 B49 d   1     188.387 218.368 159.432  0.00  0.00     0.029 H 
ATOM     25  H28 B49 d   1     189.677 219.277 160.290  0.00  0.00     0.029 H 
ENDBRANCH  19  22
ENDBRANCH  17  19
BRANCH  17  26
ATOM     26  C40 B49 d   1     188.106 221.281 161.477  0.00  0.00     0.080 C 
ATOM     27  H21 B49 d   1     188.503 222.262 161.176  0.00  0.00     0.075 H 
ATOM     28  H22 B49 d   1     188.940 220.612 161.736  0.00  0.00     0.075 H 
BRANCH  26  29
ATOM     29  C41 B49 d   1     187.206 221.462 162.711  0.00  0.00    -0.053 C 
ATOM     30  H23 B49 d   1     187.794 221.897 163.533  0.00  0.00     0.029 H 
ATOM     31  H24 B49 d   1     186.809 220.484 163.022  0.00  0.00     0.029 H 
ATOM     32  H25 B49 d   1     186.372 222.134 162.461  0.00  0.00     0.029 H 
ENDBRANCH  26  29
ENDBRANCH  17  26
ENDBRANCH  14  17
ENDBRANCH  11  14
ENDBRANCH   8  11
ENDBRANCH   4   7
BRANCH   1  33
ATOM     33  C3  B49 d   1     184.783 226.465 158.089  0.00  0.00    -0.048 C 
ATOM     34  H7  B49 d   1     184.703 227.527 157.813  0.00  0.00     0.033 H 
ATOM     35  H8  B49 d   1     185.784 226.268 158.500  0.00  0.00     0.033 H 
ATOM     36  H9  B49 d   1     184.022 226.225 158.846  0.00  0.00     0.033 H 
ENDBRANCH   1  33
BRANCH   2  37
ATOM     37  C4  B49 d   1     184.250 222.412 154.889  0.00  0.00    -0.036 C 
ATOM     38  H1  B49 d   1     184.037 222.461 153.811  0.00  0.00     0.035 H 
ATOM     39  H2  B49 d   1     183.447 221.857 155.397  0.00  0.00     0.035 H 
ATOM     40  H3  B49 d   1     185.209 221.898 155.050  0.00  0.00     0.035 H 
ENDBRANCH   2  37
BRANCH   3  41
ATOM     41  C12 B49 d   1     184.188 227.553 155.183  0.00  0.00    -0.041 C 
ATOM     42  C20 B49 d   1     184.154 227.975 153.907  0.00  0.00     0.047 A 
ATOM     43  C17 B49 d   1     184.074 229.413 153.500  0.00  0.00     0.009 A 
ATOM     44  C21 B49 d   1     184.175 227.177 152.695  0.00  0.00     0.257 A 
ATOM     45  C7  B49 d   1     184.026 230.613 154.266  0.00  0.00    -0.033 A 
ATOM     46  C16 B49 d   1     184.052 229.475 152.100  0.00  0.00     0.046 A 
ATOM     47  C15 B49 d   1     183.954 231.863 153.617  0.00  0.00     0.117 A 
ATOM     48  H6  B49 d   1     184.045 230.565 155.349  0.00  0.00     0.089 H 
ATOM     49  C5  B49 d   1     183.931 231.926 152.209  0.00  0.00    -0.043 A 
ATOM     50  F29 B49 d   1     183.908 232.994 154.336  0.00  0.00    -0.206 F 
ATOM     51  C6  B49 d   1     183.980 230.734 151.446  0.00  0.00    -0.053 A 
ATOM     52  H4  B49 d   1     183.876 232.887 151.710  0.00  0.00     0.088 H 
ATOM     53  H5  B49 d   1     183.963 230.782 150.363  0.00  0.00     0.087 H 
ATOM     54  N24 B49 d   1     184.114 228.071 151.573  0.00  0.00    -0.322 N 
ATOM     55  H12 B49 d   1     184.113 227.805 150.609  0.00  0.00     0.169 HD
ATOM     56  O27 B49 d   1     184.235 225.966 152.621  0.00  0.00    -0.267 OA
ATOM     57  H10 B49 d   1     184.134 228.295 155.978  0.00  0.00     0.088 H 
ENDBRANCH   3  41
TORSDOF 11
