REMARK  11 active torsions:
REMARK  status: ('A' for Active; 'I' for Inactive)
REMARK    1  A    between atoms: C14_13  and  C4_1 
REMARK    2  A    between atoms: C13_5  and  C3_11 
REMARK    3  A    between atoms: C19_16  and  C22_10 
REMARK       I    between atoms: C22_10  and  N25_19 
REMARK    4  A    between atoms: C18_15  and  C12_12 
REMARK    5  A    between atoms: N25_19  and  C37_23 
REMARK    6  A    between atoms: C37_23  and  C38_24 
REMARK    7  A    between atoms: C38_24  and  N4_25 
REMARK    8  A    between atoms: N4_25  and  C39_26 
REMARK    9  A    between atoms: N4_25  and  C40_27 
REMARK   10  A    between atoms: C39_26  and  C42_29 
REMARK   11  A    between atoms: C40_27  and  C41_28 
ROOT
ATOM      1  C13 B49 d   1     -33.517 -83.156 -21.356  0.00  0.00    -0.018 A 
ATOM      2  C14 B49 d   1     -32.434 -84.753 -20.138  0.00  0.00     0.022 A 
ATOM      3  C18 B49 d   1     -32.570 -83.799 -22.177  0.00  0.00     0.040 A 
ATOM      4  C19 B49 d   1     -33.420 -83.772 -20.067  0.00  0.00     0.062 A 
ATOM      5  N23 B49 d   1     -31.936 -84.752 -21.414  0.00  0.00    -0.359 N 
ATOM      6  H11 B49 d   1     -31.191 -85.377 -21.754  0.00  0.00     0.166 HD
ENDROOT
BRANCH   4   7
ATOM      7  C22 B49 d   1     -34.174 -83.491 -18.805  0.00  0.00     0.254 C 
ATOM      8  N25 B49 d   1     -34.581 -82.242 -18.569  0.00  0.00    -0.355 N 
ATOM      9  H13 B49 d   1     -34.565 -81.576 -19.315  0.00  0.00     0.162 HD
ATOM     10  O28 B49 d   1     -34.355 -84.385 -17.975  0.00  0.00    -0.268 OA
BRANCH   8  11
ATOM     11  C37 B49 d   1     -35.049 -81.821 -17.252  0.00  0.00     0.018 C 
ATOM     12  H14 B49 d   1     -34.353 -81.066 -16.858  0.00  0.00     0.066 H 
ATOM     13  H15 B49 d   1     -35.056 -82.696 -16.586  0.00  0.00     0.066 H 
BRANCH  11  14
ATOM     14  C38 B49 d   1     -36.454 -81.221 -17.281  0.00  0.00     0.098 C 
ATOM     15  H16 B49 d   1     -36.513 -80.533 -18.137  0.00  0.00     0.078 H 
ATOM     16  H17 B49 d   1     -36.604 -80.659 -16.347  0.00  0.00     0.078 H 
BRANCH  14  17
ATOM     17  N4  B49 d   1     -37.552 -82.202 -17.406  0.00  0.00    -0.070 N 
ATOM     18  H18 B49 d   1     -37.487 -82.606 -18.327  0.00  0.00     0.279 HD
BRANCH  17  19
ATOM     19  C39 B49 d   1     -38.857 -81.505 -17.282  0.00  0.00     0.080 C 
ATOM     20  H19 B49 d   1     -38.715 -80.633 -16.627  0.00  0.00     0.075 H 
ATOM     21  H20 B49 d   1     -39.570 -82.201 -16.817  0.00  0.00     0.075 H 
BRANCH  19  22
ATOM     22  C42 B49 d   1     -39.462 -81.017 -18.584  0.00  0.00    -0.053 C 
ATOM     23  H26 B49 d   1     -40.421 -80.519 -18.379  0.00  0.00     0.029 H 
ATOM     24  H27 B49 d   1     -39.630 -81.873 -19.254  0.00  0.00     0.029 H 
ATOM     25  H28 B49 d   1     -38.774 -80.305 -19.064  0.00  0.00     0.029 H 
ENDBRANCH  19  22
ENDBRANCH  17  19
BRANCH  17  26
ATOM     26  C40 B49 d   1     -37.536 -83.319 -16.426  0.00  0.00     0.080 C 
ATOM     27  H21 B49 d   1     -38.378 -83.178 -15.732  0.00  0.00     0.075 H 
ATOM     28  H22 B49 d   1     -36.589 -83.272 -15.868  0.00  0.00     0.075 H 
BRANCH  26  29
ATOM     29  C41 B49 d   1     -37.655 -84.697 -17.039  0.00  0.00    -0.053 C 
ATOM     30  H23 B49 d   1     -37.634 -85.456 -16.243  0.00  0.00     0.029 H 
ATOM     31  H24 B49 d   1     -36.814 -84.866 -17.728  0.00  0.00     0.029 H 
ATOM     32  H25 B49 d   1     -38.603 -84.772 -17.592  0.00  0.00     0.029 H 
ENDBRANCH  26  29
ENDBRANCH  17  26
ENDBRANCH  14  17
ENDBRANCH  11  14
ENDBRANCH   8  11
ENDBRANCH   4   7
BRANCH   1  33
ATOM     33  C3  B49 d   1     -34.463 -82.066 -21.772  0.00  0.00    -0.048 C 
ATOM     34  H7  B49 d   1     -34.287 -81.811 -22.827  0.00  0.00     0.033 H 
ATOM     35  H8  B49 d   1     -34.295 -81.177 -21.147  0.00  0.00     0.033 H 
ATOM     36  H9  B49 d   1     -35.499 -82.412 -21.647  0.00  0.00     0.033 H 
ENDBRANCH   1  33
BRANCH   2  37
ATOM     37  C4  B49 d   1     -31.899 -85.702 -19.114  0.00  0.00    -0.036 C 
ATOM     38  H1  B49 d   1     -31.115 -86.326 -19.567  0.00  0.00     0.035 H 
ATOM     39  H2  B49 d   1     -32.714 -86.344 -18.748  0.00  0.00     0.035 H 
ATOM     40  H3  B49 d   1     -31.475 -85.133 -18.273  0.00  0.00     0.035 H 
ENDBRANCH   2  37
BRANCH   3  41
ATOM     41  C12 B49 d   1     -32.286 -83.583 -23.545  0.00  0.00    -0.041 C 
ATOM     42  C20 B49 d   1     -31.434 -84.116 -24.463  0.00  0.00     0.047 A 
ATOM     43  C17 B49 d   1     -31.334 -83.699 -25.853  0.00  0.00     0.009 A 
ATOM     44  C21 B49 d   1     -30.424 -85.218 -24.304  0.00  0.00     0.257 A 
ATOM     45  C7  B49 d   1     -31.975 -82.727 -26.626  0.00  0.00    -0.033 A 
ATOM     46  C16 B49 d   1     -30.325 -84.485 -26.447  0.00  0.00     0.046 A 
ATOM     47  C15 B49 d   1     -31.565 -82.569 -27.933  0.00  0.00     0.117 A 
ATOM     48  H6  B49 d   1     -32.769 -82.117 -26.211  0.00  0.00     0.089 H 
ATOM     49  C5  B49 d   1     -30.573 -83.322 -28.527  0.00  0.00    -0.043 A 
ATOM     50  F29 B49 d   1     -32.157 -81.590 -28.664  0.00  0.00    -0.206 F 
ATOM     51  C6  B49 d   1     -29.937 -84.298 -27.773  0.00  0.00    -0.053 A 
ATOM     52  H4  B49 d   1     -30.296 -83.154 -29.562  0.00  0.00     0.088 H 
ATOM     53  H5  B49 d   1     -29.151 -84.905 -28.208  0.00  0.00     0.087 H 
ATOM     54  N24 B49 d   1     -29.818 -85.370 -25.505  0.00  0.00    -0.322 N 
ATOM     55  H12 B49 d   1     -29.096 -86.036 -25.690  0.00  0.00     0.169 HD
ATOM     56  O27 B49 d   1     -30.200 -85.892 -23.292  0.00  0.00    -0.267 OA
ATOM     57  H10 B49 d   1     -32.903 -82.793 -23.971  0.00  0.00     0.088 H 
ENDBRANCH   3  41
TORSDOF 11
