REMARK  12 active torsions:
REMARK  status: ('A' for Active; 'I' for Inactive)
REMARK    1  A    between atoms: C3_3  and  N5_38 
REMARK    2  A    between atoms: C6_10  and  C5_8 
REMARK    3  A    between atoms: C12_16  and  C11_15 
REMARK    4  A    between atoms: C13_18  and  C12_16 
REMARK    5  A    between atoms: C14_19  and  C13_18 
REMARK    6  A    between atoms: C15_20  and  C14_19 
REMARK    7  A    between atoms: O4_26  and  C20_25 
REMARK    8  A    between atoms: C21_27  and  O4_26 
REMARK    9  A    between atoms: C22_28  and  C21_27 
REMARK   10  A    between atoms: C23_30  and  O6_31 
REMARK   11  A    between atoms: C24_32  and  O7_33 
REMARK   12  A    between atoms: C25_34  and  N3_35 
ROOT
ATOM      1  C15 KOY d   1      12.943 -15.275  -2.490  0.00  0.00    -0.055 A 
ATOM      2  C16 KOY d   1      13.097 -16.572  -2.990  0.00  0.00    -0.045 A 
ATOM      3  C17 KOY d   1      12.999 -15.109  -1.093  0.00  0.00    -0.077 A 
ATOM      4  C18 KOY d   1      13.122 -16.195  -0.268  0.00  0.00    -0.080 A 
ATOM      5  C19 KOY d   1      13.274 -17.475  -0.788  0.00  0.00    -0.051 A 
ATOM      6  C20 KOY d   1      13.263 -17.686  -2.163  0.00  0.00     0.069 A 
ATOM      7  H10 KOY d   1      13.087 -16.719  -4.064  0.00  0.00     0.088 H 
ATOM      8  H11 KOY d   1      12.944 -14.114  -0.667  0.00  0.00     0.084 H 
ATOM      9  H12 KOY d   1      13.101 -16.054   0.807  0.00  0.00     0.083 H 
ATOM     10  H13 KOY d   1      13.402 -18.316  -0.116  0.00  0.00     0.087 H 
ENDROOT
BRANCH   6  11
ATOM     11  O4  KOY d   1      13.436 -18.934  -2.753  0.00  0.00    -0.349 OA
BRANCH  11  12
ATOM     12  C21 KOY d   1      14.399 -19.775  -2.079  0.00  0.00     0.052 C 
ATOM     13  H14 KOY d   1      14.024 -19.996  -1.069  0.00  0.00     0.079 H 
ATOM     14  H15 KOY d   1      15.351 -19.228  -2.006  0.00  0.00     0.079 H 
BRANCH  12  15
ATOM     15  C22 KOY d   1      14.652 -21.099  -2.806  0.00  0.00     0.089 C 
ATOM     16  O5  KOY d   1      13.502 -21.448  -3.498  0.00  0.00    -0.353 OA
ATOM     17  C25 KOY d   1      13.983 -21.929  -4.788  0.00  0.00     0.139 C 
ATOM     18  C24 KOY d   1      15.565 -22.055  -4.677  0.00  0.00     0.105 C 
ATOM     19  H21 KOY d   1      13.544 -22.915  -5.003  0.00  0.00     0.122 H 
ATOM     20  C23 KOY d   1      15.803 -20.896  -3.799  0.00  0.00     0.091 C 
ATOM     21  H19 KOY d   1      16.049 -21.939  -5.658  0.00  0.00     0.093 H 
ATOM     22  H17 KOY d   1      15.710 -19.948  -4.350  0.00  0.00     0.091 H 
ATOM     23  H16 KOY d   1      14.911 -21.887  -2.083  0.00  0.00     0.090 H 
BRANCH  17  24
ATOM     24  N3  KOY d   1      13.606 -20.963  -5.904  0.00  0.00    -0.294 N 
ATOM     25  C1  KOY d   1      13.486 -21.397  -7.164  0.00  0.00     0.167 A 
ATOM     26  C2  KOY d   1      13.139 -20.365  -7.991  0.00  0.00     0.149 A 
ATOM     27  N2  KOY d   1      13.687 -22.641  -7.647  0.00  0.00    -0.222 NA
ATOM     28  C3  KOY d   1      12.982 -20.569  -9.320  0.00  0.00     0.155 A 
ATOM     29  N4  KOY d   1      13.006 -19.294  -7.208  0.00  0.00    -0.236 NA
ATOM     30  N1  KOY d   1      13.178 -21.796  -9.852  0.00  0.00    -0.222 NA
ATOM     31  C26 KOY d   1      13.522 -22.852  -9.047  0.00  0.00     0.091 A 
ATOM     32  H22 KOY d   1      13.667 -23.839  -9.472  0.00  0.00     0.146 H 
ATOM     33  C4  KOY d   1      13.287 -19.670  -5.944  0.00  0.00     0.071 A 
ATOM     34  H1  KOY d   1      13.257 -19.010  -5.078  0.00  0.00     0.144 H 
BRANCH  28  35
ATOM     35  N5  KOY d   1      12.635 -19.551 -10.117  0.00  0.00    -0.382 N 
ATOM     36  H23 KOY d   1      12.515 -19.706 -11.128  0.00  0.00     0.157 HD
ATOM     37  H24 KOY d   1      12.488 -18.613  -9.719  0.00  0.00     0.157 HD
ENDBRANCH  28  35
ENDBRANCH  17  24
BRANCH  18  38
ATOM     38  O7  KOY d   1      16.051 -23.361  -4.033  0.00  0.00    -0.388 OA
ATOM     39  H20 KOY d   1      16.983 -23.300  -3.862  0.00  0.00     0.210 HD
ENDBRANCH  18  38
BRANCH  20  40
ATOM     40  O6  KOY d   1      17.078 -20.930  -3.130  0.00  0.00    -0.390 OA
ATOM     41  H18 KOY d   1      17.772 -20.802  -3.766  0.00  0.00     0.210 HD
ENDBRANCH  20  40
ENDBRANCH  12  15
ENDBRANCH  11  12
ENDBRANCH   6  11
BRANCH   1  42
ATOM     42  C14 KOY d   1      12.766 -14.176  -3.392  0.00  0.00    -0.034 C 
ATOM     43  H8  KOY d   1      13.029 -13.242  -2.873  0.00  0.00     0.040 H 
ATOM     44  H9  KOY d   1      13.431 -14.314  -4.257  0.00  0.00     0.040 H 
BRANCH  42  45
ATOM     45  C13 KOY d   1      11.314 -14.079  -3.889  0.00  0.00    -0.001 C 
ATOM     46  H6  KOY d   1      11.069 -15.002  -4.434  0.00  0.00     0.045 H 
ATOM     47  H7  KOY d   1      10.652 -13.981  -3.016  0.00  0.00     0.045 H 
BRANCH  45  48
ATOM     48  C12 KOY d   1      11.072 -12.880  -4.824  0.00  0.00     0.161 C 
ATOM     49  O3  KOY d   1      11.860 -11.938  -4.663  0.00  0.00    -0.292 OA
BRANCH  48  50
ATOM     50  C11 KOY d   1       9.835 -12.729  -5.544  0.00  0.00     0.027 C 
ATOM     51  C6  KOY d   1       9.758 -11.855  -6.669  0.00  0.00     0.054 C 
ATOM     52  C7  KOY d   1       8.553 -11.714  -7.344  0.00  0.00    -0.066 C 
ATOM     53  C8  KOY d   1       7.425 -12.455  -6.985  0.00  0.00    -0.082 C 
ATOM     54  H2  KOY d   1       8.486 -11.013  -8.168  0.00  0.00     0.085 H 
ATOM     55  C9  KOY d   1       7.472 -13.333  -5.934  0.00  0.00    -0.082 C 
ATOM     56  H3  KOY d   1       6.503 -12.335  -7.543  0.00  0.00     0.083 H 
ATOM     57  C10 KOY d   1       8.700 -13.525  -5.266  0.00  0.00    -0.068 C 
ATOM     58  H4  KOY d   1       6.583 -13.870  -5.622  0.00  0.00     0.083 H 
ATOM     59  H5  KOY d   1       8.775 -14.306  -4.518  0.00  0.00     0.085 H 
BRANCH  51  60
ATOM     60  C5  KOY d   1      10.863 -11.021  -7.074  0.00  0.00     0.210 C 
ATOM     61  O1  KOY d   1      10.852  -9.787  -6.806  0.00  0.00    -0.644 OA
ATOM     62  O2  KOY d   1      11.838 -11.494  -7.687  0.00  0.00    -0.644 OA
ENDBRANCH  51  60
ENDBRANCH  48  50
ENDBRANCH  45  48
ENDBRANCH  42  45
ENDBRANCH   1  42
TORSDOF 12
