REMARK  8 active torsions:
REMARK  status: ('A' for Active; 'I' for Inactive)
REMARK    1  A    between atoms: C4_1  and  N3_24 
REMARK    2  A    between atoms: N3_24  and  C5_2 
REMARK    3  A    between atoms: C8_5  and  C11_9 
REMARK    4  A    between atoms: C11_9  and  C12_8 
REMARK    5  A    between atoms: C12_8  and  O_25 
REMARK    6  A    between atoms: C3_11  and  C13_19 
REMARK    7  A    between atoms: C2_12  and  C1_13 
REMARK    8  A    between atoms: C1_13  and  C_23 
ROOT
ATOM      1  C4  KR4 d   1     -20.078 -15.056  99.932  0.00  0.00     0.730 A 
ATOM      2  C3  KR4 d   1     -21.029 -15.647 102.012  0.00  0.00     0.180 A 
ATOM      3  C2  KR4 d   1     -18.822 -14.975 101.949  0.00  0.00     0.147 A 
ATOM      4  N   KR4 d   1     -19.876 -15.429 102.684  0.00  0.00    -0.212 NA
ATOM      5  N1  KR4 d   1     -21.160 -15.447 100.649  0.00  0.00    -0.042 NA
ATOM      6  N2  KR4 d   1     -18.949 -14.777 100.606  0.00  0.00    -0.047 NA
ENDROOT
BRANCH   1   7
ATOM      7  N3  KR4 d   1     -20.074 -14.708  98.621  0.00  0.00    -0.188 N 
ATOM      8  H18 KR4 d   1     -19.177 -14.615  98.124  0.00  0.00     0.184 HD
BRANCH   7   9
ATOM      9  C5  KR4 d   1     -21.222 -14.483  97.961  0.00  0.00     0.049 A 
ATOM     10  C6  KR4 d   1     -21.335 -13.317  97.234  0.00  0.00    -0.056 A 
ATOM     11  C7  KR4 d   1     -22.535 -12.947  96.608  0.00  0.00    -0.075 A 
ATOM     12  H1  KR4 d   1     -20.472 -12.667  97.143  0.00  0.00     0.086 H 
ATOM     13  C8  KR4 d   1     -23.682 -13.739  96.740  0.00  0.00    -0.056 A 
ATOM     14  H2  KR4 d   1     -22.574 -12.039  96.017  0.00  0.00     0.084 H 
ATOM     15  C9  KR4 d   1     -23.588 -14.857  97.532  0.00  0.00    -0.075 A 
ATOM     16  C10 KR4 d   1     -22.384 -15.225  98.146  0.00  0.00    -0.056 A 
ATOM     17  H4  KR4 d   1     -24.468 -15.470  97.686  0.00  0.00     0.084 H 
ATOM     18  H3  KR4 d   1     -22.357 -16.105  98.778  0.00  0.00     0.086 H 
BRANCH  13  19
ATOM     19  C11 KR4 d   1     -25.007 -13.392  96.061  0.00  0.00    -0.021 C 
ATOM     20  H7  KR4 d   1     -25.695 -14.241  96.185  0.00  0.00     0.043 H 
ATOM     21  H8  KR4 d   1     -24.817 -13.227  94.990  0.00  0.00     0.043 H 
BRANCH  19  22
ATOM     22  C12 KR4 d   1     -25.684 -12.124  96.640  0.00  0.00     0.020 C 
ATOM     23  H5  KR4 d   1     -25.701 -12.206  97.737  0.00  0.00     0.074 H 
ATOM     24  H6  KR4 d   1     -26.715 -12.073  96.260  0.00  0.00     0.074 H 
BRANCH  22  25
ATOM     25  O   KR4 d   1     -24.989 -10.885  96.274  0.00  0.00    -0.401 OA
ATOM     26  H19 KR4 d   1     -24.975 -10.799  95.328  0.00  0.00     0.209 HD
ENDBRANCH  22  25
ENDBRANCH  19  22
ENDBRANCH  13  19
ENDBRANCH   7   9
ENDBRANCH   1   7
BRANCH   2  27
ATOM     27  C13 KR4 d   1     -22.199 -16.137 102.803  0.00  0.00     0.014 A 
ATOM     28  C18 KR4 d   1     -22.821 -17.286 102.386  0.00  0.00    -0.048 A 
ATOM     29  C17 KR4 d   1     -23.913 -17.766 103.111  0.00  0.00     0.035 A 
ATOM     30  H9  KR4 d   1     -22.470 -17.814 101.507  0.00  0.00     0.087 H 
ATOM     31 CL   KR4 d   1     -24.695 -19.283 102.553  0.00  0.00    -0.084 Cl
ATOM     32  C16 KR4 d   1     -24.370 -17.097 104.238  0.00  0.00    -0.062 A 
ATOM     33  C15 KR4 d   1     -23.759 -15.928 104.635  0.00  0.00    -0.080 A 
ATOM     34  H12 KR4 d   1     -25.205 -17.493 104.804  0.00  0.00     0.086 H 
ATOM     35  C14 KR4 d   1     -22.659 -15.450 103.914  0.00  0.00    -0.069 A 
ATOM     36  H13 KR4 d   1     -24.127 -15.384 105.497  0.00  0.00     0.083 H 
ATOM     37  H14 KR4 d   1     -22.165 -14.537 104.227  0.00  0.00     0.085 H 
ENDBRANCH   2  27
BRANCH   3  38
ATOM     38  C1  KR4 d   1     -17.457 -14.725 102.554  0.00  0.00    -0.011 C 
ATOM     39  H10 KR4 d   1     -16.853 -14.185 101.810  0.00  0.00     0.044 H 
ATOM     40  H11 KR4 d   1     -16.997 -15.702 102.762  0.00  0.00     0.044 H 
BRANCH  38  41
ATOM     41  C   KR4 d   1     -17.438 -13.935 103.816  0.00  0.00    -0.070 C 
ATOM     42  H15 KR4 d   1     -16.400 -13.818 104.160  0.00  0.00     0.028 H 
ATOM     43  H16 KR4 d   1     -18.022 -14.460 104.586  0.00  0.00     0.028 H 
ATOM     44  H17 KR4 d   1     -17.878 -12.943 103.635  0.00  0.00     0.028 H 
ENDBRANCH  38  41
ENDBRANCH   3  38
TORSDOF 8
