REMARK  6 active torsions:
REMARK  status: ('A' for Active; 'I' for Inactive)
REMARK    1  A    between atoms: C8_1  and  C9_2 
REMARK    2  A    between atoms: C7_6  and  C8_1 
REMARK    3  A    between atoms: C11_4  and  C12_5 
REMARK    4  A    between atoms: C1_15  and  C2_7 
REMARK    5  A    between atoms: C13_13  and  C14_14 
REMARK    6  A    between atoms: C1_15  and  C_22 
ROOT
ATOM      1  C9  KR7 d   1       5.714 -13.411  49.026  0.00  0.00    -0.050 A 
ATOM      2  C10 KR7 d   1       6.993 -13.149  49.552  0.00  0.00    -0.044 A 
ATOM      3  C11 KR7 d   1       7.244 -13.374  50.903  0.00  0.00     0.141 A 
ATOM      4  C13 KR7 d   1       5.051 -14.057  51.254  0.00  0.00     0.068 A 
ATOM      5  C20 KR7 d   1       4.725 -13.888  49.880  0.00  0.00    -0.048 A 
ATOM      6  N   KR7 d   1       6.275 -13.818  51.717  0.00  0.00    -0.243 NA
ATOM      7  H3  KR7 d   1       7.780 -12.773  48.908  0.00  0.00     0.087 H 
ATOM      8  H12 KR7 d   1       3.734 -14.124  49.509  0.00  0.00     0.087 H 
ENDROOT
BRANCH   1   9
ATOM      9  C8  KR7 d   1       5.451 -13.197  47.531  0.00  0.00    -0.017 C 
ATOM     10  H1  KR7 d   1       5.751 -14.103  46.984  0.00  0.00     0.047 H 
ATOM     11  H2  KR7 d   1       6.052 -12.344  47.183  0.00  0.00     0.047 H 
BRANCH   9  12
ATOM     12  C7  KR7 d   1       3.969 -12.911  47.242  0.00  0.00    -0.054 A 
ATOM     13  C6  KR7 d   1       3.504 -11.617  47.438  0.00  0.00    -0.076 A 
ATOM     14  C5  KR7 d   1       2.167 -11.321  47.205  0.00  0.00    -0.076 A 
ATOM     15  H5  KR7 d   1       4.183 -10.840  47.772  0.00  0.00     0.084 H 
ATOM     16  C2  KR7 d   1       1.286 -12.303  46.821  0.00  0.00    -0.048 A 
ATOM     17  H7  KR7 d   1       1.815 -10.303  47.328  0.00  0.00     0.084 H 
ATOM     18  C3  KR7 d   1       1.744 -13.623  46.645  0.00  0.00    -0.076 A 
ATOM     19  C4  KR7 d   1       3.070 -13.929  46.843  0.00  0.00    -0.076 A 
ATOM     20  H4  KR7 d   1       1.048 -14.401  46.352  0.00  0.00     0.084 H 
ATOM     21  H6  KR7 d   1       3.424 -14.943  46.695  0.00  0.00     0.084 H 
BRANCH  16  22
ATOM     22  C1  KR7 d   1      -0.178 -11.922  46.607  0.00  0.00     0.039 C 
ATOM     23  H8  KR7 d   1      -0.279 -10.839  46.774  0.00  0.00     0.056 H 
ATOM     24  H9  KR7 d   1      -0.785 -12.465  47.346  0.00  0.00     0.056 H 
BRANCH  22  25
ATOM     25  C   KR7 d   1      -0.721 -12.241  45.221  0.00  0.00     0.176 C 
ATOM     26  O1  KR7 d   1       0.018 -12.276  44.226  0.00  0.00    -0.648 OA
ATOM     27  O   KR7 d   1      -2.049 -12.503  45.055  0.00  0.00    -0.648 OA
ENDBRANCH  22  25
ENDBRANCH  16  22
ENDBRANCH   9  12
ENDBRANCH   1   9
BRANCH   3  28
ATOM     28  C12 KR7 d   1       8.605 -13.137  51.479  0.00  0.00     0.434 C 
ATOM     29  F2  KR7 d   1       9.109 -12.103  50.883  0.00  0.00    -0.165 F 
ATOM     30  F1  KR7 d   1       8.595 -12.957  52.779  0.00  0.00    -0.165 F 
ATOM     31  F   KR7 d   1       9.308 -14.202  51.274  0.00  0.00    -0.165 F 
ENDBRANCH   3  28
BRANCH   4  32
ATOM     32  C14 KR7 d   1       4.058 -14.562  52.211  0.00  0.00    -0.006 A 
ATOM     33  C15 KR7 d   1       3.857 -13.869  53.383  0.00  0.00    -0.071 A 
ATOM     34  C16 KR7 d   1       2.927 -14.319  54.295  0.00  0.00    -0.081 A 
ATOM     35  H10 KR7 d   1       4.429 -12.971  53.588  0.00  0.00     0.084 H 
ATOM     36  C17 KR7 d   1       2.267 -15.504  54.074  0.00  0.00    -0.062 A 
ATOM     37  H11 KR7 d   1       2.716 -13.739  55.186  0.00  0.00     0.083 H 
ATOM     38  C18 KR7 d   1       2.491 -16.203  52.949  0.00  0.00     0.035 A 
ATOM     39  H13 KR7 d   1       1.563 -15.876  54.810  0.00  0.00     0.086 H 
ATOM     40  C19 KR7 d   1       3.379 -15.740  51.982  0.00  0.00    -0.050 A 
ATOM     41 CL   KR7 d   1       1.590 -17.692  52.685  0.00  0.00    -0.084 Cl
ATOM     42  H14 KR7 d   1       3.534 -16.296  51.065  0.00  0.00     0.087 H 
ENDBRANCH   4  32
TORSDOF 6
