REMARK WARNING: 32 MAX_TORS EXCEEDED!!!
REMARK  38 active torsions:
REMARK  status: ('A' for Active; 'I' for Inactive)
REMARK    1  A    between atoms: N_1  and  CA_2 
REMARK    2  A    between atoms: CA_2  and  C_3 
REMARK    3  A    between atoms: CA_2  and  CB_5 
REMARK       I    between atoms: C_3  and  N_13 
REMARK    4  A    between atoms: CB_5  and  CG_6 
REMARK    5  A    between atoms: CZ_11  and  OH_12 
REMARK    6  A    between atoms: N_13  and  CA_14 
REMARK    7  A    between atoms: CA_14  and  C_15 
REMARK    8  A    between atoms: CA_14  and  CB_17 
REMARK       I    between atoms: C_15  and  N_19 
REMARK    9  A    between atoms: CB_17  and  OG_18 
REMARK   10  A    between atoms: N_19  and  CA_20 
REMARK   11  A    between atoms: CA_20  and  C_21 
REMARK   12  A    between atoms: CA_20  and  CB_23 
REMARK       I    between atoms: C_21  and  N_24 
REMARK   13  A    between atoms: N_24  and  CA_25 
REMARK   14  A    between atoms: CA_25  and  C_26 
REMARK   15  A    between atoms: CA_25  and  CB_28 
REMARK       I    between atoms: C_26  and  N_36 
REMARK   16  A    between atoms: CB_28  and  CG_29 
REMARK   17  A    between atoms: CZ_34  and  OH_35 
REMARK   18  A    between atoms: CA_37  and  C_38 
REMARK       I    between atoms: C_38  and  N_43 
REMARK   19  A    between atoms: N_43  and  CA_44 
REMARK   20  A    between atoms: CA_44  and  C_45 
REMARK   21  A    between atoms: CA_44  and  CB_47 
REMARK       I    between atoms: C_45  and  N_51 
REMARK   22  A    between atoms: CB_47  and  CG_48 
REMARK   23  A    between atoms: N_51  and  CA_52 
REMARK   24  A    between atoms: CA_52  and  C_53 
REMARK   25  A    between atoms: CA_52  and  CB_55 
REMARK       I    between atoms: C_53  and  N_57 
REMARK   26  A    between atoms: CB_55  and  OG_56 
REMARK   27  A    between atoms: N_57  and  CA_58 
REMARK   28  A    between atoms: CA_58  and  C_59 
REMARK   29  A    between atoms: CA_58  and  CB_61 
REMARK       I    between atoms: C_59  and  N_64 
REMARK   30  A    between atoms: CB_61  and  CG1_62 
REMARK   31  A    between atoms: CB_61  and  CG2_63 
REMARK   32  A    between atoms: CA_65  and  C_66 
REMARK       I    between atoms: C_66  and  N_71 
REMARK   33  A    between atoms: N_71  and  CA_72 
REMARK   34  A    between atoms: CA_72  and  C_73 
REMARK   35  A    between atoms: CA_72  and  CB_75 
REMARK   36  A    between atoms: CB_75  and  CG_76 
REMARK   37  A    between atoms: CG_76  and  SD_77 
REMARK   38  A    between atoms: SD_77  and  CE_78 
ROOT
ATOM      1  C   TYR d   1       3.255  -6.254  24.524  0.00  0.00     0.243 C 
ATOM      2  O   TYR d   1       3.430  -5.359  23.684  0.00  0.00    -0.271 OA
ATOM      3  N   TYR d   1       2.055  -6.505  25.058  0.00  0.00    -0.337 N 
ATOM      4  CA  TYR d   1       0.866  -5.786  24.574  0.00  0.00     0.091 C 
ATOM      5  CB  TYR d   1      -0.294  -6.415  25.360  0.00  0.00    -0.036 C 
ATOM      6  CG  TYR d   1       0.214  -7.691  25.903  0.00  0.00    -0.048 A 
ATOM      7  CD  TYR d   1       1.714  -7.541  26.054  0.00  0.00    -0.001 C 
ATOM      8  H31 TYR d   1       0.738  -5.949  23.494  0.00  0.00     0.087 H 
ATOM      9  H32 TYR d   1      -1.150  -6.599  24.694  0.00  0.00     0.036 H 
ATOM     10  H33 TYR d   1      -0.604  -5.749  26.179  0.00  0.00     0.036 H 
ATOM     11  H34 TYR d   1      -0.016  -8.514  25.211  0.00  0.00     0.035 H 
ATOM     12  H35 TYR d   1      -0.246  -7.895  26.881  0.00  0.00     0.035 H 
ATOM     13  H36 TYR d   1       1.976  -7.212  27.070  0.00  0.00     0.064 H 
ATOM     14  H37 TYR d   1       2.229  -8.487  25.830  0.00  0.00     0.064 H 
ENDROOT
BRANCH   4  15
ATOM     15  C   TYR d   1       0.932  -4.291  24.845  0.00  0.00     0.241 C 
ATOM     16  O   TYR d   1       1.480  -3.843  25.853  0.00  0.00    -0.271 OA
ATOM     17  N   TYR d   1       0.329  -3.518  23.943  0.00  0.00    -0.346 N 
ATOM     18  H38 TYR d   1      -0.010  -3.930  23.097  0.00  0.00     0.163 HD
BRANCH  17  19
ATOM     19  CA  TYR d   1       0.150  -2.084  24.158  0.00  0.00     0.098 C 
ATOM     20  H39 TYR d   1      -0.212  -1.644  23.217  0.00  0.00     0.088 H 
BRANCH  19  21
ATOM     21  C   TYR d   1       1.456  -1.403  24.528  0.00  0.00     0.241 C 
ATOM     22  O   TYR d   1       1.479  -0.468  25.330  0.00  0.00    -0.271 OA
ATOM     23  N   TYR d   1       2.559  -1.886  23.986  0.00  0.00    -0.344 N 
ATOM     24  H42 TYR d   1       2.512  -2.705  23.415  0.00  0.00     0.163 HD
BRANCH  23  25
ATOM     25  CA  TYR d   1       3.841  -1.239  24.211  0.00  0.00     0.109 C 
ATOM     26  H43 TYR d   1       3.801  -0.709  25.174  0.00  0.00     0.090 H 
BRANCH  25  27
ATOM     27  C   TYR d   1       4.060  -0.204  23.109  0.00  0.00     0.243 C 
ATOM     28  O   TYR d   1       3.674  -0.409  21.952  0.00  0.00    -0.271 OA
ATOM     29  N   TYR d   1       4.609   0.943  23.502  0.00  0.00    -0.346 N 
ATOM     30  H47 TYR d   1       4.885   1.035  24.459  0.00  0.00     0.163 HD
BRANCH  29  31
ATOM     31  CA  TYR d   1       4.828   2.075  22.604  0.00  0.00     0.092 C 
ATOM     32  H48 TYR d   1       4.652   1.752  21.567  0.00  0.00     0.088 H 
BRANCH  31  33
ATOM     33  C   TYR d   1       6.275   2.532  22.748  0.00  0.00     0.243 C 
ATOM     34  O   TYR d   1       6.776   2.649  23.877  0.00  0.00    -0.271 OA
ATOM     35  N   TYR d   1       6.972   2.843  21.655  0.00  0.00    -0.337 N 
ATOM     36  CA  TYR d   1       8.369   3.269  21.791  0.00  0.00     0.091 C 
ATOM     37  CD  TYR d   1       6.563   2.730  20.241  0.00  0.00    -0.001 C 
ATOM     38  CB  TYR d   1       8.809   3.529  20.344  0.00  0.00    -0.036 C 
ATOM     39  H56 TYR d   1       8.976   2.474  22.249  0.00  0.00     0.087 H 
ATOM     40  CG  TYR d   1       7.878   2.722  19.512  0.00  0.00    -0.048 A 
ATOM     41  H57 TYR d   1       9.848   3.202  20.190  0.00  0.00     0.036 H 
ATOM     42  H58 TYR d   1       8.721   4.598  20.098  0.00  0.00     0.036 H 
ATOM     43  H59 TYR d   1       8.252   1.693  19.408  0.00  0.00     0.035 H 
ATOM     44  H60 TYR d   1       7.766   3.174  18.515  0.00  0.00     0.035 H 
ATOM     45  H61 TYR d   1       5.947   3.589  19.937  0.00  0.00     0.064 H 
ATOM     46  H62 TYR d   1       6.006   1.798  20.063  0.00  0.00     0.064 H 
BRANCH  36  47
ATOM     47  C   TYR d   1       8.486   4.533  22.624  0.00  0.00     0.241 C 
ATOM     48  O   TYR d   1       7.591   5.381  22.634  0.00  0.00    -0.271 OA
ATOM     49  N   TYR d   1       9.633   4.666  23.288  0.00  0.00    -0.345 N 
ATOM     50  H63 TYR d   1      10.298   3.920  23.255  0.00  0.00     0.163 HD
BRANCH  49  51
ATOM     51  CA  TYR d   1       9.955   5.858  24.060  0.00  0.00     0.097 C 
ATOM     52  H64 TYR d   1       9.042   6.463  24.163  0.00  0.00     0.089 H 
BRANCH  51  53
ATOM     53  C   TYR d   1      11.022   6.680  23.332  0.00  0.00     0.196 C 
ATOM     54  O   TYR d   1      10.726   7.632  22.615  0.00  0.00    -0.646 OA
ATOM     55  OXT TYR d   1      12.218   6.421  23.435  0.00  0.00    -0.646 OA
ENDBRANCH  51  53
BRANCH  51  56
ATOM     56  CB  TYR d   1      10.472   5.510  25.455  0.00  0.00    -0.029 C 
ATOM     57  H65 TYR d   1      10.916   6.417  25.891  0.00  0.00     0.037 H 
ATOM     58  H66 TYR d   1      11.247   4.736  25.350  0.00  0.00     0.037 H 
BRANCH  56  59
ATOM     59  CG  TYR d   1       9.429   4.999  26.403  0.00  0.00    -0.021 A 
ATOM     60  H67 TYR d   1       9.350   3.907  26.294  0.00  0.00     0.049 H 
ATOM     61  H68 TYR d   1       8.463   5.463  26.156  0.00  0.00     0.049 H 
BRANCH  59  62
ATOM     62  SD  TYR d   1       9.847   5.388  28.112  0.00  0.00    -0.173 SA
BRANCH  62  63
ATOM     63  CE  TYR d   1       9.764   7.177  28.052  0.00  0.00    -0.035 C 
ATOM     64  H69 TYR d   1      10.000   7.588  29.044  0.00  0.00     0.041 H 
ATOM     65  H70 TYR d   1       8.751   7.487  27.758  0.00  0.00     0.041 H 
ATOM     66  H71 TYR d   1      10.491   7.553  27.317  0.00  0.00     0.041 H 
ENDBRANCH  62  63
ENDBRANCH  59  62
ENDBRANCH  56  59
ENDBRANCH  51  56
ENDBRANCH  49  51
ENDBRANCH  36  47
ENDBRANCH  31  33
BRANCH  31  67
ATOM     67  CB  TYR d   1       3.864   3.226  22.933  0.00  0.00    -0.033 C 
ATOM     68  H49 TYR d   1       3.970   3.461  24.002  0.00  0.00     0.042 H 
BRANCH  67  69
ATOM     69  CG1 TYR d   1       4.219   4.468  22.147  0.00  0.00    -0.071 C 
ATOM     70  H50 TYR d   1       3.516   5.275  22.400  0.00  0.00     0.028 H 
ATOM     71  H51 TYR d   1       4.156   4.251  21.070  0.00  0.00     0.028 H 
ATOM     72  H52 TYR d   1       5.243   4.781  22.399  0.00  0.00     0.028 H 
ENDBRANCH  67  69
BRANCH  67  73
ATOM     73  CG2 TYR d   1       2.426   2.817  22.686  0.00  0.00    -0.071 C 
ATOM     74  H53 TYR d   1       2.197   1.913  23.269  0.00  0.00     0.028 H 
ATOM     75  H54 TYR d   1       2.283   2.609  21.615  0.00  0.00     0.028 H 
ATOM     76  H55 TYR d   1       1.755   3.632  22.994  0.00  0.00     0.028 H 
ENDBRANCH  67  73
ENDBRANCH  31  67
ENDBRANCH  29  31
ENDBRANCH  25  27
BRANCH  25  77
ATOM     77  CB  TYR d   1       4.967  -2.274  24.300  0.00  0.00     0.044 C 
ATOM     78  H44 TYR d   1       4.830  -2.853  25.226  0.00  0.00     0.077 H 
ATOM     79  H45 TYR d   1       5.926  -1.736  24.342  0.00  0.00     0.077 H 
BRANCH  77  80
ATOM     80  OG  TYR d   1       5.016  -3.179  23.217  0.00  0.00    -0.398 OA
ATOM     81  H46 TYR d   1       5.736  -3.785  23.345  0.00  0.00     0.209 HD
ENDBRANCH  77  80
ENDBRANCH  25  77
ENDBRANCH  23  25
ENDBRANCH  19  21
BRANCH  19  82
ATOM     82  CB  TYR d   1      -0.892  -1.818  25.244  0.00  0.00     0.043 C 
ATOM     83  H40 TYR d   1      -1.040  -0.732  25.335  0.00  0.00     0.052 H 
ATOM     84  H41 TYR d   1      -0.519  -2.218  26.198  0.00  0.00     0.052 H 
BRANCH  82  85
ATOM     85  CG  TYR d   1      -2.205  -2.458  24.934  0.00  0.00     0.175 A 
ATOM     86  OD1 TYR d   1      -2.733  -2.166  23.842  0.00  0.00    -0.648 OA
ATOM     87  OD2 TYR d   1      -2.689  -3.270  25.750  0.00  0.00    -0.648 OA
ENDBRANCH  82  85
ENDBRANCH  19  82
ENDBRANCH  17  19
ENDBRANCH   4  15
BRANCH   1  88
ATOM     88  CA  TYR d   1       4.442  -7.085  24.982  0.00  0.00     0.093 C 
ATOM     89  H23 TYR d   1       4.077  -7.995  25.480  0.00  0.00     0.088 H 
BRANCH  88  90
ATOM     90  N   TYR d   1       5.226  -7.470  23.800  0.00  0.00    -0.346 N 
ATOM     91  C   TYR d   1       5.896  -8.624  23.750  0.00  0.00     0.240 C 
ATOM     92  O   TYR d   1       5.780  -9.488  24.622  0.00  0.00    -0.271 OA
ATOM     93  H22 TYR d   1       5.258  -6.853  23.014  0.00  0.00     0.163 HD
BRANCH  91  94
ATOM     94  CA  TYR d   1       6.861  -8.852  22.598  0.00  0.00     0.086 C 
ATOM     95  H18 TYR d   1       6.837  -9.919  22.331  0.00  0.00     0.086 H 
BRANCH  94  96
ATOM     96  N   TYR d   1       6.522  -8.089  21.409  0.00  0.00    -0.346 N 
ATOM     97  C   TYR d   1       5.553  -8.493  20.582  0.00  0.00     0.243 C 
ATOM     98  O   TYR d   1       4.875  -9.511  20.767  0.00  0.00    -0.271 OA
ATOM     99  H17 TYR d   1       7.022  -7.247  21.206  0.00  0.00     0.163 HD
BRANCH  97 100
ATOM    100  CA  TYR d   1       5.286  -7.570  19.404  0.00  0.00     0.109 C 
ATOM    101  H13 TYR d   1       6.209  -7.018  19.173  0.00  0.00     0.090 H 
BRANCH 100 102
ATOM    102  N   TYR d   1       4.899  -8.320  18.217  0.00  0.00    -0.344 N 
ATOM    103  C   TYR d   1       5.692  -8.462  17.150  0.00  0.00     0.249 C 
ATOM    104  O   TYR d   1       6.828  -7.986  17.076  0.00  0.00    -0.271 OA
ATOM    105  H12 TYR d   1       3.996  -8.750  18.199  0.00  0.00     0.163 HD
BRANCH 103 106
ATOM    106  CA  TYR d   1       5.119  -9.272  15.985  0.00  0.00     0.179 C 
ATOM    107  H4  TYR d   1       4.037  -9.085  15.929  0.00  0.00     0.099 H 
BRANCH 106 108
ATOM    108  N   TYR d   1       5.729  -8.863  14.686  0.00  0.00    -0.066 N 
ATOM    109  H1  TYR d   1       5.332  -9.413  13.940  0.00  0.00     0.275 HD
ATOM    110  H2  TYR d   1       6.725  -9.013  14.720  0.00  0.00     0.275 HD
ATOM    111  H3  TYR d   1       5.542  -7.887  14.520  0.00  0.00     0.275 HD
ENDBRANCH 106 108
BRANCH 106 112
ATOM    112  CB  TYR d   1       5.342 -10.762  16.253  0.00  0.00    -0.006 C 
ATOM    113  H5  TYR d   1       4.880 -11.005  17.221  0.00  0.00     0.043 H 
ATOM    114  H6  TYR d   1       6.426 -10.937  16.310  0.00  0.00     0.043 H 
BRANCH 112 115
ATOM    115  CG  TYR d   1       4.772 -11.704  15.216  0.00  0.00    -0.056 A 
ATOM    116  CD1 TYR d   1       3.415 -12.008  15.184  0.00  0.00    -0.074 A 
ATOM    117  CE1 TYR d   1       2.905 -12.887  14.243  0.00  0.00    -0.051 A 
ATOM    118  H7  TYR d   1       2.748 -11.551  15.905  0.00  0.00     0.084 H 
ATOM    119  CZ  TYR d   1       3.761 -13.472  13.331  0.00  0.00     0.065 A 
ATOM    120  H9  TYR d   1       1.845 -13.113  14.223  0.00  0.00     0.087 H 
ATOM    121  CE2 TYR d   1       5.104 -13.190  13.355  0.00  0.00    -0.051 A 
ATOM    122  CD2 TYR d   1       5.601 -12.318  14.291  0.00  0.00    -0.074 A 
ATOM    123  H10 TYR d   1       5.770 -13.655  12.637  0.00  0.00     0.087 H 
ATOM    124  H8  TYR d   1       6.664 -12.105  14.307  0.00  0.00     0.084 H 
BRANCH 119 125
ATOM    125  OH  TYR d   1       3.293 -14.348  12.385  0.00  0.00    -0.361 OA
ATOM    126  H11 TYR d   1       2.354 -14.448  12.485  0.00  0.00     0.217 HD
ENDBRANCH 119 125
ENDBRANCH 112 115
ENDBRANCH 106 112
ENDBRANCH 103 106
ENDBRANCH 100 102
BRANCH 100 127
ATOM    127  CB  TYR d   1       4.203  -6.567  19.811  0.00  0.00     0.044 C 
ATOM    128  H14 TYR d   1       4.421  -6.191  20.821  0.00  0.00     0.077 H 
ATOM    129  H15 TYR d   1       3.225  -7.071  19.811  0.00  0.00     0.077 H 
BRANCH 127 130
ATOM    130  OG  TYR d   1       4.164  -5.481  18.911  0.00  0.00    -0.398 OA
ATOM    131  H16 TYR d   1       3.487  -4.872  19.181  0.00  0.00     0.209 HD
ENDBRANCH 127 130
ENDBRANCH 100 127
ENDBRANCH  97 100
ENDBRANCH  94  96
BRANCH  94 132
ATOM    132  CB  TYR d   1       8.265  -8.496  23.090  0.00  0.00    -0.049 C 
ATOM    133  H19 TYR d   1       8.499  -9.085  23.989  0.00  0.00     0.030 H 
ATOM    134  H20 TYR d   1       8.308  -7.424  23.333  0.00  0.00     0.030 H 
ATOM    135  H21 TYR d   1       8.998  -8.723  22.302  0.00  0.00     0.030 H 
ENDBRANCH  94 132
ENDBRANCH  91  94
ENDBRANCH  88  90
BRANCH  88 136
ATOM    136  CB  TYR d   1       5.290  -6.276  25.990  0.00  0.00    -0.014 C 
ATOM    137  H24 TYR d   1       5.377  -5.245  25.617  0.00  0.00     0.043 H 
ATOM    138  H25 TYR d   1       6.289  -6.732  26.043  0.00  0.00     0.043 H 
BRANCH 136 139
ATOM    139  CG  TYR d   1       4.716  -6.226  27.392  0.00  0.00    -0.056 A 
ATOM    140  CD1 TYR d   1       3.738  -5.300  27.728  0.00  0.00    -0.074 A 
ATOM    141  CE1 TYR d   1       3.196  -5.258  29.000  0.00  0.00    -0.051 A 
ATOM    142  H26 TYR d   1       3.392  -4.596  26.979  0.00  0.00     0.084 H 
ATOM    143  CZ  TYR d   1       3.655  -6.132  29.965  0.00  0.00     0.065 A 
ATOM    144  H28 TYR d   1       2.416  -4.544  29.238  0.00  0.00     0.087 H 
ATOM    145  CE2 TYR d   1       4.638  -7.055  29.661  0.00  0.00    -0.051 A 
ATOM    146  CD2 TYR d   1       5.165  -7.094  28.384  0.00  0.00    -0.074 A 
ATOM    147  H29 TYR d   1       4.993  -7.744  30.419  0.00  0.00     0.087 H 
ATOM    148  H27 TYR d   1       5.942  -7.813  28.150  0.00  0.00     0.084 H 
BRANCH 143 149
ATOM    149  OH  TYR d   1       3.126  -6.089  31.235  0.00  0.00    -0.361 OA
ATOM    150  H30 TYR d   1       2.468  -5.406  31.280  0.00  0.00     0.217 HD
ENDBRANCH 143 149
ENDBRANCH 136 139
ENDBRANCH  88 136
ENDBRANCH   1  88
TORSDOF 38
