REMARK WARNING: 32 MAX_TORS EXCEEDED!!!
REMARK  41 active torsions:
REMARK  status: ('A' for Active; 'I' for Inactive)
REMARK    1  A    between atoms: N_1  and  CB_2 
REMARK    2  A    between atoms: CB_2  and  CA_3 
REMARK    3  A    between atoms: CA_3  and  C_4 
REMARK       I    between atoms: C_4  and  N_6 
REMARK    4  A    between atoms: N_6  and  CA_7 
REMARK    5  A    between atoms: CA_7  and  C_8 
REMARK    6  A    between atoms: CA_7  and  CB_10 
REMARK       I    between atoms: C_8  and  N_20 
REMARK    7  A    between atoms: CB_10  and  CG_11 
REMARK    8  A    between atoms: N_20  and  CA_21 
REMARK    9  A    between atoms: CA_21  and  C_22 
REMARK   10  A    between atoms: CA_21  and  CB_24 
REMARK       I    between atoms: C_22  and  N_28 
REMARK   11  A    between atoms: CB_24  and  CG_25 
REMARK   12  A    between atoms: CG_25  and  CD1_26 
REMARK   13  A    between atoms: CG_25  and  CD2_27 
REMARK   14  A    between atoms: N_28  and  CA_29 
REMARK   15  A    between atoms: CA_29  and  C_30 
REMARK   16  A    between atoms: CA_29  and  CB_32 
REMARK       I    between atoms: C_30  and  N_33 
REMARK   17  A    between atoms: N_33  and  CA_34 
REMARK   18  A    between atoms: CA_34  and  C_35 
REMARK   19  A    between atoms: CA_34  and  CB_37 
REMARK       I    between atoms: C_35  and  N_45 
REMARK   20  A    between atoms: CB_37  and  CG_38 
REMARK   21  A    between atoms: CZ_43  and  OH_44 
REMARK   22  A    between atoms: CA_46  and  C_47 
REMARK       I    between atoms: C_47  and  N_52 
REMARK   23  A    between atoms: N_52  and  CA_53 
REMARK   24  A    between atoms: CA_53  and  C_54 
REMARK   25  A    between atoms: CA_53  and  CB_56 
REMARK       I    between atoms: C_54  and  N_60 
REMARK   26  A    between atoms: CB_56  and  CG_57 
REMARK   27  A    between atoms: N_60  and  CA_61 
REMARK   28  A    between atoms: CA_61  and  C_62 
REMARK   29  A    between atoms: CA_61  and  CB_64 
REMARK       I    between atoms: C_62  and  N_66 
REMARK   30  A    between atoms: CB_64  and  OG_65 
REMARK   31  A    between atoms: N_66  and  CA_67 
REMARK   32  A    between atoms: CA_67  and  C_68 
REMARK   33  A    between atoms: CA_67  and  CB_70 
REMARK       I    between atoms: C_68  and  N_73 
REMARK   34  A    between atoms: CB_70  and  CG1_71 
REMARK   35  A    between atoms: CB_70  and  CG2_72 
REMARK   36  A    between atoms: CA_74  and  C_75 
REMARK       I    between atoms: C_75  and  N_80 
REMARK   37  A    between atoms: N_80  and  CA_81 
REMARK   38  A    between atoms: CA_81  and  C_82 
REMARK   39  A    between atoms: CA_81  and  CB_84 
REMARK   40  A    between atoms: CB_84  and  CG_85 
REMARK   41  A    between atoms: CZ_90  and  OH_91 
ROOT
ATOM      1  C   BAL d   1     -36.036   0.091 -37.948  0.00  0.00     0.243 C 
ATOM      2  O   BAL d   1     -37.081   0.503 -38.486  0.00  0.00    -0.271 OA
ATOM      3  N   BAL d   1     -35.616  -1.167 -38.140  0.00  0.00    -0.337 N 
ATOM      4  CA  BAL d   1     -36.346  -2.019 -39.075  0.00  0.00     0.091 C 
ATOM      5  CB  BAL d   1     -35.555  -3.336 -39.065  0.00  0.00    -0.036 C 
ATOM      6  CG  BAL d   1     -34.177  -2.977 -38.573  0.00  0.00    -0.048 C 
ATOM      7  CD  BAL d   1     -34.410  -1.840 -37.622  0.00  0.00    -0.001 C 
ATOM      8  H43 BAL d   1     -36.338  -1.572 -40.080  0.00  0.00     0.087 H 
ATOM      9  H44 BAL d   1     -35.502  -3.760 -40.079  0.00  0.00     0.036 H 
ATOM     10  H45 BAL d   1     -36.027  -4.063 -38.388  0.00  0.00     0.036 H 
ATOM     11  H46 BAL d   1     -33.535  -2.661 -39.408  0.00  0.00     0.035 H 
ATOM     12  H47 BAL d   1     -33.713  -3.830 -38.055  0.00  0.00     0.035 H 
ATOM     13  H48 BAL d   1     -34.582  -2.215 -36.602  0.00  0.00     0.064 H 
ATOM     14  H49 BAL d   1     -33.551  -1.152 -37.620  0.00  0.00     0.064 H 
ENDROOT
BRANCH   1  15
ATOM     15  CA  BAL d   1     -35.218   1.018 -37.056  0.00  0.00     0.093 C 
ATOM     16  H35 BAL d   1     -34.207   0.602 -36.933  0.00  0.00     0.088 H 
BRANCH  15  17
ATOM     17  N   BAL d   1     -35.131   2.326 -37.708  0.00  0.00    -0.346 N 
ATOM     18  C   BAL d   1     -34.007   3.029 -37.714  0.00  0.00     0.240 C 
ATOM     19  O   BAL d   1     -32.946   2.595 -37.241  0.00  0.00    -0.271 OA
ATOM     20  H34 BAL d   1     -35.941   2.699 -38.161  0.00  0.00     0.163 HD
BRANCH  18  21
ATOM     21  CA  BAL d   1     -34.048   4.440 -38.274  0.00  0.00     0.086 C 
ATOM     22  H30 BAL d   1     -33.103   4.624 -38.806  0.00  0.00     0.086 H 
BRANCH  21  23
ATOM     23  N   BAL d   1     -35.130   4.675 -39.211  0.00  0.00    -0.346 N 
ATOM     24  C   BAL d   1     -35.046   4.271 -40.466  0.00  0.00     0.241 C 
ATOM     25  O   BAL d   1     -34.069   3.648 -40.883  0.00  0.00    -0.271 OA
ATOM     26  H29 BAL d   1     -35.953   5.151 -38.902  0.00  0.00     0.163 HD
BRANCH  24  27
ATOM     27  CA  BAL d   1     -36.275   4.501 -41.334  0.00  0.00     0.089 C 
ATOM     28  H19 BAL d   1     -36.880   5.303 -40.885  0.00  0.00     0.087 H 
BRANCH  27  29
ATOM     29  N   BAL d   1     -35.893   4.923 -42.673  0.00  0.00    -0.346 N 
ATOM     30  C   BAL d   1     -35.933   6.195 -43.030  0.00  0.00     0.241 C 
ATOM     31  O   BAL d   1     -36.332   7.089 -42.262  0.00  0.00    -0.271 OA
ATOM     32  H18 BAL d   1     -35.594   4.237 -43.336  0.00  0.00     0.163 HD
BRANCH  30  33
ATOM     33  CA  BAL d   1     -35.381   6.531 -44.406  0.00  0.00     0.093 C 
ATOM     34  H9  BAL d   1     -35.472   5.653 -45.062  0.00  0.00     0.088 H 
BRANCH  33  35
ATOM     35  N   BAL d   1     -36.116   7.617 -44.978  0.00  0.00    -0.347 N 
ATOM     36  C   BAL d   1     -37.341   7.485 -45.456  0.00  0.00     0.219 C 
ATOM     37  O   BAL d   1     -37.876   6.415 -45.624  0.00  0.00    -0.274 OA
ATOM     38  H8  BAL d   1     -35.683   8.517 -45.018  0.00  0.00     0.163 HD
BRANCH  36  39
ATOM     39  CA  BAL d   1     -38.011   8.783 -45.787  0.00  0.00     0.031 C 
ATOM     40  H6  BAL d   1     -38.006   9.419 -44.890  0.00  0.00     0.049 H 
ATOM     41  H7  BAL d   1     -37.443   9.276 -46.590  0.00  0.00     0.049 H 
BRANCH  39  42
ATOM     42  CB  BAL d   1     -39.476   8.604 -46.257  0.00  0.00     0.087 C 
ATOM     43  H4  BAL d   1     -39.508   7.962 -47.150  0.00  0.00     0.075 H 
ATOM     44  H5  BAL d   1     -40.075   8.148 -45.455  0.00  0.00     0.075 H 
BRANCH  42  45
ATOM     45  N   BAL d   1     -39.997   9.925 -46.576  0.00  0.00    -0.079 N 
ATOM     46  H1  BAL d   1     -40.953   9.843 -46.886  0.00  0.00     0.274 HD
ATOM     47  H2  BAL d   1     -39.440  10.338 -47.308  0.00  0.00     0.274 HD
ATOM     48  H3  BAL d   1     -39.959  10.508 -45.755  0.00  0.00     0.274 HD
ENDBRANCH  42  45
ENDBRANCH  39  42
ENDBRANCH  36  39
ENDBRANCH  33  35
BRANCH  33  49
ATOM     49  CB  BAL d   1     -33.911   6.894 -44.250  0.00  0.00    -0.012 C 
ATOM     50  H10 BAL d   1     -33.404   6.057 -43.747  0.00  0.00     0.044 H 
ATOM     51  H11 BAL d   1     -33.846   7.794 -43.620  0.00  0.00     0.044 H 
BRANCH  49  52
ATOM     52  CG  BAL d   1     -33.190   7.171 -45.532  0.00  0.00    -0.028 A 
ATOM     53  CD1 BAL d   1     -32.912   8.387 -46.118  0.00  0.00    -0.015 A 
ATOM     54  NE1 BAL d   1     -32.200   8.206 -47.259  0.00  0.00    -0.365 N 
ATOM     55  H12 BAL d   1     -33.219   9.354 -45.722  0.00  0.00     0.112 H 
ATOM     56  CE2 BAL d   1     -32.023   6.864 -47.456  0.00  0.00     0.042 A 
ATOM     57  H13 BAL d   1     -31.851   8.955 -47.874  0.00  0.00     0.165 HD
ATOM     58  CD2 BAL d   1     -32.615   6.193 -46.372  0.00  0.00    -0.002 A 
ATOM     59  CZ2 BAL d   1     -31.357   6.205 -48.469  0.00  0.00    -0.056 A 
ATOM     60  CE3 BAL d   1     -32.571   4.806 -46.336  0.00  0.00    -0.070 A 
ATOM     61  CZ3 BAL d   1     -31.907   4.158 -47.365  0.00  0.00    -0.082 A 
ATOM     62  H14 BAL d   1     -33.039   4.250 -45.532  0.00  0.00     0.084 H 
ATOM     63  CH2 BAL d   1     -31.311   4.851 -48.394  0.00  0.00    -0.081 A 
ATOM     64  H16 BAL d   1     -31.855   3.075 -47.359  0.00  0.00     0.083 H 
ATOM     65  H17 BAL d   1     -30.789   4.299 -49.167  0.00  0.00     0.083 H 
ATOM     66  H15 BAL d   1     -30.892   6.744 -49.287  0.00  0.00     0.086 H 
ENDBRANCH  49  52
ENDBRANCH  33  49
ENDBRANCH  30  33
ENDBRANCH  27  29
BRANCH  27  67
ATOM     67  CB  BAL d   1     -37.105   3.219 -41.348  0.00  0.00    -0.035 C 
ATOM     68  H20 BAL d   1     -37.320   2.948 -40.304  0.00  0.00     0.037 H 
ATOM     69  H21 BAL d   1     -36.495   2.430 -41.813  0.00  0.00     0.037 H 
BRANCH  67  70
ATOM     70  CG  BAL d   1     -38.421   3.279 -42.088  0.00  0.00    -0.059 C 
ATOM     71  H22 BAL d   1     -38.222   3.521 -43.143  0.00  0.00     0.038 H 
BRANCH  70  72
ATOM     72  CD1 BAL d   1     -39.126   1.902 -42.039  0.00  0.00    -0.073 C 
ATOM     73  H23 BAL d   1     -40.081   1.960 -42.581  0.00  0.00     0.028 H 
ATOM     74  H24 BAL d   1     -39.315   1.624 -40.992  0.00  0.00     0.028 H 
ATOM     75  H25 BAL d   1     -38.483   1.144 -42.510  0.00  0.00     0.028 H 
ENDBRANCH  70  72
BRANCH  70  76
ATOM     76  CD2 BAL d   1     -39.257   4.381 -41.504  0.00  0.00    -0.073 C 
ATOM     77  H26 BAL d   1     -38.706   5.331 -41.566  0.00  0.00     0.028 H 
ATOM     78  H27 BAL d   1     -39.479   4.154 -40.451  0.00  0.00     0.028 H 
ATOM     79  H28 BAL d   1     -40.198   4.465 -42.067  0.00  0.00     0.028 H 
ENDBRANCH  70  76
ENDBRANCH  67  70
ENDBRANCH  27  67
ENDBRANCH  24  27
ENDBRANCH  21  23
BRANCH  21  80
ATOM     80  CB  BAL d   1     -34.145   5.410 -37.084  0.00  0.00    -0.049 C 
ATOM     81  H31 BAL d   1     -33.318   5.217 -36.385  0.00  0.00     0.030 H 
ATOM     82  H32 BAL d   1     -35.104   5.261 -36.567  0.00  0.00     0.030 H 
ATOM     83  H33 BAL d   1     -34.083   6.446 -37.449  0.00  0.00     0.030 H 
ENDBRANCH  21  80
ENDBRANCH  18  21
ENDBRANCH  15  17
BRANCH  15  84
ATOM     84  CB  BAL d   1     -35.863   1.166 -35.677  0.00  0.00    -0.014 C 
ATOM     85  H36 BAL d   1     -36.946   1.298 -35.814  0.00  0.00     0.043 H 
ATOM     86  H37 BAL d   1     -35.443   2.060 -35.193  0.00  0.00     0.043 H 
BRANCH  84  87
ATOM     87  CG  BAL d   1     -35.641  -0.014 -34.768  0.00  0.00    -0.056 A 
ATOM     88  CD1 BAL d   1     -36.494  -1.094 -34.786  0.00  0.00    -0.074 A 
ATOM     89  CE1 BAL d   1     -36.294  -2.189 -33.958  0.00  0.00    -0.051 A 
ATOM     90  H38 BAL d   1     -37.341  -1.089 -35.462  0.00  0.00     0.084 H 
ATOM     91  CZ  BAL d   1     -35.249  -2.198 -33.092  0.00  0.00     0.065 A 
ATOM     92  H40 BAL d   1     -36.970  -3.035 -34.003  0.00  0.00     0.087 H 
ATOM     93  CE2 BAL d   1     -34.372  -1.125 -33.077  0.00  0.00    -0.051 A 
ATOM     94  CD2 BAL d   1     -34.566  -0.061 -33.899  0.00  0.00    -0.074 A 
ATOM     95  H41 BAL d   1     -33.523  -1.135 -32.403  0.00  0.00     0.087 H 
ATOM     96  H39 BAL d   1     -33.866   0.766 -33.873  0.00  0.00     0.084 H 
BRANCH  91  97
ATOM     97  OH  BAL d   1     -35.059  -3.286 -32.265  0.00  0.00    -0.361 OA
ATOM     98  H42 BAL d   1     -35.075  -3.001 -31.359  0.00  0.00     0.217 HD
ENDBRANCH  91  97
ENDBRANCH  84  87
ENDBRANCH  15  84
ENDBRANCH   1  15
BRANCH   4  99
ATOM     99  C   BAL d   1     -37.788  -2.249 -38.653  0.00  0.00     0.241 C 
ATOM    100  O   BAL d   1     -38.096  -2.388 -37.468  0.00  0.00    -0.271 OA
ATOM    101  N   BAL d   1     -38.659  -2.347 -39.654  0.00  0.00    -0.346 N 
ATOM    102  H50 BAL d   1     -38.352  -2.151 -40.586  0.00  0.00     0.163 HD
BRANCH 101 103
ATOM    103  CA  BAL d   1     -40.053  -2.733 -39.431  0.00  0.00     0.098 C 
ATOM    104  H51 BAL d   1     -40.592  -2.618 -40.383  0.00  0.00     0.088 H 
BRANCH 103 105
ATOM    105  C   BAL d   1     -40.736  -1.842 -38.405  0.00  0.00     0.241 C 
ATOM    106  O   BAL d   1     -41.504  -2.313 -37.562  0.00  0.00    -0.271 OA
ATOM    107  N   BAL d   1     -40.407  -0.555 -38.429  0.00  0.00    -0.344 N 
ATOM    108  H54 BAL d   1     -39.720  -0.238 -39.083  0.00  0.00     0.163 HD
BRANCH 107 109
ATOM    109  CA  BAL d   1     -41.024   0.403 -37.524  0.00  0.00     0.109 C 
ATOM    110  H55 BAL d   1     -41.603  -0.165 -36.781  0.00  0.00     0.090 H 
BRANCH 109 111
ATOM    111  C   BAL d   1     -41.997   1.299 -38.277  0.00  0.00     0.243 C 
ATOM    112  O   BAL d   1     -41.814   1.613 -39.455  0.00  0.00    -0.271 OA
ATOM    113  N   BAL d   1     -43.068   1.647 -37.581  0.00  0.00    -0.346 N 
ATOM    114  H59 BAL d   1     -43.139   1.312 -36.641  0.00  0.00     0.163 HD
BRANCH 113 115
ATOM    115  CA  BAL d   1     -44.154   2.484 -38.084  0.00  0.00     0.092 C 
ATOM    116  H60 BAL d   1     -43.798   3.025 -38.973  0.00  0.00     0.088 H 
BRANCH 115 117
ATOM    117  C   BAL d   1     -44.546   3.481 -37.023  0.00  0.00     0.243 C 
ATOM    118  O   BAL d   1     -44.357   3.254 -35.804  0.00  0.00    -0.271 OA
ATOM    119  N   BAL d   1     -45.132   4.604 -37.403  0.00  0.00    -0.337 N 
ATOM    120  CA  BAL d   1     -45.570   5.575 -36.404  0.00  0.00     0.091 C 
ATOM    121  CD  BAL d   1     -45.280   5.102 -38.792  0.00  0.00    -0.001 C 
ATOM    122  CB  BAL d   1     -46.167   6.711 -37.232  0.00  0.00    -0.036 C 
ATOM    123  H68 BAL d   1     -44.709   5.937 -35.822  0.00  0.00     0.087 H 
ATOM    124  CG  BAL d   1     -45.437   6.574 -38.584  0.00  0.00    -0.048 C 
ATOM    125  H69 BAL d   1     -45.962   7.688 -36.769  0.00  0.00     0.036 H 
ATOM    126  H70 BAL d   1     -47.253   6.583 -37.354  0.00  0.00     0.036 H 
ATOM    127  H71 BAL d   1     -44.454   7.066 -38.544  0.00  0.00     0.035 H 
ATOM    128  H72 BAL d   1     -46.036   7.017 -39.393  0.00  0.00     0.035 H 
ATOM    129  H73 BAL d   1     -46.168   4.671 -39.278  0.00  0.00     0.064 H 
ATOM    130  H74 BAL d   1     -44.387   4.877 -39.394  0.00  0.00     0.064 H 
BRANCH 120 131
ATOM    131  C   BAL d   1     -46.592   4.985 -35.448  0.00  0.00     0.241 C 
ATOM    132  O   BAL d   1     -47.441   4.175 -35.819  0.00  0.00    -0.271 OA
ATOM    133  N   BAL d   1     -46.520   5.437 -34.206  0.00  0.00    -0.344 N 
ATOM    134  H75 BAL d   1     -45.781   6.066 -33.965  0.00  0.00     0.163 HD
BRANCH 133 135
ATOM    135  CA  BAL d   1     -47.457   5.060 -33.198  0.00  0.00     0.100 C 
ATOM    136  H76 BAL d   1     -48.136   4.288 -33.590  0.00  0.00     0.090 H 
BRANCH 135 137
ATOM    137  C   BAL d   1     -48.212   6.312 -32.896  0.00  0.00     0.197 C 
ATOM    138  O   BAL d   1     -47.628   7.210 -32.260  0.00  0.00    -0.646 OA
ATOM    139  OXT BAL d   1     -49.389   6.398 -33.295  0.00  0.00    -0.646 OA
ENDBRANCH 135 137
BRANCH 135 140
ATOM    140  CB  BAL d   1     -46.805   4.539 -31.954  0.00  0.00    -0.013 C 
ATOM    141  H77 BAL d   1     -46.039   5.253 -31.617  0.00  0.00     0.043 H 
ATOM    142  H78 BAL d   1     -46.334   3.569 -32.168  0.00  0.00     0.043 H 
BRANCH 140 143
ATOM    143  CG  BAL d   1     -47.840   4.364 -30.865  0.00  0.00    -0.056 A 
ATOM    144  CD1 BAL d   1     -48.214   5.441 -30.076  0.00  0.00    -0.074 A 
ATOM    145  CE1 BAL d   1     -49.175   5.308 -29.073  0.00  0.00    -0.051 A 
ATOM    146  H79 BAL d   1     -47.750   6.407 -30.242  0.00  0.00     0.084 H 
ATOM    147  CZ  BAL d   1     -49.777   4.088 -28.876  0.00  0.00     0.065 A 
ATOM    148  H81 BAL d   1     -49.444   6.158 -28.456  0.00  0.00     0.087 H 
ATOM    149  CE2 BAL d   1     -49.432   3.005 -29.656  0.00  0.00    -0.051 A 
ATOM    150  CD2 BAL d   1     -48.485   3.154 -30.662  0.00  0.00    -0.074 A 
ATOM    151  H82 BAL d   1     -49.898   2.041 -29.485  0.00  0.00     0.087 H 
ATOM    152  H80 BAL d   1     -48.247   2.310 -31.299  0.00  0.00     0.084 H 
BRANCH 147 153
ATOM    153  OH  BAL d   1     -50.726   3.944 -27.893  0.00  0.00    -0.361 OA
ATOM    154  H83 BAL d   1     -50.849   4.775 -27.449  0.00  0.00     0.217 HD
ENDBRANCH 147 153
ENDBRANCH 140 143
ENDBRANCH 135 140
ENDBRANCH 133 135
ENDBRANCH 120 131
ENDBRANCH 115 117
BRANCH 115 155
ATOM    155  CB  BAL d   1     -45.380   1.649 -38.478  0.00  0.00    -0.033 C 
ATOM    156  H61 BAL d   1     -46.143   2.337 -38.870  0.00  0.00     0.042 H 
BRANCH 155 157
ATOM    157  CG1 BAL d   1     -45.051   0.596 -39.588  0.00  0.00    -0.071 C 
ATOM    158  H62 BAL d   1     -45.959   0.026 -39.834  0.00  0.00     0.028 H 
ATOM    159  H63 BAL d   1     -44.274  -0.092 -39.222  0.00  0.00     0.028 H 
ATOM    160  H64 BAL d   1     -44.688   1.113 -40.488  0.00  0.00     0.028 H 
ENDBRANCH 155 157
BRANCH 155 161
ATOM    161  CG2 BAL d   1     -45.948   0.934 -37.297  0.00  0.00    -0.071 C 
ATOM    162  H65 BAL d   1     -46.185   1.662 -36.507  0.00  0.00     0.028 H 
ATOM    163  H66 BAL d   1     -45.213   0.209 -36.919  0.00  0.00     0.028 H 
ATOM    164  H67 BAL d   1     -46.865   0.405 -37.595  0.00  0.00     0.028 H 
ENDBRANCH 155 161
ENDBRANCH 115 155
ENDBRANCH 113 115
ENDBRANCH 109 111
BRANCH 109 165
ATOM    165  CB  BAL d   1     -39.960   1.219 -36.754  0.00  0.00     0.044 C 
ATOM    166  H56 BAL d   1     -39.321   0.523 -36.191  0.00  0.00     0.077 H 
ATOM    167  H57 BAL d   1     -40.472   1.895 -36.054  0.00  0.00     0.077 H 
BRANCH 165 168
ATOM    168  OG  BAL d   1     -39.147   1.987 -37.612  0.00  0.00    -0.398 OA
ATOM    169  H58 BAL d   1     -38.694   1.411 -38.217  0.00  0.00     0.209 HD
ENDBRANCH 165 168
ENDBRANCH 109 165
ENDBRANCH 107 109
ENDBRANCH 103 105
BRANCH 103 170
ATOM    170  CB  BAL d   1     -40.122  -4.196 -39.024  0.00  0.00     0.043 C 
ATOM    171  H52 BAL d   1     -41.178  -4.495 -38.950  0.00  0.00     0.052 H 
ATOM    172  H53 BAL d   1     -39.638  -4.315 -38.044  0.00  0.00     0.052 H 
BRANCH 170 173
ATOM    173  CG  BAL d   1     -39.436  -5.086 -40.014  0.00  0.00     0.175 C 
ATOM    174  OD1 BAL d   1     -39.853  -5.062 -41.199  0.00  0.00    -0.648 OA
ATOM    175  OD2 BAL d   1     -38.456  -5.770 -39.639  0.00  0.00    -0.648 OA
ENDBRANCH 170 173
ENDBRANCH 103 170
ENDBRANCH 101 103
ENDBRANCH   4  99
TORSDOF 41
