REMARK WARNING: 32 MAX_TORS EXCEEDED!!!
REMARK  55 active torsions:
REMARK  status: ('A' for Active; 'I' for Inactive)
REMARK    1  A    between atoms: N_1  and  CB_2 
REMARK    2  A    between atoms: CB_2  and  CA_3 
REMARK    3  A    between atoms: CA_3  and  C_4 
REMARK       I    between atoms: C_4  and  N_6 
REMARK    4  A    between atoms: N_6  and  CA_7 
REMARK    5  A    between atoms: CA_7  and  C_8 
REMARK    6  A    between atoms: CA_7  and  CB_10 
REMARK       I    between atoms: C_8  and  N_20 
REMARK    7  A    between atoms: CB_10  and  CG_11 
REMARK    8  A    between atoms: N_20  and  CA_21 
REMARK    9  A    between atoms: CA_21  and  C_22 
REMARK   10  A    between atoms: CA_21  and  CB_24 
REMARK       I    between atoms: C_22  and  N_28 
REMARK   11  A    between atoms: CB_24  and  CG_25 
REMARK   12  A    between atoms: CG_25  and  CD1_26 
REMARK   13  A    between atoms: CG_25  and  CD2_27 
REMARK   14  A    between atoms: N_28  and  CA_29 
REMARK   15  A    between atoms: CA_29  and  C_30 
REMARK   16  A    between atoms: CA_29  and  CB_32 
REMARK       I    between atoms: C_30  and  N_33 
REMARK   17  A    between atoms: N_33  and  CA_34 
REMARK   18  A    between atoms: CA_34  and  C_35 
REMARK   19  A    between atoms: CA_34  and  CB_37 
REMARK       I    between atoms: C_35  and  N_45 
REMARK   20  A    between atoms: CB_37  and  CG_38 
REMARK   21  A    between atoms: CZ_43  and  OH_44 
REMARK   22  A    between atoms: CA_46  and  C_47 
REMARK       I    between atoms: C_47  and  N_52 
REMARK   23  A    between atoms: N_52  and  CA_53 
REMARK   24  A    between atoms: CA_53  and  C_54 
REMARK   25  A    between atoms: CA_53  and  CB_56 
REMARK       I    between atoms: C_54  and  N_60 
REMARK   26  A    between atoms: CB_56  and  CG_57 
REMARK   27  A    between atoms: N_60  and  CA_61 
REMARK   28  A    between atoms: CA_61  and  C_62 
REMARK   29  A    between atoms: CA_61  and  CB_64 
REMARK       I    between atoms: C_62  and  N_66 
REMARK   30  A    between atoms: CB_64  and  OG_65 
REMARK   31  A    between atoms: N_66  and  CA_67 
REMARK   32  A    between atoms: CA_67  and  C_68 
REMARK   33  A    between atoms: CA_67  and  CB_70 
REMARK       I    between atoms: C_68  and  N_73 
REMARK   34  A    between atoms: CB_70  and  CG1_71 
REMARK   35  A    between atoms: CB_70  and  CG2_72 
REMARK   36  A    between atoms: CA_74  and  C_75 
REMARK       I    between atoms: C_75  and  N_80 
REMARK   37  A    between atoms: N_80  and  CA_81 
REMARK   38  A    between atoms: CA_81  and  C_82 
REMARK   39  A    between atoms: CA_81  and  CB_84 
REMARK       I    between atoms: C_82  and  N_92 
REMARK   40  A    between atoms: CB_84  and  CG_85 
REMARK   41  A    between atoms: CZ_90  and  OH_91 
REMARK   42  A    between atoms: N_92  and  CA_93 
REMARK   43  A    between atoms: CA_93  and  C_94 
REMARK   44  A    between atoms: CA_93  and  CB_96 
REMARK       I    between atoms: C_94  and  N_103 
REMARK   45  A    between atoms: CB_96  and  CG_97 
REMARK   46  A    between atoms: CG_97  and  CD_98 
REMARK   47  A    between atoms: CD_98  and  NE_99 
REMARK       I    between atoms: NE_99  and  CZ_100 
REMARK       I    between atoms: CZ_100  and  NH1_101 
REMARK       I    between atoms: CZ_100  and  NH2_102 
REMARK   48  A    between atoms: CA_104  and  C_105 
REMARK       I    between atoms: C_105  and  N_110 
REMARK   49  A    between atoms: N_110  and  CA_111 
REMARK   50  A    between atoms: CA_111  and  C_112 
REMARK   51  A    between atoms: CA_111  and  CB_114 
REMARK   52  A    between atoms: CB_114  and  CG_115 
REMARK   53  A    between atoms: CG_115  and  CD_116 
REMARK   54  A    between atoms: CD_116  and  CE_117 
REMARK   55  A    between atoms: CE_117  and  NZ_118 
ROOT
ATOM      1  CA  BAL d   1     -22.196 -46.721  27.730  0.00  0.00     0.109 C 
ATOM      2  H55 BAL d   1     -22.866 -47.213  27.010  0.00  0.00     0.090 H 
ENDROOT
BRANCH   1   3
ATOM      3  N   BAL d   1     -23.006 -46.185  28.812  0.00  0.00    -0.344 N 
ATOM      4  C   BAL d   1     -24.252 -46.596  29.005  0.00  0.00     0.241 C 
ATOM      5  O   BAL d   1     -24.796 -47.408  28.249  0.00  0.00    -0.271 OA
ATOM      6  H54 BAL d   1     -22.617 -45.494  29.421  0.00  0.00     0.163 HD
BRANCH   4   7
ATOM      7  CA  BAL d   1     -25.002 -46.036  30.205  0.00  0.00     0.098 C 
ATOM      8  H51 BAL d   1     -24.736 -46.638  31.087  0.00  0.00     0.088 H 
BRANCH   7   9
ATOM      9  N   BAL d   1     -24.648 -44.644  30.486  0.00  0.00    -0.346 N 
ATOM     10  C   BAL d   1     -24.769 -43.678  29.574  0.00  0.00     0.241 C 
ATOM     11  O   BAL d   1     -25.048 -43.893  28.396  0.00  0.00    -0.271 OA
ATOM     12  H50 BAL d   1     -24.303 -44.408  31.395  0.00  0.00     0.163 HD
BRANCH  10  13
ATOM     13  CA  BAL d   1     -24.535 -42.262  30.080  0.00  0.00     0.091 C 
ATOM     14  N   BAL d   1     -23.832 -41.432  29.096  0.00  0.00    -0.337 N 
ATOM     15  C   BAL d   1     -22.610 -41.790  28.690  0.00  0.00     0.243 C 
ATOM     16  CD  BAL d   1     -24.588 -40.214  28.746  0.00  0.00    -0.001 C 
ATOM     17  O   BAL d   1     -22.093 -42.838  29.083  0.00  0.00    -0.271 OA
ATOM     18  CG  BAL d   1     -25.687 -40.178  29.762  0.00  0.00    -0.048 C 
ATOM     19  H48 BAL d   1     -24.997 -40.285  27.727  0.00  0.00     0.064 H 
ATOM     20  H49 BAL d   1     -23.951 -39.320  28.824  0.00  0.00     0.064 H 
ATOM     21  CB  BAL d   1     -25.865 -41.527  30.303  0.00  0.00    -0.036 C 
ATOM     22  H46 BAL d   1     -25.419 -39.485  30.573  0.00  0.00     0.035 H 
ATOM     23  H47 BAL d   1     -26.621 -39.843  29.287  0.00  0.00     0.035 H 
ATOM     24  H44 BAL d   1     -26.098 -41.479  31.377  0.00  0.00     0.036 H 
ATOM     25  H45 BAL d   1     -26.679 -42.045  29.774  0.00  0.00     0.036 H 
ATOM     26  H43 BAL d   1     -23.961 -42.310  31.017  0.00  0.00     0.087 H 
BRANCH  15  27
ATOM     27  CA  BAL d   1     -21.831 -40.862  27.766  0.00  0.00     0.093 C 
ATOM     28  H35 BAL d   1     -22.294 -39.864  27.789  0.00  0.00     0.088 H 
BRANCH  27  29
ATOM     29  N   BAL d   1     -20.454 -40.757  28.221  0.00  0.00    -0.346 N 
ATOM     30  C   BAL d   1     -19.827 -39.576  28.308  0.00  0.00     0.240 C 
ATOM     31  O   BAL d   1     -20.421 -38.513  28.138  0.00  0.00    -0.271 OA
ATOM     32  H34 BAL d   1     -19.961 -41.589  28.476  0.00  0.00     0.163 HD
BRANCH  30  33
ATOM     33  CA  BAL d   1     -18.334 -39.562  28.606  0.00  0.00     0.086 C 
ATOM     34  H30 BAL d   1     -18.099 -38.638  29.155  0.00  0.00     0.086 H 
BRANCH  33  35
ATOM     35  N   BAL d   1     -17.944 -40.693  29.439  0.00  0.00    -0.346 N 
ATOM     36  C   BAL d   1     -18.263 -40.748  30.732  0.00  0.00     0.241 C 
ATOM     37  O   BAL d   1     -18.853 -39.835  31.320  0.00  0.00    -0.271 OA
ATOM     38  H29 BAL d   1     -17.425 -41.444  29.031  0.00  0.00     0.163 HD
BRANCH  36  39
ATOM     39  CA  BAL d   1     -17.914 -42.051  31.447  0.00  0.00     0.089 C 
ATOM     40  H19 BAL d   1     -17.073 -42.526  30.922  0.00  0.00     0.087 H 
BRANCH  39  41
ATOM     41  N   BAL d   1     -17.511 -41.797  32.823  0.00  0.00    -0.346 N 
ATOM     42  C   BAL d   1     -16.235 -41.738  33.181  0.00  0.00     0.241 C 
ATOM     43  O   BAL d   1     -15.304 -41.982  32.397  0.00  0.00    -0.271 OA
ATOM     44  H18 BAL d   1     -18.217 -41.663  33.519  0.00  0.00     0.163 HD
BRANCH  42  45
ATOM     45  CA  BAL d   1     -15.972 -41.349  34.639  0.00  0.00     0.093 C 
ATOM     46  H9  BAL d   1     -16.791 -41.734  35.264  0.00  0.00     0.088 H 
BRANCH  45  47
ATOM     47  N   BAL d   1     -14.720 -41.935  35.109  0.00  0.00    -0.347 N 
ATOM     48  C   BAL d   1     -14.627 -42.490  36.318  0.00  0.00     0.219 C 
ATOM     49  O   BAL d   1     -15.591 -42.616  37.048  0.00  0.00    -0.274 OA
ATOM     50  H8  BAL d   1     -13.917 -41.920  34.513  0.00  0.00     0.163 HD
BRANCH  48  51
ATOM     51  CA  BAL d   1     -13.268 -42.970  36.735  0.00  0.00     0.031 C 
ATOM     52  H6  BAL d   1     -13.230 -44.063  36.615  0.00  0.00     0.049 H 
ATOM     53  H7  BAL d   1     -12.516 -42.503  36.082  0.00  0.00     0.049 H 
BRANCH  51  54
ATOM     54  CB  BAL d   1     -12.926 -42.622  38.211  0.00  0.00     0.087 C 
ATOM     55  H4  BAL d   1     -12.520 -41.601  38.263  0.00  0.00     0.075 H 
ATOM     56  H5  BAL d   1     -13.837 -42.686  38.824  0.00  0.00     0.075 H 
BRANCH  54  57
ATOM     57  N   BAL d   1     -11.930 -43.572  38.713  0.00  0.00    -0.079 N 
ATOM     58  H1  BAL d   1     -11.706 -43.349  39.670  0.00  0.00     0.274 HD
ATOM     59  H2  BAL d   1     -11.096 -43.513  38.150  0.00  0.00     0.274 HD
ATOM     60  H3  BAL d   1     -12.303 -44.507  38.664  0.00  0.00     0.274 HD
ENDBRANCH  54  57
ENDBRANCH  51  54
ENDBRANCH  48  51
ENDBRANCH  45  47
BRANCH  45  61
ATOM     61  CB  BAL d   1     -15.951 -39.818  34.744  0.00  0.00    -0.012 C 
ATOM     62  H10 BAL d   1     -16.927 -39.432  34.415  0.00  0.00     0.044 H 
ATOM     63  H11 BAL d   1     -15.162 -39.433  34.081  0.00  0.00     0.044 H 
BRANCH  61  64
ATOM     64  CG  BAL d   1     -15.687 -39.323  36.138  0.00  0.00    -0.028 A 
ATOM     65  CD1 BAL d   1     -16.603 -38.962  37.078  0.00  0.00    -0.015 A 
ATOM     66  NE1 BAL d   1     -15.958 -38.581  38.246  0.00  0.00    -0.365 N 
ATOM     67  H12 BAL d   1     -17.683 -38.971  36.934  0.00  0.00     0.112 H 
ATOM     68  CE2 BAL d   1     -14.604 -38.669  38.039  0.00  0.00     0.042 A 
ATOM     69  H13 BAL d   1     -16.417 -38.283  39.119  0.00  0.00     0.165 HD
ATOM     70  CD2 BAL d   1     -14.402 -39.137  36.728  0.00  0.00    -0.002 A 
ATOM     71  CZ2 BAL d   1     -13.543 -38.382  38.898  0.00  0.00    -0.056 A 
ATOM     72  CE3 BAL d   1     -13.092 -39.320  36.266  0.00  0.00    -0.070 A 
ATOM     73  CZ3 BAL d   1     -12.044 -39.041  37.116  0.00  0.00    -0.082 A 
ATOM     74  H14 BAL d   1     -12.906 -39.675  35.259  0.00  0.00     0.084 H 
ATOM     75  CH2 BAL d   1     -12.273 -38.574  38.418  0.00  0.00    -0.081 A 
ATOM     76  H16 BAL d   1     -11.026 -39.185  36.773  0.00  0.00     0.083 H 
ATOM     77  H17 BAL d   1     -11.426 -38.360  39.060  0.00  0.00     0.083 H 
ATOM     78  H15 BAL d   1     -13.716 -38.021  39.906  0.00  0.00     0.086 H 
ENDBRANCH  61  64
ENDBRANCH  45  61
ENDBRANCH  42  45
ENDBRANCH  39  41
BRANCH  39  79
ATOM     79  CB  BAL d   1     -19.113 -42.991  31.398  0.00  0.00    -0.035 C 
ATOM     80  H20 BAL d   1     -19.395 -43.108  30.341  0.00  0.00     0.037 H 
ATOM     81  H21 BAL d   1     -19.934 -42.504  31.945  0.00  0.00     0.037 H 
BRANCH  79  82
ATOM     82  CG  BAL d   1     -18.947 -44.387  31.980  0.00  0.00    -0.059 C 
ATOM     83  H22 BAL d   1     -18.683 -44.301  33.044  0.00  0.00     0.038 H 
BRANCH  82  84
ATOM     84  CD1 BAL d   1     -20.289 -45.075  31.851  0.00  0.00    -0.073 C 
ATOM     85  H23 BAL d   1     -20.220 -46.094  32.261  0.00  0.00     0.028 H 
ATOM     86  H24 BAL d   1     -20.575 -45.125  30.790  0.00  0.00     0.028 H 
ATOM     87  H25 BAL d   1     -21.048 -44.506  32.409  0.00  0.00     0.028 H 
ENDBRANCH  82  84
BRANCH  82  88
ATOM     88  CD2 BAL d   1     -17.851 -45.198  31.281  0.00  0.00    -0.073 C 
ATOM     89  H26 BAL d   1     -16.887 -44.680  31.388  0.00  0.00     0.028 H 
ATOM     90  H27 BAL d   1     -18.096 -45.301  30.213  0.00  0.00     0.028 H 
ATOM     91  H28 BAL d   1     -17.784 -46.195  31.740  0.00  0.00     0.028 H 
ENDBRANCH  82  88
ENDBRANCH  79  82
ENDBRANCH  39  79
ENDBRANCH  36  39
ENDBRANCH  33  35
BRANCH  33  92
ATOM     92  CB  BAL d   1     -17.551 -39.554  27.281  0.00  0.00    -0.049 C 
ATOM     93  H31 BAL d   1     -17.865 -38.692  26.675  0.00  0.00     0.030 H 
ATOM     94  H32 BAL d   1     -17.754 -40.484  26.729  0.00  0.00     0.030 H 
ATOM     95  H33 BAL d   1     -16.474 -39.481  27.492  0.00  0.00     0.030 H 
ENDBRANCH  33  92
ENDBRANCH  30  33
ENDBRANCH  27  29
BRANCH  27  96
ATOM     96  CB  BAL d   1     -21.863 -41.394  26.324  0.00  0.00    -0.014 C 
ATOM     97  H36 BAL d   1     -21.673 -42.477  26.355  0.00  0.00     0.043 H 
ATOM     98  H37 BAL d   1     -21.061 -40.897  25.759  0.00  0.00     0.043 H 
BRANCH  96  99
ATOM     99  CG  BAL d   1     -23.159 -41.168  25.593  0.00  0.00    -0.056 A 
ATOM    100  CD1 BAL d   1     -24.219 -42.065  25.720  0.00  0.00    -0.074 A 
ATOM    101  CE1 BAL d   1     -25.423 -41.841  25.064  0.00  0.00    -0.051 A 
ATOM    102  H38 BAL d   1     -24.102 -42.948  26.338  0.00  0.00     0.084 H 
ATOM    103  CZ  BAL d   1     -25.579 -40.707  24.290  0.00  0.00     0.065 A 
ATOM    104  H40 BAL d   1     -26.236 -42.552  25.159  0.00  0.00     0.087 H 
ATOM    105  CE2 BAL d   1     -24.552 -39.801  24.169  0.00  0.00    -0.051 A 
ATOM    106  CD2 BAL d   1     -23.356 -40.030  24.825  0.00  0.00    -0.074 A 
ATOM    107  H41 BAL d   1     -24.679 -38.912  23.562  0.00  0.00     0.087 H 
ATOM    108  H39 BAL d   1     -22.555 -39.304  24.737  0.00  0.00     0.084 H 
BRANCH 103 109
ATOM    109  OH  BAL d   1     -26.775 -40.485  23.651  0.00  0.00    -0.361 OA
ATOM    110  H42 BAL d   1     -27.370 -41.201  23.838  0.00  0.00     0.217 HD
ENDBRANCH 103 109
ENDBRANCH  96  99
ENDBRANCH  27  96
ENDBRANCH  15  27
ENDBRANCH  10  13
ENDBRANCH   7   9
BRANCH   7 111
ATOM    111  CB  BAL d   1     -26.505 -46.165  29.964  0.00  0.00     0.043 C 
ATOM    112  H52 BAL d   1     -26.752 -47.229  29.830  0.00  0.00     0.052 H 
ATOM    113  H53 BAL d   1     -26.765 -45.610  29.051  0.00  0.00     0.052 H 
BRANCH 111 114
ATOM    114  CG  BAL d   1     -27.319 -45.620  31.111  0.00  0.00     0.175 C 
ATOM    115  OD1 BAL d   1     -27.130 -46.088  32.254  0.00  0.00    -0.648 OA
ATOM    116  OD2 BAL d   1     -28.140 -44.716  30.861  0.00  0.00    -0.648 OA
ENDBRANCH 111 114
ENDBRANCH   7 111
ENDBRANCH   4   7
ENDBRANCH   1   3
BRANCH   1 117
ATOM    117  C   BAL d   1     -21.218 -47.763  28.262  0.00  0.00     0.243 C 
ATOM    118  O   BAL d   1     -20.734 -47.667  29.390  0.00  0.00    -0.271 OA
ATOM    119  N   BAL d   1     -20.956 -48.776  27.442  0.00  0.00    -0.346 N 
ATOM    120  H59 BAL d   1     -21.414 -48.815  26.554  0.00  0.00     0.163 HD
BRANCH 119 121
ATOM    121  CA  BAL d   1     -20.013 -49.836  27.806  0.00  0.00     0.092 C 
ATOM    122  H60 BAL d   1     -19.384 -49.477  28.634  0.00  0.00     0.088 H 
BRANCH 121 123
ATOM    123  C   BAL d   1     -19.128 -50.147  26.615  0.00  0.00     0.243 C 
ATOM    124  O   BAL d   1     -19.519 -49.962  25.454  0.00  0.00    -0.271 OA
ATOM    125  N   BAL d   1     -17.903 -50.600  26.872  0.00  0.00    -0.337 N 
ATOM    126  CA  BAL d   1     -16.991 -50.926  25.763  0.00  0.00     0.091 C 
ATOM    127  CD  BAL d   1     -17.221 -50.687  28.187  0.00  0.00    -0.001 C 
ATOM    128  CB  BAL d   1     -15.732 -51.439  26.470  0.00  0.00    -0.036 C 
ATOM    129  H68 BAL d   1     -16.761 -50.026  25.174  0.00  0.00     0.087 H 
ATOM    130  CG  BAL d   1     -15.763 -50.785  27.818  0.00  0.00    -0.048 C 
ATOM    131  H69 BAL d   1     -14.828 -51.145  25.916  0.00  0.00     0.036 H 
ATOM    132  H70 BAL d   1     -15.761 -52.534  26.569  0.00  0.00     0.036 H 
ATOM    133  H71 BAL d   1     -15.311 -49.783  27.769  0.00  0.00     0.035 H 
ATOM    134  H72 BAL d   1     -15.221 -51.397  28.554  0.00  0.00     0.035 H 
ATOM    135  H73 BAL d   1     -17.547 -51.579  28.742  0.00  0.00     0.064 H 
ATOM    136  H74 BAL d   1     -17.415 -49.788  28.791  0.00  0.00     0.064 H 
BRANCH 126 137
ATOM    137  C   BAL d   1     -17.593 -51.975  24.845  0.00  0.00     0.241 C 
ATOM    138  O   BAL d   1     -18.260 -52.917  25.295  0.00  0.00    -0.271 OA
ATOM    139  N   BAL d   1     -17.363 -51.793  23.538  0.00  0.00    -0.346 N 
ATOM    140  H75 BAL d   1     -16.764 -51.040  23.266  0.00  0.00     0.163 HD
BRANCH 139 141
ATOM    141  CA  BAL d   1     -17.933 -52.625  22.491  0.00  0.00     0.093 C 
ATOM    142  H76 BAL d   1     -18.354 -53.529  22.956  0.00  0.00     0.088 H 
BRANCH 141 143
ATOM    143  C   BAL d   1     -16.882 -53.034  21.468  0.00  0.00     0.241 C 
ATOM    144  O   BAL d   1     -16.073 -52.204  21.036  0.00  0.00    -0.271 OA
ATOM    145  N   BAL d   1     -16.901 -54.303  21.067  0.00  0.00    -0.346 N 
ATOM    146  H84 BAL d   1     -17.506 -54.950  21.531  0.00  0.00     0.163 HD
BRANCH 145 147
ATOM    147  CA  BAL d   1     -16.054 -54.782  19.957  0.00  0.00     0.089 C 
ATOM    148  H85 BAL d   1     -15.812 -53.926  19.310  0.00  0.00     0.087 H 
BRANCH 147 149
ATOM    149  C   BAL d   1     -16.854 -55.801  19.150  0.00  0.00     0.243 C 
ATOM    150  O   BAL d   1     -17.439 -56.722  19.749  0.00  0.00    -0.271 OA
ATOM    151  N   BAL d   1     -16.961 -55.669  17.827  0.00  0.00    -0.337 N 
ATOM    152  CA  BAL d   1     -17.671 -56.711  17.077  0.00  0.00     0.091 C 
ATOM    153  CD  BAL d   1     -16.433 -54.611  16.937  0.00  0.00    -0.001 C 
ATOM    154  CB  BAL d   1     -17.608 -56.231  15.622  0.00  0.00    -0.036 C 
ATOM    155  H97 BAL d   1     -18.714 -56.803  17.414  0.00  0.00     0.087 H 
ATOM    156  CG  BAL d   1     -17.181 -54.834  15.652  0.00  0.00    -0.048 C 
ATOM    157  H98 BAL d   1     -18.600 -56.313  15.154  0.00  0.00     0.036 H 
ATOM    158  H99 BAL d   1     -16.884 -56.835  15.056  0.00  0.00     0.036 H 
ATOM    159 0H10 BAL d   1     -18.059 -54.173  15.611  0.00  0.00     0.035 H 
ATOM    160 1H10 BAL d   1     -16.524 -54.625  14.795  0.00  0.00     0.035 H 
ATOM    161 2H10 BAL d   1     -15.349 -54.727  16.787  0.00  0.00     0.064 H 
ATOM    162 3H10 BAL d   1     -16.642 -53.611  17.346  0.00  0.00     0.064 H 
BRANCH 152 163
ATOM    163  C   BAL d   1     -16.952 -58.047  17.253  0.00  0.00     0.241 C 
ATOM    164  O   BAL d   1     -15.723 -58.119  17.323  0.00  0.00    -0.271 OA
ATOM    165  N   BAL d   1     -17.719 -59.125  17.269  0.00  0.00    -0.345 N 
ATOM    166 4H10 BAL d   1     -18.708 -59.046  17.145  0.00  0.00     0.163 HD
BRANCH 165 167
ATOM    167  CA  BAL d   1     -17.099 -60.430  17.470  0.00  0.00     0.096 C 
ATOM    168 5H10 BAL d   1     -16.034 -60.273  17.694  0.00  0.00     0.089 H 
BRANCH 167 169
ATOM    169  C   BAL d   1     -17.188 -61.285  16.214  0.00  0.00     0.196 C 
ATOM    170  O   BAL d   1     -16.445 -62.257  16.067  0.00  0.00    -0.646 OA
ATOM    171  OXT BAL d   1     -17.975 -61.007  15.309  0.00  0.00    -0.646 OA
ENDBRANCH 167 169
BRANCH 167 172
ATOM    172  CB  BAL d   1     -17.741 -61.124  18.674  0.00  0.00    -0.037 C 
ATOM    173 6H10 BAL d   1     -17.400 -62.169  18.707  0.00  0.00     0.036 H 
ATOM    174 7H10 BAL d   1     -18.835 -61.099  18.558  0.00  0.00     0.036 H 
BRANCH 172 175
ATOM    175  CG  BAL d   1     -17.366 -60.439  19.988  0.00  0.00    -0.061 C 
ATOM    176 8H10 BAL d   1     -17.681 -59.386  19.931  0.00  0.00     0.033 H 
ATOM    177 9H10 BAL d   1     -16.273 -60.489  20.105  0.00  0.00     0.033 H 
BRANCH 175 178
ATOM    178  CD  BAL d   1     -18.007 -61.064  21.218  0.00  0.00    -0.043 C 
ATOM    179 0H11 BAL d   1     -17.705 -62.119  21.289  0.00  0.00     0.035 H 
ATOM    180 1H11 BAL d   1     -19.102 -61.001  21.129  0.00  0.00     0.035 H 
BRANCH 178 181
ATOM    181  CE  BAL d   1     -17.560 -60.325  22.477  0.00  0.00     0.080 C 
ATOM    182 2H11 BAL d   1     -17.852 -59.269  22.384  0.00  0.00     0.075 H 
ATOM    183 3H11 BAL d   1     -16.465 -60.397  22.553  0.00  0.00     0.075 H 
BRANCH 181 184
ATOM    184  NZ  BAL d   1     -18.157 -60.871  23.726  0.00  0.00    -0.079 N 
ATOM    185 4H11 BAL d   1     -17.824 -60.342  24.517  0.00  0.00     0.274 HD
ATOM    186 5H11 BAL d   1     -17.890 -61.837  23.831  0.00  0.00     0.274 HD
ATOM    187 6H11 BAL d   1     -19.162 -60.803  23.676  0.00  0.00     0.274 HD
ENDBRANCH 181 184
ENDBRANCH 178 181
ENDBRANCH 175 178
ENDBRANCH 172 175
ENDBRANCH 167 172
ENDBRANCH 165 167
ENDBRANCH 152 163
ENDBRANCH 147 149
BRANCH 147 188
ATOM    188  CB  BAL d   1     -14.739 -55.399  20.436  0.00  0.00    -0.036 C 
ATOM    189  H86 BAL d   1     -14.970 -56.275  21.060  0.00  0.00     0.036 H 
ATOM    190  H87 BAL d   1     -14.200 -54.652  21.038  0.00  0.00     0.036 H 
BRANCH 188 191
ATOM    191  CG  BAL d   1     -13.839 -55.841  19.294  0.00  0.00    -0.048 C 
ATOM    192  H88 BAL d   1     -13.749 -55.015  18.573  0.00  0.00     0.035 H 
ATOM    193  H89 BAL d   1     -14.295 -56.711  18.799  0.00  0.00     0.035 H 
BRANCH 191 194
ATOM    194  CD  BAL d   1     -12.449 -56.224  19.778  0.00  0.00     0.009 C 
ATOM    195  H90 BAL d   1     -12.546 -56.849  20.678  0.00  0.00     0.064 H 
ATOM    196  H91 BAL d   1     -11.894 -55.307  20.026  0.00  0.00     0.064 H 
BRANCH 194 197
ATOM    197  NE  BAL d   1     -11.703 -56.968  18.763  0.00  0.00    -0.227 N 
ATOM    198  CZ  BAL d   1     -10.811 -56.441  17.925  0.00  0.00     0.665 C 
ATOM    199  NH1 BAL d   1     -10.525 -55.144  17.957  0.00  0.00    -0.235 N 
ATOM    200  NH2 BAL d   1     -10.197 -57.224  17.047  0.00  0.00    -0.235 N 
ATOM    201  H93 BAL d   1      -9.833 -54.753  17.302  0.00  0.00     0.174 HD
ATOM    202  H94 BAL d   1     -10.995 -54.529  18.637  0.00  0.00     0.174 HD
ATOM    203  H95 BAL d   1     -10.413 -58.231  17.015  0.00  0.00     0.174 HD
ATOM    204  H96 BAL d   1      -9.505 -56.825  16.397  0.00  0.00     0.174 HD
ATOM    205  H92 BAL d   1     -11.882 -57.980  18.690  0.00  0.00     0.177 HD
ENDBRANCH 194 197
ENDBRANCH 191 194
ENDBRANCH 188 191
ENDBRANCH 147 188
ENDBRANCH 145 147
ENDBRANCH 141 143
BRANCH 141 206
ATOM    206  CB  BAL d   1     -19.033 -51.888  21.745  0.00  0.00    -0.014 C 
ATOM    207  H77 BAL d   1     -18.606 -50.974  21.306  0.00  0.00     0.043 H 
ATOM    208  H78 BAL d   1     -19.821 -51.617  22.463  0.00  0.00     0.043 H 
BRANCH 206 209
ATOM    209  CG  BAL d   1     -19.654 -52.705  20.639  0.00  0.00    -0.056 A 
ATOM    210  CD1 BAL d   1     -20.538 -53.735  20.921  0.00  0.00    -0.074 A 
ATOM    211  CE1 BAL d   1     -21.098 -54.479  19.904  0.00  0.00    -0.051 A 
ATOM    212  H79 BAL d   1     -20.791 -53.958  21.951  0.00  0.00     0.084 H 
ATOM    213  CZ  BAL d   1     -20.762 -54.226  18.597  0.00  0.00     0.065 A 
ATOM    214  H81 BAL d   1     -21.806 -55.266  20.137  0.00  0.00     0.087 H 
ATOM    215  CE2 BAL d   1     -19.871 -53.235  18.293  0.00  0.00    -0.051 A 
ATOM    216  CD2 BAL d   1     -19.321 -52.484  19.312  0.00  0.00    -0.074 A 
ATOM    217  H82 BAL d   1     -19.599 -53.041  17.262  0.00  0.00     0.087 H 
ATOM    218  H80 BAL d   1     -18.611 -51.702  19.068  0.00  0.00     0.084 H 
BRANCH 213 219
ATOM    219  OH  BAL d   1     -21.303 -54.970  17.569  0.00  0.00    -0.361 OA
ATOM    220  H83 BAL d   1     -21.774 -54.395  16.978  0.00  0.00     0.217 HD
ENDBRANCH 213 219
ENDBRANCH 206 209
ENDBRANCH 141 206
ENDBRANCH 139 141
ENDBRANCH 126 137
ENDBRANCH 121 123
BRANCH 121 221
ATOM    221  CB  BAL d   1     -20.741 -51.113  28.265  0.00  0.00    -0.033 C 
ATOM    222  H61 BAL d   1     -19.987 -51.852  28.572  0.00  0.00     0.042 H 
BRANCH 221 223
ATOM    223  CG1 BAL d   1     -21.630 -50.801  29.457  0.00  0.00    -0.071 C 
ATOM    224  H62 BAL d   1     -22.146 -51.717  29.779  0.00  0.00     0.028 H 
ATOM    225  H63 BAL d   1     -22.373 -50.042  29.171  0.00  0.00     0.028 H 
ATOM    226  H64 BAL d   1     -21.014 -50.418  30.284  0.00  0.00     0.028 H 
ENDBRANCH 221 223
BRANCH 221 227
ATOM    227  CG2 BAL d   1     -21.568 -51.711  27.139  0.00  0.00    -0.071 C 
ATOM    228  H65 BAL d   1     -20.915 -51.933  26.282  0.00  0.00     0.028 H 
ATOM    229  H66 BAL d   1     -22.344 -50.994  26.833  0.00  0.00     0.028 H 
ATOM    230  H67 BAL d   1     -22.044 -52.640  27.487  0.00  0.00     0.028 H 
ENDBRANCH 221 227
ENDBRANCH 121 221
ENDBRANCH 119 121
ENDBRANCH   1 117
BRANCH   1 231
ATOM    231  CB  BAL d   1     -21.450 -45.600  27.000  0.00  0.00     0.044 C 
ATOM    232  H56 BAL d   1     -22.190 -44.924  26.546  0.00  0.00     0.077 H 
ATOM    233  H57 BAL d   1     -20.830 -46.048  26.210  0.00  0.00     0.077 H 
BRANCH 231 234
ATOM    234  OG  BAL d   1     -20.608 -44.839  27.860  0.00  0.00    -0.398 OA
ATOM    235  H58 BAL d   1     -20.172 -44.161  27.356  0.00  0.00     0.209 HD
ENDBRANCH 231 234
ENDBRANCH   1 231
TORSDOF 55
