REMARK WARNING: 32 MAX_TORS EXCEEDED!!!
REMARK  42 active torsions:
REMARK  status: ('A' for Active; 'I' for Inactive)
REMARK    1  A    between atoms: N_1  and  CA_2 
REMARK    2  A    between atoms: CA_2  and  C_3 
REMARK    3  A    between atoms: CA_2  and  CB_5 
REMARK       I    between atoms: C_3  and  N_15 
REMARK    4  A    between atoms: CB_5  and  CG_6 
REMARK    5  A    between atoms: N_15  and  CA_16 
REMARK    6  A    between atoms: CA_16  and  C_17 
REMARK    7  A    between atoms: CA_16  and  CB_19 
REMARK       I    between atoms: C_17  and  N_23 
REMARK    8  A    between atoms: CB_19  and  CG_20 
REMARK    9  A    between atoms: CG_20  and  CD1_21 
REMARK   10  A    between atoms: CG_20  and  CD2_22 
REMARK   11  A    between atoms: N_23  and  CA_24 
REMARK   12  A    between atoms: CA_24  and  C_25 
REMARK   13  A    between atoms: CA_24  and  CB_27 
REMARK       I    between atoms: C_25  and  N_28 
REMARK   14  A    between atoms: N_28  and  CA_29 
REMARK   15  A    between atoms: CA_29  and  C_30 
REMARK   16  A    between atoms: CA_29  and  CB_32 
REMARK       I    between atoms: C_30  and  N_40 
REMARK   17  A    between atoms: CB_32  and  CG_33 
REMARK   18  A    between atoms: CZ_38  and  OH_39 
REMARK   19  A    between atoms: CA_41  and  C_42 
REMARK       I    between atoms: C_42  and  N_47 
REMARK   20  A    between atoms: N_47  and  CA_48 
REMARK   21  A    between atoms: CA_48  and  C_49 
REMARK   22  A    between atoms: CA_48  and  CB_51 
REMARK       I    between atoms: C_49  and  N_55 
REMARK   23  A    between atoms: CB_51  and  CG_52 
REMARK   24  A    between atoms: N_55  and  CA_56 
REMARK   25  A    between atoms: CA_56  and  C_57 
REMARK   26  A    between atoms: CA_56  and  CB_59 
REMARK       I    between atoms: C_57  and  N_61 
REMARK   27  A    between atoms: CB_59  and  OG_60 
REMARK   28  A    between atoms: N_61  and  CA_62 
REMARK   29  A    between atoms: CA_62  and  C_63 
REMARK   30  A    between atoms: CA_62  and  CB_65 
REMARK       I    between atoms: C_63  and  N_68 
REMARK   31  A    between atoms: CB_65  and  CG1_66 
REMARK   32  A    between atoms: CB_65  and  CG2_67 
REMARK   33  A    between atoms: CA_69  and  C_70 
REMARK       I    between atoms: C_70  and  N_75 
REMARK   34  A    between atoms: N_75  and  CA_76 
REMARK   35  A    between atoms: CA_76  and  C_77 
REMARK   36  A    between atoms: CA_76  and  CB_79 
REMARK       I    between atoms: C_77  and  N_87 
REMARK   37  A    between atoms: CB_79  and  CG_80 
REMARK   38  A    between atoms: CZ_85  and  OH_86 
REMARK   39  A    between atoms: N_87  and  CA_88 
REMARK   40  A    between atoms: CA_88  and  C_89 
REMARK   41  A    between atoms: CA_88  and  CB_91 
REMARK   42  A    between atoms: CB_91  and  OG_92 
ROOT
ATOM      1  C   TRP d   1      -4.297 -29.788   9.943  0.00  0.00     0.243 C 
ATOM      2  O   TRP d   1      -4.948 -30.362  10.821  0.00  0.00    -0.271 OA
ATOM      3  N   TRP d   1      -3.098 -30.235   9.550  0.00  0.00    -0.337 N 
ATOM      4  CA  TRP d   1      -2.561 -31.502  10.086  0.00  0.00     0.091 C 
ATOM      5  CB  TRP d   1      -1.176 -31.620   9.429  0.00  0.00    -0.036 C 
ATOM      6  CG  TRP d   1      -1.214 -30.702   8.230  0.00  0.00    -0.048 A 
ATOM      7  CD  TRP d   1      -2.158 -29.574   8.628  0.00  0.00    -0.001 C 
ATOM      8  H38 TRP d   1      -3.206 -32.342   9.789  0.00  0.00     0.087 H 
ATOM      9  H39 TRP d   1      -0.988 -32.657   9.113  0.00  0.00     0.036 H 
ATOM     10  H40 TRP d   1      -0.390 -31.303  10.130  0.00  0.00     0.036 H 
ATOM     11  H41 TRP d   1      -1.598 -31.234   7.347  0.00  0.00     0.035 H 
ATOM     12  H42 TRP d   1      -0.210 -30.308   8.013  0.00  0.00     0.035 H 
ATOM     13  H43 TRP d   1      -1.613 -28.763   9.134  0.00  0.00     0.064 H 
ATOM     14  H44 TRP d   1      -2.684 -29.171   7.750  0.00  0.00     0.064 H 
ENDROOT
BRANCH   4  15
ATOM     15  C   TRP d   1      -2.424 -31.498  11.608  0.00  0.00     0.241 C 
ATOM     16  O   TRP d   1      -2.045 -30.491  12.219  0.00  0.00    -0.271 OA
ATOM     17  N   TRP d   1      -2.715 -32.653  12.210  0.00  0.00    -0.346 N 
ATOM     18  H45 TRP d   1      -3.137 -33.383  11.673  0.00  0.00     0.163 HD
BRANCH  17  19
ATOM     19  CA  TRP d   1      -2.438 -32.889  13.628  0.00  0.00     0.098 C 
ATOM     20  H46 TRP d   1      -2.896 -33.849  13.907  0.00  0.00     0.088 H 
BRANCH  19  21
ATOM     21  C   TRP d   1      -3.041 -31.798  14.502  0.00  0.00     0.241 C 
ATOM     22  O   TRP d   1      -2.430 -31.350  15.467  0.00  0.00    -0.271 OA
ATOM     23  N   TRP d   1      -4.205 -31.307  14.114  0.00  0.00    -0.344 N 
ATOM     24  H49 TRP d   1      -4.621 -31.637  13.267  0.00  0.00     0.163 HD
BRANCH  23  25
ATOM     25  CA  TRP d   1      -4.888 -30.296  14.900  0.00  0.00     0.109 C 
ATOM     26  H50 TRP d   1      -4.183 -29.889  15.640  0.00  0.00     0.090 H 
BRANCH  25  27
ATOM     27  C   TRP d   1      -6.045 -30.958  15.630  0.00  0.00     0.243 C 
ATOM     28  O   TRP d   1      -6.693 -31.874  15.109  0.00  0.00    -0.271 OA
ATOM     29  N   TRP d   1      -6.309 -30.457  16.832  0.00  0.00    -0.346 N 
ATOM     30  H54 TRP d   1      -5.746 -29.702  17.168  0.00  0.00     0.163 HD
BRANCH  29  31
ATOM     31  CA  TRP d   1      -7.382 -30.957  17.683  0.00  0.00     0.092 C 
ATOM     32  H55 TRP d   1      -8.083 -31.541  17.068  0.00  0.00     0.088 H 
BRANCH  31  33
ATOM     33  C   TRP d   1      -8.117 -29.770  18.292  0.00  0.00     0.243 C 
ATOM     34  O   TRP d   1      -7.560 -28.675  18.443  0.00  0.00    -0.271 OA
ATOM     35  N   TRP d   1      -9.386 -29.961  18.650  0.00  0.00    -0.337 N 
ATOM     36  CA  TRP d   1     -10.135 -28.847  19.227  0.00  0.00     0.091 C 
ATOM     37  CD  TRP d   1     -10.244 -31.132  18.404  0.00  0.00    -0.001 C 
ATOM     38  CB  TRP d   1     -11.504 -29.457  19.544  0.00  0.00    -0.036 C 
ATOM     39  H63 TRP d   1     -10.236 -28.024  18.504  0.00  0.00     0.087 H 
ATOM     40  CG  TRP d   1     -11.649 -30.579  18.578  0.00  0.00    -0.048 A 
ATOM     41  H64 TRP d   1     -12.303 -28.715  19.399  0.00  0.00     0.036 H 
ATOM     42  H65 TRP d   1     -11.533 -29.829  20.579  0.00  0.00     0.036 H 
ATOM     43  H66 TRP d   1     -12.043 -30.214  17.618  0.00  0.00     0.035 H 
ATOM     44  H67 TRP d   1     -12.321 -31.351  18.980  0.00  0.00     0.035 H 
ATOM     45  H68 TRP d   1     -10.041 -31.929  19.134  0.00  0.00     0.064 H 
ATOM     46  H69 TRP d   1     -10.097 -31.521  17.386  0.00  0.00     0.064 H 
BRANCH  36  47
ATOM     47  C   TRP d   1      -9.439 -28.338  20.473  0.00  0.00     0.241 C 
ATOM     48  O   TRP d   1      -8.856 -29.108  21.240  0.00  0.00    -0.271 OA
ATOM     49  N   TRP d   1      -9.502 -27.030  20.671  0.00  0.00    -0.346 N 
ATOM     50  H70 TRP d   1      -9.979 -26.462  20.000  0.00  0.00     0.163 HD
BRANCH  49  51
ATOM     51  CA  TRP d   1      -8.902 -26.392  21.831  0.00  0.00     0.093 C 
ATOM     52  H71 TRP d   1      -8.391 -27.152  22.440  0.00  0.00     0.088 H 
BRANCH  51  53
ATOM     53  C   TRP d   1      -9.994 -25.740  22.650  0.00  0.00     0.241 C 
ATOM     54  O   TRP d   1     -10.639 -24.801  22.176  0.00  0.00    -0.271 OA
ATOM     55  N   TRP d   1     -10.154 -26.174  23.889  0.00  0.00    -0.343 N 
ATOM     56  H79 TRP d   1      -9.584 -26.919  24.236  0.00  0.00     0.163 HD
BRANCH  55  57
ATOM     57  CA  TRP d   1     -11.166 -25.564  24.752  0.00  0.00     0.116 C 
ATOM     58  H80 TRP d   1     -11.140 -24.476  24.593  0.00  0.00     0.093 H 
BRANCH  57  59
ATOM     59  C   TRP d   1     -10.891 -25.828  26.241  0.00  0.00     0.198 C 
ATOM     60  O   TRP d   1      -9.955 -25.269  26.820  0.00  0.00    -0.646 OA
ATOM     61  OXT TRP d   1     -11.601 -26.604  26.887  0.00  0.00    -0.646 OA
ENDBRANCH  57  59
BRANCH  57  62
ATOM     62  CB  TRP d   1     -12.557 -26.077  24.353  0.00  0.00     0.045 C 
ATOM     63  H81 TRP d   1     -12.628 -27.147  24.598  0.00  0.00     0.077 H 
ATOM     64  H82 TRP d   1     -12.692 -25.939  23.270  0.00  0.00     0.077 H 
BRANCH  62  65
ATOM     65  OG  TRP d   1     -13.582 -25.378  25.038  0.00  0.00    -0.398 OA
ATOM     66  H83 TRP d   1     -13.473 -25.497  25.974  0.00  0.00     0.209 HD
ENDBRANCH  62  65
ENDBRANCH  57  62
ENDBRANCH  55  57
ENDBRANCH  51  53
BRANCH  51  67
ATOM     67  CB  TRP d   1      -7.897 -25.343  21.401  0.00  0.00    -0.014 C 
ATOM     68  H72 TRP d   1      -8.398 -24.651  20.708  0.00  0.00     0.043 H 
ATOM     69  H73 TRP d   1      -7.072 -25.851  20.880  0.00  0.00     0.043 H 
BRANCH  67  70
ATOM     70  CG  TRP d   1      -7.314 -24.536  22.531  0.00  0.00    -0.056 A 
ATOM     71  CD1 TRP d   1      -6.232 -25.006  23.266  0.00  0.00    -0.074 A 
ATOM     72  CE1 TRP d   1      -5.694 -24.253  24.314  0.00  0.00    -0.051 A 
ATOM     73  H74 TRP d   1      -5.799 -25.970  23.023  0.00  0.00     0.084 H 
ATOM     74  CZ  TRP d   1      -6.246 -23.019  24.603  0.00  0.00     0.065 A 
ATOM     75  H76 TRP d   1      -4.857 -24.631  24.891  0.00  0.00     0.087 H 
ATOM     76  CE2 TRP d   1      -7.326 -22.552  23.868  0.00  0.00    -0.051 A 
ATOM     77  CD2 TRP d   1      -7.847 -23.313  22.855  0.00  0.00    -0.074 A 
ATOM     78  H77 TRP d   1      -7.758 -21.584  24.096  0.00  0.00     0.087 H 
ATOM     79  H75 TRP d   1      -8.699 -22.941  22.297  0.00  0.00     0.084 H 
BRANCH  74  80
ATOM     80  OH  TRP d   1      -5.747 -22.242  25.632  0.00  0.00    -0.361 OA
ATOM     81  H78 TRP d   1      -5.015 -22.690  26.039  0.00  0.00     0.217 HD
ENDBRANCH  74  80
ENDBRANCH  67  70
ENDBRANCH  51  67
ENDBRANCH  49  51
ENDBRANCH  36  47
ENDBRANCH  31  33
BRANCH  31  82
ATOM     82  CB  TRP d   1      -6.833 -31.863  18.806  0.00  0.00    -0.033 C 
ATOM     83  H56 TRP d   1      -7.679 -32.254  19.391  0.00  0.00     0.042 H 
BRANCH  82  84
ATOM     84  CG1 TRP d   1      -6.039 -33.062  18.208  0.00  0.00    -0.071 C 
ATOM     85  H57 TRP d   1      -5.658 -33.693  19.024  0.00  0.00     0.028 H 
ATOM     86  H58 TRP d   1      -5.195 -32.683  17.613  0.00  0.00     0.028 H 
ATOM     87  H59 TRP d   1      -6.703 -33.657  17.564  0.00  0.00     0.028 H 
ENDBRANCH  82  84
BRANCH  82  88
ATOM     88  CG2 TRP d   1      -5.946 -31.072  19.706  0.00  0.00    -0.071 C 
ATOM     89  H60 TRP d   1      -6.510 -30.226  20.126  0.00  0.00     0.028 H 
ATOM     90  H61 TRP d   1      -5.088 -30.691  19.133  0.00  0.00     0.028 H 
ATOM     91  H62 TRP d   1      -5.586 -31.715  20.523  0.00  0.00     0.028 H 
ENDBRANCH  82  88
ENDBRANCH  31  82
ENDBRANCH  29  31
ENDBRANCH  25  27
BRANCH  25  92
ATOM     92  CB  TRP d   1      -5.399 -29.132  14.029  0.00  0.00     0.044 C 
ATOM     93  H51 TRP d   1      -4.549 -28.712  13.471  0.00  0.00     0.077 H 
ATOM     94  H52 TRP d   1      -5.822 -28.360  14.688  0.00  0.00     0.077 H 
BRANCH  92  95
ATOM     95  OG  TRP d   1      -6.405 -29.534  13.093  0.00  0.00    -0.398 OA
ATOM     96  H53 TRP d   1      -6.683 -28.781  12.585  0.00  0.00     0.209 HD
ENDBRANCH  92  95
ENDBRANCH  25  92
ENDBRANCH  23  25
ENDBRANCH  19  21
BRANCH  19  97
ATOM     97  CB  TRP d   1      -0.937 -32.976  13.898  0.00  0.00     0.043 C 
ATOM     98  H47 TRP d   1      -0.783 -33.133  14.976  0.00  0.00     0.052 H 
ATOM     99  H48 TRP d   1      -0.470 -32.027  13.595  0.00  0.00     0.052 H 
BRANCH  97 100
ATOM    100  CG  TRP d   1      -0.270 -34.100  13.149  0.00  0.00     0.175 A 
ATOM    101  OD1 TRP d   1      -0.730 -35.252  13.253  0.00  0.00    -0.648 OA
ATOM    102  OD2 TRP d   1       0.725 -33.818  12.455  0.00  0.00    -0.648 OA
ENDBRANCH  97 100
ENDBRANCH  19  97
ENDBRANCH  17  19
ENDBRANCH   4  15
BRANCH   1 103
ATOM    103  CA  TRP d   1      -4.854 -28.516   9.313  0.00  0.00     0.093 C 
ATOM    104  H30 TRP d   1      -4.298 -28.285   8.393  0.00  0.00     0.088 H 
BRANCH 103 105
ATOM    105  N   TRP d   1      -6.259 -28.735   8.982  0.00  0.00    -0.346 N 
ATOM    106  C   TRP d   1      -6.819 -28.364   7.819  0.00  0.00     0.240 C 
ATOM    107  O   TRP d   1      -6.162 -27.972   6.860  0.00  0.00    -0.271 OA
ATOM    108  H29 TRP d   1      -6.838 -29.187   9.660  0.00  0.00     0.163 HD
BRANCH 106 109
ATOM    109  CA  TRP d   1      -8.325 -28.502   7.668  0.00  0.00     0.086 C 
ATOM    110  H25 TRP d   1      -8.548 -28.742   6.618  0.00  0.00     0.086 H 
BRANCH 109 111
ATOM    111  N   TRP d   1      -8.860 -29.580   8.499  0.00  0.00    -0.346 N 
ATOM    112  C   TRP d   1      -8.630 -30.850   8.154  0.00  0.00     0.241 C 
ATOM    113  O   TRP d   1      -8.041 -31.174   7.111  0.00  0.00    -0.271 OA
ATOM    114  H24 TRP d   1      -9.393 -29.368   9.318  0.00  0.00     0.163 HD
BRANCH 112 115
ATOM    115  CA  TRP d   1      -9.139 -31.909   9.117  0.00  0.00     0.089 C 
ATOM    116  H14 TRP d   1      -9.888 -31.457   9.784  0.00  0.00     0.087 H 
BRANCH 115 117
ATOM    117  N   TRP d   1      -9.766 -33.007   8.386  0.00  0.00    -0.346 N 
ATOM    118  C   TRP d   1     -11.083 -33.160   8.278  0.00  0.00     0.249 C 
ATOM    119  O   TRP d   1     -11.874 -32.405   8.805  0.00  0.00    -0.271 OA
ATOM    120  H13 TRP d   1      -9.174 -33.680   7.943  0.00  0.00     0.163 HD
BRANCH 118 121
ATOM    121  CA  TRP d   1     -11.581 -34.351   7.444  0.00  0.00     0.179 C 
ATOM    122  H4  TRP d   1     -10.764 -35.083   7.360  0.00  0.00     0.099 H 
BRANCH 121 123
ATOM    123  N   TRP d   1     -12.730 -35.022   8.061  0.00  0.00    -0.066 N 
ATOM    124  H1  TRP d   1     -13.020 -35.793   7.481  0.00  0.00     0.275 HD
ATOM    125  H2  TRP d   1     -13.491 -34.367   8.155  0.00  0.00     0.275 HD
ATOM    126  H3  TRP d   1     -12.469 -35.367   8.972  0.00  0.00     0.275 HD
ENDBRANCH 121 123
BRANCH 121 127
ATOM    127  CB  TRP d   1     -11.938 -33.842   6.036  0.00  0.00    -0.004 C 
ATOM    128  H5  TRP d   1     -11.033 -33.404   5.590  0.00  0.00     0.044 H 
ATOM    129  H6  TRP d   1     -12.709 -33.064   6.138  0.00  0.00     0.044 H 
BRANCH 127 130
ATOM    130  CG  TRP d   1     -12.462 -34.907   5.094  0.00  0.00    -0.028 A 
ATOM    131  CD1 TRP d   1     -13.767 -35.199   4.829  0.00  0.00    -0.015 A 
ATOM    132  NE1 TRP d   1     -13.847 -36.209   3.905  0.00  0.00    -0.365 N 
ATOM    133  H7  TRP d   1     -14.622 -34.702   5.285  0.00  0.00     0.112 H 
ATOM    134  CE2 TRP d   1     -12.575 -36.583   3.560  0.00  0.00     0.042 A 
ATOM    135  H8  TRP d   1     -14.716 -36.617   3.533  0.00  0.00     0.165 HD
ATOM    136  CD2 TRP d   1     -11.683 -35.782   4.294  0.00  0.00    -0.002 A 
ATOM    137  CZ2 TRP d   1     -12.142 -37.554   2.675  0.00  0.00    -0.056 A 
ATOM    138  CE3 TRP d   1     -10.312 -35.954   4.110  0.00  0.00    -0.070 A 
ATOM    139  CZ3 TRP d   1      -9.881 -36.914   3.234  0.00  0.00    -0.082 A 
ATOM    140  H9  TRP d   1      -9.601 -35.340   4.650  0.00  0.00     0.084 H 
ATOM    141  CH2 TRP d   1     -10.791 -37.707   2.525  0.00  0.00    -0.081 A 
ATOM    142  H11 TRP d   1      -8.817 -37.062   3.087  0.00  0.00     0.083 H 
ATOM    143  H12 TRP d   1     -10.416 -38.460   1.841  0.00  0.00     0.083 H 
ATOM    144  H10 TRP d   1     -12.844 -38.168   2.123  0.00  0.00     0.086 H 
ENDBRANCH 127 130
ENDBRANCH 121 127
ENDBRANCH 118 121
ENDBRANCH 115 117
BRANCH 115 145
ATOM    145  CB  TRP d   1      -7.973 -32.411   9.952  0.00  0.00    -0.035 C 
ATOM    146  H15 TRP d   1      -7.473 -31.530  10.381  0.00  0.00     0.037 H 
ATOM    147  H16 TRP d   1      -7.281 -32.930   9.272  0.00  0.00     0.037 H 
BRANCH 145 148
ATOM    148  CG  TRP d   1      -8.282 -33.365  11.102  0.00  0.00    -0.059 A 
ATOM    149  H17 TRP d   1      -8.641 -34.319  10.689  0.00  0.00     0.038 H 
BRANCH 148 150
ATOM    150  CD1 TRP d   1      -6.977 -33.604  11.839  0.00  0.00    -0.073 A 
ATOM    151  H18 TRP d   1      -7.152 -34.290  12.681  0.00  0.00     0.028 H 
ATOM    152  H19 TRP d   1      -6.590 -32.647  12.220  0.00  0.00     0.028 H 
ATOM    153  H20 TRP d   1      -6.243 -34.048  11.150  0.00  0.00     0.028 H 
ENDBRANCH 148 150
BRANCH 148 154
ATOM    154  CD2 TRP d   1      -9.364 -32.815  12.030  0.00  0.00    -0.073 A 
ATOM    155  H21 TRP d   1     -10.291 -32.656  11.459  0.00  0.00     0.028 H 
ATOM    156  H22 TRP d   1      -9.029 -31.859  12.458  0.00  0.00     0.028 H 
ATOM    157  H23 TRP d   1      -9.552 -33.534  12.841  0.00  0.00     0.028 H 
ENDBRANCH 148 154
ENDBRANCH 145 148
ENDBRANCH 115 145
ENDBRANCH 112 115
ENDBRANCH 109 111
BRANCH 109 158
ATOM    158  CB  TRP d   1      -8.978 -27.163   8.009  0.00  0.00    -0.049 C 
ATOM    159  H26 TRP d   1      -8.555 -26.375   7.368  0.00  0.00     0.030 H 
ATOM    160  H27 TRP d   1      -8.786 -26.920   9.064  0.00  0.00     0.030 H 
ATOM    161  H28 TRP d   1     -10.063 -27.230   7.840  0.00  0.00     0.030 H 
ENDBRANCH 109 158
ENDBRANCH 106 109
ENDBRANCH 103 105
BRANCH 103 162
ATOM    162  CB  TRP d   1      -4.689 -27.353  10.306  0.00  0.00    -0.014 C 
ATOM    163  H31 TRP d   1      -4.978 -27.712  11.305  0.00  0.00     0.043 H 
ATOM    164  H32 TRP d   1      -5.365 -26.542   9.998  0.00  0.00     0.043 H 
BRANCH 162 165
ATOM    165  CG  TRP d   1      -3.285 -26.789  10.395  0.00  0.00    -0.056 A 
ATOM    166  CD1 TRP d   1      -2.379 -27.261  11.318  0.00  0.00    -0.074 A 
ATOM    167  CE1 TRP d   1      -1.081 -26.732  11.395  0.00  0.00    -0.051 A 
ATOM    168  H33 TRP d   1      -2.673 -28.054  11.996  0.00  0.00     0.084 H 
ATOM    169  CZ  TRP d   1      -0.706 -25.713  10.553  0.00  0.00     0.065 A 
ATOM    170  H35 TRP d   1      -0.376 -27.127  12.117  0.00  0.00     0.087 H 
ATOM    171  CE2 TRP d   1      -1.594 -25.226   9.637  0.00  0.00    -0.051 A 
ATOM    172  CD2 TRP d   1      -2.876 -25.758   9.558  0.00  0.00    -0.074 A 
ATOM    173  H36 TRP d   1      -1.299 -24.424   8.971  0.00  0.00     0.087 H 
ATOM    174  H34 TRP d   1      -3.571 -25.360   8.828  0.00  0.00     0.084 H 
BRANCH 169 175
ATOM    175  OH  TRP d   1       0.557 -25.161  10.626  0.00  0.00    -0.361 OA
ATOM    176  H37 TRP d   1       0.486 -24.237  10.833  0.00  0.00     0.217 HD
ENDBRANCH 169 175
ENDBRANCH 162 165
ENDBRANCH 103 162
ENDBRANCH   1 103
TORSDOF 42
