REMARK  4 active torsions:
REMARK  status: ('A' for Active; 'I' for Inactive)
REMARK    1  A    between atoms: N08_17  and  C07_5 
REMARK    2  A    between atoms: C09_6  and  C10_7 
REMARK    3  A    between atoms: C09_6  and  N08_17 
REMARK    4  A    between atoms: C12_9  and  O13_19 
ROOT
ATOM      1  N08 KTV d   1     -11.271 104.466 -40.762  0.00  0.00    -0.385 N 
ATOM      2  H11 KTV d   1     -10.858 103.906 -40.002  0.00  0.00     0.160 HD
ENDROOT
BRANCH   1   3
ATOM      3  C07 KTV d   1     -10.434 104.807 -41.903  0.00  0.00     0.045 A 
ATOM      4  C06 KTV d   1      -9.150 104.228 -41.929  0.00  0.00     0.074 A 
ATOM      5  C02 KTV d   1      -8.454 103.245 -40.958  0.00  0.00     0.261 A 
ATOM      6  C05 KTV d   1      -8.276 104.518 -42.981  0.00  0.00     0.050 A 
ATOM      7  N03 KTV d   1      -7.150 102.983 -41.497  0.00  0.00    -0.289 N 
ATOM      8  O01 KTV d   1      -8.834 102.738 -39.939  0.00  0.00    -0.267 OA
ATOM      9  C04 KTV d   1      -6.983 103.717 -42.722  0.00  0.00     0.259 A 
ATOM     10  H10 KTV d   1      -6.464 102.383 -41.085  0.00  0.00     0.172 HD
ATOM     11  O20 KTV d   1      -6.018 103.686 -43.388  0.00  0.00    -0.267 OA
ATOM     12  C19 KTV d   1      -8.671 105.388 -44.017  0.00  0.00    -0.067 A 
ATOM     13  C18 KTV d   1      -9.948 105.961 -43.978  0.00  0.00    -0.080 A 
ATOM     14  H9  KTV d   1      -7.994 105.611 -44.834  0.00  0.00     0.085 H 
ATOM     15  C17 KTV d   1     -10.824 105.676 -42.921  0.00  0.00    -0.056 A 
ATOM     16  H8  KTV d   1     -10.262 106.630 -44.771  0.00  0.00     0.083 H 
ATOM     17  H7  KTV d   1     -11.807 106.132 -42.895  0.00  0.00     0.086 H 
ENDBRANCH   1   3
BRANCH   1  18
ATOM     18  C09 KTV d   1     -12.650 104.873 -40.643  0.00  0.00     0.017 C 
ATOM     19  H1  KTV d   1     -12.735 105.964 -40.756  0.00  0.00     0.071 H 
ATOM     20  H2  KTV d   1     -13.260 104.376 -41.412  0.00  0.00     0.071 H 
BRANCH  18  21
ATOM     21  C10 KTV d   1     -13.110 104.450 -39.250  0.00  0.00    -0.038 A 
ATOM     22  C11 KTV d   1     -13.300 103.109 -38.927  0.00  0.00    -0.043 A 
ATOM     23  C12 KTV d   1     -13.715 102.772 -37.636  0.00  0.00     0.066 A 
ATOM     24  H3  KTV d   1     -13.128 102.336 -39.668  0.00  0.00     0.088 H 
ATOM     25  C14 KTV d   1     -13.939 103.763 -36.696  0.00  0.00    -0.051 A 
ATOM     26  C15 KTV d   1     -13.755 105.092 -37.026  0.00  0.00    -0.080 A 
ATOM     27  H4  KTV d   1     -14.260 103.495 -35.696  0.00  0.00     0.087 H 
ATOM     28  C16 KTV d   1     -13.337 105.433 -38.300  0.00  0.00    -0.075 A 
ATOM     29  H5  KTV d   1     -13.938 105.865 -36.289  0.00  0.00     0.083 H 
ATOM     30  H6  KTV d   1     -13.186 106.475 -38.557  0.00  0.00     0.084 H 
BRANCH  23  31
ATOM     31  O13 KTV d   1     -13.910 101.435 -37.266  0.00  0.00    -0.361 OA
ATOM     32  H12 KTV d   1     -14.812 101.311 -36.995  0.00  0.00     0.217 HD
ENDBRANCH  23  31
ENDBRANCH  18  21
ENDBRANCH   1  18
TORSDOF 4
