REMARK  9 active torsions:
REMARK  status: ('A' for Active; 'I' for Inactive)
REMARK    1  A    between atoms: O1_29  and  C4_1 
REMARK    2  A    between atoms: C6_3  and  C7_5 
REMARK    3  A    between atoms: C8_6  and  N1_4 
REMARK    4  A    between atoms: N2_7  and  C13_13 
REMARK    5  A    between atoms: C15_15  and  C16_22 
REMARK    6  A    between atoms: N4_16  and  C21_17 
REMARK    7  A    between atoms: C3_28  and  O1_29 
REMARK    8  A    between atoms: C1_32  and  O_33 
REMARK    9  A    between atoms: O_33  and  C_34 
ROOT
ATOM      1  N1  KS7 d   1      -1.479 -35.829  25.065  0.00  0.00    -0.340 N 
ATOM      2  N2  KS7 d   1      -5.980 -34.594  22.747  0.00  0.00    -0.283 NA
ATOM      3  C9  KS7 d   1      -2.220 -36.288  23.891  0.00  0.00     0.030 C 
ATOM      4  C10 KS7 d   1      -3.763 -36.084  24.087  0.00  0.00     0.145 C 
ATOM      5  C11 KS7 d   1      -4.083 -34.607  24.366  0.00  0.00    -0.021 C 
ATOM      6  C12 KS7 d   1      -5.490 -34.120  24.048  0.00  0.00    -0.014 C 
ATOM      7  N4  KS7 d   1      -4.123 -37.065  25.184  0.00  0.00    -0.063 N 
ATOM      8  C20 KS7 d   1      -4.392 -36.486  22.745  0.00  0.00    -0.021 C 
ATOM      9  C19 KS7 d   1      -5.842 -36.048  22.626  0.00  0.00    -0.014 C 
ATOM     10  C22 KS7 d   1      -3.008 -37.486  26.056  0.00  0.00     0.099 C 
ATOM     11  C23 KS7 d   1      -2.035 -36.334  26.325  0.00  0.00     0.021 C 
ATOM     12  H5  KS7 d   1      -2.016 -37.357  23.732  0.00  0.00     0.068 H 
ATOM     13  H6  KS7 d   1      -1.890 -35.716  23.011  0.00  0.00     0.068 H 
ATOM     14  H7  KS7 d   1      -3.383 -34.001  23.773  0.00  0.00     0.038 H 
ATOM     15  H8  KS7 d   1      -3.907 -34.428  25.437  0.00  0.00     0.038 H 
ATOM     16  H9  KS7 d   1      -6.172 -34.481  24.832  0.00  0.00     0.056 H 
ATOM     17  H10 KS7 d   1      -5.487 -33.020  24.042  0.00  0.00     0.056 H 
ATOM     18  H12 KS7 d   1      -4.319 -37.898  24.652  0.00  0.00     0.280 HD
ATOM     19  H16 KS7 d   1      -4.345 -37.581  22.648  0.00  0.00     0.038 H 
ATOM     20  H17 KS7 d   1      -3.815 -36.021  21.932  0.00  0.00     0.038 H 
ATOM     21  H18 KS7 d   1      -6.230 -36.363  21.646  0.00  0.00     0.056 H 
ATOM     22  H19 KS7 d   1      -6.426 -36.529  23.424  0.00  0.00     0.056 H 
ATOM     23  H25 KS7 d   1      -2.463 -38.307  25.567  0.00  0.00     0.078 H 
ATOM     24  H26 KS7 d   1      -3.418 -37.838  27.014  0.00  0.00     0.078 H 
ATOM     25  H27 KS7 d   1      -2.570 -35.520  26.837  0.00  0.00     0.067 H 
ATOM     26  H28 KS7 d   1      -1.215 -36.694  26.964  0.00  0.00     0.067 H 
ENDROOT
BRANCH   7  27
ATOM     27  C21 KS7 d   1      -5.373 -36.876  25.934  0.00  0.00     0.067 C 
ATOM     28  H13 KS7 d   1      -5.474 -37.673  26.686  0.00  0.00     0.068 H 
ATOM     29  H14 KS7 d   1      -6.226 -36.916  25.241  0.00  0.00     0.068 H 
ATOM     30  H15 KS7 d   1      -5.354 -35.898  26.437  0.00  0.00     0.068 H 
ENDBRANCH   7  27
BRANCH   1  31
ATOM     31  C8  KS7 d   1      -0.848 -34.667  24.976  0.00  0.00     0.272 A 
ATOM     32  O2  KS7 d   1      -0.280 -34.106  26.056  0.00  0.00    -0.172 OA
ATOM     33  N   KS7 d   1       0.297 -32.884  25.600  0.00  0.00    -0.103 NA
ATOM     34  C7  KS7 d   1       0.013 -32.874  24.326  0.00  0.00     0.191 A 
ATOM     35  N5  KS7 d   1      -0.705 -33.957  23.891  0.00  0.00    -0.184 NA
BRANCH  34  36
ATOM     36  C6  KS7 d   1       0.474 -31.805  23.401  0.00  0.00     0.019 A 
ATOM     37  C5  KS7 d   1       0.210 -31.903  22.035  0.00  0.00    -0.037 A 
ATOM     38  C3  KS7 d   1       0.718 -30.948  21.163  0.00  0.00     0.071 A 
ATOM     39  H4  KS7 d   1      -0.390 -32.722  21.655  0.00  0.00     0.089 H 
ATOM     40  C2  KS7 d   1       1.496 -29.897  21.631  0.00  0.00    -0.019 A 
ATOM     41  C1  KS7 d   1       1.726 -29.794  22.998  0.00  0.00     0.071 A 
ATOM     42  H29 KS7 d   1       1.916 -29.171  20.944  0.00  0.00     0.092 H 
ATOM     43  C24 KS7 d   1       1.225 -30.736  23.885  0.00  0.00    -0.037 A 
ATOM     44  H30 KS7 d   1       1.417 -30.641  24.948  0.00  0.00     0.089 H 
BRANCH  38  45
ATOM     45  O1  KS7 d   1       0.307 -31.180  19.870  0.00  0.00    -0.356 OA
BRANCH  45  46
ATOM     46  C4  KS7 d   1       0.686 -30.259  18.844  0.00  0.00     0.010 C 
ATOM     47  H1  KS7 d   1       0.276 -30.595  17.880  0.00  0.00     0.066 H 
ATOM     48  H2  KS7 d   1       1.783 -30.213  18.779  0.00  0.00     0.066 H 
ATOM     49  H3  KS7 d   1       0.291 -29.261  19.083  0.00  0.00     0.066 H 
ENDBRANCH  45  46
ENDBRANCH  38  45
BRANCH  41  50
ATOM     50  O   KS7 d   1       2.394 -28.798  23.660  0.00  0.00    -0.356 OA
BRANCH  50  51
ATOM     51  C   KS7 d   1       2.927 -27.712  22.902  0.00  0.00     0.010 C 
ATOM     52  H31 KS7 d   1       3.429 -27.004  23.578  0.00  0.00     0.066 H 
ATOM     53  H32 KS7 d   1       2.111 -27.198  22.374  0.00  0.00     0.066 H 
ATOM     54  H33 KS7 d   1       3.652 -28.097  22.170  0.00  0.00     0.066 H 
ENDBRANCH  50  51
ENDBRANCH  41  50
ENDBRANCH  34  36
ENDBRANCH   1  31
BRANCH   2  55
ATOM     55  C13 KS7 d   1      -7.238 -34.096  22.347  0.00  0.00     0.013 A 
ATOM     56  C14 KS7 d   1      -7.889 -33.095  23.077  0.00  0.00    -0.039 A 
ATOM     57  C15 KS7 d   1      -9.130 -32.624  22.669  0.00  0.00     0.032 A 
ATOM     58  H11 KS7 d   1      -7.422 -32.685  23.965  0.00  0.00     0.089 H 
ATOM     59  N3  KS7 d   1      -9.743 -33.103  21.566  0.00  0.00    -0.266 NA
ATOM     60  C17 KS7 d   1      -9.117 -34.058  20.867  0.00  0.00     0.004 A 
ATOM     61  C18 KS7 d   1      -7.885 -34.579  21.210  0.00  0.00    -0.045 A 
ATOM     62  H21 KS7 d   1      -9.606 -34.445  19.980  0.00  0.00     0.114 H 
ATOM     63  H20 KS7 d   1      -7.427 -35.352  20.604  0.00  0.00     0.088 H 
BRANCH  57  64
ATOM     64  C16 KS7 d   1      -9.849 -31.559  23.439  0.00  0.00    -0.035 C 
ATOM     65  H22 KS7 d   1      -9.242 -31.261  24.307  0.00  0.00     0.035 H 
ATOM     66  H23 KS7 d   1     -10.818 -31.948  23.785  0.00  0.00     0.035 H 
ATOM     67  H24 KS7 d   1     -10.014 -30.686  22.791  0.00  0.00     0.035 H 
ENDBRANCH  57  64
ENDBRANCH   2  55
TORSDOF 9
