REMARK  8 active torsions:
REMARK  status: ('A' for Active; 'I' for Inactive)
REMARK    1  A    between atoms: O1_28  and  C1_1 
REMARK    2  A    between atoms: C11_3  and  C12_4 
REMARK    3  A    between atoms: C2_12  and  O1_28 
REMARK    4  A    between atoms: C22_15  and  O3_30 
REMARK    5  A    between atoms: O3_30  and  C23_16 
REMARK    6  A    between atoms: C3_17  and  O2_29 
REMARK    7  A    between atoms: O2_29  and  C4_18 
REMARK    8  A    between atoms: C6_20  and  C7_21 
ROOT
ATOM      1  C10 DJ9 d   1      19.209 -69.088 -42.756  0.00  0.00     0.066 A 
ATOM      2  C11 DJ9 d   1      18.207 -67.358 -43.604  0.00  0.00     0.139 A 
ATOM      3  C20 DJ9 d   1      18.399 -68.545 -41.790  0.00  0.00     0.115 A 
ATOM      4  C7  DJ9 d   1      18.356 -69.146 -40.500  0.00  0.00     0.098 A 
ATOM      5  C8  DJ9 d   1      19.872 -70.769 -41.164  0.00  0.00     0.005 A 
ATOM      6  C9  DJ9 d   1      19.972 -70.239 -42.442  0.00  0.00    -0.038 A 
ATOM      7  N1  DJ9 d   1      19.072 -70.232 -40.233  0.00  0.00    -0.258 NA
ATOM      8  N2  DJ9 d   1      19.070 -68.326 -43.874  0.00  0.00    -0.338 N 
ATOM      9  N4  DJ9 d   1      17.793 -67.466 -42.352  0.00  0.00    -0.226 NA
ATOM     10  H17 DJ9 d   1      20.459 -71.644 -40.911  0.00  0.00     0.114 H 
ATOM     11  H18 DJ9 d   1      20.619 -70.695 -43.183  0.00  0.00     0.089 H 
ATOM     12  H19 DJ9 d   1      19.551 -68.475 -44.772  0.00  0.00     0.167 HD
ENDROOT
BRANCH   4  13
ATOM     13  C6  DJ9 d   1      17.520 -68.598 -39.530  0.00  0.00     0.001 A 
ATOM     14  C21 DJ9 d   1      17.955 -68.340 -38.233  0.00  0.00    -0.036 A 
ATOM     15  C22 DJ9 d   1      17.082 -67.808 -37.301  0.00  0.00     0.105 A 
ATOM     16  H9  DJ9 d   1      18.980 -68.556 -37.953  0.00  0.00     0.089 H 
ATOM     17  C2  DJ9 d   1      15.778 -67.525 -37.671  0.00  0.00     0.135 A 
ATOM     18  C3  DJ9 d   1      15.338 -67.762 -38.962  0.00  0.00     0.105 A 
ATOM     19  C5  DJ9 d   1      16.212 -68.305 -39.886  0.00  0.00    -0.036 A 
ATOM     20  H16 DJ9 d   1      15.872 -68.503 -40.896  0.00  0.00     0.089 H 
BRANCH  15  21
ATOM     21  O3  DJ9 d   1      17.517 -67.560 -35.992  0.00  0.00    -0.353 OA
BRANCH  21  22
ATOM     22  C23 DJ9 d   1      18.908 -67.482 -35.847  0.00  0.00     0.010 C 
ATOM     23  H10 DJ9 d   1      19.156 -67.286 -34.793  0.00  0.00     0.066 H 
ATOM     24  H11 DJ9 d   1      19.297 -66.665 -36.473  0.00  0.00     0.066 H 
ATOM     25  H12 DJ9 d   1      19.363 -68.433 -36.160  0.00  0.00     0.066 H 
ENDBRANCH  21  22
ENDBRANCH  15  21
BRANCH  17  26
ATOM     26  O1  DJ9 d   1      14.901 -66.969 -36.744  0.00  0.00    -0.351 OA
BRANCH  26  27
ATOM     27  C1  DJ9 d   1      15.012 -65.580 -36.769  0.00  0.00     0.011 C 
ATOM     28  H1  DJ9 d   1      14.318 -65.144 -36.036  0.00  0.00     0.067 H 
ATOM     29  H2  DJ9 d   1      14.763 -65.210 -37.775  0.00  0.00     0.067 H 
ATOM     30  H3  DJ9 d   1      16.043 -65.290 -36.516  0.00  0.00     0.067 H 
ENDBRANCH  26  27
ENDBRANCH  17  26
BRANCH  18  31
ATOM     31  O2  DJ9 d   1      14.015 -67.459 -39.316  0.00  0.00    -0.353 OA
BRANCH  31  32
ATOM     32  C4  DJ9 d   1      13.681 -67.711 -40.652  0.00  0.00     0.010 C 
ATOM     33  H13 DJ9 d   1      12.629 -67.441 -40.824  0.00  0.00     0.066 H 
ATOM     34  H14 DJ9 d   1      13.826 -68.779 -40.871  0.00  0.00     0.066 H 
ATOM     35  H15 DJ9 d   1      14.326 -67.111 -41.311  0.00  0.00     0.066 H 
ENDBRANCH  31  32
ENDBRANCH  18  31
ENDBRANCH   4  13
BRANCH   2  36
ATOM     36  C12 DJ9 d   1      17.795 -66.365 -44.474  0.00  0.00     0.012 A 
ATOM     37  C13 DJ9 d   1      17.865 -66.550 -45.850  0.00  0.00    -0.043 A 
ATOM     38  C14 DJ9 d   1      17.440 -65.510 -46.721  0.00  0.00     0.043 A 
ATOM     39  H4  DJ9 d   1      18.241 -67.482 -46.256  0.00  0.00     0.088 H 
ATOM     40  C17 DJ9 d   1      16.960 -64.334 -46.204  0.00  0.00    -0.008 A 
ATOM     41  N3  DJ9 d   1      17.400 -65.433 -48.078  0.00  0.00    -0.365 N 
ATOM     42  C16 DJ9 d   1      16.618 -63.518 -47.316  0.00  0.00    -0.056 A 
ATOM     43  C18 DJ9 d   1      16.887 -64.151 -44.801  0.00  0.00    -0.070 A 
ATOM     44  C15 DJ9 d   1      16.917 -64.259 -48.454  0.00  0.00    -0.022 A 
ATOM     45  H6  DJ9 d   1      16.204 -62.511 -47.283  0.00  0.00     0.086 H 
ATOM     46  H5  DJ9 d   1      16.777 -63.929 -49.482  0.00  0.00     0.111 H 
ATOM     47  C19 DJ9 d   1      17.305 -65.168 -43.948  0.00  0.00    -0.068 A 
ATOM     48  H7  DJ9 d   1      16.507 -63.221 -44.393  0.00  0.00     0.084 H 
ATOM     49  H8  DJ9 d   1      17.250 -65.031 -42.874  0.00  0.00     0.085 H 
ATOM     50  H20 DJ9 d   1      17.702 -66.180 -48.720  0.00  0.00     0.165 HD
ENDBRANCH   2  36
TORSDOF 8
