REMARK  5 active torsions:
REMARK  status: ('A' for Active; 'I' for Inactive)
REMARK    1  A    between atoms: O5'_20  and  P_1 
REMARK    2  A    between atoms: C1'_10  and  N1_2 
REMARK    3  A    between atoms: C3'_14  and  O3'_15 
REMARK    4  A    between atoms: C5'_19  and  C4'_17 
REMARK    5  A    between atoms: C5'_19  and  O5'_20 
ROOT
ATOM      1  C1' UMC d   1     -10.008  24.248  13.348  0.00  0.00     0.112 C 
ATOM      2  C2' UMC d   1     -11.193  25.201  13.079  0.00  0.00     0.002 C 
ATOM      3  C3' UMC d   1     -12.233  24.204  12.555  0.00  0.00     0.066 C 
ATOM      4  C4' UMC d   1     -11.377  23.269  11.710  0.00  0.00     0.087 C 
ATOM      5  O4' UMC d   1     -10.085  23.238  12.356  0.00  0.00    -0.356 OA
ATOM      6  H6  UMC d   1     -10.132  23.807  14.348  0.00  0.00     0.118 H 
ATOM      7  H7  UMC d   1     -10.941  25.961  12.324  0.00  0.00     0.043 H 
ATOM      8  H8  UMC d   1     -11.533  25.698  14.000  0.00  0.00     0.043 H 
ATOM      9  H9  UMC d   1     -13.015  24.703  11.964  0.00  0.00     0.087 H 
ATOM     10  H11 UMC d   1     -11.826  22.265  11.700  0.00  0.00     0.090 H 
ENDROOT
BRANCH   1  11
ATOM     11  N1  UMC d   1      -8.649  24.867  13.276  0.00  0.00    -0.306 N 
ATOM     12  C2  UMC d   1      -8.167  25.513  14.362  0.00  0.00     0.327 C 
ATOM     13  O2  UMC d   1      -8.872  25.726  15.363  0.00  0.00    -0.247 OA
ATOM     14  N3  UMC d   1      -6.860  25.927  14.349  0.00  0.00    -0.279 N 
ATOM     15  C4  UMC d   1      -5.951  25.568  13.416  0.00  0.00     0.227 C 
ATOM     16  H1  UMC d   1      -6.558  26.537  15.081  0.00  0.00     0.173 HD
ATOM     17  O4  UMC d   1      -4.776  25.948  13.507  0.00  0.00    -0.273 OA
ATOM     18  C5  UMC d   1      -6.408  24.686  12.286  0.00  0.00     0.025 C 
ATOM     19  C6  UMC d   1      -7.924  24.801  12.010  0.00  0.00     0.010 C 
ATOM     20  H2  UMC d   1      -6.176  23.641  12.540  0.00  0.00     0.049 H 
ATOM     21  H3  UMC d   1      -5.862  24.972  11.375  0.00  0.00     0.049 H 
ATOM     22  H4  UMC d   1      -8.122  25.713  11.427  0.00  0.00     0.065 H 
ATOM     23  H5  UMC d   1      -8.260  23.922  11.441  0.00  0.00     0.065 H 
ENDBRANCH   1  11
BRANCH   3  24
ATOM     24  O3' UMC d   1     -12.816  23.454  13.624  0.00  0.00    -0.393 OA
ATOM     25  H10 UMC d   1     -13.455  22.846  13.271  0.00  0.00     0.210 HD
ENDBRANCH   3  24
BRANCH   4  26
ATOM     26  C5' UMC d   1     -11.209  23.744  10.291  0.00  0.00     0.059 C 
ATOM     27  H12 UMC d   1     -10.401  23.178   9.804  0.00  0.00     0.079 H 
ATOM     28  H13 UMC d   1     -10.960  24.816  10.286  0.00  0.00     0.079 H 
BRANCH  26  29
ATOM     29  O5' UMC d   1     -12.439  23.531   9.588  0.00  0.00    -0.280 OA
BRANCH  29  30
ATOM     30  P   UMC d   1     -13.090  24.655   8.617  0.00  0.00     0.422 P 
ATOM     31  O1P UMC d   1     -14.363  23.951   8.166  0.00  0.00    -0.617 OA
ATOM     32  O2P UMC d   1     -12.099  24.937   7.510  0.00  0.00    -0.617 OA
ATOM     33  O3P UMC d   1     -13.385  25.871   9.467  0.00  0.00    -0.617 OA
ENDBRANCH  29  30
ENDBRANCH  26  29
ENDBRANCH   4  26
TORSDOF 5
