REMARK  3 active torsions:
REMARK  status: ('A' for Active; 'I' for Inactive)
REMARK    1  A    between atoms: C12_2  and  N13_13 
REMARK    2  A    between atoms: C14_3  and  C16_4 
REMARK       I    between atoms: N13_13  and  C14_3 
REMARK    3  A    between atoms: C5_9  and  C9_12 
ROOT
ATOM      1  C16 KWD d   1       8.641   6.839 -34.888  0.00  0.00     0.088 C 
ATOM      2  C17 KWD d   1       7.678   7.774 -34.311  0.00  0.00     0.068 C 
ATOM      3  N18 KWD d   1       6.923   8.526 -33.849  0.00  0.00    -0.197 NA
ATOM      4  H3  KWD d   1       8.795   5.995 -34.199  0.00  0.00     0.069 H 
ATOM      5  H4  KWD d   1       8.261   6.463 -35.849  0.00  0.00     0.069 H 
ENDROOT
BRANCH   1   6
ATOM      6  C14 KWD d   1       9.939   7.556 -35.105  0.00  0.00     0.236 C 
ATOM      7  N13 KWD d   1      11.010   6.727 -34.904  0.00  0.00    -0.305 N 
ATOM      8  H9  KWD d   1      10.843   5.742 -34.857  0.00  0.00     0.171 HD
ATOM      9  O15 KWD d   1      10.015   8.736 -35.408  0.00  0.00    -0.272 OA
BRANCH   7  10
ATOM     10  C12 KWD d   1      12.306   7.176 -34.763  0.00  0.00     0.164 C 
ATOM     11  N19 KWD d   1      13.245   6.426 -34.291  0.00  0.00    -0.256 NA
ATOM     12  C9  KWD d   1      14.457   7.232 -34.275  0.00  0.00     0.069 C 
ATOM     13  C10 KWD d   1      14.456   8.546 -35.013  0.00  0.00     0.009 C 
ATOM     14  H8  KWD d   1      14.213   7.705 -33.312  0.00  0.00     0.084 H 
ATOM     15  S11 KWD d   1      12.691   8.817 -35.239  0.00  0.00    -0.090 SA
ATOM     16  H1  KWD d   1      14.979   8.467 -35.978  0.00  0.00     0.053 H 
ATOM     17  H2  KWD d   1      14.913   9.346 -34.413  0.00  0.00     0.053 H 
BRANCH  12  18
ATOM     18  C5  KWD d   1      15.698   6.636 -33.756  0.00  0.00    -0.031 A 
ATOM     19  C4  KWD d   1      16.898   7.306 -33.822  0.00  0.00    -0.073 A 
ATOM     20  C3  KWD d   1      18.018   6.688 -33.311  0.00  0.00    -0.060 A 
ATOM     21  H6  KWD d   1      16.960   8.294 -34.264  0.00  0.00     0.084 H 
ATOM     22  C2  KWD d   1      17.911   5.432 -32.751  0.00  0.00     0.055 A 
ATOM     23  H5  KWD d   1      18.980   7.187 -33.349  0.00  0.00     0.086 H 
ATOM     24  C7  KWD d   1      16.711   4.765 -32.685  0.00  0.00     0.056 A 
ATOM     25 CL1  KWD d   1      19.315   4.665 -32.120  0.00  0.00    -0.083 Cl
ATOM     26  C6  KWD d   1      15.599   5.383 -33.194  0.00  0.00    -0.052 A 
ATOM     27 CL8  KWD d   1      16.592   3.181 -31.970  0.00  0.00    -0.083 Cl
ATOM     28  H7  KWD d   1      14.638   4.883 -33.154  0.00  0.00     0.087 H 
ENDBRANCH  12  18
ENDBRANCH   7  10
ENDBRANCH   1   6
TORSDOF 3
