REMARK  2 active torsions:
REMARK  status: ('A' for Active; 'I' for Inactive)
REMARK    1  A    between atoms: N10_11  and  C03_4 
REMARK    2  A    between atoms: C04_5  and  C07_8 
ROOT
ATOM      1  C01 MOL d   1      -7.291 -31.168 -14.664  0.00  0.00    -0.081 A 
ATOM      2  C02 MOL d   1      -7.988 -31.785 -15.691  0.00  0.00    -0.056 A 
ATOM      3  C03 MOL d   1      -9.324 -31.493 -15.891  0.00  0.00     0.055 A 
ATOM      4  C04 MOL d   1      -9.959 -30.586 -15.035  0.00  0.00     0.068 A 
ATOM      5  C05 MOL d   1      -9.254 -29.977 -14.012  0.00  0.00    -0.064 A 
ATOM      6  C06 MOL d   1      -7.922 -30.268 -13.834  0.00  0.00    -0.082 A 
ATOM      7  H2  MOL d   1      -6.242 -31.395 -14.513  0.00  0.00     0.083 H 
ATOM      8  H3  MOL d   1      -7.486 -32.496 -16.337  0.00  0.00     0.087 H 
ATOM      9  H4  MOL d   1      -9.750 -29.273 -13.353  0.00  0.00     0.085 H 
ATOM     10  H5  MOL d   1      -7.366 -29.787 -13.037  0.00  0.00     0.083 H 
ENDROOT
BRANCH   3  11
ATOM     11  N10 MOL d   1      -9.960 -32.080 -16.900  0.00  0.00    -0.332 N 
ATOM     12  C11 MOL d   1     -10.631 -31.430 -17.845  0.00  0.00    -0.015 A 
ATOM     13  C12 MOL d   1     -11.155 -32.356 -18.734  0.00  0.00    -0.066 A 
ATOM     14  H6  MOL d   1     -10.750 -30.349 -17.910  0.00  0.00     0.112 H 
ATOM     15  C13 MOL d   1     -10.731 -33.596 -18.290  0.00  0.00    -0.066 A 
ATOM     16  H7  MOL d   1     -11.775 -32.149 -19.605  0.00  0.00     0.085 H 
ATOM     17  C14 MOL d   1      -9.976 -33.380 -17.146  0.00  0.00    -0.015 A 
ATOM     18  H1  MOL d   1     -10.948 -34.559 -18.751  0.00  0.00     0.085 H 
ATOM     19  H8  MOL d   1      -9.482 -34.148 -16.553  0.00  0.00     0.112 H 
ENDBRANCH   3  11
BRANCH   4  20
ATOM     20  C07 MOL d   1     -11.420 -30.172 -15.133  0.00  0.00     0.211 C 
ATOM     21  O08 MOL d   1     -12.334 -31.005 -14.891  0.00  0.00    -0.644 OA
ATOM     22  O09 MOL d   1     -11.687 -28.983 -15.441  0.00  0.00    -0.644 OA
ENDBRANCH   4  20
TORSDOF 2
