REMARK  3 active torsions:
REMARK  status: ('A' for Active; 'I' for Inactive)
REMARK    1  A    between atoms: C11_14  and  C12_1 
REMARK    2  A    between atoms: C04_8  and  C02_7 
REMARK    3  A    between atoms: C10_13  and  C08_11 
ROOT
ATOM      1  C10 KVD d   1      -7.393 -33.188 -15.848  0.00  0.00    -0.060 C 
ATOM      2  C11 KVD d   1      -6.784 -34.031 -16.389  0.00  0.00    -0.061 C 
ENDROOT
BRANCH   1   3
ATOM      3  C08 KVD d   1      -8.248 -32.135 -15.190  0.00  0.00     0.036 A 
ATOM      4  C07 KVD d   1      -7.698 -31.325 -14.209  0.00  0.00     0.020 A 
ATOM      5  N06 KVD d   1      -8.430 -30.407 -13.609  0.00  0.00    -0.271 NA
ATOM      6  H7  KVD d   1      -6.657 -31.447 -13.933  0.00  0.00     0.117 H 
ATOM      7  C05 KVD d   1      -9.700 -30.247 -13.943  0.00  0.00     0.018 A 
ATOM      8  C04 KVD d   1     -10.309 -31.034 -14.913  0.00  0.00     0.059 A 
ATOM      9  H6  KVD d   1     -10.282 -29.480 -13.446  0.00  0.00     0.116 H 
ATOM     10  C09 KVD d   1      -9.567 -31.998 -15.554  0.00  0.00    -0.045 A 
ATOM     11  H8  KVD d   1     -10.006 -32.628 -16.319  0.00  0.00     0.087 H 
BRANCH   8  12
ATOM     12  C02 KVD d   1     -11.767 -30.835 -15.273  0.00  0.00     0.210 C 
ATOM     13  O01 KVD d   1     -12.437 -29.997 -14.618  0.00  0.00    -0.644 OA
ATOM     14  O03 KVD d   1     -12.279 -31.504 -16.221  0.00  0.00    -0.644 OA
ENDBRANCH   8  12
ENDBRANCH   1   3
BRANCH   2  15
ATOM     15  C12 KVD d   1      -6.057 -35.177 -17.049  0.00  0.00     0.018 A 
ATOM     16  C13 KVD d   1      -4.965 -34.919 -17.860  0.00  0.00    -0.065 A 
ATOM     17  C14 KVD d   1      -4.316 -35.963 -18.479  0.00  0.00    -0.082 A 
ATOM     18  H1  KVD d   1      -4.623 -33.901 -18.007  0.00  0.00     0.085 H 
ATOM     19  C15 KVD d   1      -4.752 -37.255 -18.271  0.00  0.00    -0.083 A 
ATOM     20  H2  KVD d   1      -3.468 -35.771 -19.126  0.00  0.00     0.083 H 
ATOM     21  C16 KVD d   1      -5.825 -37.512 -17.448  0.00  0.00    -0.082 A 
ATOM     22  H3  KVD d   1      -4.244 -38.077 -18.761  0.00  0.00     0.083 H 
ATOM     23  C17 KVD d   1      -6.493 -36.466 -16.830  0.00  0.00    -0.065 A 
ATOM     24  H4  KVD d   1      -6.148 -38.533 -17.283  0.00  0.00     0.083 H 
ATOM     25  H5  KVD d   1      -7.343 -36.659 -16.186  0.00  0.00     0.085 H 
ENDBRANCH   2  15
TORSDOF 3
