REMARK  4 active torsions:
REMARK  status: ('A' for Active; 'I' for Inactive)
REMARK    1  A    between atoms: C16_16  and  C17_6 
REMARK    2  A    between atoms: C04_8  and  C02_7 
REMARK    3  A    between atoms: C15_15  and  C08_12 
REMARK    4  A    between atoms: C09_13  and  N10_20 
ROOT
ATOM      1  C04 KWG d   1     -10.069 -31.085 -14.730  0.00  0.00     0.069 A 
ATOM      2  C05 KWG d   1      -9.307 -30.380 -13.818  0.00  0.00    -0.064 A 
ATOM      3  C06 KWG d   1      -7.997 -30.714 -13.600  0.00  0.00    -0.080 A 
ATOM      4  C07 KWG d   1      -7.439 -31.779 -14.289  0.00  0.00    -0.062 A 
ATOM      5  C08 KWG d   1      -8.215 -32.465 -15.193  0.00  0.00     0.046 A 
ATOM      6  C09 KWG d   1      -9.531 -32.147 -15.454  0.00  0.00     0.074 A 
ATOM      7  H6  KWG d   1      -9.750 -29.556 -13.271  0.00  0.00     0.085 H 
ATOM      8  H7  KWG d   1      -7.400 -30.149 -12.893  0.00  0.00     0.083 H 
ATOM      9  H8  KWG d   1      -6.408 -32.066 -14.118  0.00  0.00     0.085 H 
ENDROOT
BRANCH   5  10
ATOM     10  C15 KWG d   1      -7.558 -33.589 -15.936  0.00  0.00    -0.059 C 
ATOM     11  C16 KWG d   1      -6.968 -34.464 -16.433  0.00  0.00    -0.061 C 
BRANCH  11  12
ATOM     12  C17 KWG d   1      -6.218 -35.620 -17.023  0.00  0.00     0.018 A 
ATOM     13  C22 KWG d   1      -6.535 -36.877 -16.577  0.00  0.00    -0.065 A 
ATOM     14  C21 KWG d   1      -5.864 -37.952 -17.112  0.00  0.00    -0.082 A 
ATOM     15  H1  KWG d   1      -7.297 -37.020 -15.820  0.00  0.00     0.085 H 
ATOM     16  C20 KWG d   1      -4.884 -37.731 -18.058  0.00  0.00    -0.083 A 
ATOM     17  H12 KWG d   1      -6.102 -38.961 -16.794  0.00  0.00     0.083 H 
ATOM     18  C19 KWG d   1      -4.575 -36.467 -18.502  0.00  0.00    -0.082 A 
ATOM     19  H2  KWG d   1      -4.342 -38.578 -18.463  0.00  0.00     0.083 H 
ATOM     20  C18 KWG d   1      -5.252 -35.384 -17.979  0.00  0.00    -0.065 A 
ATOM     21  H11 KWG d   1      -3.808 -36.323 -19.255  0.00  0.00     0.083 H 
ATOM     22  H10 KWG d   1      -5.031 -34.376 -18.310  0.00  0.00     0.085 H 
ENDBRANCH  11  12
ENDBRANCH   5  10
BRANCH   6  23
ATOM     23  N10 KWG d   1     -10.289 -32.815 -16.347  0.00  0.00    -0.331 N 
ATOM     24  C11 KWG d   1     -10.870 -32.201 -17.374  0.00  0.00    -0.015 A 
ATOM     25  C12 KWG d   1     -11.602 -33.133 -18.092  0.00  0.00    -0.066 A 
ATOM     26  H3  KWG d   1     -10.784 -31.142 -17.611  0.00  0.00     0.112 H 
ATOM     27  C13 KWG d   1     -11.456 -34.349 -17.434  0.00  0.00    -0.066 A 
ATOM     28  H4  KWG d   1     -12.180 -32.949 -18.997  0.00  0.00     0.085 H 
ATOM     29  C14 KWG d   1     -10.617 -34.107 -16.354  0.00  0.00    -0.015 A 
ATOM     30  H5  KWG d   1     -11.909 -35.300 -17.710  0.00  0.00     0.085 H 
ATOM     31  H9  KWG d   1     -10.282 -34.850 -15.632  0.00  0.00     0.112 H 
ENDBRANCH   6  23
BRANCH   1  32
ATOM     32  C02 KWG d   1     -11.503 -30.637 -14.915  0.00  0.00     0.211 C 
ATOM     33  O01 KWG d   1     -12.421 -31.431 -14.597  0.00  0.00    -0.644 OA
ATOM     34  O03 KWG d   1     -11.711 -29.488 -15.393  0.00  0.00    -0.644 OA
ENDBRANCH   1  32
TORSDOF 4
