REMARK  8 active torsions:
REMARK  status: ('A' for Active; 'I' for Inactive)
REMARK    1  A    between atoms: C2_2  and  C1_1 
REMARK    2  A    between atoms: C2_2  and  C3_3 
REMARK    3  A    between atoms: C2_2  and  C4_4 
REMARK    4  A    between atoms: C5_5  and  C2_2 
REMARK    5  A    between atoms: C11_9  and  C8_8 
REMARK       I    between atoms: N13_10  and  C11_9 
REMARK    6  A    between atoms: C14_22  and  N13_10 
REMARK    7  A    between atoms: C25_27  and  C16_12 
REMARK    8  A    between atoms: N18_24  and  C19_13 
ROOT
ATOM      1  C15 KWY d   1     -15.335 -28.247 -12.289  0.00  0.00    -0.008 A 
ATOM      2  C16 KWY d   1     -15.636 -29.619 -12.207  0.00  0.00     0.091 A 
ATOM      3  C14 KWY d   1     -16.424 -27.652 -12.808  0.00  0.00     0.134 A 
ATOM      4  N17 KWY d   1     -16.853 -29.825 -12.639  0.00  0.00    -0.165 NA
ATOM      5  N18 KWY d   1     -17.373 -28.605 -13.035  0.00  0.00    -0.217 N 
ATOM      6  H13 KWY d   1     -14.406 -27.763 -11.992  0.00  0.00     0.093 H 
ENDROOT
BRANCH   3   7
ATOM      7  N13 KWY d   1     -16.663 -26.321 -13.081  0.00  0.00    -0.307 N 
ATOM      8  C11 KWY d   1     -16.718 -25.377 -12.128  0.00  0.00     0.257 C 
ATOM      9  O12 KWY d   1     -16.522 -25.638 -10.962  0.00  0.00    -0.267 OA
ATOM     10  H12 KWY d   1     -16.802 -26.047 -14.033  0.00  0.00     0.170 HD
BRANCH   8  11
ATOM     11  C8  KWY d   1     -17.096 -24.018 -12.515  0.00  0.00     0.032 A 
ATOM     12  C7  KWY d   1     -16.718 -22.917 -11.759  0.00  0.00    -0.067 A 
ATOM     13  C6  KWY d   1     -17.139 -21.667 -12.148  0.00  0.00    -0.075 A 
ATOM     14  H11 KWY d   1     -16.101 -23.041 -10.876  0.00  0.00     0.085 H 
ATOM     15  C5  KWY d   1     -17.953 -21.490 -13.258  0.00  0.00    -0.051 A 
ATOM     16  H10 KWY d   1     -16.828 -20.801 -11.575  0.00  0.00     0.084 H 
ATOM     17  C10 KWY d   1     -18.336 -22.599 -13.995  0.00  0.00    -0.075 A 
ATOM     18  C9  KWY d   1     -17.933 -23.848 -13.622  0.00  0.00    -0.067 A 
ATOM     19  H20 KWY d   1     -18.959 -22.474 -14.873  0.00  0.00     0.084 H 
ATOM     20  H19 KWY d   1     -18.263 -24.712 -14.187  0.00  0.00     0.085 H 
BRANCH  15  21
ATOM     21  C2  KWY d   1     -18.373 -20.082 -13.623  0.00  0.00    -0.024 C 
BRANCH  21  22
ATOM     22  C1  KWY d   1     -19.035 -19.460 -12.381  0.00  0.00    -0.066 C 
ATOM     23  H1  KWY d   1     -19.354 -18.433 -12.611  0.00  0.00     0.028 H 
ATOM     24  H2  KWY d   1     -18.314 -19.443 -11.551  0.00  0.00     0.028 H 
ATOM     25  H3  KWY d   1     -19.911 -20.060 -12.093  0.00  0.00     0.028 H 
ENDBRANCH  21  22
BRANCH  21  26
ATOM     26  C3  KWY d   1     -19.385 -20.008 -14.792  0.00  0.00    -0.066 C 
ATOM     27  H4  KWY d   1     -18.935 -20.447 -15.695  0.00  0.00     0.028 H 
ATOM     28  H5  KWY d   1     -19.645 -18.957 -14.986  0.00  0.00     0.028 H 
ATOM     29  H6  KWY d   1     -20.294 -20.567 -14.526  0.00  0.00     0.028 H 
ENDBRANCH  21  26
BRANCH  21  30
ATOM     30  C4  KWY d   1     -17.116 -19.293 -14.006  0.00  0.00    -0.066 C 
ATOM     31  H7  KWY d   1     -16.389 -19.339 -13.182  0.00  0.00     0.028 H 
ATOM     32  H8  KWY d   1     -17.386 -18.244 -14.199  0.00  0.00     0.028 H 
ATOM     33  H9  KWY d   1     -16.671 -19.730 -14.912  0.00  0.00     0.028 H 
ENDBRANCH  21  30
ENDBRANCH  15  21
ENDBRANCH   8  11
ENDBRANCH   3   7
BRANCH   5  34
ATOM     34  C19 KWY d   1     -18.644 -28.375 -13.568  0.00  0.00     0.060 A 
ATOM     35  C24 KWY d   1     -19.750 -29.070 -13.089  0.00  0.00    -0.055 A 
ATOM     36  C23 KWY d   1     -21.000 -28.820 -13.629  0.00  0.00    -0.081 A 
ATOM     37  H16 KWY d   1     -19.634 -29.802 -12.298  0.00  0.00     0.087 H 
ATOM     38  C22 KWY d   1     -21.157 -27.885 -14.640  0.00  0.00    -0.083 A 
ATOM     39  H15 KWY d   1     -21.863 -29.360 -13.258  0.00  0.00     0.083 H 
ATOM     40  C21 KWY d   1     -20.065 -27.193 -15.120  0.00  0.00    -0.081 A 
ATOM     41  H22 KWY d   1     -22.141 -27.697 -15.055  0.00  0.00     0.083 H 
ATOM     42  C20 KWY d   1     -18.818 -27.443 -14.588  0.00  0.00    -0.055 A 
ATOM     43  H14 KWY d   1     -20.186 -26.459 -15.909  0.00  0.00     0.083 H 
ATOM     44  H21 KWY d   1     -17.958 -26.905 -14.970  0.00  0.00     0.087 H 
ENDBRANCH   5  34
BRANCH   2  45
ATOM     45  C25 KWY d   1     -14.758 -30.692 -11.707  0.00  0.00    -0.006 A 
ATOM     46  C30 KWY d   1     -15.021 -32.013 -12.077  0.00  0.00    -0.071 A 
ATOM     47  C29 KWY d   1     -14.215 -33.032 -11.614  0.00  0.00    -0.082 A 
ATOM     48  H18 KWY d   1     -15.858 -32.237 -12.728  0.00  0.00     0.084 H 
ATOM     49  C28 KWY d   1     -13.150 -32.743 -10.783  0.00  0.00    -0.083 A 
ATOM     50  H25 KWY d   1     -14.417 -34.057 -11.902  0.00  0.00     0.083 H 
ATOM     51  C27 KWY d   1     -12.888 -31.436 -10.415  0.00  0.00    -0.082 A 
ATOM     52  H24 KWY d   1     -12.517 -33.544 -10.418  0.00  0.00     0.083 H 
ATOM     53  C26 KWY d   1     -13.683 -30.405 -10.869  0.00  0.00    -0.071 A 
ATOM     54  H17 KWY d   1     -12.049 -31.220  -9.763  0.00  0.00     0.083 H 
ATOM     55  H23 KWY d   1     -13.474 -29.382 -10.577  0.00  0.00     0.084 H 
ENDBRANCH   2  45
TORSDOF 8
