REMARK  3 active torsions:
REMARK  status: ('A' for Active; 'I' for Inactive)
REMARK    1  A    between atoms: N4_12  and  C5_1 
REMARK    2  A    between atoms: N7_14  and  C10_3 
REMARK    3  A    between atoms: C2_10  and  C1_7 
REMARK       I    between atoms: C2_10  and  N4_12 
ROOT
ATOM      1  C5  KWV d   1      12.241   6.968 -34.994  0.00  0.00     0.096 C 
ATOM      2  C8  KWV d   1      14.192   8.346 -34.885  0.00  0.00    -0.015 C 
ATOM      3  C9  KWV d   1      12.655   8.461 -34.808  0.00  0.00     0.002 C 
ATOM      4  N6  KWV d   1      13.118   6.323 -34.288  0.00  0.00    -0.306 N 
ATOM      5  N7  KWV d   1      14.488   7.065 -34.633  0.00  0.00    -0.274 N 
ATOM      6  H1  KWV d   1      12.323   6.711 -36.060  0.00  0.00     0.109 H 
ATOM      7  H2  KWV d   1      14.896   9.148 -35.101  0.00  0.00     0.108 H 
ATOM      8  H9  KWV d   1      12.327   8.854 -33.834  0.00  0.00     0.046 H 
ATOM      9  H10 KWV d   1      12.256   9.095 -35.613  0.00  0.00     0.046 H 
ATOM     10  H12 KWV d   1      12.966   5.524 -33.656  0.00  0.00     0.183 HD
ENDROOT
BRANCH   5  11
ATOM     11  C10 KWV d   1      15.673   6.551 -34.025  0.00  0.00     0.057 A 
ATOM     12  C17 KWV d   1      15.602   5.281 -33.460  0.00  0.00    -0.033 A 
ATOM     13  C15 KWV d   1      16.729   4.741 -32.856  0.00  0.00     0.058 A 
ATOM     14  H3  KWV d   1      14.675   4.719 -33.491  0.00  0.00     0.089 H 
ATOM     15  C13 KWV d   1      17.896   5.484 -32.815  0.00  0.00     0.055 A 
ATOM     16 CL16 KWV d   1      16.697   3.094 -32.148  0.00  0.00    -0.082 Cl
ATOM     17  C12 KWV d   1      17.961   6.755 -33.364  0.00  0.00    -0.058 A 
ATOM     18 CL14 KWV d   1      19.327   4.779 -32.040  0.00  0.00    -0.083 Cl
ATOM     19  C11 KWV d   1      16.830   7.297 -33.976  0.00  0.00    -0.053 A 
ATOM     20  H8  KWV d   1      18.883   7.323 -33.318  0.00  0.00     0.086 H 
ATOM     21  H7  KWV d   1      16.861   8.291 -34.407  0.00  0.00     0.087 H 
ENDBRANCH   5  11
BRANCH   1  22
ATOM     22  N4  KWV d   1      10.895   6.529 -34.516  0.00  0.00    -0.339 N 
ATOM     23  C2  KWV d   1       9.705   7.225 -34.931  0.00  0.00     0.215 C 
ATOM     24  O3  KWV d   1       9.819   8.176 -35.633  0.00  0.00    -0.274 OA
ATOM     25  H11 KWV d   1      10.820   5.744 -33.901  0.00  0.00     0.164 HD
BRANCH  23  26
ATOM     26  C1  KWV d   1       8.336   6.732 -34.464  0.00  0.00    -0.003 C 
ATOM     27  H4  KWV d   1       7.551   7.383 -34.878  0.00  0.00     0.040 H 
ATOM     28  H5  KWV d   1       8.292   6.758 -33.365  0.00  0.00     0.040 H 
ATOM     29  H6  KWV d   1       8.179   5.701 -34.813  0.00  0.00     0.040 H 
ENDBRANCH  23  26
ENDBRANCH   1  22
TORSDOF 3
