REMARK  4 active torsions:
REMARK  status: ('A' for Active; 'I' for Inactive)
REMARK       I    between atoms: N1_1  and  C13_19 
REMARK    1  A    between atoms: N2_5  and  C16_22 
REMARK    2  A    between atoms: C9_7  and  C8_6 
REMARK    3  A    between atoms: C1_9  and  C_35 
REMARK    4  A    between atoms: C13_19  and  C12_16 
REMARK       I    between atoms: C_35  and  N_37 
ROOT
ATOM      1  C9  KYV d   1      26.477  -7.801   6.942  0.00  0.00    -0.033 A 
ATOM      2  C10 KYV d   1      25.289  -7.882   7.674  0.00  0.00    -0.072 A 
ATOM      3  C12 KYV d   1      24.442  -9.613   6.220  0.00  0.00     0.032 A 
ATOM      4  C11 KYV d   1      24.289  -8.772   7.319  0.00  0.00    -0.067 A 
ATOM      5  C25 KYV d   1      25.613  -9.526   5.476  0.00  0.00    -0.067 A 
ATOM      6  C26 KYV d   1      26.613  -8.638   5.832  0.00  0.00    -0.072 A 
ATOM      7  H5  KYV d   1      25.148  -7.237   8.534  0.00  0.00     0.084 H 
ATOM      8  H7  KYV d   1      23.377  -8.814   7.903  0.00  0.00     0.085 H 
ATOM      9  H20 KYV d   1      25.744 -10.161   4.607  0.00  0.00     0.085 H 
ATOM     10  H21 KYV d   1      27.519  -8.591   5.238  0.00  0.00     0.084 H 
ENDROOT
BRANCH   3  11
ATOM     11  C13 KYV d   1      23.402 -10.617   5.834  0.00  0.00     0.253 C 
ATOM     12  N1  KYV d   1      23.133 -11.642   6.669  0.00  0.00    -0.345 N 
ATOM     13  C24 KYV d   1      23.777 -11.878   7.971  0.00  0.00     0.013 C 
ATOM     14  C14 KYV d   1      22.180 -12.701   6.306  0.00  0.00     0.013 C 
ATOM     15  C23 KYV d   1      22.732 -12.082   9.050  0.00  0.00     0.026 C 
ATOM     16  H8  KYV d   1      24.400 -11.009   8.230  0.00  0.00     0.066 H 
ATOM     17  H9  KYV d   1      24.409 -12.776   7.905  0.00  0.00     0.066 H 
ATOM     18  N2  KYV d   1      21.850 -13.199   8.689  0.00  0.00    -0.213 N 
ATOM     19  H10 KYV d   1      23.232 -12.306  10.004  0.00  0.00     0.067 H 
ATOM     20  H11 KYV d   1      22.134 -11.165   9.156  0.00  0.00     0.067 H 
ATOM     21  C15 KYV d   1      21.164 -12.918   7.421  0.00  0.00     0.026 C 
ATOM     22  H16 KYV d   1      20.550 -12.012   7.534  0.00  0.00     0.067 H 
ATOM     23  H17 KYV d   1      20.517 -13.769   7.162  0.00  0.00     0.067 H 
ATOM     24  H18 KYV d   1      22.730 -13.637   6.132  0.00  0.00     0.066 H 
ATOM     25  H19 KYV d   1      21.650 -12.410   5.387  0.00  0.00     0.066 H 
ATOM     26  O2  KYV d   1      22.858 -10.514   4.757  0.00  0.00    -0.267 OA
BRANCH  18  27
ATOM     27  C16 KYV d   1      21.250 -14.004   9.649  0.00  0.00     0.703 A 
ATOM     28  N3  KYV d   1      20.104 -14.636   9.493  0.00  0.00    -0.188 N 
ATOM     29  C17 KYV d   1      19.884 -15.276  10.720  0.00  0.00     0.078 A 
ATOM     30  H1  KYV d   1      19.504 -14.655   8.656  0.00  0.00     0.184 HD
ATOM     31  C22 KYV d   1      20.937 -14.995  11.590  0.00  0.00     0.103 A 
ATOM     32  C18 KYV d   1      18.826 -16.076  11.155  0.00  0.00    -0.054 A 
ATOM     33  N4  KYV d   1      21.801 -14.186  10.878  0.00  0.00    -0.063 NA
ATOM     34  C21 KYV d   1      20.963 -15.489  12.889  0.00  0.00    -0.052 A 
ATOM     35  C20 KYV d   1      19.907 -16.285  13.310  0.00  0.00    -0.081 A 
ATOM     36  H12 KYV d   1      21.786 -15.259  13.556  0.00  0.00     0.087 H 
ATOM     37  C19 KYV d   1      18.849 -16.575  12.454  0.00  0.00    -0.081 A 
ATOM     38  H13 KYV d   1      19.906 -16.686  14.317  0.00  0.00     0.083 H 
ATOM     39  H14 KYV d   1      18.033 -17.197  12.803  0.00  0.00     0.083 H 
ATOM     40  H15 KYV d   1      18.000 -16.305  10.492  0.00  0.00     0.087 H 
ENDBRANCH  18  27
ENDBRANCH   3  11
BRANCH   1  41
ATOM     41  C8  KYV d   1      27.590  -6.897   7.214  0.00  0.00    -0.036 C 
ATOM     42  C7  KYV d   1      27.741  -5.910   8.101  0.00  0.00     0.128 A 
ATOM     43  C6  KYV d   1      28.759  -4.856   8.059  0.00  0.00     0.218 A 
ATOM     44  O3  KYV d   1      26.972  -5.752   9.238  0.00  0.00    -0.305 OA
ATOM     45  O1  KYV d   1      29.574  -4.661   7.147  0.00  0.00    -0.284 OA
ATOM     46  C5  KYV d   1      28.531  -4.086   9.301  0.00  0.00     0.052 A 
ATOM     47  C4  KYV d   1      29.267  -3.089   9.941  0.00  0.00    -0.066 A 
ATOM     48  C27 KYV d   1      27.449  -4.669   9.953  0.00  0.00     0.106 A 
ATOM     49  C3  KYV d   1      28.891  -2.678  11.214  0.00  0.00    -0.081 A 
ATOM     50  H6  KYV d   1      30.123  -2.640   9.451  0.00  0.00     0.085 H 
ATOM     51  C2  KYV d   1      27.784  -3.237  11.840  0.00  0.00    -0.065 A 
ATOM     52  H2  KYV d   1      29.467  -1.914  11.723  0.00  0.00     0.083 H 
ATOM     53  C1  KYV d   1      27.032  -4.231  11.209  0.00  0.00     0.066 A 
ATOM     54  H4  KYV d   1      27.500  -2.898  12.830  0.00  0.00     0.085 H 
ATOM     55  H3  KYV d   1      28.458  -7.057   6.576  0.00  0.00     0.089 H 
BRANCH  53  56
ATOM     56  C   KYV d   1      25.785  -4.714  11.886  0.00  0.00     0.252 C 
ATOM     57  O   KYV d   1      25.330  -4.095  12.857  0.00  0.00    -0.268 OA
ATOM     58  N   KYV d   1      25.191  -5.795  11.387  0.00  0.00    -0.366 N 
ATOM     59  H22 KYV d   1      24.357  -6.148  11.811  0.00  0.00     0.159 HD
ATOM     60  H23 KYV d   1      25.579  -6.255  10.588  0.00  0.00     0.159 HD
ENDBRANCH  53  56
ENDBRANCH   1  41
TORSDOF 4
