REMARK  4 active torsions:
REMARK  status: ('A' for Active; 'I' for Inactive)
REMARK       I    between atoms: C13_2  and  N1_3 
REMARK    1  A    between atoms: C13_2  and  C12_15 
REMARK    2  A    between atoms: C9_20  and  C8_21 
REMARK    3  A    between atoms: C8_21  and  C7_22 
REMARK    4  A    between atoms: C1_27  and  C_28 
REMARK       I    between atoms: C_28  and  N_30 
ROOT
ATOM      1  C12 KYP d   1      24.561  -9.624   6.202  0.00  0.00     0.032 A 
ATOM      2  C11 KYP d   1      24.380  -8.719   7.244  0.00  0.00    -0.067 A 
ATOM      3  C10 KYP d   1      25.374  -7.814   7.577  0.00  0.00    -0.076 A 
ATOM      4  C22 KYP d   1      25.763  -9.593   5.502  0.00  0.00    -0.067 A 
ATOM      5  C23 KYP d   1      26.760  -8.696   5.847  0.00  0.00    -0.076 A 
ATOM      6  C9  KYP d   1      26.594  -7.799   6.894  0.00  0.00    -0.055 A 
ATOM      7  H12 KYP d   1      23.450  -8.723   7.801  0.00  0.00     0.085 H 
ATOM      8  H13 KYP d   1      25.203  -7.106   8.380  0.00  0.00     0.084 H 
ATOM      9  H14 KYP d   1      25.921 -10.279   4.677  0.00  0.00     0.085 H 
ATOM     10  H15 KYP d   1      27.689  -8.694   5.288  0.00  0.00     0.084 H 
ENDROOT
BRANCH   1  11
ATOM     11  C13 KYP d   1      23.516 -10.637   5.838  0.00  0.00     0.253 C 
ATOM     12  O2  KYP d   1      23.073 -10.629   4.723  0.00  0.00    -0.267 OA
ATOM     13  N1  KYP d   1      23.115 -11.557   6.745  0.00  0.00    -0.345 N 
ATOM     14  C21 KYP d   1      22.162 -12.607   6.349  0.00  0.00     0.013 C 
ATOM     15  C14 KYP d   1      23.592 -11.715   8.128  0.00  0.00     0.013 C 
ATOM     16  C20 KYP d   1      21.008 -12.667   7.320  0.00  0.00     0.027 C 
ATOM     17  H1  KYP d   1      22.677 -13.579   6.339  0.00  0.00     0.066 H 
ATOM     18  H2  KYP d   1      21.777 -12.386   5.343  0.00  0.00     0.066 H 
ATOM     19  N2  KYP d   1      21.521 -12.877   8.676  0.00  0.00    -0.211 N 
ATOM     20  H3  KYP d   1      20.342 -13.499   7.047  0.00  0.00     0.067 H 
ATOM     21  H4  KYP d   1      20.448 -11.721   7.282  0.00  0.00     0.067 H 
ATOM     22  C16 KYP d   1      21.127 -13.891   9.486  0.00  0.00     0.724 A 
ATOM     23  C15 KYP d   1      22.435 -11.807   9.085  0.00  0.00     0.027 C 
ATOM     24  N4  KYP d   1      20.289 -14.804   8.951  0.00  0.00    -0.075 NA
ATOM     25  N3  KYP d   1      21.629 -13.898  10.742  0.00  0.00    -0.075 NA
ATOM     26  C19 KYP d   1      19.958 -15.821   9.759  0.00  0.00     0.022 A 
ATOM     27  C18 KYP d   1      20.424 -15.950  11.047  0.00  0.00    -0.048 A 
ATOM     28  H5  KYP d   1      19.287 -16.582   9.377  0.00  0.00     0.115 H 
ATOM     29  C17 KYP d   1      21.258 -14.945  11.496  0.00  0.00     0.022 A 
ATOM     30  H6  KYP d   1      20.152 -16.792  11.673  0.00  0.00     0.087 H 
ATOM     31  H7  KYP d   1      21.633 -15.005  12.511  0.00  0.00     0.115 H 
ATOM     32  H8  KYP d   1      22.815 -12.021  10.095  0.00  0.00     0.067 H 
ATOM     33  H9  KYP d   1      21.893 -10.850   9.092  0.00  0.00     0.067 H 
ATOM     34  H10 KYP d   1      24.214 -10.848   8.396  0.00  0.00     0.066 H 
ATOM     35  H11 KYP d   1      24.193 -12.633   8.200  0.00  0.00     0.066 H 
ENDBRANCH   1  11
BRANCH   6  36
ATOM     36  C8  KYP d   1      27.746  -6.995   7.274  0.00  0.00    -0.009 C 
ATOM     37  H16 KYP d   1      28.146  -6.638   6.313  0.00  0.00     0.044 H 
ATOM     38  H17 KYP d   1      28.442  -7.725   7.713  0.00  0.00     0.044 H 
BRANCH  36  39
ATOM     39  C7  KYP d   1      27.850  -5.932   8.077  0.00  0.00     0.111 A 
ATOM     40  C6  KYP d   1      28.881  -4.906   7.998  0.00  0.00     0.191 A 
ATOM     41  O1  KYP d   1      29.721  -4.740   7.053  0.00  0.00    -0.289 OA
ATOM     42  C5  KYP d   1      28.684  -4.108   9.199  0.00  0.00     0.047 A 
ATOM     43  C24 KYP d   1      27.576  -4.628   9.870  0.00  0.00     0.099 A 
ATOM     44  C4  KYP d   1      29.433  -3.075   9.758  0.00  0.00    -0.067 A 
ATOM     45  O3  KYP d   1      27.082  -5.734   9.216  0.00  0.00    -0.336 OA
ATOM     46  C1  KYP d   1      27.156  -4.091  11.084  0.00  0.00     0.066 A 
ATOM     47  C2  KYP d   1      27.916  -3.052  11.630  0.00  0.00    -0.065 A 
ATOM     48  C3  KYP d   1      29.041  -2.562  10.978  0.00  0.00    -0.081 A 
ATOM     49  H23 KYP d   1      27.622  -2.621  12.580  0.00  0.00     0.085 H 
ATOM     50  H22 KYP d   1      29.619  -1.766  11.434  0.00  0.00     0.083 H 
ATOM     51  H21 KYP d   1      30.304  -2.683   9.246  0.00  0.00     0.085 H 
ATOM     52  H18 KYP d   1      27.157  -5.371   7.433  0.00  0.00     0.097 H 
BRANCH  46  53
ATOM     53  C   KYP d   1      25.917  -4.518  11.822  0.00  0.00     0.252 C 
ATOM     54  O   KYP d   1      25.471  -3.820  12.775  0.00  0.00    -0.268 OA
ATOM     55  N   KYP d   1      25.271  -5.620  11.388  0.00  0.00    -0.366 N 
ATOM     56  H19 KYP d   1      24.444  -5.932  11.856  0.00  0.00     0.159 HD
ATOM     57  H20 KYP d   1      25.619  -6.125  10.598  0.00  0.00     0.159 HD
ENDBRANCH  46  53
ENDBRANCH  36  39
ENDBRANCH   6  36
TORSDOF 4
