REMARK  4 active torsions:
REMARK  status: ('A' for Active; 'I' for Inactive)
REMARK       I    between atoms: C13_2  and  N1_3 
REMARK    1  A    between atoms: C13_2  and  C12_15 
REMARK    2  A    between atoms: C18_8  and  C19_9 
REMARK    3  A    between atoms: C9_20  and  C8_21 
REMARK    4  A    between atoms: C1_27  and  C_28 
REMARK       I    between atoms: C_28  and  N_30 
ROOT
ATOM      1  C12 KYM d   1      23.380  -9.565   7.511  0.00  0.00     0.032 A 
ATOM      2  C11 KYM d   1      24.494  -9.519   6.677  0.00  0.00    -0.067 A 
ATOM      3  C10 KYM d   1      25.605  -8.774   7.023  0.00  0.00    -0.072 A 
ATOM      4  C22 KYM d   1      23.415  -8.851   8.706  0.00  0.00    -0.067 A 
ATOM      5  C23 KYM d   1      24.521  -8.088   9.041  0.00  0.00    -0.072 A 
ATOM      6  C9  KYM d   1      25.636  -8.021   8.198  0.00  0.00    -0.033 A 
ATOM      7  H10 KYM d   1      24.490 -10.074   5.746  0.00  0.00     0.085 H 
ATOM      8  H11 KYM d   1      26.470  -8.774   6.369  0.00  0.00     0.084 H 
ATOM      9  H12 KYM d   1      22.568  -8.893   9.381  0.00  0.00     0.085 H 
ATOM     10  H13 KYM d   1      24.523  -7.533   9.972  0.00  0.00     0.084 H 
ENDROOT
BRANCH   1  11
ATOM     11  C13 KYM d   1      22.174 -10.325   7.060  0.00  0.00     0.254 C 
ATOM     12  O2  KYM d   1      21.165  -9.711   6.774  0.00  0.00    -0.267 OA
ATOM     13  N1  KYM d   1      22.282 -11.654   6.852  0.00  0.00    -0.339 N 
ATOM     14  C17 KYM d   1      23.354 -12.469   7.421  0.00  0.00     0.054 C 
ATOM     15  C14 KYM d   1      21.282 -12.442   6.116  0.00  0.00     0.014 C 
ATOM     16  C16 KYM d   1      22.569 -13.093   8.539  0.00  0.00     0.148 A 
ATOM     17  H1  KYM d   1      24.191 -11.858   7.790  0.00  0.00     0.076 H 
ATOM     18  H2  KYM d   1      23.732 -13.217   6.709  0.00  0.00     0.076 H 
ATOM     19  N3  KYM d   1      22.934 -13.284   9.783  0.00  0.00    -0.133 NA
ATOM     20  N2  KYM d   1      21.282 -13.526   8.331  0.00  0.00    -0.317 N 
ATOM     21  N4  KYM d   1      21.853 -13.873  10.439  0.00  0.00    -0.134 NA
ATOM     22  C18 KYM d   1      20.888 -14.013   9.556  0.00  0.00     0.141 A 
ATOM     23  C15 KYM d   1      20.558 -13.418   7.046  0.00  0.00     0.018 C 
ATOM     24  H6  KYM d   1      19.537 -13.053   7.233  0.00  0.00     0.067 H 
ATOM     25  H7  KYM d   1      20.512 -14.408   6.570  0.00  0.00     0.067 H 
ATOM     26  H8  KYM d   1      21.787 -13.011   5.321  0.00  0.00     0.067 H 
ATOM     27  H9  KYM d   1      20.545 -11.759   5.668  0.00  0.00     0.067 H 
BRANCH  22  28
ATOM     28  C19 KYM d   1      19.547 -14.633   9.809  0.00  0.00     0.038 A 
ATOM     29  C21 KYM d   1      19.063 -15.745   8.916  0.00  0.00    -0.091 A 
ATOM     30  C20 KYM d   1      19.423 -16.044  10.319  0.00  0.00    -0.091 A 
ATOM     31  H4  KYM d   1      18.707 -16.083   7.944  0.00  0.00     0.078 H 
ATOM     32  H5  KYM d   1      19.525 -16.763  11.131  0.00  0.00     0.078 H 
ATOM     33  H3  KYM d   1      18.849 -13.860  10.163  0.00  0.00     0.064 H 
ENDBRANCH  22  28
ENDBRANCH   1  11
BRANCH   6  34
ATOM     34  C8  KYM d   1      26.836  -7.216   8.387  0.00  0.00    -0.036 C 
ATOM     35  C7  KYM d   1      27.169  -6.320   9.319  0.00  0.00     0.128 A 
ATOM     36  C6  KYM d   1      28.286  -5.378   9.248  0.00  0.00     0.218 A 
ATOM     37  O3  KYM d   1      26.437  -6.070  10.464  0.00  0.00    -0.305 OA
ATOM     38  O1  KYM d   1      29.125  -5.302   8.351  0.00  0.00    -0.284 OA
ATOM     39  C5  KYM d   1      28.136  -4.549  10.463  0.00  0.00     0.052 A 
ATOM     40  C24 KYM d   1      27.019  -5.017  11.144  0.00  0.00     0.106 A 
ATOM     41  C4  KYM d   1      28.923  -3.546  11.020  0.00  0.00    -0.066 A 
ATOM     42  C1  KYM d   1      26.663  -4.474  12.383  0.00  0.00     0.066 A 
ATOM     43  C2  KYM d   1      27.457  -3.460  12.921  0.00  0.00    -0.065 A 
ATOM     44  C3  KYM d   1      28.578  -3.011  12.250  0.00  0.00    -0.081 A 
ATOM     45  H19 KYM d   1      27.191  -3.020  13.875  0.00  0.00     0.085 H 
ATOM     46  H18 KYM d   1      29.192  -2.234  12.690  0.00  0.00     0.083 H 
ATOM     47  H17 KYM d   1      29.800  -3.186  10.495  0.00  0.00     0.085 H 
ATOM     48  H14 KYM d   1      27.602  -7.374   7.629  0.00  0.00     0.089 H 
BRANCH  42  49
ATOM     49  C   KYM d   1      25.504  -4.928  13.207  0.00  0.00     0.252 C 
ATOM     50  O   KYM d   1      25.167  -4.269  14.205  0.00  0.00    -0.268 OA
ATOM     51  N   KYM d   1      24.870  -6.042  12.831  0.00  0.00    -0.366 N 
ATOM     52  H15 KYM d   1      24.089  -6.376  13.360  0.00  0.00     0.159 HD
ATOM     53  H16 KYM d   1      25.176  -6.542  12.021  0.00  0.00     0.159 HD
ENDBRANCH  42  49
ENDBRANCH   6  34
TORSDOF 4
