REMARK  6 active torsions:
REMARK  status: ('A' for Active; 'I' for Inactive)
REMARK       I    between atoms: C_2  and  N_1 
REMARK    1  A    between atoms: C1_4  and  C_2 
REMARK    2  A    between atoms: C12_7  and  C13_8 
REMARK       I    between atoms: C13_8  and  N1_17 
REMARK    3  A    between atoms: C8_15  and  C9_16 
REMARK    4  A    between atoms: N1_17  and  C14_20 
REMARK    5  A    between atoms: C14_20  and  C15_21 
REMARK    6  A    between atoms: C15_21  and  C16_22 
ROOT
ATOM      1  C10 KYJ d   1      26.137  -8.033   7.445  0.00  0.00    -0.072 A 
ATOM      2  C11 KYJ d   1      25.302  -9.096   7.150  0.00  0.00    -0.067 A 
ATOM      3  C12 KYJ d   1      25.542  -9.904   6.041  0.00  0.00     0.032 A 
ATOM      4  C9  KYJ d   1      27.246  -7.751   6.652  0.00  0.00    -0.033 A 
ATOM      5  C23 KYJ d   1      26.624  -9.599   5.219  0.00  0.00    -0.067 A 
ATOM      6  C24 KYJ d   1      27.467  -8.550   5.527  0.00  0.00    -0.072 A 
ATOM      7  H3  KYJ d   1      25.924  -7.410   8.306  0.00  0.00     0.084 H 
ATOM      8  H4  KYJ d   1      24.451  -9.302   7.789  0.00  0.00     0.085 H 
ATOM      9  H19 KYJ d   1      26.806 -10.191   4.329  0.00  0.00     0.085 H 
ATOM     10  H20 KYJ d   1      28.315  -8.342   4.885  0.00  0.00     0.084 H 
ENDROOT
BRANCH   3  11
ATOM     11  C13 KYJ d   1      24.695 -11.117   5.806  0.00  0.00     0.251 C 
ATOM     12  N1  KYJ d   1      25.172 -12.040   4.965  0.00  0.00    -0.356 N 
ATOM     13  H9  KYJ d   1      26.076 -11.900   4.561  0.00  0.00     0.162 HD
ATOM     14  O2  KYJ d   1      23.627 -11.256   6.394  0.00  0.00    -0.268 OA
BRANCH  12  15
ATOM     15  C14 KYJ d   1      24.425 -13.244   4.614  0.00  0.00     0.002 C 
ATOM     16  H10 KYJ d   1      24.079 -13.158   3.573  0.00  0.00     0.064 H 
ATOM     17  H11 KYJ d   1      23.556 -13.332   5.283  0.00  0.00     0.064 H 
BRANCH  15  18
ATOM     18  C15 KYJ d   1      25.275 -14.493   4.747  0.00  0.00     0.005 C 
ATOM     19  H12 KYJ d   1      26.256 -14.304   4.286  0.00  0.00     0.047 H 
ATOM     20  H13 KYJ d   1      24.775 -15.319   4.220  0.00  0.00     0.047 H 
BRANCH  18  21
ATOM     21  C16 KYJ d   1      25.482 -14.887   6.168  0.00  0.00     0.106 A 
ATOM     22  N3  KYJ d   1      25.016 -16.055   6.672  0.00  0.00    -0.233 NA
ATOM     23  C22 KYJ d   1      25.388 -16.102   8.002  0.00  0.00     0.085 A 
ATOM     24  C21 KYJ d   1      25.214 -17.056   8.996  0.00  0.00    -0.053 A 
ATOM     25  C17 KYJ d   1      26.091 -14.922   8.235  0.00  0.00     0.062 A 
ATOM     26  C20 KYJ d   1      25.773 -16.812  10.244  0.00  0.00    -0.081 A 
ATOM     27  H14 KYJ d   1      24.657 -17.966   8.803  0.00  0.00     0.087 H 
ATOM     28  C19 KYJ d   1      26.467 -15.633  10.494  0.00  0.00    -0.081 A 
ATOM     29  H15 KYJ d   1      25.667 -17.549  11.032  0.00  0.00     0.083 H 
ATOM     30  C18 KYJ d   1      26.635 -14.681   9.495  0.00  0.00    -0.055 A 
ATOM     31  H16 KYJ d   1      26.882 -15.454  11.479  0.00  0.00     0.083 H 
ATOM     32  H17 KYJ d   1      27.181 -13.765   9.693  0.00  0.00     0.087 H 
ATOM     33  N2  KYJ d   1      26.136 -14.168   7.061  0.00  0.00    -0.343 N 
ATOM     34  H18 KYJ d   1      26.582 -13.250   6.922  0.00  0.00     0.167 HD
ENDBRANCH  18  21
ENDBRANCH  15  18
ENDBRANCH  12  15
ENDBRANCH   3  11
BRANCH   4  35
ATOM     35  C8  KYJ d   1      28.268  -6.741   6.867  0.00  0.00    -0.036 C 
ATOM     36  C7  KYJ d   1      28.430  -5.808   7.805  0.00  0.00     0.128 A 
ATOM     37  C6  KYJ d   1      29.487  -4.799   7.822  0.00  0.00     0.218 A 
ATOM     38  O3  KYJ d   1      27.643  -5.675   8.940  0.00  0.00    -0.305 OA
ATOM     39  C5  KYJ d   1      29.278  -4.079   9.086  0.00  0.00     0.052 A 
ATOM     40  O1  KYJ d   1      30.309  -4.572   6.910  0.00  0.00    -0.284 OA
ATOM     41  C4  KYJ d   1      30.024  -3.100   9.735  0.00  0.00    -0.066 A 
ATOM     42  C25 KYJ d   1      28.154  -4.634   9.698  0.00  0.00     0.106 A 
ATOM     43  C3  KYJ d   1      29.623  -2.674  10.989  0.00  0.00    -0.081 A 
ATOM     44  H7  KYJ d   1      30.905  -2.678   9.266  0.00  0.00     0.085 H 
ATOM     45  C2  KYJ d   1      28.482  -3.195  11.582  0.00  0.00    -0.065 A 
ATOM     46  H6  KYJ d   1      30.206  -1.926  11.513  0.00  0.00     0.083 H 
ATOM     47  C1  KYJ d   1      27.715  -4.177  10.947  0.00  0.00     0.066 A 
ATOM     48  H5  KYJ d   1      28.179  -2.833  12.558  0.00  0.00     0.085 H 
ATOM     49  H8  KYJ d   1      29.055  -6.747   6.115  0.00  0.00     0.089 H 
BRANCH  47  50
ATOM     50  C   KYJ d   1      26.467  -4.649  11.643  0.00  0.00     0.252 C 
ATOM     51  N   KYJ d   1      25.857  -5.735  11.170  0.00  0.00    -0.366 N 
ATOM     52  H1  KYJ d   1      26.229  -6.210  10.373  0.00  0.00     0.159 HD
ATOM     53  H2  KYJ d   1      25.027  -6.075  11.612  0.00  0.00     0.159 HD
ATOM     54  O   KYJ d   1      26.022  -4.027  12.647  0.00  0.00    -0.268 OA
ENDBRANCH  47  50
ENDBRANCH   4  35
TORSDOF 6
