REMARK  5 active torsions:
REMARK  status: ('A' for Active; 'I' for Inactive)
REMARK    1  A    between atoms: C2_2  and  C1_1 
REMARK    2  A    between atoms: N17_22  and  C16_10 
REMARK       I    between atoms: C18_11  and  N17_22 
REMARK    3  A    between atoms: C20_24  and  C18_11 
REMARK    4  A    between atoms: C9_18  and  C10_19 
REMARK    5  A    between atoms: N21_25  and  C20_24 
ROOT
ATOM      1  C2  L0P d   1       7.051  13.562  26.181  0.00  0.00    -0.015 A 
ATOM      2  C3  L0P d   1       6.728  12.272  26.584  0.00  0.00    -0.072 A 
ATOM      3  C4  L0P d   1       7.622  11.198  26.424  0.00  0.00    -0.067 A 
ATOM      4  C5  L0P d   1       8.815  11.398  25.833  0.00  0.00    -0.012 A 
ATOM      5  C7  L0P d   1       8.272  13.741  25.540  0.00  0.00     0.142 A 
ATOM      6  C16 L0P d   1      10.258  13.150  24.735  0.00  0.00     0.146 A 
ATOM      7  N6  L0P d   1       9.132  12.661  25.381  0.00  0.00    -0.290 N 
ATOM      8  N8  L0P d   1       8.810  14.841  25.012  0.00  0.00    -0.226 NA
ATOM      9  C9  L0P d   1      10.022  14.473  24.497  0.00  0.00     0.114 A 
ATOM     10  H4  L0P d   1       5.755  12.087  27.037  0.00  0.00     0.084 H 
ATOM     11  H5  L0P d   1       7.349  10.205  26.778  0.00  0.00     0.085 H 
ATOM     12  H6  L0P d   1       9.518  10.575  25.714  0.00  0.00     0.112 H 
ENDROOT
BRANCH   6  13
ATOM     13  N17 L0P d   1      11.313  12.384  24.278  0.00  0.00    -0.309 N 
ATOM     14  C18 L0P d   1      12.473  12.081  24.831  0.00  0.00     0.241 C 
ATOM     15  O19 L0P d   1      13.017  12.764  25.677  0.00  0.00    -0.271 OA
ATOM     16  H14 L0P d   1      11.174  11.990  23.369  0.00  0.00     0.170 HD
BRANCH  14  17
ATOM     17  C20 L0P d   1      13.128  10.839  24.258  0.00  0.00     0.077 C 
ATOM     18  H15 L0P d   1      12.825  10.714  23.208  0.00  0.00     0.079 H 
ATOM     19  H16 L0P d   1      12.815   9.958  24.837  0.00  0.00     0.079 H 
BRANCH  17  20
ATOM     20  N21 L0P d   1      14.577  10.982  24.333  0.00  0.00    -0.307 N 
ATOM     21  C30 L0P d   1      15.208  10.494  25.454  0.00  0.00     0.234 C 
ATOM     22  C29 L0P d   1      16.704  10.550  25.479  0.00  0.00     0.056 C 
ATOM     23  O31 L0P d   1      14.585  10.079  26.414  0.00  0.00    -0.272 OA
ATOM     24  S28 L0P d   1      17.322  10.038  23.886  0.00  0.00    -0.118 SA
ATOM     25  H19 L0P d   1      17.087   9.875  26.259  0.00  0.00     0.063 H 
ATOM     26  H20 L0P d   1      17.032  11.578  25.690  0.00  0.00     0.063 H 
ATOM     27  C27 L0P d   1      16.536  11.303  22.951  0.00  0.00     0.028 A 
ATOM     28  C22 L0P d   1      15.227  11.668  23.279  0.00  0.00     0.054 A 
ATOM     29  C26 L0P d   1      17.175  11.932  21.878  0.00  0.00    -0.065 A 
ATOM     30  C23 L0P d   1      14.556  12.616  22.511  0.00  0.00    -0.056 A 
ATOM     31  C24 L0P d   1      15.209  13.235  21.446  0.00  0.00    -0.081 A 
ATOM     32  H10 L0P d   1      13.528  12.872  22.741  0.00  0.00     0.087 H 
ATOM     33  C25 L0P d   1      16.523  12.910  21.140  0.00  0.00    -0.082 A 
ATOM     34  H11 L0P d   1      14.686  13.976  20.852  0.00  0.00     0.083 H 
ATOM     35  H17 L0P d   1      17.036  13.416  20.331  0.00  0.00     0.083 H 
ATOM     36  H18 L0P d   1      18.190  11.653  21.620  0.00  0.00     0.085 H 
ENDBRANCH  17  20
ENDBRANCH  14  17
ENDBRANCH   6  13
BRANCH   9  37
ATOM     37  C10 L0P d   1      10.856  15.406  23.745  0.00  0.00    -0.004 A 
ATOM     38  C11 L0P d   1      11.643  14.931  22.707  0.00  0.00    -0.071 A 
ATOM     39  C12 L0P d   1      12.386  15.801  21.934  0.00  0.00    -0.082 A 
ATOM     40  H7  L0P d   1      11.675  13.867  22.500  0.00  0.00     0.084 H 
ATOM     41  C13 L0P d   1      12.351  17.151  22.211  0.00  0.00    -0.083 A 
ATOM     42  H8  L0P d   1      12.991  15.426  21.117  0.00  0.00     0.083 H 
ATOM     43  C14 L0P d   1      11.560  17.640  23.232  0.00  0.00    -0.082 A 
ATOM     44  H12 L0P d   1      12.950  17.835  21.622  0.00  0.00     0.083 H 
ATOM     45  C15 L0P d   1      10.785  16.770  23.973  0.00  0.00    -0.071 A 
ATOM     46  H13 L0P d   1      11.548  18.702  23.451  0.00  0.00     0.083 H 
ATOM     47  H9  L0P d   1      10.119  17.156  24.736  0.00  0.00     0.084 H 
ENDBRANCH   9  37
BRANCH   1  48
ATOM     48  C1  L0P d   1       6.066  14.691  26.330  0.00  0.00    -0.048 C 
ATOM     49  H1  L0P d   1       5.174  14.331  26.864  0.00  0.00     0.033 H 
ATOM     50  H2  L0P d   1       5.774  15.057  25.334  0.00  0.00     0.033 H 
ATOM     51  H3  L0P d   1       6.530  15.509  26.900  0.00  0.00     0.033 H 
ENDBRANCH   1  48
TORSDOF 5
