REMARK  8 active torsions:
REMARK  status: ('A' for Active; 'I' for Inactive)
REMARK    1  A    between atoms: C13_2  and  N14_3 
REMARK    2  A    between atoms: N14_3  and  C15_7 
REMARK    3  A    between atoms: C32_6  and  N33_32 
REMARK    4  A    between atoms: C02_9  and  C01_8 
REMARK    5  A    between atoms: N03_27  and  C02_9 
REMARK    6  A    between atoms: C05_10  and  C06_11 
REMARK    7  A    between atoms: C07_12  and  C08_13 
REMARK    8  A    between atoms: C25_23  and  C26_24 
ROOT
ATOM      1  C10 KZP d   1      -6.824  -9.846  25.706  0.00  0.00    -0.054 A 
ATOM      2  C13 KZP d   1      -7.717 -12.046  26.999  0.00  0.00     0.138 A 
ATOM      3  C08 KZP d   1      -4.492 -10.359  26.169  0.00  0.00     0.035 A 
ATOM      4  C09 KZP d   1      -5.860 -10.689  26.284  0.00  0.00    -0.002 A 
ATOM      5  C11 KZP d   1      -8.150 -10.140  25.803  0.00  0.00     0.005 A 
ATOM      6  C22 KZP d   1      -6.312 -11.812  26.948  0.00  0.00     0.022 A 
ATOM      7  C23 KZP d   1      -5.396 -12.719  27.562  0.00  0.00    -0.068 A 
ATOM      8  C24 KZP d   1      -4.062 -12.428  27.470  0.00  0.00    -0.075 A 
ATOM      9  C25 KZP d   1      -3.628 -11.255  26.772  0.00  0.00    -0.042 A 
ATOM     10  N12 KZP d   1      -8.644 -11.231  26.451  0.00  0.00    -0.242 NA
ATOM     11  H1  KZP d   1      -6.509  -8.953  25.178  0.00  0.00     0.087 H 
ATOM     12  H10 KZP d   1      -8.856  -9.463  25.335  0.00  0.00     0.114 H 
ATOM     13  H14 KZP d   1      -5.744 -13.604  28.081  0.00  0.00     0.085 H 
ATOM     14  H15 KZP d   1      -3.332 -13.087  27.926  0.00  0.00     0.084 H 
ENDROOT
BRANCH   3  15
ATOM     15  C07 KZP d   1      -4.145  -9.172  25.462  0.00  0.00    -0.058 C 
ATOM     16  C06 KZP d   1      -3.908  -8.164  24.843  0.00  0.00    -0.038 C 
BRANCH  16  17
ATOM     17  C05 KZP d   1      -3.637  -6.999  24.071  0.00  0.00     0.148 A 
ATOM     18  C27 KZP d   1      -3.142  -6.826  22.718  0.00  0.00     0.096 A 
ATOM     19  C32 KZP d   1      -2.734  -7.646  21.629  0.00  0.00     0.139 A 
ATOM     20  C28 KZP d   1      -3.069  -5.404  22.492  0.00  0.00     0.164 A 
ATOM     21  N31 KZP d   1      -2.309  -7.095  20.467  0.00  0.00    -0.224 NA
ATOM     22  C30 KZP d   1      -2.288  -5.719  20.376  0.00  0.00     0.091 A 
ATOM     23  N29 KZP d   1      -2.640  -4.822  21.318  0.00  0.00    -0.222 NA
ATOM     24  H4  KZP d   1      -1.947  -5.309  19.432  0.00  0.00     0.146 H 
ATOM     25  N03 KZP d   1      -3.512  -4.780  23.673  0.00  0.00    -0.251 N 
ATOM     26  N04 KZP d   1      -3.845  -5.749  24.602  0.00  0.00    -0.161 NA
BRANCH  19  27
ATOM     27  N33 KZP d   1      -2.758  -9.051  21.722  0.00  0.00    -0.383 N 
ATOM     28  H19 KZP d   1      -2.458  -9.625  20.921  0.00  0.00     0.157 HD
ATOM     29  H20 KZP d   1      -3.075  -9.504  22.591  0.00  0.00     0.157 HD
ENDBRANCH  19  27
BRANCH  25  30
ATOM     30  C02 KZP d   1      -3.643  -3.297  23.994  0.00  0.00     0.016 C 
ATOM     31  H8  KZP d   1      -4.351  -3.197  24.830  0.00  0.00     0.066 H 
ATOM     32  H9  KZP d   1      -2.653  -2.934  24.307  0.00  0.00     0.066 H 
BRANCH  30  33
ATOM     33  C01 KZP d   1      -4.135  -2.387  22.853  0.00  0.00    -0.059 C 
ATOM     34  H5  KZP d   1      -4.186  -1.348  23.209  0.00  0.00     0.029 H 
ATOM     35  H6  KZP d   1      -5.134  -2.713  22.529  0.00  0.00     0.029 H 
ATOM     36  H7  KZP d   1      -3.436  -2.450  22.006  0.00  0.00     0.029 H 
ENDBRANCH  30  33
ENDBRANCH  25  30
ENDBRANCH  16  17
ENDBRANCH   3  15
BRANCH   9  37
ATOM     37  C26 KZP d   1      -2.186 -10.968  26.684  0.00  0.00    -0.050 C 
ATOM     38  H16 KZP d   1      -2.031 -10.037  26.118  0.00  0.00     0.033 H 
ATOM     39  H17 KZP d   1      -1.678 -11.798  26.171  0.00  0.00     0.033 H 
ATOM     40  H18 KZP d   1      -1.772 -10.855  27.697  0.00  0.00     0.033 H 
ENDBRANCH   9  37
BRANCH   2  41
ATOM     41  N14 KZP d   1      -8.189 -13.187  27.676  0.00  0.00    -0.340 N 
ATOM     42  H2  KZP d   1      -7.735 -13.509  28.543  0.00  0.00     0.167 HD
BRANCH  41  43
ATOM     43  C15 KZP d   1      -9.304 -13.884  27.139  0.00  0.00     0.033 A 
ATOM     44  C16 KZP d   1      -9.587 -13.927  25.755  0.00  0.00    -0.056 A 
ATOM     45  C17 KZP d   1     -10.677 -14.605  25.256  0.00  0.00    -0.060 A 
ATOM     46  H3  KZP d   1      -8.927 -13.412  25.067  0.00  0.00     0.087 H 
ATOM     47  C18 KZP d   1     -11.496 -15.262  26.148  0.00  0.00     0.034 A 
ATOM     48  H11 KZP d   1     -10.884 -14.621  24.192  0.00  0.00     0.086 H 
ATOM     49  C20 KZP d   1     -11.245 -15.244  27.513  0.00  0.00    -0.060 A 
ATOM     50 CL1  KZP d   1     -12.847 -16.107  25.508  0.00  0.00    -0.084 Cl
ATOM     51  C21 KZP d   1     -10.149 -14.557  28.022  0.00  0.00    -0.056 A 
ATOM     52  H12 KZP d   1     -11.910 -15.771  28.188  0.00  0.00     0.086 H 
ATOM     53  H13 KZP d   1      -9.954 -14.544  29.088  0.00  0.00     0.087 H 
ENDBRANCH  41  43
ENDBRANCH   2  41
TORSDOF 8
