REMARK  5 active torsions:
REMARK  status: ('A' for Active; 'I' for Inactive)
REMARK    1  A    between atoms: C2_2  and  C1_1 
REMARK    2  A    between atoms: N17_27  and  C16_9 
REMARK       I    between atoms: C18_10  and  N17_27 
REMARK    3  A    between atoms: C20_29  and  C18_10 
REMARK    4  A    between atoms: C9_23  and  C10_24 
REMARK    5  A    between atoms: C20_29  and  N21_30 
ROOT
ATOM      1  C18 L0M d   1      -9.421  10.673 -13.183  0.00  0.00     0.241 C 
ATOM      2  N17 L0M d   1      -9.890  11.761 -13.827  0.00  0.00    -0.309 N 
ATOM      3  O19 L0M d   1      -8.613  10.730 -12.258  0.00  0.00    -0.271 OA
ATOM      4  H17 L0M d   1     -10.479  11.614 -14.622  0.00  0.00     0.170 HD
ENDROOT
BRANCH   2   5
ATOM      5  C16 L0M d   1      -9.613  13.065 -13.464  0.00  0.00     0.146 A 
ATOM      6  N6  L0M d   1     -10.533  13.922 -12.869  0.00  0.00    -0.287 N 
ATOM      7  C5  L0M d   1     -11.838  13.758 -12.452  0.00  0.00     0.005 A 
ATOM      8  C7  L0M d   1      -9.872  15.134 -12.666  0.00  0.00     0.160 A 
ATOM      9  C4  L0M d   1     -12.460  14.792 -11.895  0.00  0.00     0.018 A 
ATOM     10  H5  L0M d   1     -12.347  12.803 -12.576  0.00  0.00     0.114 H 
ATOM     11  N3  L0M d   1     -11.871  15.989 -11.689  0.00  0.00    -0.261 NA
ATOM     12  H4  L0M d   1     -13.498  14.667 -11.589  0.00  0.00     0.116 H 
ATOM     13  C2  L0M d   1     -10.611  16.199 -12.069  0.00  0.00     0.076 A 
ATOM     14  N8  L0M d   1      -8.626  15.078 -13.112  0.00  0.00    -0.224 NA
ATOM     15  C9  L0M d   1      -8.456  13.808 -13.626  0.00  0.00     0.114 A 
BRANCH  13  16
ATOM     16  C1  L0M d   1     -10.024  17.549 -11.832  0.00  0.00    -0.032 C 
ATOM     17  H1  L0M d   1     -10.778  18.200 -11.364  0.00  0.00     0.035 H 
ATOM     18  H2  L0M d   1      -9.708  17.985 -12.791  0.00  0.00     0.035 H 
ATOM     19  H3  L0M d   1      -9.153  17.459 -11.166  0.00  0.00     0.035 H 
ENDBRANCH  13  16
BRANCH  15  20
ATOM     20  C10 L0M d   1      -7.183  13.394 -14.230  0.00  0.00    -0.004 A 
ATOM     21  C11 L0M d   1      -5.971  13.874 -13.727  0.00  0.00    -0.071 A 
ATOM     22  C12 L0M d   1      -4.769  13.532 -14.323  0.00  0.00    -0.082 A 
ATOM     23  H6  L0M d   1      -5.972  14.523 -12.859  0.00  0.00     0.084 H 
ATOM     24  C13 L0M d   1      -4.758  12.595 -15.342  0.00  0.00    -0.083 A 
ATOM     25  H7  L0M d   1      -3.845  13.994 -13.995  0.00  0.00     0.083 H 
ATOM     26  C14 L0M d   1      -5.941  12.125 -15.866  0.00  0.00    -0.082 A 
ATOM     27  H15 L0M d   1      -3.814  12.230 -15.729  0.00  0.00     0.083 H 
ATOM     28  C15 L0M d   1      -7.159  12.546 -15.341  0.00  0.00    -0.071 A 
ATOM     29  H16 L0M d   1      -5.924  11.423 -16.692  0.00  0.00     0.083 H 
ATOM     30  H8  L0M d   1      -8.088  12.217 -15.793  0.00  0.00     0.084 H 
ENDBRANCH  15  20
ENDBRANCH   2   5
BRANCH   1  31
ATOM     31  C20 L0M d   1     -10.017   9.345 -13.673  0.00  0.00     0.074 C 
ATOM     32  H18 L0M d   1     -10.247   9.437 -14.745  0.00  0.00     0.079 H 
ATOM     33  H19 L0M d   1     -10.944   9.148 -13.114  0.00  0.00     0.079 H 
BRANCH  31  34
ATOM     34  N21 L0M d   1      -9.098   8.203 -13.483  0.00  0.00    -0.334 N 
ATOM     35  C34 L0M d   1      -9.301   7.324 -12.393  0.00  0.00     0.069 A 
ATOM     36  C33 L0M d   1     -10.057   7.693 -11.275  0.00  0.00    -0.054 A 
ATOM     37  C29 L0M d   1      -8.796   6.033 -12.463  0.00  0.00     0.103 A 
ATOM     38  C32 L0M d   1     -10.289   6.793 -10.273  0.00  0.00    -0.081 A 
ATOM     39  H14 L0M d   1     -10.460   8.697 -11.203  0.00  0.00     0.087 H 
ATOM     40  C31 L0M d   1      -9.783   5.523 -10.357  0.00  0.00    -0.080 A 
ATOM     41  H13 L0M d   1     -10.875   7.085  -9.409  0.00  0.00     0.083 H 
ATOM     42  C30 L0M d   1      -9.019   5.150 -11.437  0.00  0.00    -0.048 A 
ATOM     43  H12 L0M d   1      -9.986   4.808  -9.568  0.00  0.00     0.083 H 
ATOM     44  H11 L0M d   1      -8.591   4.155 -11.478  0.00  0.00     0.087 H 
ATOM     45  O28 L0M d   1      -8.091   5.603 -13.579  0.00  0.00    -0.306 OA
ATOM     46  C27 L0M d   1      -7.720   6.524 -14.566  0.00  0.00     0.103 A 
ATOM     47  C22 L0M d   1      -8.209   7.835 -14.519  0.00  0.00     0.069 A 
ATOM     48  C26 L0M d   1      -6.860   6.112 -15.595  0.00  0.00    -0.048 A 
ATOM     49  C23 L0M d   1      -7.851   8.734 -15.508  0.00  0.00    -0.054 A 
ATOM     50  C24 L0M d   1      -6.988   8.320 -16.531  0.00  0.00    -0.081 A 
ATOM     51  H9  L0M d   1      -8.234   9.748 -15.491  0.00  0.00     0.087 H 
ATOM     52  C25 L0M d   1      -6.466   7.035 -16.546  0.00  0.00    -0.080 A 
ATOM     53  H10 L0M d   1      -6.725   9.013 -17.322  0.00  0.00     0.083 H 
ATOM     54  H20 L0M d   1      -5.746   6.753 -17.306  0.00  0.00     0.083 H 
ATOM     55  H21 L0M d   1      -6.510   5.087 -15.644  0.00  0.00     0.087 H 
ENDBRANCH  31  34
ENDBRANCH   1  31
TORSDOF 5
