REMARK  26 active torsions:
REMARK  status: ('A' for Active; 'I' for Inactive)
REMARK    1  A    between atoms: N_1  and  CA_2 
REMARK    2  A    between atoms: CA_2  and  C_3 
REMARK    3  A    between atoms: CA_2  and  CB_5 
REMARK       I    between atoms: C_3  and  N_7 
REMARK    4  A    between atoms: CB_5  and  OG_6 
REMARK    5  A    between atoms: N_7  and  CA_8 
REMARK    6  A    between atoms: CA_8  and  C_9 
REMARK    7  A    between atoms: CA_8  and  CB_11 
REMARK       I    between atoms: C_9  and  N_18 
REMARK    8  A    between atoms: CB_11  and  CG_12 
REMARK    9  A    between atoms: CG_12  and  CD_13 
REMARK   10  A    between atoms: CD_13  and  NE_14 
REMARK       I    between atoms: NE_14  and  CZ_15 
REMARK       I    between atoms: CZ_15  and  NH1_16 
REMARK   11  A    between atoms: N_18  and  CA_19 
REMARK   12  A    between atoms: CA_19  and  C_20 
REMARK   13  A    between atoms: CA_19  and  CB_22 
REMARK       I    between atoms: C_20  and  N_32 
REMARK   14  A    between atoms: CB_22  and  CG_23 
REMARK   15  A    between atoms: N_32  and  CA_33 
REMARK   16  A    between atoms: CA_33  and  C_34 
REMARK   17  A    between atoms: CA_33  and  CB_36 
REMARK       I    between atoms: C_34  and  N_40 
REMARK   18  A    between atoms: CB_36  and  CG_37 
REMARK   19  A    between atoms: N_40  and  CA_41 
REMARK   20  A    between atoms: CA_41  and  C_42 
REMARK   21  A    between atoms: CA_41  and  CB_44 
REMARK       I    between atoms: C_42  and  N_47 
REMARK   22  A    between atoms: CB_44  and  CG1_45 
REMARK   23  A    between atoms: CB_44  and  CG2_46 
REMARK   24  A    between atoms: N_47  and  CA_48 
REMARK   25  A    between atoms: CA_48  and  C_49 
REMARK   26  A    between atoms: CA_48  and  CB_51 
ROOT
ATOM      1  CA  SER d   1      25.619   2.688  -4.712  0.00  0.00     0.093 C 
ATOM      2  H22 SER d   1      24.823   3.249  -5.224  0.00  0.00     0.088 H 
ENDROOT
BRANCH   1   3
ATOM      3  N   SER d   1      26.481   3.678  -4.110  0.00  0.00    -0.346 N 
ATOM      4  C   SER d   1      25.982   4.585  -3.304  0.00  0.00     0.241 C 
ATOM      5  O   SER d   1      24.817   4.627  -3.037  0.00  0.00    -0.271 OA
ATOM      6  H21 SER d   1      27.461   3.672  -4.308  0.00  0.00     0.163 HD
BRANCH   4   7
ATOM      7  CA  SER d   1      26.934   5.574  -2.721  0.00  0.00     0.089 C 
ATOM      8  H9  SER d   1      26.887   5.500  -1.625  0.00  0.00     0.087 H 
BRANCH   7   9
ATOM      9  N   SER d   1      28.285   5.333  -3.137  0.00  0.00    -0.346 N 
ATOM     10  C   SER d   1      29.151   4.648  -2.408  0.00  0.00     0.251 C 
ATOM     11  O   SER d   1      28.891   4.147  -1.345  0.00  0.00    -0.271 OA
ATOM     12  H8  SER d   1      28.586   5.699  -4.018  0.00  0.00     0.163 HD
BRANCH  10  13
ATOM     13  CA  SER d   1      30.510   4.492  -3.015  0.00  0.00     0.195 C 
ATOM     14  H4  SER d   1      30.801   5.453  -3.464  0.00  0.00     0.102 H 
BRANCH  13  15
ATOM     15  N   SER d   1      31.494   4.143  -2.016  0.00  0.00    -0.064 N 
ATOM     16  H1  SER d   1      32.397   4.045  -2.454  0.00  0.00     0.275 HD
ATOM     17  H2  SER d   1      31.236   3.272  -1.580  0.00  0.00     0.275 HD
ATOM     18  H3  SER d   1      31.536   4.869  -1.318  0.00  0.00     0.275 HD
ENDBRANCH  13  15
BRANCH  13  19
ATOM     19  CB  SER d   1      30.467   3.428  -4.125  0.00  0.00     0.051 C 
ATOM     20  H5  SER d   1      30.710   2.451  -3.682  0.00  0.00     0.077 H 
ATOM     21  H6  SER d   1      31.220   3.684  -4.884  0.00  0.00     0.077 H 
BRANCH  19  22
ATOM     22  OG  SER d   1      29.212   3.334  -4.754  0.00  0.00    -0.398 OA
ATOM     23  H7  SER d   1      29.246   2.664  -5.427  0.00  0.00     0.209 HD
ENDBRANCH  19  22
ENDBRANCH  13  19
ENDBRANCH  10  13
ENDBRANCH   7   9
BRANCH   7  24
ATOM     24  CB  SER d   1      26.523   6.964  -3.141  0.00  0.00    -0.036 C 
ATOM     25  H10 SER d   1      25.471   7.110  -2.853  0.00  0.00     0.036 H 
ATOM     26  H11 SER d   1      26.617   7.032  -4.235  0.00  0.00     0.036 H 
BRANCH  24  27
ATOM     27  CG  SER d   1      27.337   8.085  -2.530  0.00  0.00    -0.048 C 
ATOM     28  H12 SER d   1      28.327   8.117  -3.008  0.00  0.00     0.035 H 
ATOM     29  H13 SER d   1      27.456   7.902  -1.452  0.00  0.00     0.035 H 
BRANCH  27  30
ATOM     30  CD  SER d   1      26.644   9.405  -2.736  0.00  0.00     0.009 C 
ATOM     31  H14 SER d   1      25.564   9.234  -2.621  0.00  0.00     0.064 H 
ATOM     32  H15 SER d   1      26.856   9.734  -3.764  0.00  0.00     0.064 H 
BRANCH  30  33
ATOM     33  NE  SER d   1      27.012  10.486  -1.847  0.00  0.00    -0.227 N 
ATOM     34  CZ  SER d   1      28.226  10.960  -1.652  0.00  0.00     0.665 C 
ATOM     35  NH1 SER d   1      29.278  10.449  -2.227  0.00  0.00    -0.235 N 
ATOM     36  NH2 SER d   1      28.382  11.950  -0.826  0.00  0.00    -0.235 N 
ATOM     37  H17 SER d   1      30.209  10.850  -2.047  0.00  0.00     0.174 HD
ATOM     38  H18 SER d   1      29.178   9.644  -2.861  0.00  0.00     0.174 HD
ATOM     39  H19 SER d   1      27.563  12.367  -0.362  0.00  0.00     0.174 HD
ATOM     40  H20 SER d   1      29.325  12.318  -0.635  0.00  0.00     0.174 HD
ATOM     41  H16 SER d   1      26.250  10.929  -1.314  0.00  0.00     0.177 HD
ENDBRANCH  30  33
ENDBRANCH  27  30
ENDBRANCH  24  27
ENDBRANCH   7  24
ENDBRANCH   4   7
ENDBRANCH   1   3
BRANCH   1  42
ATOM     42  C   SER d   1      24.922   1.785  -3.727  0.00  0.00     0.241 C 
ATOM     43  O   SER d   1      25.528   1.184  -2.871  0.00  0.00    -0.271 OA
ATOM     44  N   SER d   1      23.620   1.719  -3.895  0.00  0.00    -0.345 N 
ATOM     45  H31 SER d   1      23.220   2.287  -4.614  0.00  0.00     0.163 HD
BRANCH  44  46
ATOM     46  CA  SER d   1      22.724   0.895  -3.127  0.00  0.00     0.098 C 
ATOM     47  H32 SER d   1      21.774   0.950  -3.678  0.00  0.00     0.088 H 
BRANCH  46  48
ATOM     48  C   SER d   1      22.334   1.283  -1.694  0.00  0.00     0.241 C 
ATOM     49  O   SER d   1      21.577   0.562  -1.064  0.00  0.00    -0.271 OA
ATOM     50  N   SER d   1      22.810   2.425  -1.217  0.00  0.00    -0.346 N 
ATOM     51  H35 SER d   1      23.444   2.953  -1.782  0.00  0.00     0.163 HD
BRANCH  50  52
ATOM     52  CA  SER d   1      22.448   2.945   0.100  0.00  0.00     0.092 C 
ATOM     53  H36 SER d   1      22.635   2.173   0.861  0.00  0.00     0.088 H 
BRANCH  52  54
ATOM     54  C   SER d   1      20.994   3.353   0.114  0.00  0.00     0.241 C 
ATOM     55  O   SER d   1      20.628   4.262  -0.580  0.00  0.00    -0.271 OA
ATOM     56  N   SER d   1      20.170   2.692   0.906  0.00  0.00    -0.345 N 
ATOM     57  H44 SER d   1      20.533   1.959   1.481  0.00  0.00     0.163 HD
BRANCH  56  58
ATOM     58  CA  SER d   1      18.746   3.000   0.966  0.00  0.00     0.093 C 
ATOM     59  H45 SER d   1      18.467   3.407  -0.017  0.00  0.00     0.089 H 
BRANCH  58  60
ATOM     60  C   SER d   1      18.376   4.047   1.997  0.00  0.00     0.196 C 
ATOM     61  O   SER d   1      19.242   4.714   2.541  0.00  0.00    -0.646 OA
ATOM     62  OXT SER d   1      17.207   4.236   2.296  0.00  0.00    -0.646 OA
ENDBRANCH  58  60
BRANCH  58  63
ATOM     63  CB  SER d   1      17.931   1.732   1.188  0.00  0.00    -0.048 C 
ATOM     64  H46 SER d   1      16.862   1.986   1.230  0.00  0.00     0.030 H 
ATOM     65  H47 SER d   1      18.234   1.263   2.136  0.00  0.00     0.030 H 
ATOM     66  H48 SER d   1      18.109   1.032   0.359  0.00  0.00     0.030 H 
ENDBRANCH  58  63
ENDBRANCH  56  58
ENDBRANCH  52  54
BRANCH  52  67
ATOM     67  CB  SER d   1      23.243   4.195   0.418  0.00  0.00    -0.033 C 
ATOM     68  H37 SER d   1      23.021   4.941  -0.359  0.00  0.00     0.042 H 
BRANCH  67  69
ATOM     69  CG1 SER d   1      22.846   4.780   1.748  0.00  0.00    -0.071 C 
ATOM     70  H38 SER d   1      23.442   5.683   1.944  0.00  0.00     0.028 H 
ATOM     71  H39 SER d   1      23.028   4.041   2.542  0.00  0.00     0.028 H 
ATOM     72  H40 SER d   1      21.778   5.043   1.729  0.00  0.00     0.028 H 
ENDBRANCH  67  69
BRANCH  67  73
ATOM     73  CG2 SER d   1      24.719   3.914   0.385  0.00  0.00    -0.071 C 
ATOM     74  H41 SER d   1      24.989   3.488  -0.592  0.00  0.00     0.028 H 
ATOM     75  H42 SER d   1      24.974   3.198   1.180  0.00  0.00     0.028 H 
ATOM     76  H43 SER d   1      25.274   4.850   0.543  0.00  0.00     0.028 H 
ENDBRANCH  67  73
ENDBRANCH  52  67
ENDBRANCH  50  52
ENDBRANCH  46  48
BRANCH  46  77
ATOM     77  CB  SER d   1      23.161  -0.529  -3.208  0.00  0.00     0.043 C 
ATOM     78  H33 SER d   1      22.561  -1.128  -2.507  0.00  0.00     0.052 H 
ATOM     79  H34 SER d   1      24.223  -0.594  -2.929  0.00  0.00     0.052 H 
BRANCH  77  80
ATOM     80  CG  SER d   1      22.987  -1.072  -4.580  0.00  0.00     0.175 C 
ATOM     81  OD1 SER d   1      21.845  -1.235  -4.996  0.00  0.00    -0.648 OA
ATOM     82  OD2 SER d   1      23.988  -1.279  -5.243  0.00  0.00    -0.648 OA
ENDBRANCH  77  80
ENDBRANCH  46  77
ENDBRANCH  44  46
ENDBRANCH   1  42
BRANCH   1  83
ATOM     83  CB  SER d   1      26.348   1.893  -5.783  0.00  0.00    -0.012 C 
ATOM     84  H23 SER d   1      25.795   0.965  -5.988  0.00  0.00     0.044 H 
ATOM     85  H24 SER d   1      27.360   1.646  -5.429  0.00  0.00     0.044 H 
BRANCH  83  86
ATOM     86  CG  SER d   1      26.445   2.698  -7.035  0.00  0.00    -0.028 A 
ATOM     87  CD1 SER d   1      27.530   3.293  -7.531  0.00  0.00    -0.015 A 
ATOM     88  NE1 SER d   1      27.220   3.993  -8.639  0.00  0.00    -0.365 N 
ATOM     89  H25 SER d   1      28.528   3.223  -7.100  0.00  0.00     0.112 H 
ATOM     90  CE2 SER d   1      25.888   3.875  -8.861  0.00  0.00     0.042 A 
ATOM     91  H26 SER d   1      27.883   4.527  -9.219  0.00  0.00     0.165 HD
ATOM     92  CD2 SER d   1      25.375   3.074  -7.868  0.00  0.00    -0.002 A 
ATOM     93  CZ2 SER d   1      25.116   4.402  -9.824  0.00  0.00    -0.056 A 
ATOM     94  CE3 SER d   1      24.031   2.808  -7.864  0.00  0.00    -0.070 A 
ATOM     95  CZ3 SER d   1      23.283   3.321  -8.797  0.00  0.00    -0.082 A 
ATOM     96  H27 SER d   1      23.597   2.179  -7.095  0.00  0.00     0.084 H 
ATOM     97  CH2 SER d   1      23.809   4.097  -9.783  0.00  0.00    -0.081 A 
ATOM     98  H29 SER d   1      22.217   3.126  -8.789  0.00  0.00     0.083 H 
ATOM     99  H30 SER d   1      23.154   4.480 -10.557  0.00  0.00     0.083 H 
ATOM    100  H28 SER d   1      25.527   5.042 -10.596  0.00  0.00     0.086 H 
ENDBRANCH  83  86
ENDBRANCH   1  83
TORSDOF 26
