REMARK  10 active torsions:
REMARK  status: ('A' for Active; 'I' for Inactive)
REMARK    1  A    between atoms: O3B_8  and  PG_1 
REMARK    2  A    between atoms: PB_5  and  O3B_8 
REMARK    3  A    between atoms: O3A_12  and  PB_5 
REMARK    4  A    between atoms: PA_9  and  O3A_12 
REMARK    5  A    between atoms: PA_9  and  O5'_13 
REMARK    6  A    between atoms: O5'_13  and  C5'_14 
REMARK    7  A    between atoms: C5'_14  and  C4'_15 
REMARK    8  A    between atoms: C3'_17  and  O3'_18 
REMARK    9  A    between atoms: C2'_19  and  O2'_20 
REMARK   10  A    between atoms: C1'_21  and  N9_22 
ROOT
ATOM      1  C4' ATP d   1      35.598 -12.135   2.657  0.00  0.00     0.089 C 
ATOM      2  O4' ATP d   1      36.053 -12.980   3.712  0.00  0.00    -0.353 OA
ATOM      3  C3' ATP d   1      34.524 -12.910   1.909  0.00  0.00     0.091 C 
ATOM      4  C2' ATP d   1      34.968 -14.345   2.101  0.00  0.00     0.105 C 
ATOM      5  C1' ATP d   1      35.708 -14.338   3.414  0.00  0.00     0.139 C 
ATOM      6  H3  ATP d   1      36.425 -11.889   1.975  0.00  0.00     0.090 H 
ATOM      7  H4  ATP d   1      33.531 -12.737   2.350  0.00  0.00     0.091 H 
ATOM      8  H6  ATP d   1      34.125 -15.051   2.089  0.00  0.00     0.093 H 
ATOM      9  H8  ATP d   1      36.620 -14.946   3.327  0.00  0.00     0.122 H 
ENDROOT
BRANCH   1  10
ATOM     10  C5' ATP d   1      35.045 -10.856   3.270  0.00  0.00     0.058 C 
ATOM     11  H1  ATP d   1      35.854 -10.337   3.805  0.00  0.00     0.079 H 
ATOM     12  H2  ATP d   1      34.664 -10.210   2.466  0.00  0.00     0.079 H 
BRANCH  10  13
ATOM     13  O5' ATP d   1      33.986 -11.130   4.185  0.00  0.00    -0.287 OA
BRANCH  13  14
ATOM     14  PA  ATP d   1      33.428  -9.955   5.147  0.00  0.00     0.417 P 
ATOM     15  O1A ATP d   1      32.248 -10.510   5.904  0.00  0.00    -0.624 OA
ATOM     16  O2A ATP d   1      34.576  -9.354   5.919  0.00  0.00    -0.624 OA
BRANCH  14  17
ATOM     17  O3A ATP d   1      33.010  -8.812   4.088  0.00  0.00    -0.180 OA
BRANCH  17  18
ATOM     18  PB  ATP d   1      31.737  -8.780   3.096  0.00  0.00     0.428 P 
ATOM     19  O1B ATP d   1      31.654  -7.364   2.582  0.00  0.00    -0.624 OA
ATOM     20  O2B ATP d   1      30.536  -9.432   3.734  0.00  0.00    -0.624 OA
BRANCH  18  21
ATOM     21  O3B ATP d   1      32.297  -9.680   1.877  0.00  0.00    -0.173 OA
BRANCH  21  22
ATOM     22  PG  ATP d   1      31.490 -10.010   0.523  0.00  0.00     0.431 P 
ATOM     23  O1G ATP d   1      31.349  -8.690  -0.187  0.00  0.00    -0.616 OA
ATOM     24  O2G ATP d   1      32.390 -10.964  -0.224  0.00  0.00    -0.616 OA
ATOM     25  O3G ATP d   1      30.200 -10.622   1.027  0.00  0.00    -0.616 OA
ENDBRANCH  21  22
ENDBRANCH  18  21
ENDBRANCH  17  18
ENDBRANCH  14  17
ENDBRANCH  13  14
ENDBRANCH  10  13
ENDBRANCH   1  10
BRANCH   3  26
ATOM     26  O3' ATP d   1      34.493 -12.569   0.519  0.00  0.00    -0.390 OA
ATOM     27  H5  ATP d   1      34.312 -11.641   0.426  0.00  0.00     0.210 HD
ENDBRANCH   3  26
BRANCH   5  28
ATOM     28  N9  ATP d   1      34.862 -14.879   4.501  0.00  0.00    -0.294 N 
ATOM     29  C8  ATP d   1      33.957 -14.200   5.244  0.00  0.00     0.071 A 
ATOM     30  N7  ATP d   1      33.376 -15.012   6.165  0.00  0.00    -0.236 NA
ATOM     31  H9  ATP d   1      33.725 -13.143   5.120  0.00  0.00     0.144 H 
ATOM     32  C5  ATP d   1      33.914 -16.242   6.009  0.00  0.00     0.149 A 
ATOM     33  C6  ATP d   1      33.762 -17.569   6.641  0.00  0.00     0.155 A 
ATOM     34  C4  ATP d   1      34.889 -16.144   4.910  0.00  0.00     0.167 A 
ATOM     35  N6  ATP d   1      32.890 -17.776   7.658  0.00  0.00    -0.382 N 
ATOM     36  N1  ATP d   1      34.533 -18.575   6.166  0.00  0.00    -0.222 NA
ATOM     37  H10 ATP d   1      32.804 -18.712   8.080  0.00  0.00     0.157 HD
ATOM     38  H11 ATP d   1      32.313 -16.998   8.008  0.00  0.00     0.157 HD
ATOM     39  C2  ATP d   1      35.403 -18.411   5.156  0.00  0.00     0.091 A 
ATOM     40  N3  ATP d   1      35.592 -17.241   4.529  0.00  0.00    -0.222 NA
ATOM     41  H12 ATP d   1      35.982 -19.268   4.831  0.00  0.00     0.146 H 
ENDBRANCH   5  28
BRANCH   4  42
ATOM     42  O2' ATP d   1      35.935 -14.647   1.100  0.00  0.00    -0.388 OA
ATOM     43  H7  ATP d   1      36.227 -15.545   1.204  0.00  0.00     0.210 HD
ENDBRANCH   4  42
TORSDOF 10
