REMARK  17 active torsions:
REMARK  status: ('A' for Active; 'I' for Inactive)
REMARK    1  A    between atoms: O9_26  and  C1_1 
REMARK    2  A    between atoms: C2_2  and  N6_33 
REMARK    3  A    between atoms: C3_3  and  O7_24 
REMARK    4  A    between atoms: C4_4  and  O8_25 
REMARK    5  A    between atoms: C5_5  and  C6_6 
REMARK    6  A    between atoms: C6_6  and  N1_19 
REMARK    7  A    between atoms: C7_7  and  N3_21 
REMARK    8  A    between atoms: O11_28  and  C8_8 
REMARK    9  A    between atoms: C9_9  and  O10_27 
REMARK   10  A    between atoms: C10_10  and  O9_26 
REMARK   11  A    between atoms: C11_11  and  N2_20 
REMARK   12  A    between atoms: C13_13  and  O11_28 
REMARK   13  A    between atoms: C14_14  and  O13_30 
REMARK   14  A    between atoms: C15_15  and  N4_22 
REMARK   15  A    between atoms: C16_16  and  O14_31 
REMARK   16  A    between atoms: C17_17  and  C18_18 
REMARK   17  A    between atoms: C18_18  and  O15_32 
ROOT
ATOM      1  C7  MOL d   1      45.437  -5.921 173.630  0.00  0.00     0.129 C 
ATOM      2  C8  MOL d   1      44.402  -5.738 174.744  0.00  0.00     0.096 C 
ATOM      3  C9  MOL d   1      44.937  -6.477 175.966  0.00  0.00     0.089 C 
ATOM      4  C10 MOL d   1      45.195  -7.915 175.637  0.00  0.00     0.096 C 
ATOM      5  C11 MOL d   1      46.079  -8.113 174.370  0.00  0.00     0.129 C 
ATOM      6  C12 MOL d   1      45.519  -7.378 173.189  0.00  0.00    -0.007 C 
ATOM      7  H8  MOL d   1      46.432  -5.601 173.974  0.00  0.00     0.088 H 
ATOM      8  H9  MOL d   1      43.437  -6.160 174.428  0.00  0.00     0.090 H 
ATOM      9  H10 MOL d   1      45.870  -6.011 176.315  0.00  0.00     0.091 H 
ATOM     10  H11 MOL d   1      44.219  -8.396 175.477  0.00  0.00     0.090 H 
ATOM     11  H12 MOL d   1      47.101  -7.744 174.540  0.00  0.00     0.088 H 
ATOM     12  H13 MOL d   1      46.184  -7.481 172.319  0.00  0.00     0.039 H 
ATOM     13  H14 MOL d   1      44.520  -7.761 172.934  0.00  0.00     0.039 H 
ENDROOT
BRANCH   4  14
ATOM     14  O9  MOL d   1      45.913  -8.626 176.674  0.00  0.00    -0.349 OA
BRANCH  14  15
ATOM     15  C1  MOL d   1      45.430  -8.541 178.014  0.00  0.00     0.162 C 
ATOM     16  C2  MOL d   1      46.535  -9.033 178.964  0.00  0.00     0.173 C 
ATOM     17  C3  MOL d   1      46.825 -10.504 178.638  0.00  0.00     0.094 C 
ATOM     18  H2  MOL d   1      46.199  -8.933 180.007  0.00  0.00     0.096 H 
ATOM     19  C4  MOL d   1      45.550 -11.340 178.696  0.00  0.00     0.089 C 
ATOM     20  H3  MOL d   1      47.258 -10.575 177.629  0.00  0.00     0.090 H 
ATOM     21  C5  MOL d   1      44.425 -10.737 177.839  0.00  0.00     0.091 C 
ATOM     22  H4  MOL d   1      45.214 -11.416 179.741  0.00  0.00     0.091 H 
ATOM     23  O5  MOL d   1      44.272  -9.374 178.202  0.00  0.00    -0.349 OA
ATOM     24  H5  MOL d   1      44.691 -10.807 176.774  0.00  0.00     0.090 H 
ATOM     25  H1  MOL d   1      45.172  -7.497 178.245  0.00  0.00     0.132 H 
BRANCH  16  26
ATOM     26  N6  MOL d   1      47.778  -8.264 178.767  0.00  0.00    -0.068 N 
ATOM     27  H40 MOL d   1      47.609  -7.293 178.976  0.00  0.00     0.275 HD
ATOM     28  H41 MOL d   1      48.080  -8.354 177.810  0.00  0.00     0.275 HD
ATOM     29  H42 MOL d   1      48.494  -8.620 179.380  0.00  0.00     0.275 HD
ENDBRANCH  16  26
BRANCH  17  30
ATOM     30  O7  MOL d   1      47.767 -11.005 179.608  0.00  0.00    -0.391 OA
ATOM     31  H34 MOL d   1      47.971 -11.912 179.411  0.00  0.00     0.210 HD
ENDBRANCH  17  30
BRANCH  19  32
ATOM     32  O8  MOL d   1      45.837 -12.651 178.169  0.00  0.00    -0.390 OA
ATOM     33  H35 MOL d   1      46.113 -12.574 177.263  0.00  0.00     0.210 HD
ENDBRANCH  19  32
BRANCH  21  34
ATOM     34  C6  MOL d   1      43.124 -11.504 178.088  0.00  0.00     0.106 C 
ATOM     35  H6  MOL d   1      42.943 -11.564 179.171  0.00  0.00     0.079 H 
ATOM     36  H7  MOL d   1      43.221 -12.519 177.676  0.00  0.00     0.079 H 
BRANCH  34  37
ATOM     37  N1  MOL d   1      41.979 -10.828 177.444  0.00  0.00    -0.077 N 
ATOM     38  H22 MOL d   1      41.136 -11.351 177.622  0.00  0.00     0.274 HD
ATOM     39  H23 MOL d   1      42.137 -10.774 176.450  0.00  0.00     0.274 HD
ATOM     40  H24 MOL d   1      41.883  -9.898 177.821  0.00  0.00     0.274 HD
ENDBRANCH  34  37
ENDBRANCH  21  34
ENDBRANCH  14  15
ENDBRANCH   4  14
BRANCH   3  41
ATOM     41  O10 MOL d   1      43.918  -6.358 176.970  0.00  0.00    -0.390 OA
ATOM     42  H36 MOL d   1      43.113  -6.749 176.650  0.00  0.00     0.210 HD
ENDBRANCH   3  41
BRANCH   5  43
ATOM     43  N2  MOL d   1      46.084  -9.588 174.292  0.00  0.00    -0.072 N 
ATOM     44  H25 MOL d   1      46.481  -9.968 175.137  0.00  0.00     0.274 HD
ATOM     45  H26 MOL d   1      46.636  -9.881 173.501  0.00  0.00     0.274 HD
ATOM     46  H27 MOL d   1      45.139  -9.922 174.185  0.00  0.00     0.274 HD
ENDBRANCH   5  43
BRANCH   2  47
ATOM     47  O11 MOL d   1      44.230  -4.367 175.099  0.00  0.00    -0.349 OA
BRANCH  47  48
ATOM     48  C13 MOL d   1      42.972  -3.715 174.861  0.00  0.00     0.159 C 
ATOM     49  C14 MOL d   1      43.290  -2.222 174.618  0.00  0.00     0.112 C 
ATOM     50  C15 MOL d   1      43.674  -1.524 175.939  0.00  0.00     0.155 C 
ATOM     51  H16 MOL d   1      42.426  -1.719 174.160  0.00  0.00     0.093 H 
ATOM     52  C16 MOL d   1      42.600  -1.752 177.029  0.00  0.00     0.092 C 
ATOM     53  H17 MOL d   1      44.617  -1.961 176.299  0.00  0.00     0.092 H 
ATOM     54  C17 MOL d   1      42.481  -3.263 177.223  0.00  0.00     0.088 C 
ATOM     55  H18 MOL d   1      41.634  -1.324 176.723  0.00  0.00     0.090 H 
ATOM     56  O12 MOL d   1      42.098  -3.867 175.976  0.00  0.00    -0.349 OA
ATOM     57  H19 MOL d   1      43.468  -3.644 177.526  0.00  0.00     0.090 H 
ATOM     58  H15 MOL d   1      42.492  -4.145 173.969  0.00  0.00     0.133 H 
BRANCH  49  59
ATOM     59  O13 MOL d   1      44.445  -2.163 173.744  0.00  0.00    -0.388 OA
ATOM     60  H37 MOL d   1      45.176  -2.609 174.156  0.00  0.00     0.210 HD
ENDBRANCH  49  59
BRANCH  50  61
ATOM     61  N4  MOL d   1      43.899  -0.089 175.685  0.00  0.00    -0.070 N 
ATOM     62  H31 MOL d   1      44.603   0.020 174.971  0.00  0.00     0.274 HD
ATOM     63  H32 MOL d   1      44.209   0.358 176.534  0.00  0.00     0.274 HD
ATOM     64  H33 MOL d   1      43.039   0.337 175.376  0.00  0.00     0.274 HD
ENDBRANCH  50  61
BRANCH  52  65
ATOM     65  O14 MOL d   1      43.053  -1.139 178.244  0.00  0.00    -0.391 OA
ATOM     66  H38 MOL d   1      43.125  -0.200 178.116  0.00  0.00     0.210 HD
ENDBRANCH  52  65
BRANCH  54  67
ATOM     67  C18 MOL d   1      41.455  -3.697 178.277  0.00  0.00     0.043 C 
ATOM     68  H20 MOL d   1      41.754  -3.283 179.251  0.00  0.00     0.078 H 
ATOM     69  H21 MOL d   1      41.449  -4.796 178.332  0.00  0.00     0.078 H 
BRANCH  67  70
ATOM     70  O15 MOL d   1      40.130  -3.245 177.973  0.00  0.00    -0.398 OA
ATOM     71  H39 MOL d   1      39.859  -3.603 177.136  0.00  0.00     0.209 HD
ENDBRANCH  67  70
ENDBRANCH  54  67
ENDBRANCH  47  48
ENDBRANCH   2  47
BRANCH   1  72
ATOM     72  N3  MOL d   1      44.965  -5.038 172.574  0.00  0.00    -0.072 N 
ATOM     73  H28 MOL d   1      44.930  -4.091 172.918  0.00  0.00     0.274 HD
ATOM     74  H29 MOL d   1      44.043  -5.324 172.284  0.00  0.00     0.274 HD
ATOM     75  H30 MOL d   1      45.595  -5.087 171.788  0.00  0.00     0.274 HD
ENDBRANCH   1  72
TORSDOF 17
