REMARK  15 active torsions:
REMARK  status: ('A' for Active; 'I' for Inactive)
REMARK    1  A    between atoms: O11_2  and  C11_1 
REMARK    2  A    between atoms: C42_16  and  O11_2 
REMARK    3  A    between atoms: C21_3  and  N21_4 
REMARK    4  A    between atoms: C51_7  and  C61_9 
REMARK    5  A    between atoms: C61_9  and  N61_10 
REMARK    6  A    between atoms: C12_11  and  N12_12 
REMARK    7  A    between atoms: C32_14  and  N32_15 
REMARK    8  A    between atoms: C52_17  and  O52_18 
REMARK    9  A    between atoms: C62_19  and  O62_20 
REMARK   10  A    between atoms: O62_20  and  C13_21 
REMARK   11  A    between atoms: C23_22  and  O23_23 
REMARK   12  A    between atoms: C33_24  and  N33_25 
REMARK   13  A    between atoms: N33_25  and  C93_31 
REMARK   14  A    between atoms: C43_26  and  O43_27 
REMARK   15  A    between atoms: C43_26  and  C83_30 
ROOT
ATOM      1  C12 LLL d   1     158.466  -6.046  71.567  0.00  0.00     0.129 C 
ATOM      2  C22 LLL d   1     158.114  -7.515  71.276  0.00  0.00    -0.007 C 
ATOM      3  C32 LLL d   1     159.461  -8.245  71.318  0.00  0.00     0.129 C 
ATOM      4  C42 LLL d   1     160.183  -8.121  72.708  0.00  0.00     0.096 C 
ATOM      5  C52 LLL d   1     160.290  -6.658  73.099  0.00  0.00     0.089 C 
ATOM      6  C62 LLL d   1     158.994  -5.889  72.980  0.00  0.00     0.096 C 
ATOM      7  H16 LLL d   1     159.240  -5.727  70.853  0.00  0.00     0.088 H 
ATOM      8  H20 LLL d   1     157.648  -7.615  70.285  0.00  0.00     0.039 H 
ATOM      9  H21 LLL d   1     157.432  -7.911  72.043  0.00  0.00     0.039 H 
ATOM     10  H22 LLL d   1     160.109  -7.796  70.551  0.00  0.00     0.088 H 
ATOM     11  H26 LLL d   1     159.651  -8.679  73.493  0.00  0.00     0.090 H 
ATOM     12  H27 LLL d   1     161.036  -6.182  72.445  0.00  0.00     0.091 H 
ATOM     13  H29 LLL d   1     158.256  -6.293  73.689  0.00  0.00     0.090 H 
ENDROOT
BRANCH   6  14
ATOM     14  O62 LLL d   1     159.253  -4.478  73.304  0.00  0.00    -0.349 OA
BRANCH  14  15
ATOM     15  C13 LLL d   1     158.388  -3.864  74.191  0.00  0.00     0.158 C 
ATOM     16  C23 LLL d   1     158.370  -2.357  73.833  0.00  0.00     0.113 C 
ATOM     17  C33 LLL d   1     159.766  -1.637  73.880  0.00  0.00     0.161 C 
ATOM     18  H31 LLL d   1     157.726  -1.850  74.566  0.00  0.00     0.094 H 
ATOM     19  C43 LLL d   1     160.409  -1.949  75.259  0.00  0.00     0.106 C 
ATOM     20  H33 LLL d   1     160.419  -2.017  73.080  0.00  0.00     0.093 H 
ATOM     21  C53 LLL d   1     160.202  -3.438  75.647  0.00  0.00     0.053 C 
ATOM     22  O53 LLL d   1     158.850  -3.917  75.577  0.00  0.00    -0.356 OA
ATOM     23  H37 LLL d   1     160.554  -3.570  76.681  0.00  0.00     0.079 H 
ATOM     24  H38 LLL d   1     160.814  -4.052  74.970  0.00  0.00     0.079 H 
ATOM     25  H30 LLL d   1     157.387  -4.311  74.106  0.00  0.00     0.133 H 
BRANCH  16  26
ATOM     26  O23 LLL d   1     157.755  -2.231  72.513  0.00  0.00    -0.388 OA
ATOM     27  H32 LLL d   1     157.729  -1.315  72.263  0.00  0.00     0.210 HD
ENDBRANCH  16  26
BRANCH  17  28
ATOM     28  N33 LLL d   1     159.527  -0.175  73.671  0.00  0.00    -0.069 N 
ATOM     29  H34 LLL d   1     159.699   0.319  74.532  0.00  0.00     0.277 HD
ATOM     30  H35 LLL d   1     158.572  -0.029  73.385  0.00  0.00     0.277 HD
BRANCH  28  31
ATOM     31  C93 LLL d   1     160.449   0.340  72.609  0.00  0.00     0.065 C 
ATOM     32  H42 LLL d   1     160.270   1.415  72.458  0.00  0.00     0.067 H 
ATOM     33  H43 LLL d   1     160.262  -0.198  71.668  0.00  0.00     0.067 H 
ATOM     34  H44 LLL d   1     161.492   0.182  72.921  0.00  0.00     0.067 H 
ENDBRANCH  28  31
ENDBRANCH  17  28
BRANCH  19  35
ATOM     35  O43 LLL d   1     159.763  -1.067  76.183  0.00  0.00    -0.386 OA
ATOM     36  H36 LLL d   1     160.115  -1.209  77.054  0.00  0.00     0.210 HD
ENDBRANCH  19  35
BRANCH  19  37
ATOM     37  C83 LLL d   1     161.891  -1.573  75.226  0.00  0.00    -0.044 C 
ATOM     38  H39 LLL d   1     162.347  -1.794  76.202  0.00  0.00     0.031 H 
ATOM     39  H40 LLL d   1     161.992  -0.499  75.008  0.00  0.00     0.031 H 
ATOM     40  H41 LLL d   1     162.400  -2.155  74.444  0.00  0.00     0.031 H 
ENDBRANCH  19  37
ENDBRANCH  14  15
ENDBRANCH   6  14
BRANCH   1  41
ATOM     41  N12 LLL d   1     157.320  -5.182  71.434  0.00  0.00    -0.072 N 
ATOM     42  H17 LLL d   1     156.944  -5.263  70.502  0.00  0.00     0.274 HD
ATOM     43  H18 LLL d   1     157.597  -4.228  71.602  0.00  0.00     0.274 HD
ATOM     44  H19 LLL d   1     156.617  -5.451  72.105  0.00  0.00     0.274 HD
ENDBRANCH   1  41
BRANCH   5  45
ATOM     45  O52 LLL d   1     160.733  -6.573  74.480  0.00  0.00    -0.390 OA
ATOM     46  H28 LLL d   1     160.803  -5.660  74.733  0.00  0.00     0.210 HD
ENDBRANCH   5  45
BRANCH   4  47
ATOM     47  O11 LLL d   1     161.482  -8.699  72.444  0.00  0.00    -0.349 OA
BRANCH  47  48
ATOM     48  C11 LLL d   1     162.448  -8.762  73.571  0.00  0.00     0.159 C 
ATOM     49  C21 LLL d   1     163.761  -9.328  72.976  0.00  0.00     0.147 C 
ATOM     50  C31 LLL d   1     163.493 -10.738  72.448  0.00  0.00    -0.032 C 
ATOM     51  H2  LLL d   1     164.556  -9.336  73.736  0.00  0.00     0.091 H 
ATOM     52  C41 LLL d   1     162.988 -11.593  73.635  0.00  0.00    -0.037 C 
ATOM     53  H6  LLL d   1     164.420 -11.169  72.043  0.00  0.00     0.036 H 
ATOM     54  H7  LLL d   1     162.728 -10.704  71.658  0.00  0.00     0.036 H 
ATOM     55  C51 LLL d   1     161.715 -10.924  74.182  0.00  0.00     0.064 C 
ATOM     56  H8  LLL d   1     163.757 -11.635  74.421  0.00  0.00     0.036 H 
ATOM     57  H9  LLL d   1     162.758 -12.613  73.292  0.00  0.00     0.036 H 
ATOM     58  O51 LLL d   1     161.961  -9.570  74.649  0.00  0.00    -0.352 OA
ATOM     59  H10 LLL d   1     160.927 -10.919  73.414  0.00  0.00     0.086 H 
ATOM     60  H1  LLL d   1     162.628  -7.747  73.955  0.00  0.00     0.132 H 
BRANCH  49  61
ATOM     61  N21 LLL d   1     164.154  -8.508  71.806  0.00  0.00    -0.070 N 
ATOM     62  H3  LLL d   1     165.008  -8.871  71.413  0.00  0.00     0.274 HD
ATOM     63  H4  LLL d   1     164.297  -7.554  72.097  0.00  0.00     0.274 HD
ATOM     64  H5  LLL d   1     163.424  -8.542  71.112  0.00  0.00     0.274 HD
ENDBRANCH  49  61
BRANCH  55  65
ATOM     65  C61 LLL d   1     161.304 -11.749  75.390  0.00  0.00     0.103 C 
ATOM     66  H11 LLL d   1     162.178 -11.982  76.016  0.00  0.00     0.079 H 
ATOM     67  H12 LLL d   1     160.819 -12.684  75.074  0.00  0.00     0.079 H 
BRANCH  65  68
ATOM     68  N61 LLL d   1     160.381 -10.917  76.101  0.00  0.00    -0.077 N 
ATOM     69  H13 LLL d   1     160.059 -11.400  76.925  0.00  0.00     0.274 HD
ATOM     70  H14 LLL d   1     159.594 -10.704  75.508  0.00  0.00     0.274 HD
ATOM     71  H15 LLL d   1     160.839 -10.061  76.371  0.00  0.00     0.274 HD
ENDBRANCH  65  68
ENDBRANCH  55  65
ENDBRANCH  47  48
ENDBRANCH   4  47
BRANCH   3  72
ATOM     72  N32 LLL d   1     159.295  -9.699  71.014  0.00  0.00    -0.072 N 
ATOM     73  H23 LLL d   1     160.194 -10.154  71.048  0.00  0.00     0.274 HD
ATOM     74  H24 LLL d   1     158.899  -9.807  70.094  0.00  0.00     0.274 HD
ATOM     75  H25 LLL d   1     158.681 -10.117  71.695  0.00  0.00     0.274 HD
ENDBRANCH   3  72
TORSDOF 15
