REMARK  12 active torsions:
REMARK  status: ('A' for Active; 'I' for Inactive)
REMARK    1  A    between atoms: C1_1  and  O1_7 
REMARK    2  A    between atoms: C3_3  and  C9_13 
REMARK    3  A    between atoms: C5_5  and  O2_8 
REMARK    4  A    between atoms: O1_7  and  C7_9 
REMARK    5  A    between atoms: O2_8  and  C8_10 
REMARK    6  A    between atoms: C9_13  and  O3_14 
REMARK    7  A    between atoms: O3_14  and  C10_15 
REMARK    8  A    between atoms: C12_18  and  N3_21 
REMARK    9  A    between atoms: N3_21  and  C14_22 
REMARK   10  A    between atoms: C15_23  and  N4_28 
REMARK       I    between atoms: N4_28  and  C20_29 
REMARK   11  A    between atoms: C20_29  and  C21_30 
REMARK   12  A    between atoms: C21_30  and  C22_31 
ROOT
ATOM      1  C10 XL8 d   1      17.986  -7.031  -7.717  0.00  0.00     0.105 A 
ATOM      2  C11 XL8 d   1      16.708  -6.961  -7.176  0.00  0.00     0.054 A 
ATOM      3  N1  XL8 d   1      15.965  -8.060  -7.020  0.00  0.00    -0.072 NA
ATOM      4  C12 XL8 d   1      16.530  -9.236  -7.381  0.00  0.00     0.726 A 
ATOM      5  N2  XL8 d   1      17.760  -9.376  -7.911  0.00  0.00    -0.072 NA
ATOM      6  C13 XL8 d   1      18.471  -8.262  -8.088  0.00  0.00     0.054 A 
ATOM      7  H10 XL8 d   1      16.308  -5.999  -6.876  0.00  0.00     0.120 H 
ATOM      8  H11 XL8 d   1      19.456  -8.329  -8.536  0.00  0.00     0.120 H 
ENDROOT
BRANCH   1   9
ATOM      9  O3  XL8 d   1      18.814  -5.959  -7.957  0.00  0.00    -0.344 OA
BRANCH   9  10
ATOM     10  C9  XL8 d   1      18.628  -4.736  -7.215  0.00  0.00     0.053 C 
ATOM     11  H8  XL8 d   1      17.856  -4.124  -7.705  0.00  0.00     0.082 H 
ATOM     12  H9  XL8 d   1      18.311  -4.974  -6.189  0.00  0.00     0.082 H 
BRANCH  10  13
ATOM     13  C3  XL8 d   1      19.929  -3.968  -7.174  0.00  0.00     0.015 A 
ATOM     14  C2  XL8 d   1      20.998  -4.384  -6.378  0.00  0.00     0.077 A 
ATOM     15  C1  XL8 d   1      22.232  -3.737  -6.397  0.00  0.00     0.093 A 
ATOM     16 CL1  XL8 d   1      20.809  -5.800  -5.401  0.00  0.00    -0.081 Cl
ATOM     17  C6  XL8 d   1      22.392  -2.614  -7.182  0.00  0.00    -0.015 A 
ATOM     18  C5  XL8 d   1      21.336  -2.158  -7.956  0.00  0.00     0.093 A 
ATOM     19  H1  XL8 d   1      23.341  -2.090  -7.194  0.00  0.00     0.092 H 
ATOM     20  C4  XL8 d   1      20.116  -2.843  -7.948  0.00  0.00     0.077 A 
ATOM     21 CL2  XL8 d   1      18.838  -2.369  -9.022  0.00  0.00    -0.081 Cl
BRANCH  15  22
ATOM     22  O1  XL8 d   1      23.222  -4.191  -5.575  0.00  0.00    -0.354 OA
BRANCH  22  23
ATOM     23  C7  XL8 d   1      24.554  -4.276  -6.071  0.00  0.00     0.010 C 
ATOM     24  H2  XL8 d   1      25.216  -4.659  -5.280  0.00  0.00     0.066 H 
ATOM     25  H3  XL8 d   1      24.894  -3.277  -6.382  0.00  0.00     0.066 H 
ATOM     26  H4  XL8 d   1      24.581  -4.958  -6.934  0.00  0.00     0.066 H 
ENDBRANCH  22  23
ENDBRANCH  15  22
BRANCH  18  27
ATOM     27  O2  XL8 d   1      21.472  -1.068  -8.759  0.00  0.00    -0.354 OA
BRANCH  27  28
ATOM     28  C8  XL8 d   1      22.679  -0.315  -8.698  0.00  0.00     0.010 C 
ATOM     29  H5  XL8 d   1      22.623   0.525  -9.406  0.00  0.00     0.066 H 
ATOM     30  H6  XL8 d   1      23.529  -0.962  -8.963  0.00  0.00     0.066 H 
ATOM     31  H7  XL8 d   1      22.818   0.073  -7.678  0.00  0.00     0.066 H 
ENDBRANCH  27  28
ENDBRANCH  18  27
ENDBRANCH  10  13
ENDBRANCH   9  10
ENDBRANCH   1   9
BRANCH   4  32
ATOM     32  N3  XL8 d   1      15.849 -10.396  -7.165  0.00  0.00    -0.184 N 
ATOM     33  H12 XL8 d   1      16.366 -11.270  -7.336  0.00  0.00     0.184 HD
BRANCH  32  34
ATOM     34  C14 XL8 d   1      14.509 -10.531  -6.732  0.00  0.00     0.098 A 
ATOM     35  C15 XL8 d   1      13.529 -10.975  -7.636  0.00  0.00     0.065 A 
ATOM     36  C16 XL8 d   1      12.212 -11.067  -7.189  0.00  0.00    -0.034 A 
ATOM     37  C17 XL8 d   1      11.892 -10.678  -5.897  0.00  0.00     0.037 A 
ATOM     38  H13 XL8 d   1      11.439 -11.442  -7.850  0.00  0.00     0.089 H 
ATOM     39  C18 XL8 d   1      12.844 -10.188  -5.024  0.00  0.00    -0.039 A 
ATOM     40 CL4  XL8 d   1      10.237 -10.738  -5.350  0.00  0.00    -0.084 Cl
ATOM     41  C19 XL8 d   1      14.162 -10.138  -5.443  0.00  0.00     0.065 A 
ATOM     42  H14 XL8 d   1      12.565  -9.850  -4.033  0.00  0.00     0.088 H 
ATOM     43 CL3  XL8 d   1      15.370  -9.589  -4.325  0.00  0.00    -0.082 Cl
BRANCH  35  44
ATOM     44  N4  XL8 d   1      13.967 -11.417  -8.914  0.00  0.00    -0.325 N 
ATOM     45  C20 XL8 d   1      13.281 -11.356 -10.079  0.00  0.00     0.221 C 
ATOM     46  O4  XL8 d   1      12.126 -10.960 -10.128  0.00  0.00    -0.273 OA
ATOM     47  H15 XL8 d   1      14.883 -11.817  -8.957  0.00  0.00     0.169 HD
BRANCH  45  48
ATOM     48  C21 XL8 d   1      13.984 -11.936 -11.292  0.00  0.00     0.006 C 
ATOM     49  H16 XL8 d   1      13.520 -11.503 -12.191  0.00  0.00     0.046 H 
ATOM     50  H17 XL8 d   1      13.826 -13.025 -11.286  0.00  0.00     0.046 H 
BRANCH  48  51
ATOM     51  C22 XL8 d   1      15.481 -11.681 -11.370  0.00  0.00    -0.068 C 
ATOM     52  H18 XL8 d   1      15.884 -12.143 -12.283  0.00  0.00     0.028 H 
ATOM     53  H19 XL8 d   1      15.974 -12.118 -10.489  0.00  0.00     0.028 H 
ATOM     54  H20 XL8 d   1      15.668 -10.597 -11.394  0.00  0.00     0.028 H 
ENDBRANCH  48  51
ENDBRANCH  45  48
ENDBRANCH  35  44
ENDBRANCH  32  34
ENDBRANCH   4  32
TORSDOF 12
