REMARK  13 active torsions:
REMARK  status: ('A' for Active; 'I' for Inactive)
REMARK    1  A    between atoms: C1_1  and  O1_7 
REMARK    2  A    between atoms: C3_3  and  C9_13 
REMARK    3  A    between atoms: C5_5  and  O2_8 
REMARK    4  A    between atoms: O1_7  and  C7_9 
REMARK    5  A    between atoms: O2_8  and  C8_10 
REMARK    6  A    between atoms: C9_13  and  O3_14 
REMARK    7  A    between atoms: O3_14  and  C10_15 
REMARK    8  A    between atoms: C12_18  and  N3_21 
REMARK    9  A    between atoms: N3_21  and  C14_22 
REMARK   10  A    between atoms: C15_23  and  N4_29 
REMARK   11  A    between atoms: C19_27  and  C20_28 
REMARK       I    between atoms: N4_29  and  C21_30 
REMARK   12  A    between atoms: C21_30  and  C22_31 
REMARK   13  A    between atoms: C22_31  and  C23_32 
ROOT
ATOM      1  C10 XL6 d   1       7.593 -18.035   8.266  0.00  0.00     0.105 A 
ATOM      2  C11 XL6 d   1       8.824 -18.549   8.621  0.00  0.00     0.054 A 
ATOM      3  N1  XL6 d   1       9.955 -17.858   8.444  0.00  0.00    -0.072 NA
ATOM      4  C12 XL6 d   1       9.824 -16.622   7.908  0.00  0.00     0.726 A 
ATOM      5  N2  XL6 d   1       8.660 -16.052   7.535  0.00  0.00    -0.072 NA
ATOM      6  C13 XL6 d   1       7.544 -16.756   7.731  0.00  0.00     0.054 A 
ATOM      7  H10 XL6 d   1       8.875 -19.541   9.056  0.00  0.00     0.120 H 
ATOM      8  H11 XL6 d   1       6.586 -16.323   7.469  0.00  0.00     0.120 H 
ENDROOT
BRANCH   4   9
ATOM      9  N3  XL6 d   1      10.957 -15.906   7.681  0.00  0.00    -0.185 N 
ATOM     10  H12 XL6 d   1      11.839 -16.406   7.862  0.00  0.00     0.184 HD
BRANCH   9  11
ATOM     11  C14 XL6 d   1      11.097 -14.566   7.229  0.00  0.00     0.082 A 
ATOM     12  C15 XL6 d   1      11.633 -13.609   8.107  0.00  0.00     0.062 A 
ATOM     13  C16 XL6 d   1      11.781 -12.272   7.649  0.00  0.00    -0.055 A 
ATOM     14  C17 XL6 d   1      11.360 -11.923   6.391  0.00  0.00    -0.080 A 
ATOM     15  H13 XL6 d   1      12.228 -11.526   8.296  0.00  0.00     0.087 H 
ATOM     16  C18 XL6 d   1      10.820 -12.876   5.546  0.00  0.00    -0.075 A 
ATOM     17  H14 XL6 d   1      11.451 -10.896   6.057  0.00  0.00     0.083 H 
ATOM     18  C19 XL6 d   1      10.683 -14.205   5.938  0.00  0.00    -0.032 A 
ATOM     19  H15 XL6 d   1      10.496 -12.581   4.555  0.00  0.00     0.084 H 
BRANCH  12  20
ATOM     20  N4  XL6 d   1      12.090 -14.025   9.379  0.00  0.00    -0.325 N 
ATOM     21  C21 XL6 d   1      11.958 -13.374  10.553  0.00  0.00     0.221 C 
ATOM     22  O4  XL6 d   1      11.387 -12.300  10.657  0.00  0.00    -0.273 OA
ATOM     23  H19 XL6 d   1      12.566 -14.904   9.412  0.00  0.00     0.169 HD
BRANCH  21  24
ATOM     24  C22 XL6 d   1      12.592 -14.075  11.734  0.00  0.00     0.006 C 
ATOM     25  H20 XL6 d   1      12.297 -13.543  12.651  0.00  0.00     0.046 H 
ATOM     26  H21 XL6 d   1      13.685 -14.027  11.618  0.00  0.00     0.046 H 
BRANCH  24  27
ATOM     27  C23 XL6 d   1      12.194 -15.520  11.876  0.00  0.00    -0.068 C 
ATOM     28  H22 XL6 d   1      12.695 -15.954  12.754  0.00  0.00     0.028 H 
ATOM     29  H23 XL6 d   1      12.492 -16.073  10.973  0.00  0.00     0.028 H 
ATOM     30  H24 XL6 d   1      11.104 -15.589  12.005  0.00  0.00     0.028 H 
ENDBRANCH  24  27
ENDBRANCH  21  24
ENDBRANCH  12  20
BRANCH  18  31
ATOM     31  C20 XL6 d   1      10.092 -15.198   4.973  0.00  0.00    -0.049 C 
ATOM     32  H16 XL6 d   1      10.059 -16.192   5.444  0.00  0.00     0.033 H 
ATOM     33  H17 XL6 d   1      10.713 -15.243   4.066  0.00  0.00     0.033 H 
ATOM     34  H18 XL6 d   1       9.072 -14.885   4.704  0.00  0.00     0.033 H 
ENDBRANCH  18  31
ENDBRANCH   9  11
ENDBRANCH   4   9
BRANCH   1  35
ATOM     35  O3  XL6 d   1       6.475 -18.804   8.497  0.00  0.00    -0.344 OA
BRANCH  35  36
ATOM     36  C9  XL6 d   1       5.338 -18.672   7.634  0.00  0.00     0.053 C 
ATOM     37  H8  XL6 d   1       4.693 -17.857   7.994  0.00  0.00     0.082 H 
ATOM     38  H9  XL6 d   1       5.675 -18.448   6.611  0.00  0.00     0.082 H 
BRANCH  36  39
ATOM     39  C3  XL6 d   1       4.569 -19.967   7.642  0.00  0.00     0.015 A 
ATOM     40  C2  XL6 d   1       3.422 -20.150   8.411  0.00  0.00     0.077 A 
ATOM     41  C1  XL6 d   1       2.741 -21.369   8.420  0.00  0.00     0.093 A 
ATOM     42 CL1  XL6 d   1       2.877 -18.858   9.431  0.00  0.00    -0.081 Cl
ATOM     43  C6  XL6 d   1       3.198 -22.412   7.627  0.00  0.00    -0.015 A 
ATOM     44  C5  XL6 d   1       4.337 -22.252   6.859  0.00  0.00     0.093 A 
ATOM     45  H1  XL6 d   1       2.661 -23.354   7.609  0.00  0.00     0.092 H 
ATOM     46  C4  XL6 d   1       4.995 -21.028   6.873  0.00  0.00     0.077 A 
ATOM     47 CL2  XL6 d   1       6.402 -20.817   5.902  0.00  0.00    -0.081 Cl
BRANCH  41  48
ATOM     48  O1  XL6 d   1       1.631 -21.480   9.212  0.00  0.00    -0.354 OA
BRANCH  48  49
ATOM     49  C7  XL6 d   1       0.860 -22.680   9.146  0.00  0.00     0.010 C 
ATOM     50  H2  XL6 d   1       0.009 -22.608   9.839  0.00  0.00     0.066 H 
ATOM     51  H3  XL6 d   1       1.490 -23.537   9.427  0.00  0.00     0.066 H 
ATOM     52  H4  XL6 d   1       0.487 -22.820   8.121  0.00  0.00     0.066 H 
ENDBRANCH  48  49
ENDBRANCH  41  48
BRANCH  44  53
ATOM     53  O2  XL6 d   1       4.858 -23.227   6.063  0.00  0.00    -0.354 OA
BRANCH  53  54
ATOM     54  C8  XL6 d   1       4.726 -24.588   6.480  0.00  0.00     0.010 C 
ATOM     55  H5  XL6 d   1       5.195 -25.247   5.734  0.00  0.00     0.066 H 
ATOM     56  H6  XL6 d   1       3.660 -24.841   6.574  0.00  0.00     0.066 H 
ATOM     57  H7  XL6 d   1       5.222 -24.723   7.452  0.00  0.00     0.066 H 
ENDBRANCH  53  54
ENDBRANCH  44  53
ENDBRANCH  36  39
ENDBRANCH  35  36
ENDBRANCH   1  35
TORSDOF 13
