REMARK  12 active torsions:
REMARK  status: ('A' for Active; 'I' for Inactive)
REMARK    1  A    between atoms: C1_1  and  O1_7 
REMARK    2  A    between atoms: C3_3  and  C9_11 
REMARK    3  A    between atoms: C5_5  and  O2_8 
REMARK    4  A    between atoms: O1_7  and  C7_9 
REMARK    5  A    between atoms: O2_8  and  C8_10 
REMARK    6  A    between atoms: C9_11  and  O3_12 
REMARK    7  A    between atoms: O3_12  and  C10_13 
REMARK    8  A    between atoms: C12_16  and  N3_21 
REMARK    9  A    between atoms: N3_21  and  C14_22 
REMARK   10  A    between atoms: C15_23  and  N4_30 
REMARK       I    between atoms: N4_30  and  C20_31 
REMARK   11  A    between atoms: C20_31  and  C21_32 
REMARK   12  A    between atoms: C21_32  and  C22_34 
ROOT
ATOM      1  C10 XL7 d   1       7.252 -17.814   7.843  0.00  0.00     0.105 A 
ATOM      2  C11 XL7 d   1       7.173 -16.507   7.403  0.00  0.00     0.054 A 
ATOM      3  N1  XL7 d   1       8.270 -15.776   7.202  0.00  0.00    -0.072 NA
ATOM      4  C12 XL7 d   1       9.454 -16.375   7.453  0.00  0.00     0.726 A 
ATOM      5  N2  XL7 d   1       9.612 -17.641   7.891  0.00  0.00    -0.072 NA
ATOM      6  C13 XL7 d   1       8.499 -18.352   8.082  0.00  0.00     0.054 A 
ATOM      7  H10 XL7 d   1       6.200 -16.067   7.217  0.00  0.00     0.120 H 
ATOM      8  H11 XL7 d   1       8.577 -19.375   8.433  0.00  0.00     0.120 H 
ENDROOT
BRANCH   1   9
ATOM      9  O3  XL7 d   1       6.144 -18.598   8.069  0.00  0.00    -0.344 OA
BRANCH   9  10
ATOM     10  C9  XL7 d   1       4.965 -18.403   7.272  0.00  0.00     0.053 C 
ATOM     11  H8  XL7 d   1       4.354 -17.597   7.703  0.00  0.00     0.082 H 
ATOM     12  H9  XL7 d   1       5.251 -18.136   6.244  0.00  0.00     0.082 H 
BRANCH  10  13
ATOM     13  C3  XL7 d   1       4.181 -19.688   7.265  0.00  0.00     0.015 A 
ATOM     14  C2  XL7 d   1       4.606 -20.780   6.509  0.00  0.00     0.077 A 
ATOM     15  C1  XL7 d   1       3.907 -21.986   6.514  0.00  0.00     0.093 A 
ATOM     16 CL1  XL7 d   1       6.031 -20.629   5.534  0.00  0.00    -0.081 Cl
ATOM     17  C6  XL7 d   1       2.753 -22.102   7.269  0.00  0.00    -0.015 A 
ATOM     18  C5  XL7 d   1       2.315 -21.037   8.042  0.00  0.00     0.093 A 
ATOM     19  H1  XL7 d   1       2.190 -23.028   7.256  0.00  0.00     0.092 H 
ATOM     20  C4  XL7 d   1       3.030 -19.842   8.036  0.00  0.00     0.077 A 
ATOM     21 CL2  XL7 d   1       2.469 -18.533   9.023  0.00  0.00    -0.081 Cl
BRANCH  15  22
ATOM     22  O1  XL7 d   1       4.364 -23.011   5.738  0.00  0.00    -0.354 OA
BRANCH  22  23
ATOM     23  C7  XL7 d   1       4.337 -24.331   6.273  0.00  0.00     0.010 C 
ATOM     24  H2  XL7 d   1       4.736 -25.036   5.529  0.00  0.00     0.066 H 
ATOM     25  H3  XL7 d   1       3.301 -24.605   6.520  0.00  0.00     0.066 H 
ATOM     26  H4  XL7 d   1       4.954 -24.370   7.183  0.00  0.00     0.066 H 
ENDBRANCH  22  23
ENDBRANCH  15  22
BRANCH  18  27
ATOM     27  O2  XL7 d   1       1.204 -21.094   8.832  0.00  0.00    -0.354 OA
BRANCH  27  28
ATOM     28  C8  XL7 d   1       0.409 -22.278   8.793  0.00  0.00     0.010 C 
ATOM     29  H5  XL7 d   1      -0.444 -22.170   9.479  0.00  0.00     0.066 H 
ATOM     30  H6  XL7 d   1       1.020 -23.140   9.100  0.00  0.00     0.066 H 
ATOM     31  H7  XL7 d   1       0.038 -22.437   7.770  0.00  0.00     0.066 H 
ENDBRANCH  27  28
ENDBRANCH  18  27
ENDBRANCH  10  13
ENDBRANCH   9  10
ENDBRANCH   1   9
BRANCH   4  32
ATOM     32  N3  XL7 d   1      10.589 -15.658   7.237  0.00  0.00    -0.184 N 
ATOM     33  H12 XL7 d   1      11.470 -16.155   7.429  0.00  0.00     0.184 HD
BRANCH  32  34
ATOM     34  C14 XL7 d   1      10.729 -14.329   6.787  0.00  0.00     0.098 A 
ATOM     35  C15 XL7 d   1      11.249 -13.358   7.656  0.00  0.00     0.067 A 
ATOM     36  C16 XL7 d   1      11.375 -12.038   7.195  0.00  0.00    -0.018 A 
ATOM     37  C17 XL7 d   1      10.989 -11.739   5.909  0.00  0.00     0.120 A 
ATOM     38  H13 XL7 d   1      11.771 -11.265   7.844  0.00  0.00     0.091 H 
ATOM     39  C18 XL7 d   1      10.482 -12.681   5.045  0.00  0.00    -0.022 A 
ATOM     40  F1  XL7 d   1      11.119 -10.457   5.471  0.00  0.00    -0.206 F 
ATOM     41  C19 XL7 d   1      10.353 -13.981   5.489  0.00  0.00     0.066 A 
ATOM     42  H14 XL7 d   1      10.190 -12.408   4.037  0.00  0.00     0.090 H 
ATOM     43 CL3  XL7 d   1       9.726 -15.183   4.404  0.00  0.00    -0.082 Cl
BRANCH  35  44
ATOM     44  N4  XL7 d   1      11.625 -13.725   8.967  0.00  0.00    -0.325 N 
ATOM     45  C20 XL7 d   1      11.646 -12.952  10.072  0.00  0.00     0.221 C 
ATOM     46  O4  XL7 d   1      11.317 -11.762  10.058  0.00  0.00    -0.273 OA
ATOM     47  H15 XL7 d   1      11.911 -14.675   9.091  0.00  0.00     0.169 HD
BRANCH  45  48
ATOM     48  C21 XL7 d   1      12.093 -13.634  11.312  0.00  0.00     0.006 C 
ATOM     49  H16 XL7 d   1      11.582 -13.125  12.142  0.00  0.00     0.046 H 
ATOM     50  H17 XL7 d   1      13.176 -13.457  11.385  0.00  0.00     0.046 H 
BRANCH  48  51
ATOM     51  C22 XL7 d   1      11.897 -15.089  11.537  0.00  0.00    -0.068 C 
ATOM     52  H18 XL7 d   1      12.306 -15.366  12.520  0.00  0.00     0.028 H 
ATOM     53  H19 XL7 d   1      12.417 -15.655  10.750  0.00  0.00     0.028 H 
ATOM     54  H20 XL7 d   1      10.823 -15.323  11.508  0.00  0.00     0.028 H 
ENDBRANCH  48  51
ENDBRANCH  45  48
ENDBRANCH  35  44
ENDBRANCH  32  34
ENDBRANCH   4  32
TORSDOF 12
