REMARK  12 active torsions:
REMARK  status: ('A' for Active; 'I' for Inactive)
REMARK    1  A    between atoms: C1_1  and  O1_7 
REMARK    2  A    between atoms: C3_3  and  C9_13 
REMARK    3  A    between atoms: C5_5  and  O2_8 
REMARK    4  A    between atoms: O1_7  and  C7_9 
REMARK    5  A    between atoms: O2_8  and  C8_10 
REMARK    6  A    between atoms: C9_13  and  O3_14 
REMARK    7  A    between atoms: O3_14  and  C10_15 
REMARK    8  A    between atoms: C12_18  and  N3_21 
REMARK    9  A    between atoms: N3_21  and  C14_22 
REMARK   10  A    between atoms: C15_23  and  N4_28 
REMARK       I    between atoms: N4_28  and  C20_29 
REMARK   11  A    between atoms: C20_29  and  C21_30 
REMARK   12  A    between atoms: C21_30  and  C22_31 
ROOT
ATOM      1  C10 XL5 d   1      17.628  -7.610  -8.354  0.00  0.00     0.105 A 
ATOM      2  C11 XL5 d   1      16.333  -7.505  -7.868  0.00  0.00     0.054 A 
ATOM      3  N1  XL5 d   1      15.563  -8.581  -7.730  0.00  0.00    -0.072 NA
ATOM      4  C12 XL5 d   1      16.103  -9.764  -8.079  0.00  0.00     0.726 A 
ATOM      5  N2  XL5 d   1      17.344  -9.948  -8.556  0.00  0.00    -0.072 NA
ATOM      6  C13 XL5 d   1      18.105  -8.856  -8.687  0.00  0.00     0.054 A 
ATOM      7  H10 XL5 d   1      15.942  -6.531  -7.596  0.00  0.00     0.120 H 
ATOM      8  H11 XL5 d   1      19.117  -8.955  -9.063  0.00  0.00     0.120 H 
ENDROOT
BRANCH   1   9
ATOM      9  O3  XL5 d   1      18.452  -6.535  -8.563  0.00  0.00    -0.344 OA
BRANCH   9  10
ATOM     10  C9  XL5 d   1      18.246  -5.347  -7.784  0.00  0.00     0.053 C 
ATOM     11  H8  XL5 d   1      17.455  -4.731  -8.238  0.00  0.00     0.082 H 
ATOM     12  H9  XL5 d   1      17.958  -5.615  -6.757  0.00  0.00     0.082 H 
BRANCH  10  13
ATOM     13  C3  XL5 d   1      19.542  -4.593  -7.774  0.00  0.00     0.015 A 
ATOM     14  C2  XL5 d   1      19.744  -3.492  -8.609  0.00  0.00     0.077 A 
ATOM     15  C1  XL5 d   1      20.938  -2.800  -8.621  0.00  0.00     0.093 A 
ATOM     16 CL1  XL5 d   1      18.481  -2.928  -9.656  0.00  0.00    -0.081 Cl
ATOM     17  C6  XL5 d   1      21.974  -3.225  -7.812  0.00  0.00    -0.015 A 
ATOM     18  C5  XL5 d   1      21.796  -4.315  -6.981  0.00  0.00     0.093 A 
ATOM     19  H1  XL5 d   1      22.925  -2.705  -7.829  0.00  0.00     0.092 H 
ATOM     20  C4  XL5 d   1      20.585  -5.004  -6.963  0.00  0.00     0.077 A 
ATOM     21 CL2  XL5 d   1      20.359  -6.372  -5.910  0.00  0.00    -0.081 Cl
BRANCH  15  22
ATOM     22  O1  XL5 d   1      20.978  -1.744  -9.478  0.00  0.00    -0.354 OA
BRANCH  22  23
ATOM     23  C7  XL5 d   1      22.002  -0.767  -9.349  0.00  0.00     0.010 C 
ATOM     24  H2  XL5 d   1      21.873   0.004 -10.123  0.00  0.00     0.066 H 
ATOM     25  H3  XL5 d   1      22.984  -1.247  -9.470  0.00  0.00     0.066 H 
ATOM     26  H4  XL5 d   1      21.942  -0.302  -8.354  0.00  0.00     0.066 H 
ENDBRANCH  22  23
ENDBRANCH  15  22
BRANCH  18  27
ATOM     27  O2  XL5 d   1      22.815  -4.706  -6.180  0.00  0.00    -0.354 OA
BRANCH  27  28
ATOM     28  C8  XL5 d   1      24.082  -4.855  -6.795  0.00  0.00     0.010 C 
ATOM     29  H5  XL5 d   1      24.819  -5.174  -6.043  0.00  0.00     0.066 H 
ATOM     30  H6  XL5 d   1      24.394  -3.894  -7.230  0.00  0.00     0.066 H 
ATOM     31  H7  XL5 d   1      24.017  -5.613  -7.590  0.00  0.00     0.066 H 
ENDBRANCH  27  28
ENDBRANCH  18  27
ENDBRANCH  10  13
ENDBRANCH   9  10
ENDBRANCH   1   9
BRANCH   4  32
ATOM     32  N3  XL5 d   1      15.345 -10.876  -7.926  0.00  0.00    -0.183 N 
ATOM     33  H12 XL5 d   1      15.781 -11.765  -8.208  0.00  0.00     0.184 HD
BRANCH  32  34
ATOM     34  C14 XL5 d   1      14.035 -10.960  -7.428  0.00  0.00     0.114 A 
ATOM     35  C15 XL5 d   1      13.038 -11.491  -8.248  0.00  0.00     0.065 A 
ATOM     36  C16 XL5 d   1      11.720 -11.579  -7.717  0.00  0.00    -0.055 A 
ATOM     37  C17 XL5 d   1      11.443 -11.098  -6.447  0.00  0.00    -0.078 A 
ATOM     38  H13 XL5 d   1      10.929 -12.025  -8.309  0.00  0.00     0.087 H 
ATOM     39  C18 XL5 d   1      12.438 -10.564  -5.657  0.00  0.00    -0.043 A 
ATOM     40  H14 XL5 d   1      10.428 -11.143  -6.069  0.00  0.00     0.083 H 
ATOM     41  C19 XL5 d   1      13.716 -10.501  -6.159  0.00  0.00     0.145 A 
ATOM     42  H15 XL5 d   1      12.217 -10.201  -4.660  0.00  0.00     0.088 H 
ATOM     43  F1  XL5 d   1      14.697  -9.967  -5.399  0.00  0.00    -0.204 F 
BRANCH  35  44
ATOM     44  N4  XL5 d   1      13.439 -12.031  -9.493  0.00  0.00    -0.325 N 
ATOM     45  C20 XL5 d   1      12.769 -12.037 -10.655  0.00  0.00     0.221 C 
ATOM     46  O4  XL5 d   1      11.692 -11.506 -10.797  0.00  0.00    -0.273 OA
ATOM     47  H16 XL5 d   1      14.340 -12.465  -9.508  0.00  0.00     0.169 HD
BRANCH  45  48
ATOM     48  C21 XL5 d   1      13.494 -12.745 -11.780  0.00  0.00     0.006 C 
ATOM     49  H17 XL5 d   1      12.837 -12.756 -12.662  0.00  0.00     0.046 H 
ATOM     50  H18 XL5 d   1      13.699 -13.778 -11.463  0.00  0.00     0.046 H 
BRANCH  48  51
ATOM     51  C22 XL5 d   1      14.802 -12.099 -12.170  0.00  0.00    -0.068 C 
ATOM     52  H19 XL5 d   1      15.263 -12.670 -12.989  0.00  0.00     0.028 H 
ATOM     53  H20 XL5 d   1      15.479 -12.089 -11.303  0.00  0.00     0.028 H 
ATOM     54  H21 XL5 d   1      14.617 -11.067 -12.502  0.00  0.00     0.028 H 
ENDBRANCH  48  51
ENDBRANCH  45  48
ENDBRANCH  35  44
ENDBRANCH  32  34
ENDBRANCH   4  32
TORSDOF 12
