REMARK  13 active torsions:
REMARK  status: ('A' for Active; 'I' for Inactive)
REMARK    1  A    between atoms: C1_1  and  O1_7 
REMARK    2  A    between atoms: C3_3  and  C9_13 
REMARK    3  A    between atoms: C5_5  and  O2_8 
REMARK    4  A    between atoms: O1_7  and  C7_9 
REMARK    5  A    between atoms: O2_8  and  C8_10 
REMARK    6  A    between atoms: C9_13  and  O3_14 
REMARK    7  A    between atoms: O3_14  and  C10_15 
REMARK    8  A    between atoms: C12_18  and  N3_21 
REMARK    9  A    between atoms: N3_21  and  C14_22 
REMARK   10  A    between atoms: C15_23  and  N4_29 
REMARK   11  A    between atoms: C19_27  and  C20_28 
REMARK       I    between atoms: N4_29  and  C21_30 
REMARK   12  A    between atoms: C21_30  and  C22_31 
REMARK   13  A    between atoms: C22_31  and  C23_32 
ROOT
ATOM      1  C10 XL6 d   1      72.226  17.830  47.441  0.00  0.00     0.105 A 
ATOM      2  C11 XL6 d   1      72.966  18.885  47.944  0.00  0.00     0.054 A 
ATOM      3  N1  XL6 d   1      73.237  18.986  49.247  0.00  0.00    -0.072 NA
ATOM      4  C12 XL6 d   1      72.740  18.022  50.051  0.00  0.00     0.726 A 
ATOM      5  N2  XL6 d   1      72.014  16.960  49.635  0.00  0.00    -0.072 NA
ATOM      6  C13 XL6 d   1      71.755  16.879  48.328  0.00  0.00     0.054 A 
ATOM      7  H10 XL6 d   1      73.334  19.646  47.265  0.00  0.00     0.120 H 
ATOM      8  H11 XL6 d   1      71.163  16.051  47.954  0.00  0.00     0.120 H 
ENDROOT
BRANCH   4   9
ATOM      9  N3  XL6 d   1      73.013  18.089  51.386  0.00  0.00    -0.185 N 
ATOM     10  H12 XL6 d   1      72.879  17.198  51.885  0.00  0.00     0.184 HD
BRANCH   9  11
ATOM     11  C14 XL6 d   1      73.446  19.153  52.216  0.00  0.00     0.082 A 
ATOM     12  C15 XL6 d   1      74.609  19.912  51.945  0.00  0.00     0.062 A 
ATOM     13  C16 XL6 d   1      74.976  20.951  52.831  0.00  0.00    -0.055 A 
ATOM     14  C17 XL6 d   1      74.236  21.195  53.955  0.00  0.00    -0.080 A 
ATOM     15  H13 XL6 d   1      75.849  21.558  52.618  0.00  0.00     0.087 H 
ATOM     16  C18 XL6 d   1      73.113  20.439  54.221  0.00  0.00    -0.075 A 
ATOM     17  H14 XL6 d   1      74.532  21.983  54.638  0.00  0.00     0.083 H 
ATOM     18  C19 XL6 d   1      72.707  19.418  53.375  0.00  0.00    -0.032 A 
ATOM     19  H15 XL6 d   1      72.534  20.648  55.113  0.00  0.00     0.084 H 
BRANCH  12  20
ATOM     20  N4  XL6 d   1      75.386  19.711  50.781  0.00  0.00    -0.325 N 
ATOM     21  C21 XL6 d   1      76.736  19.646  50.711  0.00  0.00     0.221 C 
ATOM     22  O4  XL6 d   1      77.472  19.722  51.692  0.00  0.00    -0.273 OA
ATOM     23  H19 XL6 d   1      74.887  19.606  49.921  0.00  0.00     0.169 HD
BRANCH  21  24
ATOM     24  C22 XL6 d   1      77.265  19.466  49.306  0.00  0.00     0.006 C 
ATOM     25  H20 XL6 d   1      76.689  18.668  48.815  0.00  0.00     0.046 H 
ATOM     26  H21 XL6 d   1      78.323  19.171  49.365  0.00  0.00     0.046 H 
BRANCH  24  27
ATOM     27  C23 XL6 d   1      77.162  20.711  48.474  0.00  0.00    -0.068 C 
ATOM     28  H22 XL6 d   1      77.562  20.514  47.468  0.00  0.00     0.028 H 
ATOM     29  H23 XL6 d   1      77.742  21.517  48.947  0.00  0.00     0.028 H 
ATOM     30  H24 XL6 d   1      76.107  21.014  48.397  0.00  0.00     0.028 H 
ENDBRANCH  24  27
ENDBRANCH  21  24
ENDBRANCH  12  20
BRANCH  18  31
ATOM     31  C20 XL6 d   1      71.474  18.624  53.718  0.00  0.00    -0.049 C 
ATOM     32  H16 XL6 d   1      71.302  17.862  52.944  0.00  0.00     0.033 H 
ATOM     33  H17 XL6 d   1      70.606  19.298  53.769  0.00  0.00     0.033 H 
ATOM     34  H18 XL6 d   1      71.614  18.132  54.692  0.00  0.00     0.033 H 
ENDBRANCH  18  31
ENDBRANCH   9  11
ENDBRANCH   4   9
BRANCH   1  35
ATOM     35  O3  XL6 d   1      71.928  17.700  46.105  0.00  0.00    -0.344 OA
BRANCH  35  36
ATOM     36  C9  XL6 d   1      72.675  18.453  45.138  0.00  0.00     0.053 C 
ATOM     37  H8  XL6 d   1      72.273  19.475  45.084  0.00  0.00     0.082 H 
ATOM     38  H9  XL6 d   1      73.731  18.490  45.443  0.00  0.00     0.082 H 
BRANCH  36  39
ATOM     39  C3  XL6 d   1      72.571  17.805  43.783  0.00  0.00     0.015 A 
ATOM     40  C2  XL6 d   1      73.430  16.769  43.426  0.00  0.00     0.077 A 
ATOM     41  C1  XL6 d   1      73.354  16.150  42.180  0.00  0.00     0.093 A 
ATOM     42 CL1  XL6 d   1      74.620  16.229  44.562  0.00  0.00    -0.081 Cl
ATOM     43  C6  XL6 d   1      72.411  16.588  41.263  0.00  0.00    -0.015 A 
ATOM     44  C5  XL6 d   1      71.549  17.624  41.581  0.00  0.00     0.093 A 
ATOM     45  H1  XL6 d   1      72.348  16.116  40.289  0.00  0.00     0.092 H 
ATOM     46  C4  XL6 d   1      71.631  18.222  42.836  0.00  0.00     0.077 A 
ATOM     47 CL2  XL6 d   1      70.520  19.497  43.221  0.00  0.00    -0.081 Cl
BRANCH  41  48
ATOM     48  O1  XL6 d   1      74.240  15.144  41.912  0.00  0.00    -0.354 OA
BRANCH  48  49
ATOM     49  C7  XL6 d   1      73.876  14.142  40.965  0.00  0.00     0.010 C 
ATOM     50  H2  XL6 d   1      74.695  13.414  40.868  0.00  0.00     0.066 H 
ATOM     51  H3  XL6 d   1      73.686  14.612  39.989  0.00  0.00     0.066 H 
ATOM     52  H4  XL6 d   1      72.966  13.627  41.307  0.00  0.00     0.066 H 
ENDBRANCH  48  49
ENDBRANCH  41  48
BRANCH  44  53
ATOM     53  O2  XL6 d   1      70.591  18.092  40.729  0.00  0.00    -0.354 OA
BRANCH  53  54
ATOM     54  C8  XL6 d   1      70.704  17.824  39.335  0.00  0.00     0.010 C 
ATOM     55  H5  XL6 d   1      69.851  18.273  38.805  0.00  0.00     0.066 H 
ATOM     56  H6  XL6 d   1      70.707  16.736  39.170  0.00  0.00     0.066 H 
ATOM     57  H7  XL6 d   1      71.641  18.255  38.953  0.00  0.00     0.066 H 
ENDBRANCH  53  54
ENDBRANCH  44  53
ENDBRANCH  36  39
ENDBRANCH  35  36
ENDBRANCH   1  35
TORSDOF 13
