REMARK  5 active torsions:
REMARK  status: ('A' for Active; 'I' for Inactive)
REMARK    1  A    between atoms: CAA_1  and  CAI_8 
REMARK    2  A    between atoms: CAL_11  and  CAE_5 
REMARK    3  A    between atoms: CAM_12  and  CAL_11 
REMARK       I    between atoms: NAN_21  and  CAM_12 
REMARK    4  A    between atoms: CAO_13  and  CAV_19 
REMARK    5  A    between atoms: CAO_13  and  NAN_21 
ROOT
ATOM      1  CAA L6P d   1      20.900  32.206 -10.002  0.00  0.00    -0.033 A 
ATOM      2  CAB L6P d   1      20.217  32.791  -8.941  0.00  0.00     0.051 A 
ATOM      3  CAC L6P d   1      19.139  32.131  -8.363  0.00  0.00    -0.062 A 
ATOM      4  CAD L6P d   1      18.734  30.888  -8.852  0.00  0.00    -0.075 A 
ATOM      5  CAE L6P d   1      19.412  30.292  -9.912  0.00  0.00    -0.049 A 
ATOM      6  CAF L6P d   1      20.490  30.966 -10.492  0.00  0.00    -0.069 A 
ATOM      7  CAG L6P d   1      20.650  34.079  -8.455  0.00  0.00     0.100 C 
ATOM      8  NAH L6P d   1      21.018  35.114  -8.081  0.00  0.00    -0.191 NA
ATOM      9  H1  L6P d   1      18.612  32.583  -7.531  0.00  0.00     0.085 H 
ATOM     10  H2  L6P d   1      17.886  30.383  -8.403  0.00  0.00     0.084 H 
ATOM     11  H3  L6P d   1      21.013  30.521 -11.331  0.00  0.00     0.085 H 
ENDROOT
BRANCH   1  12
ATOM     12  CAI L6P d   1      21.974  32.895 -10.583  0.00  0.00    -0.027 A 
ATOM     13  CAJ L6P d   1      22.717  32.171 -11.699  0.00  0.00    -0.057 A 
ATOM     14  CAK L6P d   1      23.375  32.356 -10.333  0.00  0.00    -0.057 A 
ATOM     15  H5  L6P d   1      23.087  32.733 -12.569  0.00  0.00     0.034 H 
ATOM     16  H6  L6P d   1      22.389  31.172 -12.021  0.00  0.00     0.034 H 
ATOM     17  H7  L6P d   1      23.521  31.490  -9.671  0.00  0.00     0.034 H 
ATOM     18  H8  L6P d   1      24.220  33.051 -10.219  0.00  0.00     0.034 H 
ATOM     19  H4  L6P d   1      21.778  33.977 -10.627  0.00  0.00     0.047 H 
ENDBRANCH   1  12
BRANCH   5  20
ATOM     20  CAL L6P d   1      19.001  29.043 -10.406  0.00  0.00     0.033 C 
ATOM     21  H9  L6P d   1      19.185  29.017 -11.490  0.00  0.00     0.054 H 
ATOM     22  H10 L6P d   1      17.924  28.927 -10.214  0.00  0.00     0.054 H 
BRANCH  20  23
ATOM     23  CAM L6P d   1      19.750  27.857  -9.749  0.00  0.00     0.222 C 
ATOM     24  NAN L6P d   1      21.098  27.947  -9.715  0.00  0.00    -0.342 N 
ATOM     25  H21 L6P d   1      21.515  28.788 -10.059  0.00  0.00     0.163 HD
ATOM     26  OAP L6P d   1      19.117  26.902  -9.297  0.00  0.00    -0.273 OA
BRANCH  24  27
ATOM     27  CAO L6P d   1      22.003  26.889  -9.204  0.00  0.00     0.121 C 
ATOM     28  CAS L6P d   1      21.840  26.683  -7.686  0.00  0.00    -0.032 C 
ATOM     29  CAR L6P d   1      22.207  27.965  -6.975  0.00  0.00    -0.062 C 
ATOM     30  H15 L6P d   1      22.503  25.872  -7.350  0.00  0.00     0.037 H 
ATOM     31  H16 L6P d   1      20.796  26.421  -7.459  0.00  0.00     0.037 H 
ATOM     32  CAQ L6P d   1      23.647  28.355  -7.296  0.00  0.00    -0.065 C 
ATOM     33  H13 L6P d   1      21.532  28.768  -7.304  0.00  0.00     0.033 H 
ATOM     34  H14 L6P d   1      22.104  27.820  -5.889  0.00  0.00     0.033 H 
ATOM     35  CAU L6P d   1      23.800  28.568  -8.795  0.00  0.00    -0.062 C 
ATOM     36  H11 L6P d   1      24.324  27.552  -6.970  0.00  0.00     0.033 H 
ATOM     37  H12 L6P d   1      23.900  29.286  -6.767  0.00  0.00     0.033 H 
ATOM     38  CAT L6P d   1      23.458  27.274  -9.508  0.00  0.00    -0.032 C 
ATOM     39  H19 L6P d   1      24.837  28.854  -9.024  0.00  0.00     0.033 H 
ATOM     40  H20 L6P d   1      23.118  29.365  -9.127  0.00  0.00     0.033 H 
ATOM     41  H17 L6P d   1      23.582  27.410 -10.592  0.00  0.00     0.037 H 
ATOM     42  H18 L6P d   1      24.129  26.475  -9.159  0.00  0.00     0.037 H 
BRANCH  27  43
ATOM     43  CAV L6P d   1      21.695  25.586  -9.965  0.00  0.00     0.202 C 
ATOM     44  OAW L6P d   1      21.356  25.700 -11.167  0.00  0.00    -0.646 OA
ATOM     45  OAX L6P d   1      21.797  24.507  -9.336  0.00  0.00    -0.646 OA
ENDBRANCH  27  43
ENDBRANCH  24  27
ENDBRANCH  20  23
ENDBRANCH   5  20
TORSDOF 5
