REMARK  9 active torsions:
REMARK  status: ('A' for Active; 'I' for Inactive)
REMARK       I    between atoms: C8_2  and  N3_3 
REMARK    1  A    between atoms: C8_2  and  C2_4 
REMARK    2  A    between atoms: C3_7  and  N2_8 
REMARK    3  A    between atoms: N2_8  and  C4_9 
REMARK    4  A    between atoms: C4_9  and  C6_10 
REMARK    5  A    between atoms: C4_9  and  C5_13 
REMARK    6  A    between atoms: C6_10  and  C7_11 
REMARK    7  A    between atoms: C6_10  and  O1_12 
REMARK    8  A    between atoms: C5_13  and  O_14 
REMARK    9  A    between atoms: C10_17  and  C12_20 
ROOT
ATOM      1  C2  Z3A d   1      -0.567 -13.017  -3.791  0.00  0.00     0.079 A 
ATOM      2  C1  Z3A d   1      -1.840 -12.823  -3.325  0.00  0.00     0.040 A 
ATOM      3  N1  Z3A d   1      -2.783 -13.737  -3.081  0.00  0.00    -0.179 NA
ATOM      4  C3  Z3A d   1      -0.151 -14.350  -4.046  0.00  0.00     0.075 A 
ATOM      5  C   Z3A d   1      -1.064 -15.396  -3.711  0.00  0.00     0.086 A 
ATOM      6  C11 Z3A d   1      -1.028 -16.790  -3.627  0.00  0.00    -0.041 A 
ATOM      7  C10 Z3A d   1      -2.310 -17.246  -3.145  0.00  0.00    -0.006 A 
ATOM      8  C9  Z3A d   1      -3.079 -16.128  -2.952  0.00  0.00     0.015 A 
ATOM      9  N   Z3A d   1      -2.328 -15.021  -3.275  0.00  0.00    -0.242 N 
ATOM     10  H3  Z3A d   1      -2.120 -11.789  -3.128  0.00  0.00     0.119 H 
ATOM     11  H14 Z3A d   1      -0.179 -17.423  -3.881  0.00  0.00     0.088 H 
ATOM     12  H15 Z3A d   1      -4.110 -16.117  -2.602  0.00  0.00     0.116 H 
ENDROOT
BRANCH   4  13
ATOM     13  N2  Z3A d   1       0.989 -14.451  -4.640  0.00  0.00    -0.378 N 
ATOM     14  H4  Z3A d   1       1.527 -13.588  -4.803  0.00  0.00     0.160 HD
BRANCH  13  15
ATOM     15  C4  Z3A d   1       1.566 -15.715  -5.097  0.00  0.00     0.054 C 
ATOM     16  H5  Z3A d   1       0.754 -16.424  -5.319  0.00  0.00     0.079 H 
BRANCH  15  17
ATOM     17  C6  Z3A d   1       2.391 -15.480  -6.366  0.00  0.00     0.053 C 
ATOM     18  H6  Z3A d   1       2.997 -16.377  -6.562  0.00  0.00     0.085 H 
BRANCH  17  19
ATOM     19  C7  Z3A d   1       1.553 -15.188  -7.595  0.00  0.00    -0.051 C 
ATOM     20  H7  Z3A d   1       2.214 -15.032  -8.460  0.00  0.00     0.031 H 
ATOM     21  H8  Z3A d   1       0.953 -14.282  -7.423  0.00  0.00     0.031 H 
ATOM     22  H9  Z3A d   1       0.884 -16.038  -7.793  0.00  0.00     0.031 H 
ENDBRANCH  17  19
BRANCH  17  23
ATOM     23  O1  Z3A d   1       3.246 -14.364  -6.129  0.00  0.00    -0.394 OA
ATOM     24  H10 Z3A d   1       2.718 -13.587  -5.986  0.00  0.00     0.210 HD
ENDBRANCH  17  23
ENDBRANCH  15  17
BRANCH  15  25
ATOM     25  C5  Z3A d   1       2.455 -16.296  -4.012  0.00  0.00     0.038 C 
ATOM     26  H11 Z3A d   1       1.905 -16.312  -3.059  0.00  0.00     0.077 H 
ATOM     27  H12 Z3A d   1       3.355 -15.673  -3.905  0.00  0.00     0.077 H 
BRANCH  25  28
ATOM     28  O   Z3A d   1       2.837 -17.620  -4.357  0.00  0.00    -0.399 OA
ATOM     29  H13 Z3A d   1       3.393 -17.976  -3.674  0.00  0.00     0.209 HD
ENDBRANCH  25  28
ENDBRANCH  15  25
ENDBRANCH  13  15
ENDBRANCH   4  13
BRANCH   1  30
ATOM     30  C8  Z3A d   1       0.270 -11.804  -4.060  0.00  0.00     0.253 C 
ATOM     31  O2  Z3A d   1       1.382 -11.923  -4.585  0.00  0.00    -0.268 OA
ATOM     32  N3  Z3A d   1      -0.243 -10.610  -3.755  0.00  0.00    -0.366 N 
ATOM     33  H1  Z3A d   1      -1.146 -10.547  -3.330  0.00  0.00     0.159 HD
ATOM     34  H2  Z3A d   1       0.276  -9.778  -3.951  0.00  0.00     0.159 HD
ENDBRANCH   1  30
BRANCH   7  35
ATOM     35  C12 Z3A d   1      -2.736 -18.657  -2.918  0.00  0.00    -0.025 A 
ATOM     36  C17 Z3A d   1      -1.869 -19.719  -3.193  0.00  0.00    -0.072 A 
ATOM     37  C16 Z3A d   1      -2.289 -21.035  -3.024  0.00  0.00    -0.082 A 
ATOM     38  H16 Z3A d   1      -0.863 -19.516  -3.540  0.00  0.00     0.084 H 
ATOM     39  C15 Z3A d   1      -3.577 -21.308  -2.580  0.00  0.00    -0.083 A 
ATOM     40  H17 Z3A d   1      -1.608 -21.851  -3.240  0.00  0.00     0.083 H 
ATOM     41  C14 Z3A d   1      -4.436 -20.264  -2.285  0.00  0.00    -0.082 A 
ATOM     42  H18 Z3A d   1      -3.907 -22.334  -2.465  0.00  0.00     0.083 H 
ATOM     43  C13 Z3A d   1      -4.023 -18.948  -2.448  0.00  0.00    -0.072 A 
ATOM     44  H19 Z3A d   1      -5.436 -20.474  -1.925  0.00  0.00     0.083 H 
ATOM     45  H20 Z3A d   1      -4.703 -18.138  -2.209  0.00  0.00     0.084 H 
ENDBRANCH   7  35
TORSDOF 9
