REMARK  6 active torsions:
REMARK  status: ('A' for Active; 'I' for Inactive)
REMARK    1  A    between atoms: C6_2  and  O31_31 
REMARK    2  A    between atoms: C11_3  and  N14_14 
REMARK    3  A    between atoms: N2_9  and  C1_11 
REMARK       I    between atoms: N14_14  and  C15_15 
REMARK    4  A    between atoms: C15_15  and  C17_17 
REMARK    5  A    between atoms: C22_22  and  C25_25 
REMARK    6  A    between atoms: O31_31  and  C32_32 
ROOT
ATOM      1  C4  L8D d   1     -15.897  17.200 -41.403  0.00  0.00     0.031 A 
ATOM      2  C6  L8D d   1     -17.107  15.680 -42.673  0.00  0.00     0.164 A 
ATOM      3  C11 L8D d   1     -17.116  15.947 -37.963  0.00  0.00     0.090 C 
ATOM      4  C7  L8D d   1     -18.120  15.624 -41.708  0.00  0.00    -0.024 A 
ATOM      5  C8  L8D d   1     -18.001  16.403 -40.560  0.00  0.00    -0.025 A 
ATOM      6  C9  L8D d   1     -19.059  16.391 -39.478  0.00  0.00    -0.036 C 
ATOM      7  C10 L8D d   1     -18.571  15.587 -38.258  0.00  0.00    -0.034 C 
ATOM      8  C12 L8D d   1     -16.841  17.431 -38.053  0.00  0.00     0.246 C 
ATOM      9  N2  L8D d   1     -16.720  18.001 -39.261  0.00  0.00    -0.319 N 
ATOM     10  C3  L8D d   1     -16.866  17.206 -40.413  0.00  0.00     0.060 A 
ATOM     11  N5  L8D d   1     -16.049  16.444 -42.478  0.00  0.00    -0.235 NA
ATOM     12  O13 L8D d   1     -16.712  18.132 -37.047  0.00  0.00    -0.271 OA
ATOM     13  H1  L8D d   1     -15.012  17.817 -41.297  0.00  0.00     0.118 H 
ATOM     14  H2  L8D d   1     -16.471  15.413 -38.676  0.00  0.00     0.087 H 
ATOM     15  H3  L8D d   1     -18.983  14.984 -41.852  0.00  0.00     0.091 H 
ATOM     16  H4  L8D d   1     -19.976  15.929 -39.873  0.00  0.00     0.040 H 
ATOM     17  H5  L8D d   1     -19.273  17.425 -39.169  0.00  0.00     0.040 H 
ATOM     18  H6  L8D d   1     -19.194  15.831 -37.385  0.00  0.00     0.037 H 
ATOM     19  H7  L8D d   1     -18.647  14.511 -38.473  0.00  0.00     0.037 H 
ENDROOT
BRANCH   3  20
ATOM     20  N14 L8D d   1     -16.782  15.559 -36.601  0.00  0.00    -0.341 N 
ATOM     21  C15 L8D d   1     -16.465  14.287 -36.310  0.00  0.00     0.291 C 
ATOM     22  O16 L8D d   1     -16.466  13.415 -37.164  0.00  0.00    -0.264 OA
ATOM     23  H11 L8D d   1     -16.789  16.246 -35.875  0.00  0.00     0.163 HD
BRANCH  21  24
ATOM     24  C17 L8D d   1     -16.108  13.975 -34.923  0.00  0.00     0.239 A 
ATOM     25  N18 L8D d   1     -16.043  14.864 -33.915  0.00  0.00    -0.208 NA
ATOM     26  C19 L8D d   1     -15.683  14.187 -32.857  0.00  0.00     0.126 A 
ATOM     27  N20 L8D d   1     -15.534  12.897 -33.230  0.00  0.00    -0.244 N 
ATOM     28  C24 L8D d   1     -15.375  14.347 -31.379  0.00  0.00    -0.006 C 
ATOM     29  N21 L8D d   1     -15.799  12.781 -34.475  0.00  0.00    -0.144 NA
ATOM     30  C22 L8D d   1     -15.128  12.055 -32.107  0.00  0.00     0.062 C 
ATOM     31  C23 L8D d   1     -15.453  12.889 -30.840  0.00  0.00    -0.034 C 
ATOM     32  H12 L8D d   1     -14.048  11.848 -32.142  0.00  0.00     0.083 H 
ATOM     33  H13 L8D d   1     -14.710  12.716 -30.047  0.00  0.00     0.037 H 
ATOM     34  H14 L8D d   1     -16.458  12.658 -30.457  0.00  0.00     0.037 H 
ATOM     35  H15 L8D d   1     -16.121  14.989 -30.888  0.00  0.00     0.044 H 
ATOM     36  H16 L8D d   1     -14.371  14.770 -31.229  0.00  0.00     0.044 H 
BRANCH  30  37
ATOM     37  C25 L8D d   1     -15.882  10.747 -32.214  0.00  0.00    -0.033 A 
ATOM     38  C26 L8D d   1     -17.163  10.621 -31.693  0.00  0.00    -0.075 A 
ATOM     39  C27 L8D d   1     -17.852   9.420 -31.795  0.00  0.00    -0.082 A 
ATOM     40  H17 L8D d   1     -17.629  11.468 -31.202  0.00  0.00     0.084 H 
ATOM     41  C28 L8D d   1     -17.256   8.344 -32.436  0.00  0.00    -0.083 A 
ATOM     42  H18 L8D d   1     -18.848   9.324 -31.377  0.00  0.00     0.083 H 
ATOM     43  C29 L8D d   1     -15.985   8.476 -32.981  0.00  0.00    -0.082 A 
ATOM     44  H19 L8D d   1     -17.782   7.399 -32.512  0.00  0.00     0.083 H 
ATOM     45  C30 L8D d   1     -15.290   9.676 -32.863  0.00  0.00    -0.075 A 
ATOM     46  H20 L8D d   1     -15.532   7.640 -33.501  0.00  0.00     0.083 H 
ATOM     47  H21 L8D d   1     -14.292   9.772 -33.276  0.00  0.00     0.084 H 
ENDBRANCH  30  37
ENDBRANCH  21  24
ENDBRANCH   3  20
BRANCH   9  48
ATOM     48  C1  L8D d   1     -16.446  19.447 -39.358  0.00  0.00    -0.011 C 
ATOM     49  H8  L8D d   1     -16.369  19.874 -38.347  0.00  0.00     0.057 H 
ATOM     50  H9  L8D d   1     -17.265  19.940 -39.903  0.00  0.00     0.057 H 
ATOM     51  H10 L8D d   1     -15.500  19.606 -39.896  0.00  0.00     0.057 H 
ENDBRANCH   9  48
BRANCH   2  52
ATOM     52  O31 L8D d   1     -17.193  14.932 -43.817  0.00  0.00    -0.339 OA
BRANCH  52  53
ATOM     53  C32 L8D d   1     -16.054  14.946 -44.681  0.00  0.00     0.012 C 
ATOM     54  H22 L8D d   1     -16.250  14.310 -45.557  0.00  0.00     0.067 H 
ATOM     55  H23 L8D d   1     -15.178  14.562 -44.139  0.00  0.00     0.067 H 
ATOM     56  H24 L8D d   1     -15.858  15.976 -45.012  0.00  0.00     0.067 H 
ENDBRANCH  52  53
ENDBRANCH   2  52
TORSDOF 6
