REMARK  7 active torsions:
REMARK  status: ('A' for Active; 'I' for Inactive)
REMARK    1  A    between atoms: C18_2  and  C19_6 
REMARK       I    between atoms: C19_6  and  N6_27 
REMARK    2  A    between atoms: C1_9  and  C6_17 
REMARK    3  A    between atoms: N3_16  and  C3_12 
REMARK    4  A    between atoms: C5_14  and  N2_15 
REMARK    5  A    between atoms: N2_15  and  C8_21 
REMARK    6  A    between atoms: N3_16  and  C9_22 
REMARK       I    between atoms: C6_17  and  N4_18 
REMARK    7  A    between atoms: N4_18  and  C7_20 
ROOT
ATOM      1  C1  L8Y d   1      14.663  -0.781  31.100  0.00  0.00     0.076 A 
ATOM      2  C2  L8Y d   1      13.789  -0.086  31.934  0.00  0.00     0.022 A 
ATOM      3  N1  L8Y d   1      12.529  -0.456  32.187  0.00  0.00    -0.242 NA
ATOM      4  C3  L8Y d   1      12.071  -1.549  31.587  0.00  0.00     0.131 A 
ATOM      5  C4  L8Y d   1      12.854  -2.318  30.713  0.00  0.00    -0.012 A 
ATOM      6  C5  L8Y d   1      14.178  -1.946  30.459  0.00  0.00     0.053 A 
ATOM      7  H6  L8Y d   1      14.156   0.816  32.410  0.00  0.00     0.116 H 
ATOM      8  H7  L8Y d   1      12.434  -3.197  30.237  0.00  0.00     0.092 H 
ENDROOT
BRANCH   6   9
ATOM      9  N2  L8Y d   1      15.014  -2.700  29.600  0.00  0.00    -0.354 N 
ATOM     10  H8  L8Y d   1      16.016  -2.469  29.658  0.00  0.00     0.166 HD
BRANCH   9  11
ATOM     11  C8  L8Y d   1      14.692  -3.716  28.678  0.00  0.00     0.048 A 
ATOM     12  C18 L8Y d   1      15.312  -3.748  27.411  0.00  0.00     0.058 A 
ATOM     13  C17 L8Y d   1      15.031  -4.809  26.542  0.00  0.00    -0.066 A 
ATOM     14  C16 L8Y d   1      14.194  -5.845  26.937  0.00  0.00    -0.082 A 
ATOM     15  H2  L8Y d   1      15.471  -4.822  25.551  0.00  0.00     0.085 H 
ATOM     16  C15 L8Y d   1      13.599  -5.819  28.174  0.00  0.00    -0.081 A 
ATOM     17  H3  L8Y d   1      14.010  -6.677  26.266  0.00  0.00     0.083 H 
ATOM     18  C14 L8Y d   1      13.849  -4.770  29.052  0.00  0.00    -0.056 A 
ATOM     19  H4  L8Y d   1      12.931  -6.620  28.468  0.00  0.00     0.083 H 
ATOM     20  H15 L8Y d   1      13.388  -4.768  30.033  0.00  0.00     0.086 H 
BRANCH  12  21
ATOM     21  C19 L8Y d   1      16.447  -2.832  27.075  0.00  0.00     0.251 C 
ATOM     22  N6  L8Y d   1      16.355  -2.106  25.959  0.00  0.00    -0.366 N 
ATOM     23  H16 L8Y d   1      17.096  -1.484  25.705  0.00  0.00     0.159 HD
ATOM     24  H17 L8Y d   1      15.546  -2.184  25.377  0.00  0.00     0.159 HD
ATOM     25  O2  L8Y d   1      17.430  -2.765  27.831  0.00  0.00    -0.268 OA
ENDBRANCH  12  21
ENDBRANCH   9  11
ENDBRANCH   6   9
BRANCH   1  26
ATOM     26  C6  L8Y d   1      16.022  -0.236  30.789  0.00  0.00     0.255 C 
ATOM     27  N4  L8Y d   1      16.551   0.636  31.648  0.00  0.00    -0.361 N 
ATOM     28  H10 L8Y d   1      16.105   0.781  32.531  0.00  0.00     0.162 HD
ATOM     29  O1  L8Y d   1      16.598  -0.574  29.764  0.00  0.00    -0.268 OA
BRANCH  27  30
ATOM     30  C7  L8Y d   1      17.754   1.379  31.336  0.00  0.00    -0.018 C 
ATOM     31  H11 L8Y d   1      18.009   2.035  32.181  0.00  0.00     0.056 H 
ATOM     32  H12 L8Y d   1      17.585   1.989  30.436  0.00  0.00     0.056 H 
ATOM     33  H13 L8Y d   1      18.581   0.677  31.154  0.00  0.00     0.056 H 
ENDBRANCH  27  30
ENDBRANCH   1  26
BRANCH   4  34
ATOM     34  N3  L8Y d   1      10.757  -1.853  31.934  0.00  0.00    -0.326 N 
ATOM     35  H9  L8Y d   1      10.322  -1.151  32.550  0.00  0.00     0.169 HD
BRANCH  34  36
ATOM     36  C9  L8Y d   1       9.926  -2.894  31.624  0.00  0.00     0.128 A 
ATOM     37  C13 L8Y d   1       8.606  -2.896  32.109  0.00  0.00    -0.036 A 
ATOM     38  C12 L8Y d   1       7.764  -3.929  31.738  0.00  0.00    -0.041 A 
ATOM     39  H1  L8Y d   1       8.255  -2.104  32.761  0.00  0.00     0.089 H 
ATOM     40  C11 L8Y d   1       8.282  -4.947  30.975  0.00  0.00     0.134 A 
ATOM     41  H5  L8Y d   1       6.723  -3.935  32.041  0.00  0.00     0.088 H 
ATOM     42  C10 L8Y d   1       9.618  -4.909  30.576  0.00  0.00     0.042 A 
ATOM     43  F1  L8Y d   1       7.480  -6.002  30.663  0.00  0.00    -0.205 F 
ATOM     44  N5  L8Y d   1      10.420  -3.879  30.870  0.00  0.00    -0.240 NA
ATOM     45  H14 L8Y d   1      10.020  -5.741  30.009  0.00  0.00     0.119 H 
ENDBRANCH  34  36
ENDBRANCH   4  34
TORSDOF 7
