REMARK  8 active torsions:
REMARK  status: ('A' for Active; 'I' for Inactive)
REMARK    1  A    between atoms: C18_2  and  S1_27 
REMARK    2  A    between atoms: S1_27  and  C19_6 
REMARK    3  A    between atoms: C1_9  and  C6_15 
REMARK    4  A    between atoms: N4_21  and  C3_12 
REMARK    5  A    between atoms: C5_14  and  N3_19 
REMARK       I    between atoms: C6_15  and  N2_16 
REMARK    6  A    between atoms: N2_16  and  C7_18 
REMARK    7  A    between atoms: N3_19  and  C8_20 
REMARK    8  A    between atoms: N4_21  and  C9_22 
ROOT
ATOM      1  C1  L91 d   1      14.585  -1.023  31.120  0.00  0.00     0.076 A 
ATOM      2  C2  L91 d   1      13.726  -0.320  31.961  0.00  0.00     0.022 A 
ATOM      3  N1  L91 d   1      12.478  -0.694  32.250  0.00  0.00    -0.242 NA
ATOM      4  C3  L91 d   1      12.002  -1.778  31.639  0.00  0.00     0.131 A 
ATOM      5  C4  L91 d   1      12.760  -2.535  30.743  0.00  0.00    -0.012 A 
ATOM      6  C5  L91 d   1      14.087  -2.192  30.495  0.00  0.00     0.053 A 
ATOM      7  H9  L91 d   1      14.097   0.594  32.412  0.00  0.00     0.116 H 
ATOM      8  H10 L91 d   1      12.317  -3.388  30.242  0.00  0.00     0.092 H 
ENDROOT
BRANCH   6   9
ATOM      9  N3  L91 d   1      14.919  -2.963  29.604  0.00  0.00    -0.354 N 
ATOM     10  H15 L91 d   1      15.886  -2.619  29.519  0.00  0.00     0.166 HD
BRANCH   9  11
ATOM     11  C8  L91 d   1      14.634  -4.111  28.826  0.00  0.00     0.054 A 
ATOM     12  C18 L91 d   1      15.232  -4.282  27.559  0.00  0.00     0.085 A 
ATOM     13  C17 L91 d   1      14.890  -5.363  26.756  0.00  0.00    -0.060 A 
ATOM     14  C16 L91 d   1      14.024  -6.327  27.238  0.00  0.00    -0.081 A 
ATOM     15  H2  L91 d   1      15.300  -5.450  25.756  0.00  0.00     0.085 H 
ATOM     16  C15 L91 d   1      13.485  -6.212  28.504  0.00  0.00    -0.081 A 
ATOM     17  H3  L91 d   1      13.767  -7.178  26.618  0.00  0.00     0.083 H 
ATOM     18  C14 L91 d   1      13.793  -5.120  29.302  0.00  0.00    -0.056 A 
ATOM     19  H4  L91 d   1      12.817  -6.980  28.877  0.00  0.00     0.083 H 
ATOM     20  H18 L91 d   1      13.379  -5.049  30.301  0.00  0.00     0.087 H 
BRANCH  12  21
ATOM     21  S1  L91 d   1      16.660  -3.346  27.055  0.00  0.00     0.174 S 
ATOM     22  O2  L91 d   1      17.570  -3.327  28.163  0.00  0.00    -0.223 OA
ATOM     23  O3  L91 d   1      17.126  -3.882  25.809  0.00  0.00    -0.223 OA
BRANCH  21  24
ATOM     24  C19 L91 d   1      16.095  -1.712  26.771  0.00  0.00     0.020 C 
ATOM     25  H5  L91 d   1      16.939  -1.082  26.454  0.00  0.00     0.049 H 
ATOM     26  H6  L91 d   1      15.663  -1.307  27.698  0.00  0.00     0.049 H 
ATOM     27  H7  L91 d   1      15.328  -1.721  25.982  0.00  0.00     0.049 H 
ENDBRANCH  21  24
ENDBRANCH  12  21
ENDBRANCH   9  11
ENDBRANCH   6   9
BRANCH   1  28
ATOM     28  C6  L91 d   1      15.953  -0.501  30.805  0.00  0.00     0.255 C 
ATOM     29  N2  L91 d   1      16.471   0.428  31.607  0.00  0.00    -0.361 N 
ATOM     30  H11 L91 d   1      16.062   0.575  32.508  0.00  0.00     0.162 HD
ATOM     31  O1  L91 d   1      16.564  -0.931  29.840  0.00  0.00    -0.268 OA
BRANCH  29  32
ATOM     32  C7  L91 d   1      17.611   1.232  31.212  0.00  0.00    -0.018 C 
ATOM     33  H12 L91 d   1      17.867   1.929  32.023  0.00  0.00     0.056 H 
ATOM     34  H13 L91 d   1      17.361   1.801  30.305  0.00  0.00     0.056 H 
ATOM     35  H14 L91 d   1      18.470   0.576  31.009  0.00  0.00     0.056 H 
ENDBRANCH  29  32
ENDBRANCH   1  28
BRANCH   4  36
ATOM     36  N4  L91 d   1      10.696  -2.040  31.993  0.00  0.00    -0.326 N 
ATOM     37  H16 L91 d   1      10.277  -1.316  32.594  0.00  0.00     0.169 HD
BRANCH  36  38
ATOM     38  C9  L91 d   1       9.844  -3.077  31.702  0.00  0.00     0.128 A 
ATOM     39  C13 L91 d   1       8.517  -3.043  32.171  0.00  0.00    -0.036 A 
ATOM     40  C12 L91 d   1       7.667  -4.075  31.819  0.00  0.00    -0.041 A 
ATOM     41  H1  L91 d   1       8.170  -2.227  32.794  0.00  0.00     0.089 H 
ATOM     42  C11 L91 d   1       8.171  -5.091  31.055  0.00  0.00     0.134 A 
ATOM     43  H8  L91 d   1       6.631  -4.079  32.139  0.00  0.00     0.088 H 
ATOM     44  C10 L91 d   1       9.494  -5.059  30.608  0.00  0.00     0.042 A 
ATOM     45  F1  L91 d   1       7.405  -6.186  30.841  0.00  0.00    -0.205 F 
ATOM     46  N5  L91 d   1      10.323  -4.070  30.942  0.00  0.00    -0.240 NA
ATOM     47  H17 L91 d   1       9.856  -5.859  29.973  0.00  0.00     0.119 H 
ENDBRANCH  36  38
ENDBRANCH   4  36
TORSDOF 8
