REMARK  5 active torsions:
REMARK  status: ('A' for Active; 'I' for Inactive)
REMARK    1  A    between atoms: C09_2  and  N10_8 
REMARK    2  A    between atoms: C11_3  and  C18_7 
REMARK    3  A    between atoms: C12_4  and  O13_9 
REMARK    4  A    between atoms: C14_5  and  O15_10 
REMARK    5  A    between atoms: C16_6  and  O17_11 
ROOT
ATOM      1  C08 L9D d   1      14.612 -29.353 -29.923  0.00  0.00    -0.011 C 
ATOM      2  C09 L9D d   1      15.194 -29.073 -31.319  0.00  0.00     0.117 C 
ATOM      3  C11 L9D d   1      14.136 -28.442 -32.253  0.00  0.00     0.085 C 
ATOM      4  C12 L9D d   1      13.530 -27.158 -31.640  0.00  0.00     0.077 C 
ATOM      5  C14 L9D d   1      12.928 -27.453 -30.272  0.00  0.00     0.086 C 
ATOM      6  C16 L9D d   1      14.034 -28.024 -29.377  0.00  0.00     0.064 C 
ATOM      7  H1  L9D d   1      15.404 -29.720 -29.254  0.00  0.00     0.040 H 
ATOM      8  H2  L9D d   1      13.814 -30.107 -29.994  0.00  0.00     0.040 H 
ATOM      9  H3  L9D d   1      15.513 -30.030 -31.757  0.00  0.00     0.085 H 
ATOM     10  H4  L9D d   1      13.315 -29.165 -32.370  0.00  0.00     0.064 H 
ATOM     11  H5  L9D d   1      14.345 -26.431 -31.510  0.00  0.00     0.088 H 
ATOM     12  H6  L9D d   1      12.112 -28.185 -30.367  0.00  0.00     0.090 H 
ATOM     13  H7  L9D d   1      14.860 -27.298 -29.404  0.00  0.00     0.087 H 
ENDROOT
BRANCH   2  14
ATOM     14  N10 L9D d   1      16.360 -28.201 -31.217  0.00  0.00    -0.074 N 
ATOM     15  H8  L9D d   1      17.042 -28.622 -30.606  0.00  0.00     0.274 HD
ATOM     16  H9  L9D d   1      16.080 -27.308 -30.843  0.00  0.00     0.274 HD
ATOM     17  H10 L9D d   1      16.763 -28.070 -32.132  0.00  0.00     0.274 HD
ENDBRANCH   2  14
BRANCH   3  18
ATOM     18  C18 L9D d   1      14.756 -28.210 -33.648  0.00  0.00     0.181 C 
ATOM     19  O19 L9D d   1      15.881 -27.630 -33.743  0.00  0.00    -0.648 OA
ATOM     20  O20 L9D d   1      14.160 -28.604 -34.696  0.00  0.00    -0.648 OA
ENDBRANCH   3  18
BRANCH   6  21
ATOM     21  O17 L9D d   1      13.628 -28.110 -28.030  0.00  0.00    -0.393 OA
ATOM     22  H13 L9D d   1      12.869 -28.678 -27.965  0.00  0.00     0.210 HD
ENDBRANCH   6  21
BRANCH   4  23
ATOM     23  O13 L9D d   1      12.559 -26.574 -32.468  0.00  0.00    -0.392 OA
ATOM     24  H11 L9D d   1      12.939 -26.392 -33.319  0.00  0.00     0.210 HD
ENDBRANCH   4  23
BRANCH   5  25
ATOM     25  O15 L9D d   1      12.430 -26.259 -29.739  0.00  0.00    -0.390 OA
ATOM     26  H12 L9D d   1      11.747 -25.921 -30.306  0.00  0.00     0.210 HD
ENDBRANCH   5  25
TORSDOF 5
