REMARK  8 active torsions:
REMARK  status: ('A' for Active; 'I' for Inactive)
REMARK    1  A    between atoms: C13_1  and  S1_25 
REMARK    2  A    between atoms: S1_25  and  C18_2 
REMARK    3  A    between atoms: C14_23  and  C15_5 
REMARK    4  A    between atoms: C1_8  and  C6_14 
REMARK    5  A    between atoms: N4_19  and  C3_11 
REMARK    6  A    between atoms: C5_13  and  N3_18 
REMARK       I    between atoms: C6_14  and  N2_15 
REMARK    7  A    between atoms: N2_15  and  C7_16 
REMARK    8  A    between atoms: N3_18  and  C8_20 
REMARK       I    between atoms: N4_19  and  C14_23 
ROOT
ATOM      1  C1  L9A d   1      14.377  -1.149  30.836  0.00  0.00     0.076 A 
ATOM      2  C2  L9A d   1      13.530  -0.544  31.761  0.00  0.00     0.022 A 
ATOM      3  N1  L9A d   1      12.278  -0.929  31.993  0.00  0.00    -0.242 NA
ATOM      4  C3  L9A d   1      11.790  -1.931  31.264  0.00  0.00     0.131 A 
ATOM      5  C4  L9A d   1      12.534  -2.591  30.284  0.00  0.00    -0.012 A 
ATOM      6  C5  L9A d   1      13.876  -2.249  30.100  0.00  0.00     0.053 A 
ATOM      7  H11 L9A d   1      13.916   0.295  32.329  0.00  0.00     0.116 H 
ATOM      8  H12 L9A d   1      12.075  -3.360  29.673  0.00  0.00     0.092 H 
ENDROOT
BRANCH   6   9
ATOM      9  N3  L9A d   1      14.747  -3.028  29.291  0.00  0.00    -0.354 N 
ATOM     10  H17 L9A d   1      15.716  -2.679  29.260  0.00  0.00     0.166 HD
BRANCH   9  11
ATOM     11  C8  L9A d   1      14.529  -4.193  28.521  0.00  0.00     0.054 A 
ATOM     12  C13 L9A d   1      15.269  -4.398  27.338  0.00  0.00     0.085 A 
ATOM     13  C12 L9A d   1      15.060  -5.526  26.554  0.00  0.00    -0.060 A 
ATOM     14  C11 L9A d   1      14.122  -6.466  26.944  0.00  0.00    -0.081 A 
ATOM     15  H10 L9A d   1      15.628  -5.669  25.642  0.00  0.00     0.085 H 
ATOM     16  C10 L9A d   1      13.411  -6.298  28.114  0.00  0.00    -0.081 A 
ATOM     17  H9  L9A d   1      13.945  -7.339  26.326  0.00  0.00     0.083 H 
ATOM     18  C9  L9A d   1      13.622  -5.184  28.914  0.00  0.00    -0.056 A 
ATOM     19  H20 L9A d   1      12.681  -7.043  28.411  0.00  0.00     0.083 H 
ATOM     20  H19 L9A d   1      13.082  -5.081  29.848  0.00  0.00     0.087 H 
BRANCH  12  21
ATOM     21  S1  L9A d   1      16.581  -3.287  26.869  0.00  0.00     0.174 S 
ATOM     22  O3  L9A d   1      17.449  -3.135  28.002  0.00  0.00    -0.223 OA
ATOM     23  O4  L9A d   1      17.150  -3.764  25.643  0.00  0.00    -0.223 OA
BRANCH  21  24
ATOM     24  C18 L9A d   1      15.813  -1.747  26.552  0.00  0.00     0.020 C 
ATOM     25  H1  L9A d   1      16.575  -1.011  26.255  0.00  0.00     0.049 H 
ATOM     26  H2  L9A d   1      15.301  -1.398  27.461  0.00  0.00     0.049 H 
ATOM     27  H3  L9A d   1      15.080  -1.863  25.740  0.00  0.00     0.049 H 
ENDBRANCH  21  24
ENDBRANCH  12  21
ENDBRANCH   9  11
ENDBRANCH   6   9
BRANCH   1  28
ATOM     28  C6  L9A d   1      15.718  -0.558  30.520  0.00  0.00     0.255 C 
ATOM     29  N2  L9A d   1      16.292   0.218  31.438  0.00  0.00    -0.361 N 
ATOM     30  H13 L9A d   1      16.011   0.129  32.394  0.00  0.00     0.162 HD
ATOM     31  O1  L9A d   1      16.248  -0.797  29.444  0.00  0.00    -0.268 OA
BRANCH  29  32
ATOM     32  C7  L9A d   1      17.314   1.189  31.091  0.00  0.00    -0.018 C 
ATOM     33  H14 L9A d   1      17.644   1.714  31.999  0.00  0.00     0.056 H 
ATOM     34  H15 L9A d   1      16.901   1.916  30.377  0.00  0.00     0.056 H 
ATOM     35  H16 L9A d   1      18.171   0.672  30.634  0.00  0.00     0.056 H 
ENDBRANCH  29  32
ENDBRANCH   1  28
BRANCH   4  36
ATOM     36  N4  L9A d   1      10.507  -2.283  31.700  0.00  0.00    -0.311 N 
ATOM     37  C14 L9A d   1       9.753  -3.347  31.347  0.00  0.00     0.227 C 
ATOM     38  O2  L9A d   1      10.134  -4.244  30.585  0.00  0.00    -0.273 OA
ATOM     39  H18 L9A d   1      10.091  -1.661  32.364  0.00  0.00     0.170 HD
BRANCH  37  40
ATOM     40  C15 L9A d   1       8.366  -3.347  31.969  0.00  0.00     0.024 A 
ATOM     41  C17 L9A d   1       7.706  -4.681  32.181  0.00  0.00    -0.053 A 
ATOM     42  C16 L9A d   1       7.222  -3.799  31.100  0.00  0.00    -0.053 A 
ATOM     43  H4  L9A d   1       8.247  -5.606  31.933  0.00  0.00     0.034 H 
ATOM     44  H5  L9A d   1       7.083  -4.849  33.072  0.00  0.00     0.034 H 
ATOM     45  H6  L9A d   1       6.240  -3.311  31.188  0.00  0.00     0.034 H 
ATOM     46  H7  L9A d   1       7.404  -4.068  30.049  0.00  0.00     0.034 H 
ATOM     47  H8  L9A d   1       8.253  -2.526  32.692  0.00  0.00     0.054 H 
ENDBRANCH  37  40
ENDBRANCH   4  36
TORSDOF 8
