REMARK  8 active torsions:
REMARK  status: ('A' for Active; 'I' for Inactive)
REMARK    1  A    between atoms: C17_23  and  N4_2 
REMARK    2  A    between atoms: C5_3  and  C6_17 
REMARK    3  A    between atoms: N3_20  and  C12_8 
REMARK       I    between atoms: N2_19  and  C11_9 
REMARK       I    between atoms: C11_9  and  N3_20 
REMARK    4  A    between atoms: C10_11  and  N2_19 
REMARK    5  A    between atoms: C1_13  and  O1_12 
REMARK    6  A    between atoms: C2_14  and  C1_13 
REMARK    7  A    between atoms: C2_14  and  N1_15 
REMARK    8  A    between atoms: N5_31  and  C24_32 
ROOT
ATOM      1  C7  L9S d   1      -4.441 -23.966 -18.643  0.00  0.00    -0.075 A 
ATOM      2  C8  L9S d   1      -5.689 -24.533 -18.852  0.00  0.00    -0.080 A 
ATOM      3  C10 L9S d   1      -6.731 -22.566 -18.022  0.00  0.00     0.036 A 
ATOM      4  C6  L9S d   1      -4.306 -22.688 -18.114  0.00  0.00    -0.024 A 
ATOM      5  C9  L9S d   1      -6.844 -23.836 -18.563  0.00  0.00    -0.057 A 
ATOM      6  C22 L9S d   1      -5.485 -22.008 -17.824  0.00  0.00    -0.049 A 
ATOM      7  H4  L9S d   1      -3.552 -24.532 -18.898  0.00  0.00     0.084 H 
ATOM      8  H7  L9S d   1      -5.758 -25.540 -19.249  0.00  0.00     0.083 H 
ATOM      9  H16 L9S d   1      -7.818 -24.272 -18.755  0.00  0.00     0.086 H 
ATOM     10  H28 L9S d   1      -5.422 -21.001 -17.427  0.00  0.00     0.087 H 
ENDROOT
BRANCH   4  11
ATOM     11  C5  L9S d   1      -2.975 -22.003 -17.862  0.00  0.00     0.144 C 
ATOM     12  N1  L9S d   1      -1.983 -23.014 -17.554  0.00  0.00    -0.058 N 
ATOM     13  C3  L9S d   1      -0.665 -22.379 -17.514  0.00  0.00     0.099 C 
ATOM     14  H13 L9S d   1      -1.992 -23.715 -18.279  0.00  0.00     0.281 HD
ATOM     15  C4  L9S d   1      -0.290 -21.927 -18.906  0.00  0.00     0.019 C 
ATOM     16  H1  L9S d   1       0.080 -23.101 -17.148  0.00  0.00     0.078 H 
ATOM     17  H2  L9S d   1      -0.695 -21.510 -16.840  0.00  0.00     0.078 H 
ATOM     18  N5  L9S d   1      -1.368 -21.008 -19.293  0.00  0.00    -0.361 N 
ATOM     19  H14 L9S d   1      -0.243 -22.784 -19.594  0.00  0.00     0.066 H 
ATOM     20  H15 L9S d   1       0.680 -21.408 -18.899  0.00  0.00     0.066 H 
ATOM     21  C23 L9S d   1      -2.721 -21.502 -19.234  0.00  0.00     0.027 C 
ATOM     22  H29 L9S d   1      -3.424 -20.689 -19.469  0.00  0.00     0.068 H 
ATOM     23  H30 L9S d   1      -2.850 -22.320 -19.958  0.00  0.00     0.068 H 
ATOM     24  H3  L9S d   1      -3.014 -21.215 -17.096  0.00  0.00     0.095 H 
BRANCH  12  25
ATOM     25  C2  L9S d   1      -2.266 -23.650 -16.291  0.00  0.00     0.103 C 
ATOM     26  H11 L9S d   1      -1.499 -23.352 -15.561  0.00  0.00     0.079 H 
ATOM     27  H12 L9S d   1      -3.255 -23.322 -15.939  0.00  0.00     0.079 H 
BRANCH  25  28
ATOM     28  C1  L9S d   1      -2.264 -25.162 -16.420  0.00  0.00     0.039 C 
ATOM     29  H9  L9S d   1      -2.913 -25.599 -15.646  0.00  0.00     0.076 H 
ATOM     30  H10 L9S d   1      -2.637 -25.447 -17.415  0.00  0.00     0.076 H 
BRANCH  28  31
ATOM     31  O1  L9S d   1      -0.947 -25.637 -16.255  0.00  0.00    -0.399 OA
ATOM     32  H8  L9S d   1      -0.941 -26.584 -16.335  0.00  0.00     0.209 HD
ENDBRANCH  28  31
ENDBRANCH  25  28
ENDBRANCH  12  25
BRANCH  18  33
ATOM     33  C24 L9S d   1      -1.002 -19.838 -19.932  0.00  0.00     0.141 A 
ATOM     34  N6  L9S d   1       0.314 -19.716 -20.291  0.00  0.00    -0.224 NA
ATOM     35  C25 L9S d   1       0.669 -18.605 -20.884  0.00  0.00     0.091 A 
ATOM     36  N7  L9S d   1      -0.095 -17.571 -21.267  0.00  0.00    -0.223 NA
ATOM     37  H31 L9S d   1       1.728 -18.506 -21.095  0.00  0.00     0.146 H 
ATOM     38  C26 L9S d   1      -1.347 -17.716 -20.872  0.00  0.00     0.142 A 
ATOM     39  C27 L9S d   1      -1.897 -18.817 -20.242  0.00  0.00     0.057 A 
ATOM     40  N8  L9S d   1      -2.339 -16.792 -21.094  0.00  0.00    -0.350 N 
ATOM     41  C28 L9S d   1      -3.295 -18.513 -20.041  0.00  0.00    -0.051 A 
ATOM     42  C29 L9S d   1      -3.551 -17.265 -20.633  0.00  0.00    -0.020 A 
ATOM     43  H32 L9S d   1      -4.020 -19.139 -19.523  0.00  0.00     0.087 H 
ATOM     44  H33 L9S d   1      -4.517 -16.768 -20.713  0.00  0.00     0.111 H 
ATOM     45  H34 L9S d   1      -2.198 -15.875 -21.542  0.00  0.00     0.166 HD
ENDBRANCH  18  33
ENDBRANCH   4  11
BRANCH   3  46
ATOM     46  N2  L9S d   1      -7.854 -21.766 -17.697  0.00  0.00    -0.309 N 
ATOM     47  C11 L9S d   1      -9.159 -22.216 -17.588  0.00  0.00     0.325 C 
ATOM     48  N3  L9S d   1     -10.007 -21.236 -17.128  0.00  0.00    -0.304 N 
ATOM     49  O2  L9S d   1      -9.557 -23.328 -17.939  0.00  0.00    -0.247 OA
ATOM     50  H18 L9S d   1      -9.645 -20.330 -16.909  0.00  0.00     0.171 HD
ATOM     51  H17 L9S d   1      -7.690 -20.793 -17.532  0.00  0.00     0.170 HD
BRANCH  48  52
ATOM     52  C12 L9S d   1     -11.406 -21.501 -16.959  0.00  0.00     0.096 A 
ATOM     53  C13 L9S d   1     -12.180 -21.777 -18.098  0.00  0.00     0.144 A 
ATOM     54  C14 L9S d   1     -13.529 -22.016 -18.113  0.00  0.00    -0.043 A 
ATOM     55  F1  L9S d   1     -11.597 -21.884 -19.283  0.00  0.00    -0.204 F 
ATOM     56  C15 L9S d   1     -14.107 -21.919 -16.852  0.00  0.00    -0.078 A 
ATOM     57  H5  L9S d   1     -14.086 -22.255 -19.012  0.00  0.00     0.088 H 
ATOM     58  C16 L9S d   1     -13.368 -21.580 -15.712  0.00  0.00    -0.060 A 
ATOM     59  H6  L9S d   1     -15.168 -22.113 -16.748  0.00  0.00     0.083 H 
ATOM     60  C17 L9S d   1     -12.016 -21.348 -15.729  0.00  0.00     0.041 A 
ATOM     61  H19 L9S d   1     -13.892 -21.497 -14.767  0.00  0.00     0.086 H 
BRANCH  60  62
ATOM     62  N4  L9S d   1     -11.335 -20.952 -14.521  0.00  0.00    -0.281 NA
ATOM     63  C18 L9S d   1     -12.161 -21.063 -13.306  0.00  0.00    -0.016 C 
ATOM     64  C19 L9S d   1     -11.198 -20.853 -12.179  0.00  0.00    -0.053 C 
ATOM     65  H20 L9S d   1     -12.625 -22.058 -13.241  0.00  0.00     0.056 H 
ATOM     66  H21 L9S d   1     -12.945 -20.291 -13.297  0.00  0.00     0.056 H 
ATOM     67  C20 L9S d   1      -9.922 -21.474 -12.792  0.00  0.00    -0.053 C 
ATOM     68  H22 L9S d   1     -11.513 -21.384 -11.269  0.00  0.00     0.034 H 
ATOM     69  H23 L9S d   1     -11.063 -19.785 -11.952  0.00  0.00     0.034 H 
ATOM     70  C21 L9S d   1     -10.117 -21.669 -14.290  0.00  0.00    -0.016 C 
ATOM     71  H24 L9S d   1      -9.725 -22.447 -12.319  0.00  0.00     0.034 H 
ATOM     72  H25 L9S d   1      -9.068 -20.802 -12.618  0.00  0.00     0.034 H 
ATOM     73  H26 L9S d   1      -9.283 -21.237 -14.862  0.00  0.00     0.056 H 
ATOM     74  H27 L9S d   1     -10.224 -22.734 -14.545  0.00  0.00     0.056 H 
ENDBRANCH  60  62
ENDBRANCH  48  52
ENDBRANCH   3  46
TORSDOF 8
