REMARK  10 active torsions:
REMARK  status: ('A' for Active; 'I' for Inactive)
REMARK       I    between atoms: N3_16  and  C13_1 
REMARK    1  A    between atoms: C13_1  and  C14_27 
REMARK    2  A    between atoms: N7_30  and  C18_2 
REMARK    3  A    between atoms: O2_26  and  C16_4 
REMARK    4  A    between atoms: C11_8  and  C15_5 
REMARK    5  A    between atoms: C12_9  and  O2_26 
REMARK    6  A    between atoms: C1_10  and  C5_18 
REMARK    7  A    between atoms: C2_13  and  N3_16 
REMARK    8  A    between atoms: N4_17  and  C4_15 
REMARK    9  A    between atoms: N4_17  and  C7_22 
REMARK       I    between atoms: C5_18  and  N5_19 
REMARK   10  A    between atoms: N5_19  and  C6_21 
ROOT
ATOM      1  C1  LB7 d   1      14.505  -1.169  30.781  0.00  0.00     0.173 A 
ATOM      2  N1  LB7 d   1      13.732  -0.579  31.716  0.00  0.00    -0.140 NA
ATOM      3  N2  LB7 d   1      12.490  -1.032  31.981  0.00  0.00    -0.131 NA
ATOM      4  C2  LB7 d   1      12.004  -2.056  31.297  0.00  0.00     0.154 A 
ATOM      5  C3  LB7 d   1      12.715  -2.686  30.272  0.00  0.00    -0.009 A 
ATOM      6  C4  LB7 d   1      14.029  -2.298  30.039  0.00  0.00     0.072 A 
ATOM      7  H12 LB7 d   1      12.252  -3.461  29.672  0.00  0.00     0.093 H 
ENDROOT
BRANCH   6   8
ATOM      8  N4  LB7 d   1      14.915  -3.037  29.215  0.00  0.00    -0.352 N 
ATOM      9  H14 LB7 d   1      15.877  -2.669  29.205  0.00  0.00     0.166 HD
BRANCH   8  10
ATOM     10  C7  LB7 d   1      14.735  -4.181  28.404  0.00  0.00     0.067 A 
ATOM     11  C12 LB7 d   1      15.635  -4.348  27.338  0.00  0.00     0.109 A 
ATOM     12  C11 LB7 d   1      15.611  -5.512  26.561  0.00  0.00     0.049 A 
ATOM     13  C10 LB7 d   1      14.687  -6.510  26.874  0.00  0.00    -0.066 A 
ATOM     14  C9  LB7 d   1      13.797  -6.341  27.919  0.00  0.00    -0.080 A 
ATOM     15  H21 LB7 d   1      14.667  -7.425  26.293  0.00  0.00     0.085 H 
ATOM     16  C8  LB7 d   1      13.824  -5.196  28.696  0.00  0.00    -0.054 A 
ATOM     17  H20 LB7 d   1      13.069  -7.115  28.132  0.00  0.00     0.083 H 
ATOM     18  H19 LB7 d   1      13.139  -5.088  29.529  0.00  0.00     0.087 H 
BRANCH  11  19
ATOM     19  O2  LB7 d   1      16.585  -3.370  27.130  0.00  0.00    -0.353 OA
BRANCH  19  20
ATOM     20  C16 LB7 d   1      16.158  -2.240  26.375  0.00  0.00     0.011 C 
ATOM     21  H5  LB7 d   1      16.992  -1.530  26.273  0.00  0.00     0.066 H 
ATOM     22  H6  LB7 d   1      15.320  -1.749  26.892  0.00  0.00     0.066 H 
ATOM     23  H7  LB7 d   1      15.832  -2.568  25.377  0.00  0.00     0.066 H 
ENDBRANCH  19  20
ENDBRANCH  11  19
BRANCH  12  24
ATOM     24  C15 LB7 d   1      16.463  -5.688  25.368  0.00  0.00     0.183 A 
ATOM     25  N6  LB7 d   1      16.093  -6.421  24.329  0.00  0.00    -0.151 NA
ATOM     26  N7  LB7 d   1      17.170  -6.338  23.512  0.00  0.00    -0.266 N 
ATOM     27  C17 LB7 d   1      18.105  -5.558  24.072  0.00  0.00     0.084 A 
ATOM     28  N8  LB7 d   1      17.706  -5.128  25.248  0.00  0.00    -0.220 NA
ATOM     29  H4  LB7 d   1      19.063  -5.314  23.616  0.00  0.00     0.146 H 
BRANCH  26  30
ATOM     30  C18 LB7 d   1      17.188  -7.102  22.274  0.00  0.00     0.004 C 
ATOM     31  H1  LB7 d   1      18.132  -6.915  21.741  0.00  0.00     0.059 H 
ATOM     32  H2  LB7 d   1      16.343  -6.795  21.641  0.00  0.00     0.059 H 
ATOM     33  H3  LB7 d   1      17.103  -8.174  22.504  0.00  0.00     0.059 H 
ENDBRANCH  26  30
ENDBRANCH  12  24
ENDBRANCH   8  10
ENDBRANCH   6   8
BRANCH   1  34
ATOM     34  C5  LB7 d   1      15.833  -0.503  30.522  0.00  0.00     0.274 C 
ATOM     35  N5  LB7 d   1      16.175   0.467  31.370  0.00  0.00    -0.360 N 
ATOM     36  H15 LB7 d   1      15.575   0.668  32.144  0.00  0.00     0.162 HD
ATOM     37  O1  LB7 d   1      16.518  -0.815  29.552  0.00  0.00    -0.266 OA
BRANCH  35  38
ATOM     38  C6  LB7 d   1      17.392   1.240  31.203  0.00  0.00    -0.018 C 
ATOM     39  H16 LB7 d   1      17.470   1.980  32.013  0.00  0.00     0.056 H 
ATOM     40  H17 LB7 d   1      17.367   1.759  30.233  0.00  0.00     0.056 H 
ATOM     41  H18 LB7 d   1      18.261   0.567  31.236  0.00  0.00     0.056 H 
ENDBRANCH  35  38
ENDBRANCH   1  34
BRANCH   4  42
ATOM     42  N3  LB7 d   1      10.750  -2.451  31.781  0.00  0.00    -0.310 N 
ATOM     43  C13 LB7 d   1       9.989  -3.495  31.386  0.00  0.00     0.227 C 
ATOM     44  O3  LB7 d   1      10.395  -4.406  30.663  0.00  0.00    -0.273 OA
ATOM     45  H13 LB7 d   1      10.369  -1.887  32.514  0.00  0.00     0.170 HD
BRANCH  43  46
ATOM     46  C14 LB7 d   1       8.564  -3.459  31.895  0.00  0.00     0.024 A 
ATOM     47  C19 LB7 d   1       7.464  -3.699  30.906  0.00  0.00    -0.053 A 
ATOM     48  C20 LB7 d   1       7.796  -4.746  31.881  0.00  0.00    -0.053 A 
ATOM     49  H8  LB7 d   1       6.517  -3.147  30.995  0.00  0.00     0.034 H 
ATOM     50  H9  LB7 d   1       7.705  -3.844  29.843  0.00  0.00     0.034 H 
ATOM     51  H10 LB7 d   1       8.285  -5.673  31.545  0.00  0.00     0.034 H 
ATOM     52  H11 LB7 d   1       7.096  -4.976  32.698  0.00  0.00     0.034 H 
ATOM     53  H22 LB7 d   1       8.453  -2.730  32.712  0.00  0.00     0.054 H 
ENDBRANCH  43  46
ENDBRANCH   4  42
TORSDOF 10
