REMARK  12 active torsions:
REMARK  status: ('A' for Active; 'I' for Inactive)
REMARK    1  A    between atoms: C7_23  and  C18_2 
REMARK       I    between atoms: C18_2  and  N6_32 
REMARK    2  A    between atoms: C14_29  and  C17_3 
REMARK    3  A    between atoms: N6_32  and  C19_6 
REMARK    4  A    between atoms: N7_34  and  C20_7 
REMARK    5  A    between atoms: C24_11  and  C27_14 
REMARK    6  A    between atoms: C11_12  and  N7_34 
REMARK    7  A    between atoms: N4_28  and  C12_13 
REMARK       I    between atoms: C27_14  and  N2_21 
REMARK    8  A    between atoms: C3_18  and  C1_15 
REMARK    9  A    between atoms: N2_21  and  C3_18 
REMARK   10  A    between atoms: C9_26  and  N4_28 
REMARK   11  A    between atoms: C25_35  and  O2_36 
REMARK   12  A    between atoms: O2_36  and  C26_37 
ROOT
ATOM      1  N7  LB4 d   1      14.958  -2.919  29.380  0.00  0.00    -0.353 N 
ATOM      2  H23 LB4 d   1      15.896  -2.506  29.275  0.00  0.00     0.166 HD
ENDROOT
BRANCH   1   3
ATOM      3  C20 LB4 d   1      14.797  -4.101  28.629  0.00  0.00     0.067 A 
ATOM      4  C21 LB4 d   1      13.965  -5.146  28.982  0.00  0.00    -0.054 A 
ATOM      5  C22 LB4 d   1      13.829  -6.229  28.161  0.00  0.00    -0.080 A 
ATOM      6  H9  LB4 d   1      13.417  -5.106  29.916  0.00  0.00     0.087 H 
ATOM      7  C23 LB4 d   1      14.566  -6.334  27.015  0.00  0.00    -0.065 A 
ATOM      8  H10 LB4 d   1      13.129  -7.014  28.421  0.00  0.00     0.083 H 
ATOM      9  C24 LB4 d   1      15.468  -5.345  26.667  0.00  0.00     0.067 A 
ATOM     10  H11 LB4 d   1      14.443  -7.199  26.374  0.00  0.00     0.085 H 
ATOM     11  C25 LB4 d   1      15.563  -4.211  27.467  0.00  0.00     0.110 A 
BRANCH   9  12
ATOM     12  C27 LB4 d   1      16.334  -5.689  25.510  0.00  0.00     0.254 C 
ATOM     13  N2  LB4 d   1      17.614  -5.353  25.581  0.00  0.00    -0.351 N 
ATOM     14  H17 LB4 d   1      17.912  -4.704  26.281  0.00  0.00     0.163 HD
ATOM     15  O3  LB4 d   1      15.887  -6.314  24.573  0.00  0.00    -0.268 OA
BRANCH  13  16
ATOM     16  C3  LB4 d   1      18.589  -5.906  24.667  0.00  0.00     0.035 C 
ATOM     17  H13 LB4 d   1      19.596  -5.618  25.005  0.00  0.00     0.073 H 
ATOM     18  H14 LB4 d   1      18.500  -7.002  24.673  0.00  0.00     0.073 H 
BRANCH  16  19
ATOM     19  C1  LB4 d   1      18.388  -5.409  23.257  0.00  0.00     0.051 A 
ATOM     20  C2  LB4 d   1      17.991  -6.246  22.237  0.00  0.00    -0.058 A 
ATOM     21  C4  LB4 d   1      17.886  -5.729  20.971  0.00  0.00    -0.080 A 
ATOM     22  H12 LB4 d   1      17.767  -7.289  22.431  0.00  0.00     0.086 H 
ATOM     23  C6  LB4 d   1      18.169  -4.413  20.753  0.00  0.00    -0.066 A 
ATOM     24  H15 LB4 d   1      17.579  -6.364  20.147  0.00  0.00     0.083 H 
ATOM     25  C5  LB4 d   1      18.537  -3.649  21.819  0.00  0.00     0.003 A 
ATOM     26  H18 LB4 d   1      18.103  -3.986  19.759  0.00  0.00     0.085 H 
ATOM     27  N1  LB4 d   1      18.649  -4.118  23.061  0.00  0.00    -0.264 NA
ATOM     28  H16 LB4 d   1      18.751  -2.600  21.647  0.00  0.00     0.114 H 
ENDBRANCH  16  19
ENDBRANCH  13  16
ENDBRANCH   9  12
BRANCH  11  29
ATOM     29  O2  LB4 d   1      16.445  -3.211  27.187  0.00  0.00    -0.353 OA
BRANCH  29  30
ATOM     30  C26 LB4 d   1      15.952  -2.153  26.395  0.00  0.00     0.011 C 
ATOM     31  H24 LB4 d   1      16.749  -1.411  26.237  0.00  0.00     0.066 H 
ATOM     32  H25 LB4 d   1      15.104  -1.676  26.907  0.00  0.00     0.066 H 
ATOM     33  H26 LB4 d   1      15.619  -2.547  25.423  0.00  0.00     0.066 H 
ENDBRANCH  29  30
ENDBRANCH  11  29
ENDBRANCH   1   3
BRANCH   1  34
ATOM     34  C11 LB4 d   1      14.128  -2.173  30.243  0.00  0.00     0.053 A 
ATOM     35  C7  LB4 d   1      14.614  -1.004  30.850  0.00  0.00     0.076 A 
ATOM     36  C8  LB4 d   1      13.790  -0.358  31.754  0.00  0.00     0.022 A 
ATOM     37  N3  LB4 d   1      12.570  -0.757  32.089  0.00  0.00    -0.242 NA
ATOM     38  H19 LB4 d   1      14.170   0.542  32.224  0.00  0.00     0.116 H 
ATOM     39  C9  LB4 d   1      12.101  -1.815  31.505  0.00  0.00     0.131 A 
ATOM     40  C10 LB4 d   1      12.822  -2.529  30.563  0.00  0.00    -0.012 A 
ATOM     41  H20 LB4 d   1      12.363  -3.377  30.068  0.00  0.00     0.092 H 
BRANCH  35  42
ATOM     42  C18 LB4 d   1      15.896  -0.363  30.410  0.00  0.00     0.255 C 
ATOM     43  N6  LB4 d   1      16.813  -0.105  31.329  0.00  0.00    -0.361 N 
ATOM     44  H22 LB4 d   1      17.083  -0.828  31.965  0.00  0.00     0.162 HD
ATOM     45  O1  LB4 d   1      16.043   0.007  29.265  0.00  0.00    -0.268 OA
BRANCH  43  46
ATOM     46  C19 LB4 d   1      17.434   1.196  31.435  0.00  0.00    -0.018 C 
ATOM     47  H6  LB4 d   1      18.161   1.189  32.261  0.00  0.00     0.056 H 
ATOM     48  H7  LB4 d   1      16.663   1.955  31.632  0.00  0.00     0.056 H 
ATOM     49  H8  LB4 d   1      17.951   1.433  30.493  0.00  0.00     0.056 H 
ENDBRANCH  43  46
ENDBRANCH  35  42
BRANCH  39  50
ATOM     50  N4  LB4 d   1      10.823  -2.103  31.890  0.00  0.00    -0.326 N 
ATOM     51  H21 LB4 d   1      10.412  -1.405  32.527  0.00  0.00     0.169 HD
BRANCH  50  52
ATOM     52  C12 LB4 d   1       9.986  -3.138  31.593  0.00  0.00     0.129 A 
ATOM     53  C13 LB4 d   1       8.663  -3.172  32.000  0.00  0.00    -0.030 A 
ATOM     54  C14 LB4 d   1       7.884  -4.241  31.584  0.00  0.00    -0.018 A 
ATOM     55  H1  LB4 d   1       8.249  -2.388  32.624  0.00  0.00     0.090 H 
ATOM     56  C15 LB4 d   1       8.420  -5.166  30.884  0.00  0.00     0.140 A 
ATOM     57  C16 LB4 d   1       9.739  -5.104  30.532  0.00  0.00     0.042 A 
ATOM     58  F1  LB4 d   1       7.642  -6.193  30.537  0.00  0.00    -0.204 F 
ATOM     59  N5  LB4 d   1      10.522  -4.092  30.883  0.00  0.00    -0.240 NA
ATOM     60  H5  LB4 d   1      10.161  -5.911  29.944  0.00  0.00     0.119 H 
BRANCH  54  61
ATOM     61  C17 LB4 d   1       6.424  -4.299  31.913  0.00  0.00    -0.048 C 
ATOM     62  H2  LB4 d   1       6.149  -3.422  32.518  0.00  0.00     0.033 H 
ATOM     63  H3  LB4 d   1       6.212  -5.217  32.480  0.00  0.00     0.033 H 
ATOM     64  H4  LB4 d   1       5.838  -4.300  30.982  0.00  0.00     0.033 H 
ENDBRANCH  54  61
ENDBRANCH  50  52
ENDBRANCH  39  50
ENDBRANCH   1  34
TORSDOF 12
