REMARK  15 active torsions:
REMARK  status: ('A' for Active; 'I' for Inactive)
REMARK    1  A    between atoms: C06_5  and  C04_3 
REMARK    2  A    between atoms: C05_4  and  C52_34 
REMARK       I    between atoms: N08_46  and  C06_5 
REMARK    3  A    between atoms: C10_7  and  C09_6 
REMARK    4  A    between atoms: C09_6  and  N08_46 
REMARK       I    between atoms: N11_47  and  C10_7 
REMARK    5  A    between atoms: C13_8  and  C57_39 
REMARK    6  A    between atoms: S12_60  and  C13_8 
REMARK    7  A    between atoms: C17_9  and  C50_33 
REMARK    8  A    between atoms: C25_15  and  C47_31 
REMARK    9  A    between atoms: C39_24  and  O48_59 
REMARK   10  A    between atoms: C47_31  and  C55_37 
REMARK   11  A    between atoms: C47_31  and  C56_38 
REMARK   12  A    between atoms: C47_31  and  C58_40 
REMARK   13  A    between atoms: O48_59  and  C49_32 
REMARK   14  A    between atoms: C52_34  and  C53_35 
REMARK   15  A    between atoms: N11_47  and  S12_60 
ROOT
ATOM      1  C01 L9P d   1      69.292  71.225  12.964  0.00  0.00     0.068 C 
ATOM      2  C02 L9P d   1      70.555  70.359  12.794  0.00  0.00     0.024 C 
ATOM      3  C04 L9P d   1      68.950  69.282  14.274  0.00  0.00     0.097 C 
ATOM      4  C05 L9P d   1      68.222  70.162  13.270  0.00  0.00     0.001 C 
ATOM      5  C22 L9P d   1      68.667  73.193  14.253  0.00  0.00     0.197 A 
ATOM      6  C23 L9P d   1      71.327  68.494  14.337  0.00  0.00     0.244 C 
ATOM      7  C25 L9P d   1      72.772  68.603  13.789  0.00  0.00     0.098 C 
ATOM      8  C27 L9P d   1      74.044  69.885  15.343  0.00  0.00     0.361 C 
ATOM      9  C30 L9P d   1      75.351  71.011  16.944  0.00  0.00     0.053 A 
ATOM     10  C31 L9P d   1      74.528  71.605  18.065  0.00  0.00    -0.026 A 
ATOM     11  C32 L9P d   1      74.439  73.100  18.224  0.00  0.00    -0.059 C 
ATOM     12  C34 L9P d   1      67.102  74.681  13.464  0.00  0.00     0.091 A 
ATOM     13  C35 L9P d   1      67.194  75.419  14.660  0.00  0.00     0.086 A 
ATOM     14  C37 L9P d   1      68.765  73.917  15.420  0.00  0.00     0.159 A 
ATOM     15  C38 L9P d   1      66.234  75.097  12.467  0.00  0.00    -0.021 A 
ATOM     16  C39 L9P d   1      65.452  76.255  12.657  0.00  0.00     0.070 A 
ATOM     17  C40 L9P d   1      65.552  76.974  13.839  0.00  0.00    -0.048 A 
ATOM     18  C41 L9P d   1      66.420  76.569  14.846  0.00  0.00    -0.050 A 
ATOM     19  C42 L9P d   1      69.686  73.518  16.535  0.00  0.00     0.291 C 
ATOM     20  C43 L9P d   1      71.159  73.773  16.221  0.00  0.00     0.002 C 
ATOM     21  C44 L9P d   1      72.056  73.436  17.420  0.00  0.00    -0.059 C 
ATOM     22  C45 L9P d   1      73.525  73.700  17.142  0.00  0.00    -0.064 C 
ATOM     23  C54 L9P d   1      75.828  70.893  18.361  0.00  0.00    -0.034 A 
ATOM     24  F59 L9P d   1      69.482  72.209  16.776  0.00  0.00    -0.199 F 
ATOM     25  F60 L9P d   1      69.358  74.298  17.591  0.00  0.00    -0.199 F 
ATOM     26  N03 L9P d   1      70.368  69.328  13.815  0.00  0.00    -0.334 N 
ATOM     27  N26 L9P d   1      73.695  68.660  14.888  0.00  0.00    -0.323 N 
ATOM     28  N33 L9P d   1      67.840  73.562  13.257  0.00  0.00    -0.221 NA
ATOM     29  N36 L9P d   1      68.028  75.034  15.635  0.00  0.00    -0.240 NA
ATOM     30  O21 L9P d   1      69.472  72.075  14.125  0.00  0.00    -0.325 OA
ATOM     31  O24 L9P d   1      71.059  67.665  15.213  0.00  0.00    -0.271 OA
ATOM     32  O28 L9P d   1      73.661  70.956  14.873  0.00  0.00    -0.238 OA
ATOM     33  O29 L9P d   1      74.886  69.764  16.393  0.00  0.00    -0.298 OA
ATOM     34  H1  L9P d   1      69.056  71.817  12.068  0.00  0.00     0.087 H 
ATOM     35  H2  L9P d   1      71.467  70.944  12.982  0.00  0.00     0.068 H 
ATOM     36  H3  L9P d   1      70.603  69.918  11.787  0.00  0.00     0.068 H 
ATOM     37  H4  L9P d   1      68.836  69.696  15.287  0.00  0.00     0.088 H 
ATOM     38  H5  L9P d   1      67.328  70.617  13.722  0.00  0.00     0.048 H 
ATOM     39  H13 L9P d   1      72.861  69.538  13.216  0.00  0.00     0.088 H 
ATOM     40  H14 L9P d   1      75.852  71.641  16.195  0.00  0.00     0.084 H 
ATOM     41  H15 L9P d   1      73.569  71.147  18.349  0.00  0.00     0.044 H 
ATOM     42  H16 L9P d   1      75.445  73.535  18.131  0.00  0.00     0.033 H 
ATOM     43  H17 L9P d   1      74.028  73.335  19.217  0.00  0.00     0.033 H 
ATOM     44  H18 L9P d   1      66.156  74.534  11.544  0.00  0.00     0.091 H 
ATOM     45  H19 L9P d   1      64.946  77.862  13.979  0.00  0.00     0.087 H 
ATOM     46  H20 L9P d   1      66.496  77.138  15.765  0.00  0.00     0.087 H 
ATOM     47  H21 L9P d   1      71.291  74.834  15.963  0.00  0.00     0.042 H 
ATOM     48  H22 L9P d   1      71.456  73.148  15.366  0.00  0.00     0.042 H 
ATOM     49  H23 L9P d   1      71.930  72.371  17.666  0.00  0.00     0.033 H 
ATOM     50  H24 L9P d   1      71.744  74.050  18.277  0.00  0.00     0.033 H 
ATOM     51  H25 L9P d   1      73.787  73.255  16.171  0.00  0.00     0.033 H 
ATOM     52  H26 L9P d   1      73.688  74.787  17.104  0.00  0.00     0.033 H 
ATOM     53  H36 L9P d   1      76.705  71.467  18.695  0.00  0.00     0.037 H 
ATOM     54  H37 L9P d   1      75.816  69.915  18.865  0.00  0.00     0.037 H 
ATOM     55  H52 L9P d   1      74.065  67.827  15.300  0.00  0.00     0.165 HD
ENDROOT
BRANCH   3  56
ATOM     56  C06 L9P d   1      68.532  67.793  14.281  0.00  0.00     0.242 C 
ATOM     57  N08 L9P d   1      67.898  67.380  15.432  0.00  0.00    -0.341 N 
ATOM     58  H50 L9P d   1      67.712  68.069  16.132  0.00  0.00     0.163 HD
ATOM     59  O07 L9P d   1      68.754  67.007  13.362  0.00  0.00    -0.271 OA
BRANCH  57  60
ATOM     60  C09 L9P d   1      67.484  66.028  15.699  0.00  0.00     0.124 A 
ATOM     61  C17 L9P d   1      68.700  65.135  15.953  0.00  0.00     0.038 A 
ATOM     62  C18 L9P d   1      67.845  65.559  17.102  0.00  0.00    -0.021 A 
ATOM     63  H6  L9P d   1      69.693  65.586  15.811  0.00  0.00     0.053 H 
ATOM     64  H7  L9P d   1      67.209  64.821  17.613  0.00  0.00     0.038 H 
ATOM     65  H8  L9P d   1      68.234  66.279  17.837  0.00  0.00     0.038 H 
BRANCH  60  66
ATOM     66  C10 L9P d   1      66.334  65.363  15.057  0.00  0.00     0.260 C 
ATOM     67  N11 L9P d   1      65.619  66.146  14.175  0.00  0.00    -0.252 N 
ATOM     68  H51 L9P d   1      65.830  67.103  13.975  0.00  0.00     0.181 HD
ATOM     69  O16 L9P d   1      66.038  64.203  15.325  0.00  0.00    -0.270 OA
BRANCH  67  70
ATOM     70  S12 L9P d   1      64.367  65.304  13.488  0.00  0.00     0.241 S 
ATOM     71  O14 L9P d   1      64.894  64.202  12.686  0.00  0.00    -0.205 OA
ATOM     72  O15 L9P d   1      63.347  64.881  14.452  0.00  0.00    -0.205 OA
BRANCH  70  73
ATOM     73  C13 L9P d   1      63.594  66.466  12.308  0.00  0.00     0.079 A 
ATOM     74  C19 L9P d   1      62.195  66.090  12.000  0.00  0.00    -0.042 A 
ATOM     75  C20 L9P d   1      62.463  67.258  12.900  0.00  0.00    -0.042 A 
ATOM     76  H9  L9P d   1      61.772  65.163  12.415  0.00  0.00     0.035 H 
ATOM     77  H10 L9P d   1      61.792  66.257  10.990  0.00  0.00     0.035 H 
ATOM     78  H11 L9P d   1      62.263  68.282  12.551  0.00  0.00     0.035 H 
ATOM     79  H12 L9P d   1      62.243  67.188  13.976  0.00  0.00     0.035 H 
BRANCH  73  80
ATOM     80  C57 L9P d   1      64.720  66.875  11.348  0.00  0.00    -0.054 C 
ATOM     81  H44 L9P d   1      64.327  67.581  10.601  0.00  0.00     0.029 H 
ATOM     82  H45 L9P d   1      65.110  65.982  10.838  0.00  0.00     0.029 H 
ATOM     83  H46 L9P d   1      65.530  67.356  11.916  0.00  0.00     0.029 H 
ENDBRANCH  73  80
ENDBRANCH  70  73
ENDBRANCH  67  70
ENDBRANCH  60  66
BRANCH  61  84
ATOM     84  C50 L9P d   1      68.817  63.673  15.667  0.00  0.00     0.214 C 
ATOM     85  F46 L9P d   1      69.019  63.535  14.337  0.00  0.00    -0.214 F 
ATOM     86  F51 L9P d   1      69.937  63.189  16.271  0.00  0.00    -0.214 F 
ATOM     87  H30 L9P d   1      67.918  63.133  15.999  0.00  0.00     0.145 H 
ENDBRANCH  61  84
ENDBRANCH  57  60
ENDBRANCH   3  56
BRANCH   4  88
ATOM     88  C52 L9P d   1      67.806  69.397  12.000  0.00  0.00    -0.060 C 
ATOM     89  H31 L9P d   1      67.162  68.552  12.287  0.00  0.00     0.033 H 
ATOM     90  H32 L9P d   1      68.709  69.017  11.500  0.00  0.00     0.033 H 
BRANCH  88  91
ATOM     91  C53 L9P d   1      67.033  70.305  11.016  0.00  0.00    -0.076 C 
ATOM     92  H33 L9P d   1      66.754  69.725  10.124  0.00  0.00     0.027 H 
ATOM     93  H34 L9P d   1      67.671  71.150  10.719  0.00  0.00     0.027 H 
ATOM     94  H35 L9P d   1      66.124  70.686  11.505  0.00  0.00     0.027 H 
ENDBRANCH  88  91
ENDBRANCH   4  88
BRANCH   7  95
ATOM     95  C47 L9P d   1      73.076  67.422  12.833  0.00  0.00    -0.022 C 
BRANCH  95  96
ATOM     96  C55 L9P d   1      72.991  66.077  13.583  0.00  0.00    -0.067 C 
ATOM     97  H38 L9P d   1      73.210  65.254  12.886  0.00  0.00     0.028 H 
ATOM     98  H39 L9P d   1      71.979  65.950  13.994  0.00  0.00     0.028 H 
ATOM     99  H40 L9P d   1      73.724  66.068  14.403  0.00  0.00     0.028 H 
ENDBRANCH  95  96
BRANCH  95 100
ATOM    100  C56 L9P d   1      72.080  67.391  11.650  0.00  0.00    -0.067 C 
ATOM    101  H41 L9P d   1      72.129  68.345  11.104  0.00  0.00     0.028 H 
ATOM    102  H42 L9P d   1      71.060  67.240  12.033  0.00  0.00     0.028 H 
ATOM    103  H43 L9P d   1      72.343  66.566  10.971  0.00  0.00     0.028 H 
ENDBRANCH  95 100
BRANCH  95 104
ATOM    104  C58 L9P d   1      74.501  67.534  12.248  0.00  0.00    -0.067 C 
ATOM    105  H47 L9P d   1      75.233  67.558  13.069  0.00  0.00     0.028 H 
ATOM    106  H48 L9P d   1      74.583  68.457  11.656  0.00  0.00     0.028 H 
ATOM    107  H49 L9P d   1      74.702  66.666  11.603  0.00  0.00     0.028 H 
ENDBRANCH  95 104
ENDBRANCH   7  95
BRANCH  16 108
ATOM    108  O48 L9P d   1      64.575  76.739  11.737  0.00  0.00    -0.356 OA
BRANCH 108 109
ATOM    109  C49 L9P d   1      64.431  76.028  10.508  0.00  0.00     0.010 C 
ATOM    110  H27 L9P d   1      63.692  76.539   9.873  0.00  0.00     0.066 H 
ATOM    111  H28 L9P d   1      64.090  75.003  10.715  0.00  0.00     0.066 H 
ATOM    112  H29 L9P d   1      65.400  75.994   9.988  0.00  0.00     0.066 H 
ENDBRANCH 108 109
ENDBRANCH  16 108
TORSDOF 15
