REMARK  8 active torsions:
REMARK  status: ('A' for Active; 'I' for Inactive)
REMARK    1  A    between atoms: C17_9  and  C18_10 
REMARK    2  A    between atoms: C18_10  and  O5_28 
REMARK    3  A    between atoms: O5_28  and  C19_11 
REMARK    4  A    between atoms: C2_12  and  O1_24 
REMARK    5  A    between atoms: S1_29  and  C3_14 
REMARK    6  A    between atoms: N1_23  and  C4_15 
REMARK    7  A    between atoms: C8_19  and  C9_20 
REMARK    8  A    between atoms: N1_23  and  S1_29 
ROOT
ATOM      1  N1  LBG d   1     128.427 155.753 186.114  0.00  0.00    -0.277 N 
ATOM      2  H13 LBG d   1     128.714 155.673 187.069  0.00  0.00     0.179 HD
ENDROOT
BRANCH   1   3
ATOM      3  C4  LBG d   1     129.232 156.460 185.174  0.00  0.00     0.082 A 
ATOM      4  C15 LBG d   1     128.716 157.341 184.263  0.00  0.00    -0.040 A 
ATOM      5  C8  LBG d   1     129.565 157.987 183.397  0.00  0.00     0.015 A 
ATOM      6  H6  LBG d   1     127.649 157.527 184.225  0.00  0.00     0.088 H 
ATOM      7  C7  LBG d   1     130.910 157.743 183.467  0.00  0.00     0.130 A 
ATOM      8  C6  LBG d   1     131.445 156.893 184.387  0.00  0.00    -0.005 A 
ATOM      9  F2  LBG d   1     131.749 158.371 182.639  0.00  0.00    -0.205 F 
ATOM     10  C5  LBG d   1     130.582 156.260 185.231  0.00  0.00     0.146 A 
ATOM     11  H12 LBG d   1     132.514 156.727 184.446  0.00  0.00     0.093 H 
ATOM     12  F1  LBG d   1     131.090 155.414 186.131  0.00  0.00    -0.204 F 
BRANCH   5  13
ATOM     13  C9  LBG d   1     129.066 158.894 182.411  0.00  0.00    -0.023 A 
ATOM     14  C10 LBG d   1     128.606 160.135 182.765  0.00  0.00    -0.072 A 
ATOM     15  C11 LBG d   1     128.128 160.995 181.811  0.00  0.00    -0.082 A 
ATOM     16  H1  LBG d   1     128.620 160.438 183.806  0.00  0.00     0.084 H 
ATOM     17  C12 LBG d   1     128.107 160.603 180.498  0.00  0.00    -0.083 A 
ATOM     18  H2  LBG d   1     127.769 161.978 182.093  0.00  0.00     0.083 H 
ATOM     19  C13 LBG d   1     128.551 159.356 180.138  0.00  0.00    -0.082 A 
ATOM     20  H3  LBG d   1     127.737 161.283 179.739  0.00  0.00     0.083 H 
ATOM     21  C14 LBG d   1     129.033 158.506 181.098  0.00  0.00    -0.072 A 
ATOM     22  H4  LBG d   1     128.521 159.045 179.100  0.00  0.00     0.083 H 
ATOM     23  H5  LBG d   1     129.390 157.522 180.817  0.00  0.00     0.084 H 
ENDBRANCH   5  13
ENDBRANCH   1   3
BRANCH   1  24
ATOM     24  S1  LBG d   1     126.962 155.042 185.586  0.00  0.00     0.266 S 
ATOM     25  O2  LBG d   1     126.007 156.057 185.196  0.00  0.00    -0.200 OA
ATOM     26  O3  LBG d   1     126.600 154.000 186.523  0.00  0.00    -0.200 OA
BRANCH  24  27
ATOM     27  C3  LBG d   1     127.413 154.172 184.125  0.00  0.00     0.115 A 
ATOM     28  C16 LBG d   1     127.036 154.621 182.890  0.00  0.00    -0.042 A 
ATOM     29  C17 LBG d   1     127.443 153.856 181.826  0.00  0.00     0.042 A 
ATOM     30  H7  LBG d   1     126.452 155.525 182.759  0.00  0.00     0.087 H 
ATOM     31  C20 LBG d   1     128.170 152.699 181.946  0.00  0.00    -0.043 A 
ATOM     32  C1  LBG d   1     128.511 152.279 183.203  0.00  0.00     0.069 A 
ATOM     33  H11 LBG d   1     128.466 152.133 181.070  0.00  0.00     0.087 H 
ATOM     34  C2  LBG d   1     128.124 153.022 184.277  0.00  0.00     0.110 A 
ATOM     35 CL1  LBG d   1     129.418 150.846 183.458  0.00  0.00    -0.081 Cl
BRANCH  29  36
ATOM     36  C18 LBG d   1     127.091 154.271 180.481  0.00  0.00     0.293 C 
ATOM     37  O4  LBG d   1     127.434 153.674 179.474  0.00  0.00    -0.259 OA
BRANCH  36  38
ATOM     38  O5  LBG d   1     126.312 155.373 180.563  0.00  0.00    -0.323 OA
BRANCH  38  39
ATOM     39  C19 LBG d   1     125.569 155.490 179.360  0.00  0.00     0.013 C 
ATOM     40  H8  LBG d   1     124.929 156.383 179.410  0.00  0.00     0.067 H 
ATOM     41  H9  LBG d   1     124.942 154.596 179.228  0.00  0.00     0.067 H 
ATOM     42  H10 LBG d   1     126.260 155.582 178.509  0.00  0.00     0.067 H 
ENDBRANCH  38  39
ENDBRANCH  36  38
ENDBRANCH  29  36
BRANCH  34  43
ATOM     43  O1  LBG d   1     128.466 152.603 185.532  0.00  0.00    -0.357 OA
ATOM     44  H14 LBG d   1     127.678 152.461 186.043  0.00  0.00     0.217 HD
ENDBRANCH  34  43
ENDBRANCH  24  27
ENDBRANCH   1  24
TORSDOF 8
