REMARK  10 active torsions:
REMARK  status: ('A' for Active; 'I' for Inactive)
REMARK    1  A    between atoms: C02_2  and  C01_1 
REMARK    2  A    between atoms: C04_3  and  N05_4 
REMARK    3  A    between atoms: C07_5  and  C08_22 
REMARK    4  A    between atoms: C10_7  and  C09_6 
REMARK    5  A    between atoms: N11_23  and  C10_7 
REMARK    6  A    between atoms: C14_9  and  C12_8 
REMARK       I    between atoms: C12_8  and  N11_23 
REMARK    7  A    between atoms: C19_12  and  C18_11 
REMARK    8  A    between atoms: C18_11  and  N17_26 
REMARK    9  A    between atoms: C23_15  and  C22_14 
REMARK   10  A    between atoms: N24_28  and  C23_15 
ROOT
ATOM      1  C14 MOL d   1     -48.851  19.945  31.318  0.00  0.00     0.068 A 
ATOM      2  C15 MOL d   1     -48.860  21.253  30.888  0.00  0.00     0.038 A 
ATOM      3  C31 MOL d   1     -49.785  19.244  30.535  0.00  0.00     0.015 A 
ATOM      4  N16 MOL d   1     -49.765  21.348  29.904  0.00  0.00    -0.184 NA
ATOM      5  N17 MOL d   1     -50.307  20.104  29.693  0.00  0.00    -0.276 N 
ATOM      6  H8  MOL d   1     -48.244  22.063  31.277  0.00  0.00     0.119 H 
ATOM      7  H17 MOL d   1     -50.029  18.186  30.613  0.00  0.00     0.115 H 
ENDROOT
BRANCH   1   8
ATOM      8  C12 MOL d   1     -47.954  19.353  32.449  0.00  0.00     0.254 C 
ATOM      9  N11 MOL d   1     -48.327  18.182  33.073  0.00  0.00    -0.352 N 
ATOM     10  H22 MOL d   1     -49.172  17.713  32.817  0.00  0.00     0.163 HD
ATOM     11  O13 MOL d   1     -46.882  19.933  32.792  0.00  0.00    -0.268 OA
BRANCH   9  12
ATOM     12  C10 MOL d   1     -47.467  17.647  34.107  0.00  0.00     0.022 C 
ATOM     13  H6  MOL d   1     -46.819  16.876  33.663  0.00  0.00     0.071 H 
ATOM     14  H7  MOL d   1     -46.846  18.462  34.507  0.00  0.00     0.071 H 
BRANCH  12  15
ATOM     15  C09 MOL d   1     -48.286  16.998  35.302  0.00  0.00    -0.010 A 
ATOM     16  C02 MOL d   1     -48.633  17.725  36.399  0.00  0.00    -0.049 A 
ATOM     17  C03 MOL d   1     -49.369  17.081  37.454  0.00  0.00    -0.033 A 
ATOM     18  C04 MOL d   1     -49.715  15.726  37.329  0.00  0.00     0.121 A 
ATOM     19  H18 MOL d   1     -49.654  17.638  38.339  0.00  0.00     0.090 H 
ATOM     20  N06 MOL d   1     -49.371  15.053  36.262  0.00  0.00    -0.236 NA
ATOM     21  C07 MOL d   1     -48.661  15.633  35.234  0.00  0.00     0.041 A 
BRANCH  16  22
ATOM     22  C01 MOL d   1     -48.279  19.213  36.576  0.00  0.00    -0.050 C 
ATOM     23  H1  MOL d   1     -48.669  19.570  37.541  0.00  0.00     0.033 H 
ATOM     24  H2  MOL d   1     -48.730  19.797  35.760  0.00  0.00     0.033 H 
ATOM     25  H3  MOL d   1     -47.186  19.335  36.554  0.00  0.00     0.033 H 
ENDBRANCH  16  22
BRANCH  18  26
ATOM     26  N05 MOL d   1     -50.475  15.030  38.398  0.00  0.00    -0.384 N 
ATOM     27  H4  MOL d   1     -50.756  15.541  39.247  0.00  0.00     0.157 HD
ATOM     28  H5  MOL d   1     -50.721  14.036  38.291  0.00  0.00     0.157 HD
ENDBRANCH  18  26
BRANCH  21  29
ATOM     29  C08 MOL d   1     -48.322  14.752  34.047  0.00  0.00    -0.035 C 
ATOM     30  H19 MOL d   1     -48.714  13.739  34.219  0.00  0.00     0.035 H 
ATOM     31  H20 MOL d   1     -47.230  14.707  33.924  0.00  0.00     0.035 H 
ATOM     32  H21 MOL d   1     -48.777  15.171  33.137  0.00  0.00     0.035 H 
ENDBRANCH  21  29
ENDBRANCH  12  15
ENDBRANCH   9  12
ENDBRANCH   1   8
BRANCH   5  33
ATOM     33  C18 MOL d   1     -51.330  19.813  28.715  0.00  0.00     0.040 C 
ATOM     34  H9  MOL d   1     -51.280  20.526  27.879  0.00  0.00     0.074 H 
ATOM     35  H10 MOL d   1     -51.217  18.789  28.330  0.00  0.00     0.074 H 
BRANCH  33  36
ATOM     36  C19 MOL d   1     -52.655  19.962  29.474  0.00  0.00    -0.038 A 
ATOM     37  C20 MOL d   1     -53.630  18.877  29.511  0.00  0.00    -0.075 A 
ATOM     38  C21 MOL d   1     -54.789  19.040  30.196  0.00  0.00    -0.075 A 
ATOM     39  H11 MOL d   1     -53.429  17.946  28.994  0.00  0.00     0.084 H 
ATOM     40  C22 MOL d   1     -55.038  20.273  30.897  0.00  0.00    -0.038 A 
ATOM     41  H23 MOL d   1     -55.526  18.245  30.216  0.00  0.00     0.084 H 
ATOM     42  C29 MOL d   1     -54.102  21.289  30.861  0.00  0.00    -0.075 A 
ATOM     43  C30 MOL d   1     -52.894  21.127  30.141  0.00  0.00    -0.075 A 
ATOM     44  H16 MOL d   1     -54.294  22.217  31.388  0.00  0.00     0.084 H 
ATOM     45  H25 MOL d   1     -52.162  21.926  30.120  0.00  0.00     0.084 H 
BRANCH  40  46
ATOM     46  C23 MOL d   1     -56.351  20.463  31.680  0.00  0.00     0.040 C 
ATOM     47  H12 MOL d   1     -56.612  21.531  31.723  0.00  0.00     0.074 H 
ATOM     48  H13 MOL d   1     -56.239  20.072  32.702  0.00  0.00     0.074 H 
BRANCH  46  49
ATOM     49  N24 MOL d   1     -57.407  19.711  30.962  0.00  0.00    -0.277 N 
ATOM     50  C25 MOL d   1     -57.839  18.502  31.278  0.00  0.00     0.000 A 
ATOM     51  C26 MOL d   1     -58.842  18.136  30.331  0.00  0.00    -0.048 A 
ATOM     52  H24 MOL d   1     -57.492  17.894  32.112  0.00  0.00     0.114 H 
ATOM     53  C27 MOL d   1     -58.960  19.194  29.479  0.00  0.00     0.023 A 
ATOM     54  H14 MOL d   1     -59.400  17.201  30.296  0.00  0.00     0.087 H 
ATOM     55  N28 MOL d   1     -58.076  20.157  29.869  0.00  0.00    -0.185 NA
ATOM     56  H15 MOL d   1     -59.642  19.259  28.633  0.00  0.00     0.117 H 
ENDBRANCH  46  49
ENDBRANCH  40  46
ENDBRANCH  33  36
ENDBRANCH   5  33
TORSDOF 10
