REMARK WARNING: 32 MAX_TORS EXCEEDED!!!
REMARK  41 active torsions:
REMARK  status: ('A' for Active; 'I' for Inactive)
REMARK    1  A    between atoms: CA_2  and  N_1 
REMARK    2  A    between atoms: C_3  and  CA_2 
REMARK       I    between atoms: N_5  and  C_3 
REMARK    3  A    between atoms: CA_6  and  N_5 
REMARK    4  A    between atoms: C_7  and  CA_6 
REMARK    5  A    between atoms: CA_6  and  CB_9 
REMARK       I    between atoms: N_16  and  C_7 
REMARK    6  A    between atoms: CB_9  and  CG_10 
REMARK    7  A    between atoms: CA_17  and  N_16 
REMARK    8  A    between atoms: CA_17  and  C_18 
REMARK    9  A    between atoms: CB_20  and  CA_17 
REMARK       I    between atoms: C_18  and  N_22 
REMARK   10  A    between atoms: SG_21  and  CB_20 
REMARK   11  A    between atoms: SG_62  and  SG_21 
REMARK   12  A    between atoms: N_22  and  CA_23 
REMARK   13  A    between atoms: CA_23  and  C_24 
REMARK   14  A    between atoms: CA_23  and  CB_26 
REMARK       I    between atoms: C_24  and  N_31 
REMARK   15  A    between atoms: CB_26  and  CG_27 
REMARK   16  A    between atoms: CG_27  and  CD_28 
REMARK       I    between atoms: CD_28  and  NE2_30 
REMARK   17  A    between atoms: N_31  and  CA_32 
REMARK   18  A    between atoms: CA_32  and  C_33 
REMARK   19  A    between atoms: CA_32  and  CB_35 
REMARK   20  A    between atoms: CB_35  and  CG_36 
REMARK   21  A    between atoms: CG_36  and  CD_37 
REMARK   22  A    between atoms: CD_37  and  NE_38 
REMARK       I    between atoms: NE_38  and  CZ_39 
REMARK       I    between atoms: CZ_39  and  NH1_40 
REMARK       I    between atoms: CZ_39  and  NH2_41 
REMARK   23  A    between atoms: C_44  and  CA_43 
REMARK       I    between atoms: N_49  and  C_44 
REMARK   24  A    between atoms: CA_50  and  N_49 
REMARK   25  A    between atoms: C_51  and  CA_50 
REMARK   26  A    between atoms: CA_50  and  CB_53 
REMARK       I    between atoms: N_57  and  C_51 
REMARK   27  A    between atoms: CB_53  and  CG1_54 
REMARK   28  A    between atoms: CB_53  and  CG2_55 
REMARK   29  A    between atoms: CG1_54  and  CD1_56 
REMARK   30  A    between atoms: CA_58  and  N_57 
REMARK   31  A    between atoms: CA_58  and  C_59 
REMARK   32  A    between atoms: CB_61  and  CA_58 
REMARK       I    between atoms: C_59  and  N_63 
REMARK   33  A    between atoms: CB_61  and  SG_62 
REMARK   34  A    between atoms: N_63  and  CA_64 
REMARK   35  A    between atoms: CA_64  and  C_65 
REMARK   36  A    between atoms: CA_64  and  CB_67 
REMARK       I    between atoms: C_65  and  N_74 
REMARK   37  A    between atoms: CB_67  and  CG_68 
REMARK   38  A    between atoms: CA_75  and  C_76 
REMARK       I    between atoms: C_76  and  N_81 
REMARK   39  A    between atoms: N_81  and  CA_82 
REMARK   40  A    between atoms: CA_82  and  C_83 
REMARK   41  A    between atoms: CA_82  and  CB_85 
ROOT
ATOM      1  CA  GLY d   1     -20.997  21.843 -10.394  0.00  0.00     0.098 C 
ATOM      2  H61 GLY d   1     -20.633  20.975 -10.963  0.00  0.00     0.088 H 
ENDROOT
BRANCH   1   3
ATOM      3  N   GLY d   1     -20.132  22.047  -9.244  0.00  0.00    -0.345 N 
ATOM      4  C   GLY d   1     -19.090  21.267  -8.993  0.00  0.00     0.241 C 
ATOM      5  O   GLY d   1     -18.830  20.255  -9.661  0.00  0.00    -0.271 OA
ATOM      6  H60 GLY d   1     -20.330  22.803  -8.620  0.00  0.00     0.163 HD
BRANCH   4   7
ATOM      7  CA  GLY d   1     -18.190  21.712  -7.855  0.00  0.00     0.092 C 
ATOM      8  H50 GLY d   1     -18.732  22.438  -7.230  0.00  0.00     0.088 H 
BRANCH   7   9
ATOM      9  N   GLY d   1     -17.830  20.557  -7.044  0.00  0.00    -0.346 N 
ATOM     10  C   GLY d   1     -18.548  20.123  -6.025  0.00  0.00     0.249 C 
ATOM     11  O   GLY d   1     -19.610  20.635  -5.662  0.00  0.00    -0.271 OA
ATOM     12  H49 GLY d   1     -16.990  20.064  -7.272  0.00  0.00     0.163 HD
BRANCH  10  13
ATOM     13  CA  GLY d   1     -17.988  18.910  -5.310  0.00  0.00     0.178 C 
ATOM     14  N   GLY d   1     -18.103  18.989  -3.850  0.00  0.00    -0.062 N 
ATOM     15  CD  GLY d   1     -18.784  17.812  -3.291  0.00  0.00     0.083 C 
ATOM     16  H40 GLY d   1     -18.628  19.815  -3.608  0.00  0.00     0.278 HD
ATOM     17  H41 GLY d   1     -17.179  19.050  -3.453  0.00  0.00     0.278 HD
ATOM     18  CG  GLY d   1     -18.817  16.857  -4.448  0.00  0.00    -0.040 C 
ATOM     19  H47 GLY d   1     -19.802  18.065  -2.959  0.00  0.00     0.075 H 
ATOM     20  H48 GLY d   1     -18.217  17.391  -2.448  0.00  0.00     0.075 H 
ATOM     21  CB  GLY d   1     -18.835  17.685  -5.664  0.00  0.00    -0.028 C 
ATOM     22  H45 GLY d   1     -17.924  16.215  -4.438  0.00  0.00     0.035 H 
ATOM     23  H46 GLY d   1     -19.720  16.231  -4.400  0.00  0.00     0.035 H 
ATOM     24  H43 GLY d   1     -18.394  17.140  -6.511  0.00  0.00     0.036 H 
ATOM     25  H44 GLY d   1     -19.863  17.983  -5.915  0.00  0.00     0.036 H 
ATOM     26  H42 GLY d   1     -16.938  18.768  -5.604  0.00  0.00     0.099 H 
ENDBRANCH  10  13
ENDBRANCH   7   9
BRANCH   7  27
ATOM     27  CB  GLY d   1     -16.919  22.379  -8.410  0.00  0.00    -0.030 C 
ATOM     28  H51 GLY d   1     -16.338  21.619  -8.953  0.00  0.00     0.043 H 
BRANCH  27  29
ATOM     29  CG1 GLY d   1     -16.056  22.905  -7.264  0.00  0.00    -0.063 C 
ATOM     30  H52 GLY d   1     -16.098  22.181  -6.437  0.00  0.00     0.033 H 
ATOM     31  H53 GLY d   1     -16.470  23.868  -6.930  0.00  0.00     0.033 H 
BRANCH  29  32
ATOM     32  CD1 GLY d   1     -14.618  23.112  -7.642  0.00  0.00    -0.076 C 
ATOM     33  H57 GLY d   1     -14.061  23.490  -6.772  0.00  0.00     0.027 H 
ATOM     34  H58 GLY d   1     -14.556  23.842  -8.462  0.00  0.00     0.027 H 
ATOM     35  H59 GLY d   1     -14.183  22.156  -7.969  0.00  0.00     0.027 H 
ENDBRANCH  29  32
ENDBRANCH  27  29
BRANCH  27  36
ATOM     36  CG2 GLY d   1     -17.284  23.477  -9.388  0.00  0.00    -0.071 C 
ATOM     37  H54 GLY d   1     -17.903  23.058 -10.195  0.00  0.00     0.028 H 
ATOM     38  H55 GLY d   1     -16.366  23.907  -9.816  0.00  0.00     0.028 H 
ATOM     39  H56 GLY d   1     -17.848  24.263  -8.864  0.00  0.00     0.028 H 
ENDBRANCH  27  36
ENDBRANCH   7  27
ENDBRANCH   4   7
ENDBRANCH   1   3
BRANCH   1  40
ATOM     40  C   GLY d   1     -20.954  23.078 -11.277  0.00  0.00     0.242 C 
ATOM     41  O   GLY d   1     -20.869  24.203 -10.781  0.00  0.00    -0.271 OA
ATOM     42  N   GLY d   1     -20.995  22.856 -12.590  0.00  0.00    -0.346 N 
ATOM     43  H64 GLY d   1     -20.905  21.919 -12.926  0.00  0.00     0.163 HD
BRANCH  42  44
ATOM     44  CA  GLY d   1     -21.167  23.934 -13.548  0.00  0.00     0.093 C 
ATOM     45  H65 GLY d   1     -20.953  24.895 -13.057  0.00  0.00     0.088 H 
BRANCH  44  46
ATOM     46  C   GLY d   1     -22.601  23.921 -14.033  0.00  0.00     0.243 C 
ATOM     47  O   GLY d   1     -23.061  22.878 -14.534  0.00  0.00    -0.271 OA
ATOM     48  N   GLY d   1     -23.337  25.034 -13.882  0.00  0.00    -0.337 N 
ATOM     49  CA  GLY d   1     -24.756  25.049 -14.274  0.00  0.00     0.091 C 
ATOM     50  CD  GLY d   1     -22.976  26.207 -13.061  0.00  0.00    -0.001 C 
ATOM     51  CB  GLY d   1     -25.199  26.480 -13.933  0.00  0.00    -0.036 C 
ATOM     52  H73 GLY d   1     -25.312  24.320 -13.667  0.00  0.00     0.087 H 
ATOM     53  CG  GLY d   1     -24.267  26.944 -12.887  0.00  0.00    -0.048 C 
ATOM     54  H74 GLY d   1     -26.232  26.483 -13.556  0.00  0.00     0.036 H 
ATOM     55  H75 GLY d   1     -25.131  27.125 -14.821  0.00  0.00     0.036 H 
ATOM     56  H76 GLY d   1     -24.687  26.733 -11.892  0.00  0.00     0.035 H 
ATOM     57  H77 GLY d   1     -24.097  28.026 -12.991  0.00  0.00     0.035 H 
ATOM     58  H78 GLY d   1     -22.236  26.834 -13.580  0.00  0.00     0.064 H 
ATOM     59  H79 GLY d   1     -22.572  25.892 -12.087  0.00  0.00     0.064 H 
BRANCH  49  60
ATOM     60  C   GLY d   1     -25.022  24.746 -15.736  0.00  0.00     0.241 C 
ATOM     61  O   GLY d   1     -26.041  24.119 -16.051  0.00  0.00    -0.271 OA
ATOM     62  N   GLY d   1     -24.166  25.201 -16.643  0.00  0.00    -0.345 N 
ATOM     63  H80 GLY d   1     -23.293  25.590 -16.349  0.00  0.00     0.163 HD
BRANCH  62  64
ATOM     64  CA  GLY d   1     -24.489  25.139 -18.066  0.00  0.00     0.093 C 
ATOM     65  H81 GLY d   1     -23.675  25.613 -18.634  0.00  0.00     0.089 H 
BRANCH  64  66
ATOM     66  C   GLY d   1     -25.784  25.896 -18.337  0.00  0.00     0.196 C 
ATOM     67  O   GLY d   1     -25.932  27.050 -17.933  0.00  0.00    -0.646 OA
ATOM     68  OXT GLY d   1     -26.701  25.365 -18.964  0.00  0.00    -0.646 OA
ENDBRANCH  64  66
BRANCH  64  69
ATOM     69  CB  GLY d   1     -24.625  23.686 -18.522  0.00  0.00    -0.048 C 
ATOM     70  H82 GLY d   1     -24.868  23.660 -19.595  0.00  0.00     0.030 H 
ATOM     71  H83 GLY d   1     -25.428  23.196 -17.952  0.00  0.00     0.030 H 
ATOM     72  H84 GLY d   1     -23.677  23.157 -18.348  0.00  0.00     0.030 H 
ENDBRANCH  64  69
ENDBRANCH  62  64
ENDBRANCH  49  60
ENDBRANCH  44  46
BRANCH  44  73
ATOM     73  CB  GLY d   1     -20.225  23.758 -14.729  0.00  0.00    -0.014 C 
ATOM     74  H66 GLY d   1     -20.302  22.720 -15.084  0.00  0.00     0.043 H 
ATOM     75  H67 GLY d   1     -19.198  23.953 -14.387  0.00  0.00     0.043 H 
BRANCH  73  76
ATOM     76  CG  GLY d   1     -20.525  24.674 -15.874  0.00  0.00    -0.056 A 
ATOM     77  CD1 GLY d   1     -20.310  26.039 -15.767  0.00  0.00    -0.077 A 
ATOM     78  CE1 GLY d   1     -20.595  26.880 -16.818  0.00  0.00    -0.082 A 
ATOM     79  H68 GLY d   1     -19.913  26.448 -14.845  0.00  0.00     0.084 H 
ATOM     80  CZ  GLY d   1     -21.093  26.369 -17.991  0.00  0.00    -0.083 A 
ATOM     81  H70 GLY d   1     -20.426  27.946 -16.720  0.00  0.00     0.083 H 
ATOM     82  CE2 GLY d   1     -21.309  25.016 -18.112  0.00  0.00    -0.082 A 
ATOM     83  H72 GLY d   1     -21.316  27.031 -18.820  0.00  0.00     0.083 H 
ATOM     84  CD2 GLY d   1     -21.029  24.176 -17.059  0.00  0.00    -0.077 A 
ATOM     85  H71 GLY d   1     -21.700  24.611 -19.038  0.00  0.00     0.083 H 
ATOM     86  H69 GLY d   1     -21.206  23.111 -17.161  0.00  0.00     0.084 H 
ENDBRANCH  73  76
ENDBRANCH  44  73
ENDBRANCH  42  44
ENDBRANCH   1  40
BRANCH   1  87
ATOM     87  CB  GLY d   1     -22.441  21.587  -9.970  0.00  0.00     0.013 C 
ATOM     88  H62 GLY d   1     -23.053  21.503 -10.880  0.00  0.00     0.053 H 
ATOM     89  H63 GLY d   1     -22.780  22.451  -9.379  0.00  0.00     0.053 H 
BRANCH  87  90
ATOM     90  SG  GLY d   1     -22.702  20.101  -8.985  0.00  0.00    -0.095 SA
BRANCH  90  91
ATOM     91  SG  GLY d   1     -23.200  18.626 -10.323  0.00  0.00    -0.095 SA
BRANCH  91  92
ATOM     92  CB  GLY d   1     -21.760  17.531 -10.407  0.00  0.00     0.013 C 
ATOM     93  H17 GLY d   1     -21.341  17.451  -9.393  0.00  0.00     0.053 H 
ATOM     94  H18 GLY d   1     -22.111  16.542 -10.737  0.00  0.00     0.053 H 
BRANCH  92  95
ATOM     95  CA  GLY d   1     -20.624  17.961 -11.348  0.00  0.00     0.098 C 
ATOM     96  H16 GLY d   1     -20.314  18.984 -11.088  0.00  0.00     0.088 H 
BRANCH  95  97
ATOM     97  N   GLY d   1     -21.068  17.958 -12.737  0.00  0.00    -0.345 N 
ATOM     98  C   GLY d   1     -21.494  19.080 -13.333  0.00  0.00     0.241 C 
ATOM     99  O   GLY d   1     -21.573  20.155 -12.738  0.00  0.00    -0.271 OA
ATOM    100  H15 GLY d   1     -21.054  17.102 -13.255  0.00  0.00     0.163 HD
BRANCH  98 101
ATOM    101  CA  GLY d   1     -21.841  19.000 -14.814  0.00  0.00     0.093 C 
ATOM    102  H7  GLY d   1     -22.184  17.991 -15.089  0.00  0.00     0.088 H 
BRANCH 101 103
ATOM    103  N   GLY d   1     -22.896  19.962 -15.079  0.00  0.00    -0.346 N 
ATOM    104  C   GLY d   1     -24.114  19.617 -15.486  0.00  0.00     0.243 C 
ATOM    105  O   GLY d   1     -24.455  18.457 -15.710  0.00  0.00    -0.272 OA
ATOM    106  H6  GLY d   1     -22.696  20.933 -14.949  0.00  0.00     0.163 HD
BRANCH 104 107
ATOM    107  CA  GLY d   1     -25.093  20.759 -15.676  0.00  0.00     0.152 C 
ATOM    108  H4  GLY d   1     -25.296  21.217 -14.697  0.00  0.00     0.090 H 
ATOM    109  H5  GLY d   1     -24.639  21.506 -16.343  0.00  0.00     0.090 H 
BRANCH 107 110
ATOM    110  N   GLY d   1     -26.385  20.306 -16.271  0.00  0.00    -0.071 N 
ATOM    111  H1  GLY d   1     -27.001  21.097 -16.378  0.00  0.00     0.274 HD
ATOM    112  H2  GLY d   1     -26.814  19.625 -15.664  0.00  0.00     0.274 HD
ATOM    113  H3  GLY d   1     -26.212  19.890 -17.173  0.00  0.00     0.274 HD
ENDBRANCH 107 110
ENDBRANCH 104 107
ENDBRANCH 101 103
BRANCH 101 114
ATOM    114  CB  GLY d   1     -20.525  19.334 -15.549  0.00  0.00    -0.014 C 
ATOM    115  H8  GLY d   1     -19.915  18.419 -15.587  0.00  0.00     0.043 H 
ATOM    116  H9  GLY d   1     -19.996  20.103 -14.967  0.00  0.00     0.043 H 
BRANCH 114 117
ATOM    117  CG  GLY d   1     -20.685  19.845 -16.957  0.00  0.00    -0.056 A 
ATOM    118  CD1 GLY d   1     -21.773  19.514 -17.744  0.00  0.00    -0.077 A 
ATOM    119  CE1 GLY d   1     -21.885  20.001 -19.027  0.00  0.00    -0.082 A 
ATOM    120  H10 GLY d   1     -22.545  18.865 -17.347  0.00  0.00     0.084 H 
ATOM    121  CZ  GLY d   1     -20.898  20.809 -19.535  0.00  0.00    -0.083 A 
ATOM    122  H12 GLY d   1     -22.748  19.748 -19.633  0.00  0.00     0.083 H 
ATOM    123  CE2 GLY d   1     -19.812  21.141 -18.760  0.00  0.00    -0.082 A 
ATOM    124  H14 GLY d   1     -20.975  21.186 -20.549  0.00  0.00     0.083 H 
ATOM    125  CD2 GLY d   1     -19.704  20.666 -17.494  0.00  0.00    -0.077 A 
ATOM    126  H13 GLY d   1     -19.039  21.785 -19.162  0.00  0.00     0.083 H 
ATOM    127  H11 GLY d   1     -18.841  20.931 -16.895  0.00  0.00     0.084 H 
ENDBRANCH 114 117
ENDBRANCH 101 114
ENDBRANCH  98 101
ENDBRANCH  95  97
BRANCH  95 128
ATOM    128  C   GLY d   1     -19.442  17.020 -11.133  0.00  0.00     0.241 C 
ATOM    129  O   GLY d   1     -19.384  15.930 -11.710  0.00  0.00    -0.271 OA
ATOM    130  N   GLY d   1     -18.505  17.447 -10.282  0.00  0.00    -0.346 N 
ATOM    131  H19 GLY d   1     -18.533  18.392  -9.955  0.00  0.00     0.163 HD
BRANCH 130 132
ATOM    132  CA  GLY d   1     -17.444  16.562  -9.822  0.00  0.00     0.090 C 
ATOM    133  H20 GLY d   1     -16.886  16.186 -10.692  0.00  0.00     0.087 H 
BRANCH 132 134
ATOM    134  C   GLY d   1     -18.064  15.382  -9.087  0.00  0.00     0.241 C 
ATOM    135  O   GLY d   1     -19.113  15.506  -8.453  0.00  0.00    -0.271 OA
ATOM    136  N   GLY d   1     -17.427  14.221  -9.206  0.00  0.00    -0.345 N 
ATOM    137  H27 GLY d   1     -16.541  14.192  -9.669  0.00  0.00     0.163 HD
BRANCH 136 138
ATOM    138  CA  GLY d   1     -18.001  12.984  -8.671  0.00  0.00     0.096 C 
ATOM    139  H28 GLY d   1     -19.051  13.201  -8.424  0.00  0.00     0.089 H 
BRANCH 138 140
ATOM    140  C   GLY d   1     -17.351  12.501  -7.359  0.00  0.00     0.196 C 
ATOM    141  O   GLY d   1     -17.338  11.299  -7.015  0.00  0.00    -0.646 OA
ATOM    142  O1  GLY d   1     -16.811  13.352  -6.603  0.00  0.00    -0.646 OA
ENDBRANCH 138 140
BRANCH 138 143
ATOM    143  CB  GLY d   1     -18.013  11.923  -9.782  0.00  0.00    -0.035 C 
ATOM    144  H29 GLY d   1     -18.225  10.936  -9.345  0.00  0.00     0.036 H 
ATOM    145  H30 GLY d   1     -17.032  11.901 -10.278  0.00  0.00     0.036 H 
BRANCH 143 146
ATOM    146  CG  GLY d   1     -19.096  12.271 -10.807  0.00  0.00    -0.047 C 
ATOM    147  H31 GLY d   1     -18.957  13.322 -11.101  0.00  0.00     0.035 H 
ATOM    148  H32 GLY d   1     -20.074  12.153 -10.318  0.00  0.00     0.035 H 
BRANCH 146 149
ATOM    149  CD  GLY d   1     -19.104  11.428 -12.076  0.00  0.00     0.009 C 
ATOM    150  H33 GLY d   1     -19.140  10.362 -11.809  0.00  0.00     0.064 H 
ATOM    151  H34 GLY d   1     -18.192  11.630 -12.657  0.00  0.00     0.064 H 
BRANCH 149 152
ATOM    152  NE  GLY d   1     -20.277  11.770 -12.874  0.00  0.00    -0.227 N 
ATOM    153  CZ  GLY d   1     -20.570  11.260 -14.064  0.00  0.00     0.665 C 
ATOM    154  NH1 GLY d   1     -19.764  10.367 -14.623  0.00  0.00    -0.235 N 
ATOM    155  NH2 GLY d   1     -21.667  11.675 -14.692  0.00  0.00    -0.235 N 
ATOM    156  H36 GLY d   1     -19.994   9.973 -15.546  0.00  0.00     0.174 HD
ATOM    157  H37 GLY d   1     -18.909  10.068 -14.134  0.00  0.00     0.174 HD
ATOM    158  H38 GLY d   1     -22.284  12.369 -14.246  0.00  0.00     0.174 HD
ATOM    159  H39 GLY d   1     -21.899  11.302 -15.624  0.00  0.00     0.174 HD
ATOM    160  H35 GLY d   1     -20.930  12.463 -12.482  0.00  0.00     0.177 HD
ENDBRANCH 149 152
ENDBRANCH 146 149
ENDBRANCH 143 146
ENDBRANCH 138 143
ENDBRANCH 136 138
ENDBRANCH 132 134
BRANCH 132 161
ATOM    161  CB  GLY d   1     -16.481  17.330  -8.914  0.00  0.00    -0.030 C 
ATOM    162  H21 GLY d   1     -15.759  16.620  -8.485  0.00  0.00     0.037 H 
ATOM    163  H22 GLY d   1     -17.059  17.799  -8.104  0.00  0.00     0.037 H 
BRANCH 161 164
ATOM    164  CG  GLY d   1     -15.718  18.411  -9.657  0.00  0.00     0.011 C 
ATOM    165  H23 GLY d   1     -16.443  19.079 -10.144  0.00  0.00     0.047 H 
ATOM    166  H24 GLY d   1     -15.089  17.933 -10.422  0.00  0.00     0.047 H 
BRANCH 164 167
ATOM    167  CD  GLY d   1     -14.837  19.234  -8.759  0.00  0.00     0.215 C 
ATOM    168  OE1 GLY d   1     -15.196  19.531  -7.612  0.00  0.00    -0.274 OA
ATOM    169  NE2 GLY d   1     -13.665  19.626  -9.271  0.00  0.00    -0.370 N 
ATOM    170  H25 GLY d   1     -13.037  20.176  -8.720  0.00  0.00     0.159 HD
ATOM    171  H26 GLY d   1     -13.416  19.369 -10.205  0.00  0.00     0.159 HD
ENDBRANCH 164 167
ENDBRANCH 161 164
ENDBRANCH 132 161
ENDBRANCH 130 132
ENDBRANCH  95 128
ENDBRANCH  92  95
ENDBRANCH  91  92
ENDBRANCH  90  91
ENDBRANCH  87  90
ENDBRANCH   1  87
TORSDOF 41
