REMARK  11 active torsions:
REMARK  status: ('A' for Active; 'I' for Inactive)
REMARK    1  A    between atoms: C14_11  and  C12_12 
REMARK       I    between atoms: C12_12  and  N11_14 
REMARK    2  A    between atoms: N11_14  and  C10_15 
REMARK    3  A    between atoms: C08_17  and  O25_18 
REMARK    4  A    between atoms: C07_19  and  C26_20 
REMARK    5  A    between atoms: C26_20  and  C28_21 
REMARK    6  A    between atoms: C26_20  and  C29_22 
REMARK    7  A    between atoms: C26_20  and  C27_23 
REMARK    8  A    between atoms: C05_25  and  C02_26 
REMARK    9  A    between atoms: C02_26  and  C03_27 
REMARK   10  A    between atoms: C02_26  and  C04_28 
REMARK   11  A    between atoms: C02_26  and  C01_29 
ROOT
ATOM      1  C10 VX7 d   1     150.664 185.982 170.018  0.00  0.00     0.044 A 
ATOM      2  C09 VX7 d   1     151.429 186.631 169.056  0.00  0.00    -0.024 A 
ATOM      3  C08 VX7 d   1     151.035 187.856 168.540  0.00  0.00     0.074 A 
ATOM      4  C07 VX7 d   1     149.852 188.503 168.977  0.00  0.00    -0.017 A 
ATOM      5  C06 VX7 d   1     149.106 187.826 169.959  0.00  0.00    -0.064 A 
ATOM      6  C05 VX7 d   1     149.462 186.575 170.509  0.00  0.00    -0.023 A 
ATOM      7  H8  VX7 d   1     152.346 186.173 168.704  0.00  0.00     0.091 H 
ATOM      8  H19 VX7 d   1     148.197 188.296 170.317  0.00  0.00     0.085 H 
ENDROOT
BRANCH   1   9
ATOM      9  N11 VX7 d   1     151.093 184.794 170.496  0.00  0.00    -0.326 N 
ATOM     10  C12 VX7 d   1     151.199 183.701 169.671  0.00  0.00     0.238 C 
ATOM     11  O13 VX7 d   1     150.885 183.724 168.479  0.00  0.00    -0.272 OA
ATOM     12  H7  VX7 d   1     151.336 184.709 171.462  0.00  0.00     0.169 HD
BRANCH  10  13
ATOM     13  C14 VX7 d   1     151.603 182.477 170.259  0.00  0.00     0.118 A 
ATOM     14  C23 VX7 d   1     151.698 182.299 171.653  0.00  0.00     0.179 A 
ATOM     15  O24 VX7 d   1     151.455 183.243 172.403  0.00  0.00    -0.291 OA
ATOM     16  C22 VX7 d   1     152.082 181.065 172.193  0.00  0.00     0.040 A 
ATOM     17  C21 VX7 d   1     152.189 180.888 173.582  0.00  0.00    -0.067 A 
ATOM     18  C17 VX7 d   1     152.363 179.987 171.348  0.00  0.00     0.070 A 
ATOM     19  C20 VX7 d   1     152.568 179.657 174.116  0.00  0.00    -0.082 A 
ATOM     20  H1  VX7 d   1     151.975 181.717 174.246  0.00  0.00     0.085 H 
ATOM     21  C19 VX7 d   1     152.845 178.589 173.268  0.00  0.00    -0.081 A 
ATOM     22  H2  VX7 d   1     152.647 179.532 175.190  0.00  0.00     0.083 H 
ATOM     23  C18 VX7 d   1     152.744 178.756 171.885  0.00  0.00    -0.054 A 
ATOM     24  H3  VX7 d   1     153.138 177.630 173.680  0.00  0.00     0.083 H 
ATOM     25  H4  VX7 d   1     152.963 177.925 171.225  0.00  0.00     0.087 H 
ATOM     26  N16 VX7 d   1     152.269 180.134 170.016  0.00  0.00    -0.263 NA
ATOM     27  C15 VX7 d   1     151.885 181.365 169.449  0.00  0.00     0.003 A 
ATOM     28  H5  VX7 d   1     151.806 181.456 168.367  0.00  0.00     0.110 H 
ATOM     29  H6  VX7 d   1     152.653 182.802 170.217  0.00  0.00     0.075 H 
ENDBRANCH  10  13
ENDBRANCH   1   9
BRANCH   6  30
ATOM     30  C02 VX7 d   1     148.624 185.956 171.523  0.00  0.00    -0.022 C 
BRANCH  30  31
ATOM     31  C03 VX7 d   1     147.290 186.693 171.801  0.00  0.00    -0.066 C 
ATOM     32  H20 VX7 d   1     146.728 186.154 172.578  0.00  0.00     0.028 H 
ATOM     33  H21 VX7 d   1     146.694 186.733 170.878  0.00  0.00     0.028 H 
ATOM     34  H22 VX7 d   1     147.501 187.716 172.145  0.00  0.00     0.028 H 
ENDBRANCH  30  31
BRANCH  30  35
ATOM     35  C04 VX7 d   1     148.205 184.529 171.076  0.00  0.00    -0.066 C 
ATOM     36  H23 VX7 d   1     149.104 183.935 170.857  0.00  0.00     0.028 H 
ATOM     37  H24 VX7 d   1     147.581 184.596 170.173  0.00  0.00     0.028 H 
ATOM     38  H25 VX7 d   1     147.633 184.046 171.882  0.00  0.00     0.028 H 
ENDBRANCH  30  35
BRANCH  30  39
ATOM     39  C01 VX7 d   1     149.380 185.927 172.879  0.00  0.00    -0.066 C 
ATOM     40  H26 VX7 d   1     149.661 186.952 173.164  0.00  0.00     0.028 H 
ATOM     41  H27 VX7 d   1     150.287 185.312 172.780  0.00  0.00     0.028 H 
ATOM     42  H28 VX7 d   1     148.728 185.497 173.653  0.00  0.00     0.028 H 
ENDBRANCH  30  39
ENDBRANCH   6  30
BRANCH   3  43
ATOM     43  O25 VX7 d   1     151.834 188.427 167.591  0.00  0.00    -0.360 OA
ATOM     44  H9  VX7 d   1     151.459 189.256 167.320  0.00  0.00     0.217 HD
ENDBRANCH   3  43
BRANCH   4  45
ATOM     45  C26 VX7 d   1     149.431 189.788 168.445  0.00  0.00    -0.021 C 
BRANCH  45  46
ATOM     46  C28 VX7 d   1     150.516 190.855 168.755  0.00  0.00    -0.066 C 
ATOM     47  H10 VX7 d   1     150.198 191.828 168.353  0.00  0.00     0.028 H 
ATOM     48  H11 VX7 d   1     151.467 190.558 168.288  0.00  0.00     0.028 H 
ATOM     49  H12 VX7 d   1     150.651 190.935 169.844  0.00  0.00     0.028 H 
ENDBRANCH  45  46
BRANCH  45  50
ATOM     50  C29 VX7 d   1     148.110 190.338 169.043  0.00  0.00    -0.066 C 
ATOM     51  H13 VX7 d   1     147.296 189.622 168.855  0.00  0.00     0.028 H 
ATOM     52  H14 VX7 d   1     147.867 191.301 168.571  0.00  0.00     0.028 H 
ATOM     53  H15 VX7 d   1     148.230 190.481 170.127  0.00  0.00     0.028 H 
ENDBRANCH  45  50
BRANCH  45  54
ATOM     54  C27 VX7 d   1     149.185 189.665 166.917  0.00  0.00    -0.066 C 
ATOM     55  H16 VX7 d   1     150.092 189.277 166.430  0.00  0.00     0.028 H 
ATOM     56  H17 VX7 d   1     148.942 190.655 166.504  0.00  0.00     0.028 H 
ATOM     57  H18 VX7 d   1     148.347 188.976 166.735  0.00  0.00     0.028 H 
ENDBRANCH  45  54
ENDBRANCH   4  45
TORSDOF 11
