REMARK WARNING: 32 MAX_TORS EXCEEDED!!!
REMARK  54 active torsions:
REMARK  status: ('A' for Active; 'I' for Inactive)
REMARK    1  A    between atoms: N_1  and  CA_2 
REMARK    2  A    between atoms: CA_2  and  C_3 
REMARK    3  A    between atoms: CA_2  and  CB_5 
REMARK       I    between atoms: C_3  and  N_9 
REMARK    4  A    between atoms: CB_5  and  CG_6 
REMARK    5  A    between atoms: N_9  and  CA_10 
REMARK    6  A    between atoms: CA_10  and  C_11 
REMARK    7  A    between atoms: CA_10  and  CB_13 
REMARK       I    between atoms: C_11  and  N_17 
REMARK    8  A    between atoms: CB_13  and  CG_14 
REMARK    9  A    between atoms: N_17  and  CA_18 
REMARK   10  A    between atoms: CA_18  and  C_19 
REMARK   11  A    between atoms: CA_18  and  CB_21 
REMARK       I    between atoms: C_19  and  N_29 
REMARK   12  A    between atoms: CB_21  and  CG_22 
REMARK   13  A    between atoms: CZ_27  and  OH_28 
REMARK   14  A    between atoms: N_29  and  CA_30 
REMARK   15  A    between atoms: CA_30  and  C_31 
REMARK   16  A    between atoms: CA_30  and  CB_33 
REMARK       I    between atoms: C_31  and  N_38 
REMARK   17  A    between atoms: CB_33  and  CG_34 
REMARK   18  A    between atoms: CG_34  and  CD_35 
REMARK   19  A    between atoms: CD_35  and  CE_36 
REMARK   20  A    between atoms: CE_36  and  NZ_37 
REMARK   21  A    between atoms: N_38  and  CA_39 
REMARK   22  A    between atoms: CA_39  and  C_40 
REMARK   23  A    between atoms: CA_39  and  CB_42 
REMARK       I    between atoms: C_40  and  N_46 
REMARK   24  A    between atoms: CB_42  and  CG_43 
REMARK   25  A    between atoms: CG_43  and  CD1_44 
REMARK   26  A    between atoms: CG_43  and  CD2_45 
REMARK   27  A    between atoms: CA_47  and  C_48 
REMARK       I    between atoms: C_48  and  N_53 
REMARK   28  A    between atoms: N_53  and  CA_54 
REMARK   29  A    between atoms: CA_54  and  C_55 
REMARK   30  A    between atoms: CA_54  and  CB_57 
REMARK       I    between atoms: C_55  and  N_61 
REMARK   31  A    between atoms: CB_57  and  CG_58 
REMARK   32  A    between atoms: CG_58  and  SD_59 
REMARK   33  A    between atoms: SD_59  and  CE_60 
REMARK   34  A    between atoms: N_61  and  CA_62 
REMARK   35  A    between atoms: CA_62  and  C_63 
REMARK   36  A    between atoms: CA_62  and  CB_65 
REMARK       I    between atoms: C_63  and  N_70 
REMARK   37  A    between atoms: CB_65  and  CG_66 
REMARK   38  A    between atoms: CG_66  and  CD_67 
REMARK   39  A    between atoms: N_70  and  CA_71 
REMARK   40  A    between atoms: CA_71  and  C_72 
REMARK   41  A    between atoms: CA_71  and  CB_74 
REMARK       I    between atoms: C_72  and  N_82 
REMARK   42  A    between atoms: CB_74  and  CG_75 
REMARK   43  A    between atoms: CZ_80  and  OH_81 
REMARK   44  A    between atoms: N_82  and  CA_83 
REMARK   45  A    between atoms: CA_83  and  C_84 
REMARK   46  A    between atoms: CA_83  and  CB_86 
REMARK       I    between atoms: C_84  and  N_90 
REMARK   47  A    between atoms: CB_86  and  CG1_87 
REMARK   48  A    between atoms: CB_86  and  CG2_88 
REMARK   49  A    between atoms: CG1_87  and  CD1_89 
REMARK   50  A    between atoms: N_90  and  CA_91 
REMARK   51  A    between atoms: CA_91  and  C_92 
REMARK   52  A    between atoms: CA_91  and  CB_94 
REMARK   53  A    between atoms: CB_94  and  OG1_95 
REMARK   54  A    between atoms: CB_94  and  CG2_96 
ROOT
ATOM      1  C   ASP d   1     -29.767  26.137 -30.847  0.00  0.00     0.243 C 
ATOM      2  O   ASP d   1     -30.748  25.451 -31.145  0.00  0.00    -0.271 OA
ATOM      3  N   ASP d   1     -28.545  25.885 -31.370  0.00  0.00    -0.337 N 
ATOM      4  CA  ASP d   1     -28.362  24.859 -32.410  0.00  0.00     0.091 C 
ATOM      5  CB  ASP d   1     -27.057  25.294 -33.095  0.00  0.00    -0.036 C 
ATOM      6  CG  ASP d   1     -26.266  25.924 -31.978  0.00  0.00    -0.048 C 
ATOM      7  CD  ASP d   1     -27.306  26.655 -31.136  0.00  0.00    -0.001 C 
ATOM      8  H44 ASP d   1     -29.199  24.880 -33.123  0.00  0.00     0.087 H 
ATOM      9  H45 ASP d   1     -27.257  26.022 -33.895  0.00  0.00     0.036 H 
ATOM     10  H46 ASP d   1     -26.525  24.427 -33.513  0.00  0.00     0.036 H 
ATOM     11  H47 ASP d   1     -25.524  26.631 -32.378  0.00  0.00     0.035 H 
ATOM     12  H48 ASP d   1     -25.755  25.154 -31.381  0.00  0.00     0.035 H 
ATOM     13  H49 ASP d   1     -27.030  26.641 -30.071  0.00  0.00     0.064 H 
ATOM     14  H50 ASP d   1     -27.421  27.696 -31.471  0.00  0.00     0.064 H 
ENDROOT
BRANCH   4  15
ATOM     15  C   ASP d   1     -28.252  23.460 -31.825  0.00  0.00     0.241 C 
ATOM     16  O   ASP d   1     -27.265  23.116 -31.162  0.00  0.00    -0.271 OA
ATOM     17  N   ASP d   1     -29.245  22.619 -32.129  0.00  0.00    -0.346 N 
ATOM     18  H51 ASP d   1     -29.956  22.913 -32.768  0.00  0.00     0.163 HD
BRANCH  17  19
ATOM     19  CA  ASP d   1     -29.316  21.277 -31.548  0.00  0.00     0.090 C 
ATOM     20  H52 ASP d   1     -29.324  21.376 -30.453  0.00  0.00     0.087 H 
BRANCH  19  21
ATOM     21  C   ASP d   1     -28.113  20.426 -31.933  0.00  0.00     0.241 C 
ATOM     22  O   ASP d   1     -27.647  19.605 -31.130  0.00  0.00    -0.271 OA
ATOM     23  N   ASP d   1     -27.580  20.612 -33.145  0.00  0.00    -0.346 N 
ATOM     24  H60 ASP d   1     -27.968  21.297 -33.761  0.00  0.00     0.163 HD
BRANCH  23  25
ATOM     25  CA  ASP d   1     -26.433  19.817 -33.569  0.00  0.00     0.090 C 
ATOM     26  H61 ASP d   1     -26.717  18.756 -33.502  0.00  0.00     0.087 H 
BRANCH  25  27
ATOM     27  C   ASP d   1     -25.213  20.032 -32.680  0.00  0.00     0.241 C 
ATOM     28  O   ASP d   1     -24.299  19.210 -32.704  0.00  0.00    -0.271 OA
ATOM     29  N   ASP d   1     -25.175  21.109 -31.895  0.00  0.00    -0.346 N 
ATOM     30  H66 ASP d   1     -25.923  21.772 -31.940  0.00  0.00     0.163 HD
BRANCH  29  31
ATOM     31  CA  ASP d   1     -24.072  21.345 -30.973  0.00  0.00     0.093 C 
ATOM     32  H67 ASP d   1     -23.275  20.625 -31.211  0.00  0.00     0.088 H 
BRANCH  31  33
ATOM     33  C   ASP d   1     -24.471  21.128 -29.522  0.00  0.00     0.241 C 
ATOM     34  O   ASP d   1     -23.688  21.433 -28.618  0.00  0.00    -0.271 OA
ATOM     35  N   ASP d   1     -25.655  20.590 -29.275  0.00  0.00    -0.346 N 
ATOM     36  H75 ASP d   1     -26.221  20.303 -30.048  0.00  0.00     0.163 HD
BRANCH  35  37
ATOM     37  CA  ASP d   1     -26.167  20.398 -27.928  0.00  0.00     0.092 C 
ATOM     38  H76 ASP d   1     -25.456  20.861 -27.228  0.00  0.00     0.088 H 
BRANCH  37  39
ATOM     39  C   ASP d   1     -26.274  18.921 -27.575  0.00  0.00     0.241 C 
ATOM     40  O   ASP d   1     -25.741  18.476 -26.556  0.00  0.00    -0.271 OA
ATOM     41  N   ASP d   1     -26.960  18.144 -28.407  0.00  0.00    -0.343 N 
ATOM     42  H86 ASP d   1     -27.188  18.482 -29.320  0.00  0.00     0.163 HD
BRANCH  41  43
ATOM     43  CA  ASP d   1     -27.385  16.808 -28.011  0.00  0.00     0.120 C 
ATOM     44  H87 ASP d   1     -27.628  16.841 -26.939  0.00  0.00     0.093 H 
BRANCH  43  45
ATOM     45  C   ASP d   1     -26.293  15.744 -28.214  0.00  0.00     0.199 C 
ATOM     46  O   ASP d   1     -25.477  15.842 -29.134  0.00  0.00    -0.646 OA
ATOM     47  OXT ASP d   1     -26.210  14.770 -27.461  0.00  0.00    -0.646 OA
ENDBRANCH  43  45
BRANCH  43  48
ATOM     48  CB  ASP d   1     -28.650  16.392 -28.781  0.00  0.00     0.061 C 
ATOM     49  H88 ASP d   1     -29.449  17.120 -28.579  0.00  0.00     0.086 H 
BRANCH  48  50
ATOM     50  OG1 ASP d   1     -29.073  15.093 -28.344  0.00  0.00    -0.393 OA
ATOM     51  H89 ASP d   1     -28.381  14.464 -28.509  0.00  0.00     0.210 HD
ENDBRANCH  48  50
BRANCH  48  52
ATOM     52  CG2 ASP d   1     -28.373  16.359 -30.279  0.00  0.00    -0.050 C 
ATOM     53  H90 ASP d   1     -29.286  16.060 -30.814  0.00  0.00     0.031 H 
ATOM     54  H91 ASP d   1     -27.572  15.635 -30.488  0.00  0.00     0.031 H 
ATOM     55  H92 ASP d   1     -28.061  17.358 -30.616  0.00  0.00     0.031 H 
ENDBRANCH  48  52
ENDBRANCH  43  48
ENDBRANCH  41  43
ENDBRANCH  37  39
BRANCH  37  56
ATOM     56  CB  ASP d   1     -27.530  21.102 -27.757  0.00  0.00    -0.030 C 
ATOM     57  H77 ASP d   1     -28.211  20.744 -28.543  0.00  0.00     0.043 H 
BRANCH  56  58
ATOM     58  CG1 ASP d   1     -27.363  22.614 -27.929  0.00  0.00    -0.063 C 
ATOM     59  H78 ASP d   1     -26.790  22.798 -28.849  0.00  0.00     0.033 H 
ATOM     60  H79 ASP d   1     -26.804  23.003 -27.065  0.00  0.00     0.033 H 
BRANCH  58  61
ATOM     61  CD1 ASP d   1     -28.670  23.357 -28.025  0.00  0.00    -0.076 C 
ATOM     62  H83 ASP d   1     -28.472  24.432 -28.147  0.00  0.00     0.027 H 
ATOM     63  H84 ASP d   1     -29.253  23.193 -27.107  0.00  0.00     0.027 H 
ATOM     64  H85 ASP d   1     -29.239  22.988 -28.892  0.00  0.00     0.027 H 
ENDBRANCH  58  61
ENDBRANCH  56  58
BRANCH  56  65
ATOM     65  CG2 ASP d   1     -28.127  20.732 -26.413  0.00  0.00    -0.071 C 
ATOM     66  H80 ASP d   1     -28.224  19.639 -26.344  0.00  0.00     0.028 H 
ATOM     67  H81 ASP d   1     -29.119  21.195 -26.312  0.00  0.00     0.028 H 
ATOM     68  H82 ASP d   1     -27.470  21.093 -25.608  0.00  0.00     0.028 H 
ENDBRANCH  56  65
ENDBRANCH  37  56
ENDBRANCH  35  37
ENDBRANCH  31  33
BRANCH  31  69
ATOM     69  CB  ASP d   1     -23.515  22.756 -31.173  0.00  0.00    -0.014 C 
ATOM     70  H68 ASP d   1     -22.729  22.936 -30.425  0.00  0.00     0.043 H 
ATOM     71  H69 ASP d   1     -24.329  23.482 -31.030  0.00  0.00     0.043 H 
BRANCH  69  72
ATOM     72  CG  ASP d   1     -22.931  22.948 -32.545  0.00  0.00    -0.056 A 
ATOM     73  CD1 ASP d   1     -21.997  22.045 -33.050  0.00  0.00    -0.074 A 
ATOM     74  CE1 ASP d   1     -21.469  22.205 -34.313  0.00  0.00    -0.051 A 
ATOM     75  H70 ASP d   1     -21.682  21.206 -32.441  0.00  0.00     0.084 H 
ATOM     76  CZ  ASP d   1     -21.871  23.268 -35.092  0.00  0.00     0.065 A 
ATOM     77  H72 ASP d   1     -20.740  21.497 -34.692  0.00  0.00     0.087 H 
ATOM     78  CE2 ASP d   1     -22.802  24.173 -34.620  0.00  0.00    -0.051 A 
ATOM     79  CD2 ASP d   1     -23.332  24.005 -33.353  0.00  0.00    -0.074 A 
ATOM     80  H73 ASP d   1     -23.115  25.008 -35.237  0.00  0.00     0.087 H 
ATOM     81  H71 ASP d   1     -24.071  24.708 -32.985  0.00  0.00     0.084 H 
BRANCH  76  82
ATOM     82  OH  ASP d   1     -21.343  23.434 -36.349  0.00  0.00    -0.361 OA
ATOM     83  H74 ASP d   1     -22.043  23.407 -36.991  0.00  0.00     0.217 HD
ENDBRANCH  76  82
ENDBRANCH  69  72
ENDBRANCH  31  69
ENDBRANCH  29  31
ENDBRANCH  25  27
BRANCH  25  84
ATOM     84  CB  ASP d   1     -26.077  20.127 -35.023  0.00  0.00    -0.029 C 
ATOM     85  H62 ASP d   1     -27.013  20.272 -35.582  0.00  0.00     0.037 H 
ATOM     86  H63 ASP d   1     -25.534  19.264 -35.435  0.00  0.00     0.037 H 
BRANCH  84  87
ATOM     87  CG  ASP d   1     -25.218  21.360 -35.212  0.00  0.00     0.018 C 
ATOM     88  H64 ASP d   1     -24.372  21.313 -34.511  0.00  0.00     0.049 H 
ATOM     89  H65 ASP d   1     -25.825  22.251 -34.995  0.00  0.00     0.049 H 
BRANCH  87  90
ATOM     90  CD  ASP d   1     -24.676  21.471 -36.626  0.00  0.00     0.172 C 
ATOM     91  OE1 ASP d   1     -24.955  22.492 -37.296  0.00  0.00    -0.648 OA
ATOM     92  OE2 ASP d   1     -23.979  20.533 -37.071  0.00  0.00    -0.648 OA
ENDBRANCH  87  90
ENDBRANCH  84  87
ENDBRANCH  25  84
ENDBRANCH  23  25
ENDBRANCH  19  21
BRANCH  19  93
ATOM     93  CB  ASP d   1     -30.622  20.606 -31.984  0.00  0.00    -0.030 C 
ATOM     94  H53 ASP d   1     -30.559  20.404 -33.063  0.00  0.00     0.037 H 
ATOM     95  H54 ASP d   1     -31.448  21.307 -31.790  0.00  0.00     0.037 H 
BRANCH  93  96
ATOM     96  CG  ASP d   1     -30.940  19.284 -31.269  0.00  0.00    -0.021 C 
ATOM     97  H55 ASP d   1     -30.135  18.565 -31.483  0.00  0.00     0.049 H 
ATOM     98  H56 ASP d   1     -31.893  18.894 -31.656  0.00  0.00     0.049 H 
BRANCH  96  99
ATOM     99  SD  ASP d   1     -31.080  19.481 -29.476  0.00  0.00    -0.173 SA
BRANCH  99 100
ATOM    100  CE  ASP d   1     -32.243  20.842 -29.341  0.00  0.00    -0.035 C 
ATOM    101  H57 ASP d   1     -32.420  21.069 -28.279  0.00  0.00     0.041 H 
ATOM    102  H58 ASP d   1     -33.193  20.561 -29.820  0.00  0.00     0.041 H 
ATOM    103  H59 ASP d   1     -31.828  21.730 -29.841  0.00  0.00     0.041 H 
ENDBRANCH  99 100
ENDBRANCH  96  99
ENDBRANCH  93  96
ENDBRANCH  19  93
ENDBRANCH  17  19
ENDBRANCH   4  15
BRANCH   1 104
ATOM    104  CA  ASP d   1     -29.903  27.306 -29.870  0.00  0.00     0.090 C 
ATOM    105  H34 ASP d   1     -29.254  28.125 -30.213  0.00  0.00     0.087 H 
BRANCH 104 106
ATOM    106  N   ASP d   1     -31.275  27.782 -29.827  0.00  0.00    -0.346 N 
ATOM    107  C   ASP d   1     -31.773  28.612 -30.730  0.00  0.00     0.241 C 
ATOM    108  O   ASP d   1     -31.120  29.027 -31.691  0.00  0.00    -0.271 OA
ATOM    109  H33 ASP d   1     -31.868  27.470 -29.084  0.00  0.00     0.163 HD
BRANCH 107 110
ATOM    110  CA  ASP d   1     -33.239  29.001 -30.561  0.00  0.00     0.089 C 
ATOM    111  H21 ASP d   1     -33.655  28.429 -29.718  0.00  0.00     0.087 H 
BRANCH 110 112
ATOM    112  N   ASP d   1     -33.364  30.425 -30.257  0.00  0.00    -0.346 N 
ATOM    113  C   ASP d   1     -33.194  30.881 -29.016  0.00  0.00     0.241 C 
ATOM    114  O   ASP d   1     -32.881  30.154 -28.069  0.00  0.00    -0.271 OA
ATOM    115  H20 ASP d   1     -33.581  31.068 -30.992  0.00  0.00     0.163 HD
BRANCH 113 116
ATOM    116  CA  ASP d   1     -33.387  32.376 -28.795  0.00  0.00     0.093 C 
ATOM    117  H12 ASP d   1     -33.627  32.855 -29.756  0.00  0.00     0.088 H 
BRANCH 116 118
ATOM    118  N   ASP d   1     -34.493  32.576 -27.871  0.00  0.00    -0.346 N 
ATOM    119  C   ASP d   1     -35.730  32.807 -28.290  0.00  0.00     0.241 C 
ATOM    120  O   ASP d   1     -36.010  32.884 -29.489  0.00  0.00    -0.271 OA
ATOM    121  H11 ASP d   1     -34.315  32.538 -26.888  0.00  0.00     0.163 HD
BRANCH 119 122
ATOM    122  CA  ASP d   1     -36.791  32.963 -27.204  0.00  0.00     0.098 C 
ATOM    123  H8  ASP d   1     -36.512  33.821 -26.575  0.00  0.00     0.088 H 
BRANCH 122 124
ATOM    124  N   ASP d   1     -38.076  33.241 -27.818  0.00  0.00    -0.345 N 
ATOM    125  C   ASP d   1     -38.377  34.486 -28.168  0.00  0.00     0.249 C 
ATOM    126  O   ASP d   1     -37.606  35.432 -27.977  0.00  0.00    -0.271 OA
ATOM    127  H7  ASP d   1     -38.730  32.501 -27.976  0.00  0.00     0.163 HD
BRANCH 125 128
ATOM    128  CA  ASP d   1     -39.746  34.697 -28.811  0.00  0.00     0.185 C 
ATOM    129  H4  ASP d   1     -39.750  34.206 -29.795  0.00  0.00     0.100 H 
BRANCH 128 130
ATOM    130  N   ASP d   1     -40.793  34.094 -27.990  0.00  0.00    -0.066 N 
ATOM    131  H1  ASP d   1     -41.689  34.242 -28.427  0.00  0.00     0.275 HD
ATOM    132  H2  ASP d   1     -40.791  34.520 -27.076  0.00  0.00     0.275 HD
ATOM    133  H3  ASP d   1     -40.622  33.105 -27.900  0.00  0.00     0.275 HD
ENDBRANCH 128 130
BRANCH 128 134
ATOM    134  CB  ASP d   1     -40.008  36.195 -29.015  0.00  0.00     0.050 C 
ATOM    135  H5  ASP d   1     -39.844  36.714 -28.059  0.00  0.00     0.052 H 
ATOM    136  H6  ASP d   1     -41.053  36.329 -29.330  0.00  0.00     0.052 H 
BRANCH 134 137
ATOM    137  CG  ASP d   1     -39.097  36.818 -30.070  0.00  0.00     0.175 C 
ATOM    138  OD1 ASP d   1     -38.559  36.082 -30.926  0.00  0.00    -0.648 OA
ATOM    139  OD2 ASP d   1     -38.917  38.053 -30.039  0.00  0.00    -0.648 OA
ENDBRANCH 134 137
ENDBRANCH 128 134
ENDBRANCH 125 128
ENDBRANCH 122 124
BRANCH 122 140
ATOM    140  CB  ASP d   1     -36.887  31.731 -26.304  0.00  0.00     0.043 C 
ATOM    141  H9  ASP d   1     -37.659  31.914 -25.542  0.00  0.00     0.052 H 
ATOM    142  H10 ASP d   1     -35.914  31.580 -25.813  0.00  0.00     0.052 H 
BRANCH 140 143
ATOM    143  CG  ASP d   1     -37.249  30.457 -27.065  0.00  0.00     0.175 C 
ATOM    144  OD1 ASP d   1     -37.290  30.466 -28.314  0.00  0.00    -0.648 OA
ATOM    145  OD2 ASP d   1     -37.503  29.432 -26.398  0.00  0.00    -0.648 OA
ENDBRANCH 140 143
ENDBRANCH 122 140
ENDBRANCH 119 122
ENDBRANCH 116 118
BRANCH 116 146
ATOM    146  CB  ASP d   1     -32.113  32.999 -28.236  0.00  0.00    -0.014 C 
ATOM    147  H13 ASP d   1     -31.909  32.552 -27.252  0.00  0.00     0.043 H 
ATOM    148  H14 ASP d   1     -32.275  34.081 -28.121  0.00  0.00     0.043 H 
BRANCH 146 149
ATOM    149  CG  ASP d   1     -30.907  32.787 -29.116  0.00  0.00    -0.056 A 
ATOM    150  CD1 ASP d   1     -30.875  33.303 -30.408  0.00  0.00    -0.074 A 
ATOM    151  CE1 ASP d   1     -29.760  33.138 -31.222  0.00  0.00    -0.051 A 
ATOM    152  H15 ASP d   1     -31.735  33.843 -30.787  0.00  0.00     0.084 H 
ATOM    153  CZ  ASP d   1     -28.666  32.455 -30.741  0.00  0.00     0.065 A 
ATOM    154  H17 ASP d   1     -29.752  33.544 -32.227  0.00  0.00     0.087 H 
ATOM    155  CE2 ASP d   1     -28.671  31.929 -29.459  0.00  0.00    -0.051 A 
ATOM    156  CD2 ASP d   1     -29.794  32.101 -28.652  0.00  0.00    -0.074 A 
ATOM    157  H18 ASP d   1     -27.808  31.388 -29.087  0.00  0.00     0.087 H 
ATOM    158  H16 ASP d   1     -29.798  31.693 -27.648  0.00  0.00     0.084 H 
BRANCH 153 159
ATOM    159  OH  ASP d   1     -27.571  32.280 -31.558  0.00  0.00    -0.361 OA
ATOM    160  H19 ASP d   1     -27.422  31.351 -31.692  0.00  0.00     0.217 HD
ENDBRANCH 153 159
ENDBRANCH 146 149
ENDBRANCH 116 146
ENDBRANCH 113 116
ENDBRANCH 110 112
BRANCH 110 161
ATOM    161  CB  ASP d   1     -34.029  28.649 -31.820  0.00  0.00    -0.038 C 
ATOM    162  H22 ASP d   1     -33.565  27.765 -32.281  0.00  0.00     0.036 H 
ATOM    163  H23 ASP d   1     -33.967  29.500 -32.514  0.00  0.00     0.036 H 
BRANCH 161 164
ATOM    164  CG  ASP d   1     -35.504  28.341 -31.574  0.00  0.00    -0.061 C 
ATOM    165  H24 ASP d   1     -35.585  27.684 -30.695  0.00  0.00     0.033 H 
ATOM    166  H25 ASP d   1     -35.908  27.824 -32.457  0.00  0.00     0.033 H 
BRANCH 164 167
ATOM    167  CD  ASP d   1     -36.331  29.593 -31.323  0.00  0.00    -0.043 C 
ATOM    168  H26 ASP d   1     -36.249  30.259 -32.194  0.00  0.00     0.035 H 
ATOM    169  H27 ASP d   1     -35.944  30.107 -30.431  0.00  0.00     0.035 H 
BRANCH 167 170
ATOM    170  CE  ASP d   1     -37.797  29.240 -31.100  0.00  0.00     0.080 C 
ATOM    171  H28 ASP d   1     -38.381  30.170 -31.035  0.00  0.00     0.075 H 
ATOM    172  H29 ASP d   1     -37.890  28.682 -30.157  0.00  0.00     0.075 H 
BRANCH 170 173
ATOM    173  NZ  ASP d   1     -38.337  28.409 -32.206  0.00  0.00    -0.079 N 
ATOM    174  H30 ASP d   1     -39.305  28.196 -32.024  0.00  0.00     0.274 HD
ATOM    175  H31 ASP d   1     -37.811  27.552 -32.270  0.00  0.00     0.274 HD
ATOM    176  H32 ASP d   1     -38.261  28.915 -33.074  0.00  0.00     0.274 HD
ENDBRANCH 170 173
ENDBRANCH 167 170
ENDBRANCH 164 167
ENDBRANCH 161 164
ENDBRANCH 110 161
ENDBRANCH 107 110
ENDBRANCH 104 106
BRANCH 104 177
ATOM    177  CB  ASP d   1     -29.472  26.893 -28.469  0.00  0.00    -0.035 C 
ATOM    178  H35 ASP d   1     -28.512  26.360 -28.542  0.00  0.00     0.037 H 
ATOM    179  H36 ASP d   1     -30.235  26.219 -28.053  0.00  0.00     0.037 H 
BRANCH 177 180
ATOM    180  CG  ASP d   1     -29.299  28.077 -27.515  0.00  0.00    -0.059 C 
ATOM    181  H37 ASP d   1     -30.119  28.791 -27.681  0.00  0.00     0.038 H 
BRANCH 180 182
ATOM    182  CD1 ASP d   1     -29.345  27.612 -26.081  0.00  0.00    -0.073 C 
ATOM    183  H38 ASP d   1     -29.219  28.476 -25.411  0.00  0.00     0.028 H 
ATOM    184  H39 ASP d   1     -28.535  26.889 -25.904  0.00  0.00     0.028 H 
ATOM    185  H40 ASP d   1     -30.315  27.132 -25.882  0.00  0.00     0.028 H 
ENDBRANCH 180 182
BRANCH 180 186
ATOM    186  CD2 ASP d   1     -27.976  28.768 -27.802  0.00  0.00    -0.073 C 
ATOM    187  H41 ASP d   1     -27.956  29.102 -28.850  0.00  0.00     0.028 H 
ATOM    188  H42 ASP d   1     -27.149  28.064 -27.625  0.00  0.00     0.028 H 
ATOM    189  H43 ASP d   1     -27.865  29.638 -27.138  0.00  0.00     0.028 H 
ENDBRANCH 180 186
ENDBRANCH 177 180
ENDBRANCH 104 177
ENDBRANCH   1 104
TORSDOF 54
