REMARK  29 active torsions:
REMARK  status: ('A' for Active; 'I' for Inactive)
REMARK    1  A    between atoms: N_1  and  CA_2 
REMARK    2  A    between atoms: CA_2  and  C_3 
REMARK    3  A    between atoms: CA_2  and  CB_5 
REMARK       I    between atoms: C_3  and  N_10 
REMARK    4  A    between atoms: CB_5  and  CG_6 
REMARK    5  A    between atoms: CG_6  and  CD_7 
REMARK    6  A    between atoms: N_10  and  CA_11 
REMARK    7  A    between atoms: CA_11  and  C_12 
REMARK    8  A    between atoms: CA_11  and  CB_14 
REMARK       I    between atoms: C_12  and  N_18 
REMARK    9  A    between atoms: CB_14  and  CG_15 
REMARK   10  A    between atoms: CA_19  and  C_20 
REMARK       I    between atoms: C_20  and  N_25 
REMARK   11  A    between atoms: N_25  and  CA_26 
REMARK   12  A    between atoms: CA_26  and  C_27 
REMARK   13  A    between atoms: CA_26  and  CB_29 
REMARK       I    between atoms: C_27  and  N_37 
REMARK   14  A    between atoms: CB_29  and  CG_30 
REMARK   15  A    between atoms: CZ_35  and  OH_36 
REMARK   16  A    between atoms: N_37  and  CA_38 
REMARK   17  A    between atoms: CA_38  and  C_39 
REMARK   18  A    between atoms: CA_38  and  CB_41 
REMARK       I    between atoms: C_39  and  N_45 
REMARK   19  A    between atoms: CB_41  and  CG_42 
REMARK   20  A    between atoms: N_45  and  CA_46 
REMARK   21  A    between atoms: CA_46  and  C_47 
REMARK   22  A    between atoms: CA_46  and  CB_49 
REMARK       I    between atoms: C_47  and  N_53 
REMARK   23  A    between atoms: CB_49  and  CG_50 
REMARK   24  A    between atoms: CG_50  and  CD1_51 
REMARK   25  A    between atoms: CG_50  and  CD2_52 
REMARK   26  A    between atoms: N_53  and  CA_54 
REMARK   27  A    between atoms: CA_54  and  C_55 
REMARK   28  A    between atoms: CA_54  and  CB_57 
REMARK   29  A    between atoms: CB_57  and  CG_58 
REMARK       I    between atoms: CG_58  and  ND2_60 
ROOT
ATOM      1  CA  GLU d   1      55.852 114.225  16.835  0.00  0.00     0.093 C 
ATOM      2  H21 GLU d   1      55.343 115.106  16.418  0.00  0.00     0.088 H 
ENDROOT
BRANCH   1   3
ATOM      3  N   GLU d   1      57.276 114.318  16.537  0.00  0.00    -0.346 N 
ATOM      4  C   GLU d   1      57.896 115.476  16.304  0.00  0.00     0.241 C 
ATOM      5  O   GLU d   1      57.316 116.567  16.253  0.00  0.00    -0.271 OA
ATOM      6  H20 GLU d   1      57.813 113.475  16.506  0.00  0.00     0.163 HD
BRANCH   4   7
ATOM      7  CA  GLU d   1      59.393 115.404  16.093  0.00  0.00     0.091 C 
ATOM      8  N   GLU d   1      59.912 116.664  15.577  0.00  0.00    -0.337 N 
ATOM      9  C   GLU d   1      60.138 116.791  14.306  0.00  0.00     0.243 C 
ATOM     10  CD  GLU d   1      60.246 117.597  16.661  0.00  0.00    -0.001 C 
ATOM     11  O   GLU d   1      59.717 115.963  13.490  0.00  0.00    -0.271 OA
ATOM     12  CG  GLU d   1      60.519 116.674  17.828  0.00  0.00    -0.048 C 
ATOM     13  H18 GLU d   1      59.404 118.270  16.878  0.00  0.00     0.064 H 
ATOM     14  H19 GLU d   1      61.136 118.192  16.411  0.00  0.00     0.064 H 
ATOM     15  CB  GLU d   1      60.157 115.240  17.411  0.00  0.00    -0.036 C 
ATOM     16  H16 GLU d   1      61.584 116.724  18.099  0.00  0.00     0.035 H 
ATOM     17  H17 GLU d   1      59.906 116.975  18.691  0.00  0.00     0.035 H 
ATOM     18  H14 GLU d   1      61.065 114.638  17.261  0.00  0.00     0.036 H 
ATOM     19  H15 GLU d   1      59.522 114.763  18.172  0.00  0.00     0.036 H 
ATOM     20  H13 GLU d   1      59.619 114.575  15.406  0.00  0.00     0.087 H 
BRANCH   9  21
ATOM     21  CA  GLU d   1      60.898 118.014  13.837  0.00  0.00     0.099 C 
ATOM     22  H10 GLU d   1      60.893 118.778  14.628  0.00  0.00     0.088 H 
BRANCH  21  23
ATOM     23  N   GLU d   1      62.272 117.612  13.570  0.00  0.00    -0.345 N 
ATOM     24  C   GLU d   1      63.240 117.698  14.489  0.00  0.00     0.249 C 
ATOM     25  O   GLU d   1      63.080 118.227  15.591  0.00  0.00    -0.271 OA
ATOM     26  H9  GLU d   1      62.501 117.257  12.663  0.00  0.00     0.163 HD
BRANCH  24  27
ATOM     27  CA  GLU d   1      64.587 117.077  14.104  0.00  0.00     0.176 C 
ATOM     28  H4  GLU d   1      64.463 116.574  13.133  0.00  0.00     0.099 H 
BRANCH  27  29
ATOM     29  N   GLU d   1      65.642 118.080  13.954  0.00  0.00    -0.066 N 
ATOM     30  H1  GLU d   1      66.505 117.625  13.701  0.00  0.00     0.275 HD
ATOM     31  H2  GLU d   1      65.764 118.572  14.825  0.00  0.00     0.275 HD
ATOM     32  H3  GLU d   1      65.383 118.734  13.232  0.00  0.00     0.275 HD
ENDBRANCH  27  29
BRANCH  27  33
ATOM     33  CB  GLU d   1      64.982 116.021  15.146  0.00  0.00    -0.021 C 
ATOM     34  H5  GLU d   1      65.245 116.533  16.084  0.00  0.00     0.037 H 
ATOM     35  H6  GLU d   1      65.857 115.468  14.773  0.00  0.00     0.037 H 
BRANCH  33  36
ATOM     36  CG  GLU d   1      63.874 115.038  15.427  0.00  0.00     0.018 C 
ATOM     37  H7  GLU d   1      62.932 115.590  15.561  0.00  0.00     0.049 H 
ATOM     38  H8  GLU d   1      64.110 114.487  16.349  0.00  0.00     0.049 H 
BRANCH  36  39
ATOM     39  CD  GLU d   1      63.708 114.048  14.291  0.00  0.00     0.172 C 
ATOM     40  OE1 GLU d   1      62.721 114.168  13.537  0.00  0.00    -0.648 OA
ATOM     41  OE2 GLU d   1      64.601 113.195  14.112  0.00  0.00    -0.648 OA
ENDBRANCH  36  39
ENDBRANCH  33  36
ENDBRANCH  27  33
ENDBRANCH  24  27
ENDBRANCH  21  23
BRANCH  21  42
ATOM     42  CB  GLU d   1      60.219 118.586  12.595  0.00  0.00     0.043 C 
ATOM     43  H11 GLU d   1      60.228 117.822  11.804  0.00  0.00     0.052 H 
ATOM     44  H12 GLU d   1      60.783 119.468  12.259  0.00  0.00     0.052 H 
BRANCH  42  45
ATOM     45  CG  GLU d   1      58.782 118.998  12.857  0.00  0.00     0.175 C 
ATOM     46  OD1 GLU d   1      58.419 119.179  14.043  0.00  0.00    -0.648 OA
ATOM     47  OD2 GLU d   1      58.016 119.129  11.874  0.00  0.00    -0.648 OA
ENDBRANCH  42  45
ENDBRANCH  21  42
ENDBRANCH   9  21
ENDBRANCH   4   7
ENDBRANCH   1   3
BRANCH   1  48
ATOM     48  C   GLU d   1      55.676 114.221  18.351  0.00  0.00     0.241 C 
ATOM     49  O   GLU d   1      56.235 113.362  19.044  0.00  0.00    -0.271 OA
ATOM     50  N   GLU d   1      54.895 115.180  18.857  0.00  0.00    -0.345 N 
ATOM     51  H29 GLU d   1      54.484 115.844  18.232  0.00  0.00     0.163 HD
BRANCH  50  52
ATOM     52  CA  GLU d   1      54.617 115.299  20.281  0.00  0.00     0.098 C 
ATOM     53  H30 GLU d   1      55.511 115.007  20.851  0.00  0.00     0.088 H 
BRANCH  52  54
ATOM     54  C   GLU d   1      53.466 114.383  20.655  0.00  0.00     0.241 C 
ATOM     55  O   GLU d   1      52.372 114.484  20.092  0.00  0.00    -0.271 OA
ATOM     56  N   GLU d   1      53.685 113.543  21.663  0.00  0.00    -0.346 N 
ATOM     57  H33 GLU d   1      54.525 113.630  22.198  0.00  0.00     0.163 HD
BRANCH  56  58
ATOM     58  CA  GLU d   1      52.726 112.497  22.005  0.00  0.00     0.089 C 
ATOM     59  H34 GLU d   1      52.195 112.186  21.093  0.00  0.00     0.087 H 
BRANCH  58  60
ATOM     60  C   GLU d   1      51.710 113.087  22.982  0.00  0.00     0.241 C 
ATOM     61  O   GLU d   1      51.673 112.782  24.176  0.00  0.00    -0.271 OA
ATOM     62  N   GLU d   1      50.882 113.975  22.432  0.00  0.00    -0.344 N 
ATOM     63  H44 GLU d   1      50.976 114.186  21.459  0.00  0.00     0.163 HD
BRANCH  62  64
ATOM     64  CA  GLU d   1      49.848 114.646  23.200  0.00  0.00     0.104 C 
ATOM     65  H45 GLU d   1      49.407 113.913  23.892  0.00  0.00     0.090 H 
BRANCH  64  66
ATOM     66  C   GLU d   1      48.738 115.191  22.313  0.00  0.00     0.197 C 
ATOM     67  O   GLU d   1      48.888 115.257  21.094  0.00  0.00    -0.646 OA
ATOM     68  OXT GLU d   1      47.677 115.572  22.804  0.00  0.00    -0.646 OA
ENDBRANCH  64  66
BRANCH  64  69
ATOM     69  CB  GLU d   1      50.451 115.778  24.014  0.00  0.00     0.037 C 
ATOM     70  H46 GLU d   1      50.222 116.733  23.518  0.00  0.00     0.051 H 
ATOM     71  H47 GLU d   1      51.541 115.641  24.060  0.00  0.00     0.051 H 
BRANCH  69  72
ATOM     72  CG  GLU d   1      49.911 115.815  25.403  0.00  0.00     0.217 C 
ATOM     73  OD1 GLU d   1      48.767 116.225  25.618  0.00  0.00    -0.274 OA
ATOM     74  ND2 GLU d   1      50.710 115.357  26.363  0.00  0.00    -0.370 N 
ATOM     75  H48 GLU d   1      50.400 115.358  27.314  0.00  0.00     0.159 HD
ATOM     76  H49 GLU d   1      51.620 115.012  26.134  0.00  0.00     0.159 HD
ENDBRANCH  69  72
ENDBRANCH  64  69
ENDBRANCH  62  64
ENDBRANCH  58  60
BRANCH  58  77
ATOM     77  CB  GLU d   1      53.445 111.280  22.573  0.00  0.00    -0.035 C 
ATOM     78  H35 GLU d   1      52.729 110.715  23.188  0.00  0.00     0.037 H 
ATOM     79  H36 GLU d   1      54.272 111.635  23.206  0.00  0.00     0.037 H 
BRANCH  77  80
ATOM     80  CG  GLU d   1      54.024 110.330  21.519  0.00  0.00    -0.059 C 
ATOM     81  H37 GLU d   1      54.528 110.939  20.754  0.00  0.00     0.038 H 
BRANCH  80  82
ATOM     82  CD1 GLU d   1      55.051 109.349  22.088  0.00  0.00    -0.073 C 
ATOM     83  H38 GLU d   1      55.424 108.700  21.282  0.00  0.00     0.028 H 
ATOM     84  H39 GLU d   1      54.577 108.732  22.866  0.00  0.00     0.028 H 
ATOM     85  H40 GLU d   1      55.890 109.909  22.526  0.00  0.00     0.028 H 
ENDBRANCH  80  82
BRANCH  80  86
ATOM     86  CD2 GLU d   1      52.892 109.567  20.861  0.00  0.00    -0.073 C 
ATOM     87  H41 GLU d   1      52.158 110.278  20.454  0.00  0.00     0.028 H 
ATOM     88  H42 GLU d   1      52.403 108.921  21.606  0.00  0.00     0.028 H 
ATOM     89  H43 GLU d   1      53.293 108.948  20.045  0.00  0.00     0.028 H 
ENDBRANCH  80  86
ENDBRANCH  77  80
ENDBRANCH  58  77
ENDBRANCH  56  58
ENDBRANCH  52  54
BRANCH  52  90
ATOM     90  CB  GLU d   1      54.259 116.750  20.616  0.00  0.00     0.043 C 
ATOM     91  H31 GLU d   1      53.325 117.008  20.096  0.00  0.00     0.052 H 
ATOM     92  H32 GLU d   1      55.070 117.401  20.258  0.00  0.00     0.052 H 
BRANCH  90  93
ATOM     93  CG  GLU d   1      54.064 116.997  22.114  0.00  0.00     0.175 C 
ATOM     94  OD1 GLU d   1      53.144 116.394  22.711  0.00  0.00    -0.648 OA
ATOM     95  OD2 GLU d   1      54.813 117.818  22.692  0.00  0.00    -0.648 OA
ENDBRANCH  90  93
ENDBRANCH  52  90
ENDBRANCH  50  52
ENDBRANCH   1  48
BRANCH   1  96
ATOM     96  CB  GLU d   1      55.234 112.968  16.210  0.00  0.00    -0.014 C 
ATOM     97  H22 GLU d   1      55.780 112.090  16.585  0.00  0.00     0.043 H 
ATOM     98  H23 GLU d   1      55.349 113.032  15.118  0.00  0.00     0.043 H 
BRANCH  96  99
ATOM     99  CG  GLU d   1      53.758 112.784  16.526  0.00  0.00    -0.056 A 
ATOM    100  CD1 GLU d   1      52.823 113.714  16.115  0.00  0.00    -0.074 A 
ATOM    101  CE1 GLU d   1      51.489 113.559  16.409  0.00  0.00    -0.051 A 
ATOM    102  H24 GLU d   1      53.147 114.581  15.551  0.00  0.00     0.084 H 
ATOM    103  CZ  GLU d   1      51.064 112.477  17.129  0.00  0.00     0.065 A 
ATOM    104  H26 GLU d   1      50.772 114.297  16.069  0.00  0.00     0.087 H 
ATOM    105  CE2 GLU d   1      51.960 111.534  17.559  0.00  0.00    -0.051 A 
ATOM    106  CD2 GLU d   1      53.306 111.692  17.257  0.00  0.00    -0.074 A 
ATOM    107  H27 GLU d   1      51.622 110.675  18.128  0.00  0.00     0.087 H 
ATOM    108  H25 GLU d   1      54.018 110.949  17.598  0.00  0.00     0.084 H 
BRANCH 103 109
ATOM    109  OH  GLU d   1      49.728 112.342  17.411  0.00  0.00    -0.361 OA
ATOM    110  H28 GLU d   1      49.406 111.532  17.032  0.00  0.00     0.217 HD
ENDBRANCH 103 109
ENDBRANCH  96  99
ENDBRANCH   1  96
TORSDOF 29
