REMARK  9 active torsions:
REMARK  status: ('A' for Active; 'I' for Inactive)
REMARK    1  A    between atoms: C1_1  and  O25_25 
REMARK    2  A    between atoms: C2_2  and  O27_27 
REMARK    3  A    between atoms: C7_7  and  O24_24 
REMARK    4  A    between atoms: C8_8  and  C10_10 
REMARK    5  A    between atoms: C10_10  and  C11_11 
REMARK    6  A    between atoms: N14_14  and  C17_17 
REMARK    7  A    between atoms: C17_17  and  C18_18 
REMARK    8  A    between atoms: O25_25  and  C26_26 
REMARK    9  A    between atoms: O27_27  and  C28_28 
ROOT
ATOM      1  C11 E20 d   1      88.529  83.757  -5.631  0.00  0.00    -0.051 C 
ATOM      2  C12 E20 d   1      89.853  83.662  -5.065  0.00  0.00    -0.039 C 
ATOM      3  C13 E20 d   1      90.731  82.648  -5.808  0.00  0.00     0.084 C 
ATOM      4  N14 E20 d   1      90.094  81.338  -5.882  0.00  0.00    -0.067 N 
ATOM      5  C15 E20 d   1      88.737  81.365  -6.381  0.00  0.00     0.084 C 
ATOM      6  C16 E20 d   1      87.878  82.439  -5.716  0.00  0.00    -0.039 C 
ATOM      7  H9  E20 d   1      88.599  84.203  -6.634  0.00  0.00     0.040 H 
ATOM      8  H10 E20 d   1      89.767  83.352  -4.013  0.00  0.00     0.035 H 
ATOM      9  H11 E20 d   1      90.332  84.651  -5.118  0.00  0.00     0.035 H 
ATOM     10  H12 E20 d   1      91.689  82.549  -5.277  0.00  0.00     0.076 H 
ATOM     11  H13 E20 d   1      90.913  83.014  -6.829  0.00  0.00     0.076 H 
ATOM     12  H14 E20 d   1      89.967  81.096  -4.912  0.00  0.00     0.280 HD
ATOM     13  H15 E20 d   1      88.276  80.383  -6.197  0.00  0.00     0.076 H 
ATOM     14  H16 E20 d   1      88.765  81.559  -7.463  0.00  0.00     0.076 H 
ATOM     15  H17 E20 d   1      86.950  82.548  -6.296  0.00  0.00     0.035 H 
ATOM     16  H18 E20 d   1      87.636  82.106  -4.696  0.00  0.00     0.035 H 
ENDROOT
BRANCH   1  17
ATOM     17  C10 E20 d   1      87.575  84.670  -4.677  0.00  0.00    -0.055 C 
ATOM     18  H7  E20 d   1      86.561  84.662  -5.103  0.00  0.00     0.034 H 
ATOM     19  H8  E20 d   1      87.556  84.212  -3.677  0.00  0.00     0.034 H 
BRANCH  17  20
ATOM     20  C8  E20 d   1      88.012  86.133  -4.520  0.00  0.00    -0.021 A 
ATOM     21  C7  E20 d   1      87.030  87.119  -4.407  0.00  0.00     0.065 A 
ATOM     22  C5  E20 d   1      87.417  88.058  -3.412  0.00  0.00    -0.020 A 
ATOM     23  H3  E20 d   1      87.496  87.718  -5.203  0.00  0.00     0.091 H 
ATOM     24  C4  E20 d   1      88.641  87.679  -2.930  0.00  0.00    -0.046 A 
ATOM     25  C6  E20 d   1      86.786  89.221  -2.905  0.00  0.00    -0.039 A 
ATOM     26  C3  E20 d   1      89.282  88.448  -1.920  0.00  0.00    -0.041 A 
ATOM     27  C9  E20 d   1      89.021  86.497  -3.620  0.00  0.00    -0.034 A 
ATOM     28  C2  E20 d   1      88.664  89.591  -1.421  0.00  0.00     0.102 A 
ATOM     29  H1  E20 d   1      90.251  88.144  -1.539  0.00  0.00     0.088 H 
ATOM     30  C1  E20 d   1      87.418  89.971  -1.914  0.00  0.00     0.102 A 
ATOM     31  H5  E20 d   1      89.176  85.684  -2.895  0.00  0.00     0.040 H 
ATOM     32  H6  E20 d   1      89.955  86.679  -4.172  0.00  0.00     0.040 H 
ATOM     33  H2  E20 d   1      85.818  89.526  -3.285  0.00  0.00     0.088 H 
ATOM     34  H4  E20 d   1      88.466  86.323  -5.504  0.00  0.00     0.044 H 
BRANCH  21  35
ATOM     35  O24 E20 d   1      85.830  87.163  -5.124  0.00  0.00    -0.390 OA
ATOM     36  H26 E20 d   1      85.336  87.932  -4.866  0.00  0.00     0.210 HD
ENDBRANCH  21  35
BRANCH  28  37
ATOM     37  O27 E20 d   1      89.260  90.380  -0.426  0.00  0.00    -0.353 OA
BRANCH  37  38
ATOM     38  C28 E20 d   1      90.554  90.009  -0.050  0.00  0.00     0.010 C 
ATOM     39  H30 E20 d   1      90.919  90.692   0.731  0.00  0.00     0.066 H 
ATOM     40  H31 E20 d   1      91.219  90.062  -0.924  0.00  0.00     0.066 H 
ATOM     41  H32 E20 d   1      90.542  88.980   0.340  0.00  0.00     0.066 H 
ENDBRANCH  37  38
ENDBRANCH  28  37
BRANCH  30  42
ATOM     42  O25 E20 d   1      86.824  91.125  -1.395  0.00  0.00    -0.353 OA
BRANCH  42  43
ATOM     43  C26 E20 d   1      85.429  91.107  -1.408  0.00  0.00     0.010 C 
ATOM     44  H27 E20 d   1      85.046  92.047  -0.985  0.00  0.00     0.066 H 
ATOM     45  H28 E20 d   1      85.068  90.260  -0.806  0.00  0.00     0.066 H 
ATOM     46  H29 E20 d   1      85.073  90.999  -2.443  0.00  0.00     0.066 H 
ENDBRANCH  42  43
ENDBRANCH  30  42
ENDBRANCH  17  20
ENDBRANCH   1  17
BRANCH   4  47
ATOM     47  C17 E20 d   1      90.801  80.436  -6.286  0.00  0.00     0.107 C 
ATOM     48  H19 E20 d   1      90.307  79.490  -6.018  0.00  0.00     0.083 H 
ATOM     49  H20 E20 d   1      91.761  80.512  -5.755  0.00  0.00     0.083 H 
BRANCH  47  50
ATOM     50  C18 E20 d   1      91.118  80.375  -7.800  0.00  0.00    -0.033 A 
ATOM     51  C19 E20 d   1      92.252  81.003  -8.307  0.00  0.00    -0.075 A 
ATOM     52  C20 E20 d   1      92.552  80.948  -9.662  0.00  0.00    -0.082 A 
ATOM     53  H21 E20 d   1      92.910  81.542  -7.635  0.00  0.00     0.084 H 
ATOM     54  C21 E20 d   1      91.730  80.243 -10.531  0.00  0.00    -0.083 A 
ATOM     55  H22 E20 d   1      93.430  81.457 -10.042  0.00  0.00     0.083 H 
ATOM     56  C22 E20 d   1      90.606  79.597 -10.035  0.00  0.00    -0.082 A 
ATOM     57  H23 E20 d   1      91.964  80.198 -11.588  0.00  0.00     0.083 H 
ATOM     58  C23 E20 d   1      90.312  79.653  -8.678  0.00  0.00    -0.075 A 
ATOM     59  H24 E20 d   1      89.957  79.048 -10.707  0.00  0.00     0.083 H 
ATOM     60  H25 E20 d   1      89.444  79.128  -8.297  0.00  0.00     0.084 H 
ENDBRANCH  47  50
ENDBRANCH   4  47
TORSDOF 9
