REMARK  1 active torsions:
REMARK  status: ('A' for Active; 'I' for Inactive)
REMARK    1  A    between atoms: C9_9  and  N9_15 
ROOT
ATOM      1  C1   AA d   1     100.047  47.378  -6.889  0.00  0.00    -0.069 A 
ATOM      2  C2   AA d   1     100.251  46.186  -6.214  0.00  0.00    -0.082 A 
ATOM      3  C3   AA d   1     100.687  45.070  -6.913  0.00  0.00    -0.081 A 
ATOM      4  C4   AA d   1     100.926  45.150  -8.279  0.00  0.00    -0.054 A 
ATOM      5  C5   AA d   1     101.046  47.520 -12.311  0.00  0.00    -0.054 A 
ATOM      6  C6   AA d   1     100.869  48.684 -13.043  0.00  0.00    -0.081 A 
ATOM      7  C7   AA d   1     100.432  49.844 -12.419  0.00  0.00    -0.082 A 
ATOM      8  C8   AA d   1     100.173  49.840 -11.057  0.00  0.00    -0.069 A 
ATOM      9  C9   AA d   1     100.089  48.664  -8.947  0.00  0.00     0.051 A 
ATOM     10  N10  AA d   1     100.957  46.409 -10.248  0.00  0.00    -0.247 NA
ATOM     11  C11  AA d   1     100.787  47.518 -10.948  0.00  0.00     0.070 A 
ATOM     12  C12  AA d   1     100.351  48.677 -10.324  0.00  0.00     0.020 A 
ATOM     13  C13  AA d   1     100.286  47.460  -8.251  0.00  0.00     0.020 A 
ATOM     14  C14  AA d   1     100.725  46.347  -8.948  0.00  0.00     0.070 A 
ATOM     15  H1   AA d   1      99.699  48.251  -6.349  0.00  0.00     0.085 H 
ATOM     16  H2   AA d   1     100.071  46.126  -5.147  0.00  0.00     0.083 H 
ATOM     17  H3   AA d   1     100.842  44.132  -6.391  0.00  0.00     0.083 H 
ATOM     18  H4   AA d   1     101.270  44.277  -8.822  0.00  0.00     0.087 H 
ATOM     19  H5   AA d   1     101.385  46.615 -12.802  0.00  0.00     0.087 H 
ATOM     20  H6   AA d   1     101.073  48.688 -14.108  0.00  0.00     0.083 H 
ATOM     21  H7   AA d   1     100.293  50.752 -12.995  0.00  0.00     0.083 H 
ATOM     22  H8   AA d   1      99.832  50.744 -10.566  0.00  0.00     0.085 H 
ENDROOT
BRANCH   9  23
ATOM     23  N9   AA d   1      99.642  49.829  -8.283  0.00  0.00    -0.398 N 
ATOM     24  H9   AA d   1      99.504  50.702  -8.812  0.00  0.00     0.156 HD
ATOM     25  H10  AA d   1      99.454  49.805  -7.271  0.00  0.00     0.156 HD
ENDBRANCH   9  23
TORSDOF 1
