REMARK  16 active torsions:
REMARK  status: ('A' for Active; 'I' for Inactive)
REMARK    1  A    between atoms: C1_1  and  C2_2 
REMARK    2  A    between atoms: C5_3  and  C1_1 
REMARK    3  A    between atoms: C2_2  and  C6_4 
REMARK    4  A    between atoms: C13_13  and  C5_3 
REMARK    5  A    between atoms: C6_4  and  C7_5 
REMARK    6  A    between atoms: C10_8  and  N2_11 
REMARK    7  A    between atoms: C17_17  and  N1_10 
REMARK    8  A    between atoms: N1_10  and  C20_20 
REMARK    9  A    between atoms: N1_10  and  C21_21 
REMARK   10  A    between atoms: N1_10  and  C22_22 
REMARK   11  A    between atoms: N2_11  and  C24_24 
REMARK   12  A    between atoms: N2_11  and  C25_25 
REMARK   13  A    between atoms: N2_11  and  C26_26 
REMARK   14  A    between atoms: C14_14  and  C13_13 
REMARK   15  A    between atoms: C22_22  and  C23_23 
REMARK   16  A    between atoms: C24_24  and  C27_27 
ROOT
ATOM      1  C1  EBW d   1      36.433 -14.584  -9.522  0.00  0.00     0.127 C 
ATOM      2  O1  EBW d   1      37.248 -15.187 -10.190  0.00  0.00    -0.298 OA
ENDROOT
BRANCH   1   3
ATOM      3  C2  EBW d   1      36.119 -15.052  -8.120  0.00  0.00    -0.006 C 
ATOM      4  H1  EBW d   1      35.206 -14.553  -7.762  0.00  0.00     0.044 H 
ATOM      5  H2  EBW d   1      36.958 -14.803  -7.454  0.00  0.00     0.044 H 
BRANCH   3   6
ATOM      6  C6  EBW d   1      35.906 -16.548  -8.125  0.00  0.00    -0.035 C 
ATOM      7  H5  EBW d   1      36.821 -17.027  -8.504  0.00  0.00     0.040 H 
ATOM      8  H6  EBW d   1      35.067 -16.776  -8.798  0.00  0.00     0.040 H 
BRANCH   6   9
ATOM      9  C7  EBW d   1      35.595 -17.125  -6.764  0.00  0.00    -0.058 A 
ATOM     10  C8  EBW d   1      36.470 -18.038  -6.201  0.00  0.00    -0.075 A 
ATOM     11  C9  EBW d   1      36.196 -18.577  -4.956  0.00  0.00    -0.049 A 
ATOM     12  H7  EBW d   1      37.368 -18.330  -6.734  0.00  0.00     0.084 H 
ATOM     13  C10 EBW d   1      35.043 -18.210  -4.283  0.00  0.00     0.136 A 
ATOM     14  H8  EBW d   1      36.883 -19.286  -4.508  0.00  0.00     0.086 H 
ATOM     15  C11 EBW d   1      34.167 -17.295  -4.845  0.00  0.00    -0.049 A 
ATOM     16  C12 EBW d   1      34.442 -16.753  -6.091  0.00  0.00    -0.075 A 
ATOM     17  H9  EBW d   1      33.269 -17.004  -4.312  0.00  0.00     0.086 H 
ATOM     18  H10 EBW d   1      33.758 -16.041  -6.537  0.00  0.00     0.084 H 
BRANCH  13  19
ATOM     19  N2  EBW d   1      34.775 -18.760  -3.006  0.00  0.00    -0.042 N 
BRANCH  19  20
ATOM     20  C24 EBW d   1      34.775 -17.683  -2.081  0.00  0.00     0.104 C 
ATOM     21  H26 EBW d   1      33.845 -17.713  -1.495  0.00  0.00     0.083 H 
ATOM     22  H27 EBW d   1      34.829 -16.734  -2.635  0.00  0.00     0.083 H 
BRANCH  20  23
ATOM     23  C27 EBW d   1      35.954 -17.772  -1.140  0.00  0.00    -0.087 C 
ATOM     24  C28 EBW d   1      36.962 -16.887  -1.273  0.00  0.00    -0.123 C 
ATOM     25  H35 EBW d   1      37.820 -16.935  -0.605  0.00  0.00     0.066 H 
ATOM     26  H36 EBW d   1      36.918 -16.124  -2.049  0.00  0.00     0.066 H 
ATOM     27  H34 EBW d   1      35.989 -18.538  -0.367  0.00  0.00     0.078 H 
ENDBRANCH  20  23
ENDBRANCH  19  20
BRANCH  19  28
ATOM     28  C25 EBW d   1      35.790 -19.699  -2.682  0.00  0.00     0.073 C 
ATOM     29  H28 EBW d   1      35.772 -20.524  -3.410  0.00  0.00     0.069 H 
ATOM     30  H29 EBW d   1      35.612 -20.097  -1.672  0.00  0.00     0.069 H 
ATOM     31  H30 EBW d   1      36.772 -19.203  -2.713  0.00  0.00     0.069 H 
ENDBRANCH  19  28
BRANCH  19  32
ATOM     32  C26 EBW d   1      33.513 -19.409  -3.000  0.00  0.00     0.073 C 
ATOM     33  H31 EBW d   1      32.726 -18.683  -3.251  0.00  0.00     0.069 H 
ATOM     34  H32 EBW d   1      33.321 -19.828  -2.001  0.00  0.00     0.069 H 
ATOM     35  H33 EBW d   1      33.514 -20.220  -3.743  0.00  0.00     0.069 H 
ENDBRANCH  19  32
ENDBRANCH  13  19
ENDBRANCH   6   9
ENDBRANCH   3   6
ENDBRANCH   1   3
BRANCH   1  36
ATOM     36  C5  EBW d   1      35.732 -13.379 -10.101  0.00  0.00    -0.006 C 
ATOM     37  H3  EBW d   1      36.481 -12.625 -10.385  0.00  0.00     0.044 H 
ATOM     38  H4  EBW d   1      35.053 -12.956  -9.346  0.00  0.00     0.044 H 
BRANCH  36  39
ATOM     39  C13 EBW d   1      34.934 -13.774 -11.323  0.00  0.00    -0.035 C 
ATOM     40  H11 EBW d   1      34.175 -14.513 -11.028  0.00  0.00     0.040 H 
ATOM     41  H12 EBW d   1      35.614 -14.222 -12.062  0.00  0.00     0.040 H 
BRANCH  39  42
ATOM     42  C14 EBW d   1      34.243 -12.588 -11.951  0.00  0.00    -0.058 A 
ATOM     43  C15 EBW d   1      33.227 -11.949 -11.263  0.00  0.00    -0.075 A 
ATOM     44  C16 EBW d   1      32.589 -10.858 -11.832  0.00  0.00    -0.049 A 
ATOM     45  H13 EBW d   1      32.931 -12.301 -10.281  0.00  0.00     0.084 H 
ATOM     46  C17 EBW d   1      32.973 -10.413 -13.088  0.00  0.00     0.136 A 
ATOM     47  H14 EBW d   1      31.792 -10.354 -11.297  0.00  0.00     0.086 H 
ATOM     48  C18 EBW d   1      33.992 -11.055 -13.775  0.00  0.00    -0.049 A 
ATOM     49  C19 EBW d   1      34.627 -12.142 -13.204  0.00  0.00    -0.075 A 
ATOM     50  H15 EBW d   1      34.290 -10.706 -14.757  0.00  0.00     0.086 H 
ATOM     51  H16 EBW d   1      35.425 -12.645 -13.737  0.00  0.00     0.084 H 
BRANCH  46  52
ATOM     52  N1  EBW d   1      32.317  -9.295 -13.662  0.00  0.00    -0.042 N 
BRANCH  52  53
ATOM     53  C20 EBW d   1      32.854  -9.039 -14.949  0.00  0.00     0.073 C 
ATOM     54  H17 EBW d   1      32.344  -8.171 -15.393  0.00  0.00     0.069 H 
ATOM     55  H18 EBW d   1      32.705  -9.920 -15.591  0.00  0.00     0.069 H 
ATOM     56  H19 EBW d   1      33.930  -8.827 -14.862  0.00  0.00     0.069 H 
ENDBRANCH  52  53
BRANCH  52  57
ATOM     57  C21 EBW d   1      30.927  -9.566 -13.757  0.00  0.00     0.073 C 
ATOM     58  H20 EBW d   1      30.522  -9.763 -12.753  0.00  0.00     0.069 H 
ATOM     59  H21 EBW d   1      30.768 -10.447 -14.396  0.00  0.00     0.069 H 
ATOM     60  H22 EBW d   1      30.413  -8.698 -14.196  0.00  0.00     0.069 H 
ENDBRANCH  52  57
BRANCH  52  61
ATOM     61  C22 EBW d   1      32.538  -8.166 -12.832  0.00  0.00     0.104 C 
ATOM     62  H23 EBW d   1      31.934  -8.263 -11.918  0.00  0.00     0.083 H 
ATOM     63  H24 EBW d   1      32.243  -7.254 -13.372  0.00  0.00     0.083 H 
BRANCH  61  64
ATOM     64  C23 EBW d   1      34.002  -8.074 -12.457  0.00  0.00    -0.087 C 
ATOM     65  C29 EBW d   1      34.357  -7.621 -11.238  0.00  0.00    -0.123 C 
ATOM     66  H37 EBW d   1      35.410  -7.554 -10.967  0.00  0.00     0.066 H 
ATOM     67  H38 EBW d   1      33.591  -7.322 -10.524  0.00  0.00     0.066 H 
ATOM     68  H25 EBW d   1      34.767  -8.373 -13.171  0.00  0.00     0.078 H 
ENDBRANCH  61  64
ENDBRANCH  52  61
ENDBRANCH  46  52
ENDBRANCH  39  42
ENDBRANCH  36  39
ENDBRANCH   1  36
TORSDOF 16
