REMARK WARNING: 32 MAX_TORS EXCEEDED!!!
REMARK  36 active torsions:
REMARK  status: ('A' for Active; 'I' for Inactive)
REMARK    1  A    between atoms: C_1  and  CH3_3 
REMARK       I    between atoms: C_1  and  N_4 
REMARK    2  A    between atoms: N_4  and  CA_5 
REMARK    3  A    between atoms: CA_5  and  C1_6 
REMARK    4  A    between atoms: CA_5  and  CB_8 
REMARK       I    between atoms: C1_6  and  N1_11 
REMARK    5  A    between atoms: CB_8  and  OG1_9 
REMARK    6  A    between atoms: CB_8  and  CG2_10 
REMARK    7  A    between atoms: N1_11  and  CA1_12 
REMARK    8  A    between atoms: CA1_12  and  C2_13 
REMARK    9  A    between atoms: CA1_12  and  CB1_15 
REMARK       I    between atoms: C2_13  and  N2_19 
REMARK   10  A    between atoms: CB1_15  and  CG1_16 
REMARK   11  A    between atoms: CB1_15  and  CG21_17 
REMARK   12  A    between atoms: CG1_16  and  CD1_18 
REMARK   13  A    between atoms: N2_19  and  CA2_20 
REMARK   14  A    between atoms: CA2_20  and  C3_21 
REMARK   15  A    between atoms: CA2_20  and  CB2_22 
REMARK   16  A    between atoms: C3_21  and  N3_26 
REMARK   17  A    between atoms: CB2_22  and  CG_23 
REMARK   18  A    between atoms: CG_23  and  CD_24 
REMARK   19  A    between atoms: CD_24  and  CE_25 
REMARK   20  A    between atoms: N3_26  and  CA3_27 
REMARK   21  A    between atoms: CA3_27  and  C4_28 
REMARK   22  A    between atoms: CA3_27  and  CB3_30 
REMARK   23  A    between atoms: CB3_30  and  CG3_31 
REMARK   24  A    between atoms: CG3_31  and  CD2_32 
REMARK   25  A    between atoms: CD2_32  and  CE1_33 
REMARK   26  A    between atoms: N4_34  and  CA4_35 
REMARK   27  A    between atoms: CA4_35  and  C5_36 
REMARK   28  A    between atoms: CA4_35  and  CB4_38 
REMARK       I    between atoms: C5_36  and  N5_43 
REMARK   29  A    between atoms: CB4_38  and  CG4_39 
REMARK   30  A    between atoms: CG4_39  and  CD3_40 
REMARK       I    between atoms: CD3_40  and  NE2_42 
REMARK   31  A    between atoms: N5_43  and  CA5_44 
REMARK   32  A    between atoms: CA5_44  and  C6_45 
REMARK   33  A    between atoms: CA5_44  and  CB5_47 
REMARK       I    between atoms: C6_45  and  N6_54 
REMARK   34  A    between atoms: CB5_47  and  CG5_48 
REMARK   35  A    between atoms: CG5_48  and  CD4_49 
REMARK   36  A    between atoms: CD4_49  and  NE_50 
REMARK       I    between atoms: NE_50  and  CZ_51 
REMARK       I    between atoms: CZ_51  and  NH1_52 
ROOT
ATOM      1  N3  MOL d   1      68.580  13.343   8.199  0.00  0.00    -0.061 N 
ATOM      2  H35 MOL d   1      68.258  14.192   8.636  0.00  0.00     0.278 HD
ATOM      3  H36 MOL d   1      69.356  12.969   8.723  0.00  0.00     0.278 HD
ENDROOT
BRANCH   1   4
ATOM      4  C3  MOL d   1      69.084  13.703   6.888  0.00  0.00     0.101 C 
ATOM      5  H24 MOL d   1      69.829  12.947   6.597  0.00  0.00     0.078 H 
ATOM      6  H25 MOL d   1      68.238  13.674   6.185  0.00  0.00     0.078 H 
BRANCH   4   7
ATOM      7  CA2 MOL d   1      69.741  15.071   6.764  0.00  0.00     0.035 C 
ATOM      8  H23 MOL d   1      68.876  15.750   6.742  0.00  0.00     0.075 H 
BRANCH   7   9
ATOM      9  N2  MOL d   1      70.530  15.664   7.824  0.00  0.00    -0.353 N 
ATOM     10  C2  MOL d   1      70.006  16.417   8.472  0.00  0.00     0.241 C 
ATOM     11  O2  MOL d   1      68.750  16.567   8.262  0.00  0.00    -0.271 OA
ATOM     12  H22 MOL d   1      71.488  15.417   7.971  0.00  0.00     0.163 HD
BRANCH  10  13
ATOM     13  CA1 MOL d   1      70.931  17.112   9.418  0.00  0.00     0.092 C 
ATOM     14  H12 MOL d   1      71.834  16.485   9.460  0.00  0.00     0.088 H 
BRANCH  13  15
ATOM     15  N1  MOL d   1      71.388  18.443   9.169  0.00  0.00    -0.346 N 
ATOM     16  C1  MOL d   1      72.548  18.755   9.057  0.00  0.00     0.243 C 
ATOM     17  O1  MOL d   1      73.346  17.774   9.246  0.00  0.00    -0.271 OA
ATOM     18  H11 MOL d   1      70.700  19.164   9.082  0.00  0.00     0.163 HD
BRANCH  16  19
ATOM     19  CA  MOL d   1      72.895  20.217   8.657  0.00  0.00     0.113 C 
ATOM     20  H5  MOL d   1      71.949  20.775   8.603  0.00  0.00     0.091 H 
BRANCH  19  21
ATOM     21  N   MOL d   1      73.661  20.793   9.655  0.00  0.00    -0.346 N 
ATOM     22  C   MOL d   1      73.048  21.537  10.618  0.00  0.00     0.214 C 
ATOM     23  O   MOL d   1      71.833  21.688  10.819  0.00  0.00    -0.274 OA
ATOM     24  H4  MOL d   1      74.653  20.665   9.669  0.00  0.00     0.163 HD
BRANCH  22  25
ATOM     25  CH3 MOL d   1      74.116  22.066  11.501  0.00  0.00    -0.003 C 
ATOM     26  H1  MOL d   1      75.099  21.790  11.093  0.00  0.00     0.040 H 
ATOM     27  H2  MOL d   1      74.004  21.638  12.508  0.00  0.00     0.040 H 
ATOM     28  H3  MOL d   1      74.036  23.162  11.557  0.00  0.00     0.040 H 
ENDBRANCH  22  25
ENDBRANCH  19  21
BRANCH  19  29
ATOM     29  CB  MOL d   1      73.576  20.334   7.227  0.00  0.00     0.060 C 
ATOM     30  H6  MOL d   1      74.533  19.792   7.216  0.00  0.00     0.086 H 
BRANCH  29  31
ATOM     31  OG1 MOL d   1      73.765  21.684   6.768  0.00  0.00    -0.393 OA
ATOM     32  H7  MOL d   1      74.175  21.672   5.911  0.00  0.00     0.210 HD
ENDBRANCH  29  31
BRANCH  29  33
ATOM     33  CG2 MOL d   1      72.588  19.746   6.287  0.00  0.00    -0.050 C 
ATOM     34  H8  MOL d   1      72.986  19.788   5.263  0.00  0.00     0.031 H 
ATOM     35  H9  MOL d   1      71.648  20.316   6.339  0.00  0.00     0.031 H 
ATOM     36  H10 MOL d   1      72.397  18.698   6.563  0.00  0.00     0.031 H 
ENDBRANCH  29  33
ENDBRANCH  19  29
ENDBRANCH  16  19
ENDBRANCH  13  15
BRANCH  13  37
ATOM     37  CB1 MOL d   1      70.290  17.135  10.804  0.00  0.00    -0.030 C 
ATOM     38  H13 MOL d   1      69.314  17.591  10.584  0.00  0.00     0.043 H 
BRANCH  37  39
ATOM     39  CG1 MOL d   1      70.815  18.076  11.924  0.00  0.00    -0.063 C 
ATOM     40  H14 MOL d   1      70.191  17.929  12.818  0.00  0.00     0.033 H 
ATOM     41  H15 MOL d   1      70.717  19.114  11.575  0.00  0.00     0.033 H 
BRANCH  39  42
ATOM     42  CD1 MOL d   1      72.310  17.833  12.325  0.00  0.00    -0.076 C 
ATOM     43  H19 MOL d   1      72.596  18.538  13.119  0.00  0.00     0.027 H 
ATOM     44  H20 MOL d   1      72.955  17.988  11.447  0.00  0.00     0.027 H 
ATOM     45  H21 MOL d   1      72.429  16.802  12.690  0.00  0.00     0.027 H 
ENDBRANCH  39  42
ENDBRANCH  37  39
BRANCH  37  46
ATOM     46  CG2 MOL d   1      69.927  15.801  11.271  0.00  0.00    -0.071 C 
ATOM     47  H16 MOL d   1      69.567  15.201  10.422  0.00  0.00     0.028 H 
ATOM     48  H17 MOL d   1      69.132  15.881  12.027  0.00  0.00     0.028 H 
ATOM     49  H18 MOL d   1      70.808  15.316  11.716  0.00  0.00     0.028 H 
ENDBRANCH  37  46
ENDBRANCH  13  37
ENDBRANCH  10  13
ENDBRANCH   7   9
BRANCH   7  50
ATOM     50  CB2 MOL d   1      70.312  15.174   5.389  0.00  0.00    -0.045 C 
ATOM     51  H26 MOL d   1      69.480  15.155   4.669  0.00  0.00     0.036 H 
ATOM     52  H27 MOL d   1      70.962  14.303   5.221  0.00  0.00     0.036 H 
BRANCH  50  53
ATOM     53  CG  MOL d   1      71.118  16.415   5.141  0.00  0.00    -0.064 C 
ATOM     54  H28 MOL d   1      72.042  16.089   4.641  0.00  0.00     0.033 H 
ATOM     55  H29 MOL d   1      71.362  16.829   6.131  0.00  0.00     0.033 H 
BRANCH  53  56
ATOM     56  CD  MOL d   1      70.601  17.505   4.364  0.00  0.00    -0.068 C 
ATOM     57  H30 MOL d   1      71.374  17.797   3.638  0.00  0.00     0.032 H 
ATOM     58  H31 MOL d   1      70.406  18.343   5.049  0.00  0.00     0.032 H 
BRANCH  56  59
ATOM     59  CE  MOL d   1      69.326  17.230   3.595  0.00  0.00    -0.077 C 
ATOM     60  H32 MOL d   1      69.029  18.133   3.042  0.00  0.00     0.027 H 
ATOM     61  H33 MOL d   1      68.527  16.952   4.298  0.00  0.00     0.027 H 
ATOM     62  H34 MOL d   1      69.495  16.405   2.887  0.00  0.00     0.027 H 
ENDBRANCH  56  59
ENDBRANCH  53  56
ENDBRANCH  50  53
ENDBRANCH   7  50
ENDBRANCH   4   7
ENDBRANCH   1   4
BRANCH   1  63
ATOM     63  CA3 MOL d   1      67.483  12.365   8.292  0.00  0.00     0.165 C 
ATOM     64  H37 MOL d   1      67.921  11.363   8.173  0.00  0.00     0.097 H 
BRANCH  63  65
ATOM     65  C4  MOL d   1      66.474  12.506   7.244  0.00  0.00     0.183 C 
ATOM     66  O3  MOL d   1      65.794  13.535   6.825  0.00  0.00    -0.175 OA
ATOM     67  N4  MOL d   1      66.098  11.490   6.714  0.00  0.00    -0.358 N 
ATOM     68  H47 MOL d   1      66.557  10.629   6.932  0.00  0.00     0.162 HD
BRANCH  67  69
ATOM     69  CA4 MOL d   1      64.977  11.483   5.751  0.00  0.00     0.076 C 
ATOM     70  H48 MOL d   1      64.352  12.334   6.060  0.00  0.00     0.085 H 
BRANCH  69  71
ATOM     71  C5  MOL d   1      64.034  10.265   5.925  0.00  0.00     0.175 C 
ATOM     72  O4  MOL d   1      64.466   8.963   5.958  0.00  0.00    -0.175 OA
ATOM     73  N5  MOL d   1      62.798  10.341   5.777  0.00  0.00    -0.357 N 
ATOM     74  H55 MOL d   1      62.385  11.249   5.706  0.00  0.00     0.162 HD
BRANCH  73  75
ATOM     75  CA5 MOL d   1      61.864   9.101   5.697  0.00  0.00     0.088 C 
ATOM     76  H56 MOL d   1      62.419   8.160   5.571  0.00  0.00     0.087 H 
BRANCH  75  77
ATOM     77  C6  MOL d   1      60.879   9.262   4.622  0.00  0.00     0.238 C 
ATOM     78  O5  MOL d   1      60.587  10.420   4.316  0.00  0.00    -0.271 OA
ATOM     79  N6  MOL d   1      60.318   8.286   3.829  0.00  0.00    -0.368 N 
ATOM     80  H68 MOL d   1      59.652   8.535   3.126  0.00  0.00     0.159 HD
ATOM     81  H69 MOL d   1      60.577   7.328   3.956  0.00  0.00     0.159 HD
ENDBRANCH  75  77
BRANCH  75  82
ATOM     82  CB5 MOL d   1      61.211   9.207   7.025  0.00  0.00    -0.036 C 
ATOM     83  H57 MOL d   1      60.284   8.616   6.997  0.00  0.00     0.036 H 
ATOM     84  H58 MOL d   1      60.966  10.265   7.201  0.00  0.00     0.036 H 
BRANCH  82  85
ATOM     85  CG5 MOL d   1      62.030   8.727   8.169  0.00  0.00    -0.048 C 
ATOM     86  H59 MOL d   1      62.795   9.453   8.480  0.00  0.00     0.035 H 
ATOM     87  H60 MOL d   1      62.505   7.754   7.975  0.00  0.00     0.035 H 
BRANCH  85  88
ATOM     88  CD4 MOL d   1      60.908   8.636   9.121  0.00  0.00     0.009 C 
ATOM     89  H61 MOL d   1      60.194   7.855   8.822  0.00  0.00     0.064 H 
ATOM     90  H62 MOL d   1      60.383   9.598   9.211  0.00  0.00     0.064 H 
BRANCH  88  91
ATOM     91  NE  MOL d   1      61.608   8.273  10.407  0.00  0.00    -0.227 N 
ATOM     92  CZ  MOL d   1      61.102   8.281  11.637  0.00  0.00     0.665 C 
ATOM     93  NH1 MOL d   1      59.870   8.680  11.912  0.00  0.00    -0.235 N 
ATOM     94  NH2 MOL d   1      61.889   7.881  12.645  0.00  0.00    -0.235 N 
ATOM     95  H64 MOL d   1      59.529   8.665  12.884  0.00  0.00     0.174 HD
ATOM     96  H65 MOL d   1      59.253   9.005  11.154  0.00  0.00     0.174 HD
ATOM     97  H66 MOL d   1      62.851   7.567  12.454  0.00  0.00     0.174 HD
ATOM     98  H67 MOL d   1      61.532   7.888  13.611  0.00  0.00     0.174 HD
ATOM     99  H63 MOL d   1      62.593   7.985  10.323  0.00  0.00     0.177 HD
ENDBRANCH  88  91
ENDBRANCH  85  88
ENDBRANCH  82  85
ENDBRANCH  75  82
ENDBRANCH  73  75
ENDBRANCH  69  71
BRANCH  69 100
ATOM    100  CB4 MOL d   1      65.403  11.861   4.306  0.00  0.00    -0.031 C 
ATOM    101  H49 MOL d   1      66.208  11.175   4.003  0.00  0.00     0.037 H 
ATOM    102  H50 MOL d   1      65.788  12.891   4.328  0.00  0.00     0.037 H 
BRANCH 100 103
ATOM    103  CG4 MOL d   1      64.322  11.795   3.258  0.00  0.00     0.011 C 
ATOM    104  H51 MOL d   1      64.600  12.464   2.430  0.00  0.00     0.047 H 
ATOM    105  H52 MOL d   1      63.380  12.142   3.709  0.00  0.00     0.047 H 
BRANCH 103 106
ATOM    106  CD3 MOL d   1      64.108  10.454   2.716  0.00  0.00     0.215 C 
ATOM    107  OE1 MOL d   1      64.821   9.574   2.877  0.00  0.00    -0.274 OA
ATOM    108  NE2 MOL d   1      62.963  10.281   2.058  0.00  0.00    -0.370 N 
ATOM    109  H53 MOL d   1      62.746   9.390   1.658  0.00  0.00     0.159 HD
ATOM    110  H54 MOL d   1      62.321  11.042   1.964  0.00  0.00     0.159 HD
ENDBRANCH 103 106
ENDBRANCH 100 103
ENDBRANCH  69 100
ENDBRANCH  67  69
ENDBRANCH  63  65
BRANCH  63 111
ATOM    111  CB3 MOL d   1      66.919  12.449   9.646  0.00  0.00    -0.031 C 
ATOM    112  H38 MOL d   1      66.253  13.323   9.702  0.00  0.00     0.036 H 
ATOM    113  H39 MOL d   1      67.740  12.567  10.368  0.00  0.00     0.036 H 
BRANCH 111 114
ATOM    114  CG3 MOL d   1      66.133  11.212   9.998  0.00  0.00    -0.063 C 
ATOM    115  H40 MOL d   1      66.630  10.651  10.803  0.00  0.00     0.033 H 
ATOM    116  H41 MOL d   1      66.014  10.563   9.118  0.00  0.00     0.033 H 
BRANCH 114 117
ATOM    117  CD2 MOL d   1      64.836  11.721  10.446  0.00  0.00    -0.068 C 
ATOM    118  H42 MOL d   1      64.190  10.877  10.730  0.00  0.00     0.032 H 
ATOM    119  H43 MOL d   1      64.363  12.286   9.629  0.00  0.00     0.032 H 
BRANCH 117 120
ATOM    120  CE1 MOL d   1      65.029  12.634  11.645  0.00  0.00    -0.077 C 
ATOM    121  H44 MOL d   1      64.052  13.014  11.978  0.00  0.00     0.027 H 
ATOM    122  H45 MOL d   1      65.674  13.479  11.362  0.00  0.00     0.027 H 
ATOM    123  H46 MOL d   1      65.501  12.070  12.463  0.00  0.00     0.027 H 
ENDBRANCH 117 120
ENDBRANCH 114 117
ENDBRANCH 111 114
ENDBRANCH  63 111
ENDBRANCH   1  63
TORSDOF 36
