REMARK  7 active torsions:
REMARK  status: ('A' for Active; 'I' for Inactive)
REMARK    1  A    between atoms: O09_20  and  C10_1 
REMARK    2  A    between atoms: C13_2  and  C16_17 
REMARK    3  A    between atoms: C16_17  and  C17_4 
REMARK    4  A    between atoms: C02_7  and  C01_6 
REMARK    5  A    between atoms: C08_13  and  C02_7 
REMARK    6  A    between atoms: C08_13  and  O09_20 
REMARK    7  A    between atoms: C18_18  and  O19_21 
ROOT
ATOM      1  C08 LO4 d   1      15.358  64.238   8.998  0.00  0.00     0.033 C 
ATOM      2  H15 LO4 d   1      14.702  63.365   8.863  0.00  0.00     0.076 H 
ATOM      3  H16 LO4 d   1      15.822  64.500   8.036  0.00  0.00     0.076 H 
ENDROOT
BRANCH   1   4
ATOM      4  C02 LO4 d   1      16.482  63.837   9.969  0.00  0.00    -0.022 C 
ATOM      5  C03 LO4 d   1      16.214  62.463  10.538  0.00  0.00    -0.056 C 
ATOM      6  C04 LO4 d   1      17.369  62.057  11.403  0.00  0.00    -0.064 C 
ATOM      7  H5  LO4 d   1      16.097  61.740   9.717  0.00  0.00     0.034 H 
ATOM      8  H6  LO4 d   1      15.293  62.486  11.140  0.00  0.00     0.034 H 
ATOM      9  C05 LO4 d   1      18.582  61.884  10.537  0.00  0.00    -0.065 C 
ATOM     10  H7  LO4 d   1      17.137  61.108  11.909  0.00  0.00     0.033 H 
ATOM     11  H8  LO4 d   1      17.560  62.836  12.155  0.00  0.00     0.033 H 
ATOM     12  C06 LO4 d   1      18.992  63.209   9.951  0.00  0.00    -0.064 C 
ATOM     13  H9  LO4 d   1      18.351  61.182   9.723  0.00  0.00     0.033 H 
ATOM     14  H10 LO4 d   1      19.408  61.483  11.143  0.00  0.00     0.033 H 
ATOM     15  C07 LO4 d   1      17.822  63.870   9.243  0.00  0.00    -0.056 C 
ATOM     16  H11 LO4 d   1      19.806  63.048   9.229  0.00  0.00     0.033 H 
ATOM     17  H12 LO4 d   1      19.343  63.868  10.759  0.00  0.00     0.033 H 
ATOM     18  H13 LO4 d   1      18.085  64.925   9.075  0.00  0.00     0.034 H 
ATOM     19  H14 LO4 d   1      17.690  63.366   8.274  0.00  0.00     0.034 H 
BRANCH   4  20
ATOM     20  C01 LO4 d   1      16.514  64.814  11.104  0.00  0.00    -0.067 C 
ATOM     21  H2  LO4 d   1      17.315  64.536  11.805  0.00  0.00     0.028 H 
ATOM     22  H3  LO4 d   1      15.547  64.799  11.628  0.00  0.00     0.028 H 
ATOM     23  H4  LO4 d   1      16.703  65.825  10.713  0.00  0.00     0.028 H 
ENDBRANCH   4  20
ENDBRANCH   1   4
BRANCH   1  24
ATOM     24  O09 LO4 d   1      14.565  65.309   9.394  0.00  0.00    -0.350 OA
BRANCH  24  25
ATOM     25  C10 LO4 d   1      15.051  66.586   9.140  0.00  0.00     0.068 A 
ATOM     26  C15 LO4 d   1      14.161  67.619   8.944  0.00  0.00    -0.050 A 
ATOM     27  C14 LO4 d   1      14.654  68.887   8.710  0.00  0.00    -0.074 A 
ATOM     28  H1  LO4 d   1      13.092  67.439   8.973  0.00  0.00     0.087 H 
ATOM     29  C13 LO4 d   1      16.017  69.118   8.667  0.00  0.00    -0.053 A 
ATOM     30  H19 LO4 d   1      13.966  69.710   8.558  0.00  0.00     0.084 H 
ATOM     31  C12 LO4 d   1      16.888  68.076   8.846  0.00  0.00    -0.074 A 
ATOM     32  C11 LO4 d   1      16.405  66.816   9.090  0.00  0.00    -0.050 A 
ATOM     33  H18 LO4 d   1      17.957  68.247   8.795  0.00  0.00     0.084 H 
ATOM     34  H17 LO4 d   1      17.096  65.995   9.245  0.00  0.00     0.087 H 
BRANCH  29  35
ATOM     35  C16 LO4 d   1      16.578  70.511   8.422  0.00  0.00    -0.007 C 
ATOM     36  H20 LO4 d   1      16.315  70.822   7.400  0.00  0.00     0.048 H 
ATOM     37  H21 LO4 d   1      17.673  70.474   8.524  0.00  0.00     0.048 H 
BRANCH  35  38
ATOM     38  C17 LO4 d   1      16.025  71.552   9.413  0.00  0.00     0.042 A 
ATOM     39  C18 LO4 d   1      16.480  72.867   9.637  0.00  0.00     0.156 A 
ATOM     40  N20 LO4 d   1      15.827  73.570  10.570  0.00  0.00    -0.309 N 
ATOM     41  C21 LO4 d   1      14.825  72.946  11.160  0.00  0.00     0.223 A 
ATOM     42  H22 LO4 d   1      16.082  74.508  10.805  0.00  0.00     0.170 HD
ATOM     43  O22 LO4 d   1      14.015  73.516  12.146  0.00  0.00    -0.164 OA
ATOM     44  S23 LO4 d   1      14.739  71.403  10.492  0.00  0.00    -0.044 SA
BRANCH  39  45
ATOM     45  O19 LO4 d   1      17.537  73.464   8.984  0.00  0.00    -0.345 OA
ATOM     46  H23 LO4 d   1      17.904  72.855   8.354  0.00  0.00     0.219 HD
ENDBRANCH  39  45
ENDBRANCH  35  38
ENDBRANCH  29  35
ENDBRANCH  24  25
ENDBRANCH   1  24
TORSDOF 7
