REMARK  3 active torsions:
REMARK  status: ('A' for Active; 'I' for Inactive)
REMARK    1  A    between atoms: C8_5  and  C16_13 
REMARK    2  A    between atoms: C17_22  and  C19_14 
REMARK    3  A    between atoms: N1_18  and  C17_22 
ROOT
ATOM      1  C1  LOD d   1     -11.898  10.469 -16.008  0.00  0.00    -0.061 A 
ATOM      2  C2  LOD d   1     -10.607  10.628 -16.543  0.00  0.00     0.034 A 
ATOM      3  C3  LOD d   1     -10.288  10.338 -17.877  0.00  0.00    -0.055 A 
ATOM      4  C7  LOD d   1     -17.274   6.660 -20.203  0.00  0.00    -0.038 A 
ATOM      5  C8  LOD d   1     -18.633   6.890 -19.953  0.00  0.00     0.043 A 
ATOM      6  C9  LOD d   1     -19.033   8.011 -19.194  0.00  0.00    -0.064 A 
ATOM      7  C10 LOD d   1     -18.048   8.886 -18.705  0.00  0.00    -0.048 A 
ATOM      8  C11 LOD d   1     -14.841  10.044 -19.470  0.00  0.00     0.039 C 
ATOM      9  C12 LOD d   1     -13.872   7.782 -19.012  0.00  0.00     0.008 C 
ATOM     10  C13 LOD d   1     -16.262   7.519 -19.711  0.00  0.00     0.065 A 
ATOM     11  C14 LOD d   1     -16.678   8.663 -18.961  0.00  0.00     0.095 A 
ATOM     12  C15 LOD d   1     -13.541   9.215 -19.293  0.00  0.00     0.026 C 
ATOM     13  C22 LOD d   1     -11.195   9.486 -20.128  0.00  0.00    -0.039 C 
ATOM     14  N1  LOD d   1     -14.915   7.178 -19.848  0.00  0.00    -0.377 N 
ATOM     15  O1  LOD d   1     -15.788   9.632 -18.486  0.00  0.00    -0.348 OA
ATOM     16  C4  LOD d   1     -11.319   9.878 -18.692  0.00  0.00    -0.049 A 
ATOM     17  C5  LOD d   1     -12.613   9.712 -18.216  0.00  0.00    -0.039 A 
ATOM     18  C6  LOD d   1     -12.920  10.003 -16.869  0.00  0.00    -0.074 A 
ATOM     19 CL1  LOD d   1      -9.371  11.248 -15.523  0.00  0.00    -0.084 Cl
ATOM     20  C23 LOD d   1     -12.672   9.266 -20.563  0.00  0.00    -0.047 C 
ATOM     21  H1  LOD d   1     -12.104  10.696 -14.968  0.00  0.00     0.086 H 
ATOM     22  H2  LOD d   1      -9.281  10.466 -18.258  0.00  0.00     0.086 H 
ATOM     23  H3  LOD d   1     -16.988   5.796 -20.792  0.00  0.00     0.088 H 
ATOM     24  H4  LOD d   1     -20.082   8.194 -18.992  0.00  0.00     0.085 H 
ATOM     25  H5  LOD d   1     -18.346   9.749 -18.120  0.00  0.00     0.087 H 
ATOM     26  H6  LOD d   1     -15.254   9.873 -20.475  0.00  0.00     0.076 H 
ATOM     27  H7  LOD d   1     -14.617  11.114 -19.343  0.00  0.00     0.076 H 
ATOM     28  H8  LOD d   1     -14.201   7.714 -17.965  0.00  0.00     0.066 H 
ATOM     29  H9  LOD d   1     -12.953   7.193 -19.147  0.00  0.00     0.066 H 
ATOM     30  H15 LOD d   1     -10.610   8.561 -20.236  0.00  0.00     0.040 H 
ATOM     31  H16 LOD d   1     -10.725  10.288 -20.717  0.00  0.00     0.040 H 
ATOM     32  H21 LOD d   1     -13.930   9.871 -16.497  0.00  0.00     0.084 H 
ATOM     33  H22 LOD d   1     -12.999  10.097 -21.206  0.00  0.00     0.035 H 
ATOM     34  H23 LOD d   1     -12.761   8.318 -21.114  0.00  0.00     0.035 H 
ENDROOT
BRANCH  14  35
ATOM     35  C17 LOD d   1     -14.441   6.115 -20.751  0.00  0.00    -0.001 C 
ATOM     36  H17 LOD d   1     -15.020   6.134 -21.686  0.00  0.00     0.064 H 
ATOM     37  H18 LOD d   1     -13.375   6.265 -20.977  0.00  0.00     0.064 H 
BRANCH  35  38
ATOM     38  C19 LOD d   1     -14.642   4.745 -20.032  0.00  0.00    -0.039 C 
ATOM     39  C20 LOD d   1     -14.298   3.438 -20.787  0.00  0.00    -0.060 C 
ATOM     40  C21 LOD d   1     -13.781   2.836 -19.457  0.00  0.00    -0.064 C 
ATOM     41  H11 LOD d   1     -13.526   3.553 -21.562  0.00  0.00     0.033 H 
ATOM     42  H12 LOD d   1     -15.169   2.917 -21.211  0.00  0.00     0.033 H 
ATOM     43  C18 LOD d   1     -13.730   4.286 -18.875  0.00  0.00    -0.060 C 
ATOM     44  H13 LOD d   1     -12.802   2.340 -19.531  0.00  0.00     0.033 H 
ATOM     45  H14 LOD d   1     -14.493   2.167 -18.952  0.00  0.00     0.033 H 
ATOM     46  H19 LOD d   1     -14.177   4.390 -17.875  0.00  0.00     0.033 H 
ATOM     47  H20 LOD d   1     -12.729   4.742 -18.878  0.00  0.00     0.033 H 
ATOM     48  H10 LOD d   1     -15.694   4.748 -19.710  0.00  0.00     0.042 H 
ENDBRANCH  35  38
ENDBRANCH  14  35
BRANCH   5  49
ATOM     49  C16 LOD d   1     -19.683   6.002 -20.456  0.00  0.00     0.209 C 
ATOM     50  O2  LOD d   1     -20.798   6.091 -20.063  0.00  0.00    -0.644 OA
ATOM     51  O3  LOD d   1     -19.330   5.108 -21.369  0.00  0.00    -0.644 OA
ENDBRANCH   5  49
TORSDOF 3
