REMARK  4 active torsions:
REMARK  status: ('A' for Active; 'I' for Inactive)
REMARK    1  A    between atoms: C8_5  and  C16_13 
REMARK    2  A    between atoms: C5_24  and  C15_12 
REMARK    3  A    between atoms: C17_21  and  C19_14 
REMARK    4  A    between atoms: N1_17  and  C17_21 
ROOT
ATOM      1  C7  LOJ d   1      15.327  -0.038  23.220  0.00  0.00    -0.038 A 
ATOM      2  C8  LOJ d   1      14.293   0.811  22.812  0.00  0.00     0.043 A 
ATOM      3  C9  LOJ d   1      13.858   0.824  21.491  0.00  0.00    -0.064 A 
ATOM      4  C10 LOJ d   1      14.467  -0.058  20.592  0.00  0.00    -0.048 A 
ATOM      5  C11 LOJ d   1      15.890  -3.156  20.420  0.00  0.00     0.035 C 
ATOM      6  C12 LOJ d   1      18.024  -2.387  21.844  0.00  0.00     0.004 C 
ATOM      7  C13 LOJ d   1      15.974  -0.944  22.335  0.00  0.00     0.065 A 
ATOM      8  C14 LOJ d   1      15.499  -0.937  20.985  0.00  0.00     0.095 A 
ATOM      9  C15 LOJ d   1      17.294  -3.525  21.075  0.00  0.00     0.010 C 
ATOM     10  N1  LOJ d   1      17.051  -1.786  22.783  0.00  0.00    -0.378 N 
ATOM     11  O1  LOJ d   1      15.911  -1.811  19.978  0.00  0.00    -0.348 OA
ATOM     12  H3  LOJ d   1      15.649  -0.004  24.255  0.00  0.00     0.088 H 
ATOM     13  H4  LOJ d   1      13.072   1.497  21.168  0.00  0.00     0.085 H 
ATOM     14  H5  LOJ d   1      14.136  -0.067  19.560  0.00  0.00     0.087 H 
ATOM     15  H6  LOJ d   1      15.093  -3.283  21.167  0.00  0.00     0.076 H 
ATOM     16  H7  LOJ d   1      15.700  -3.820  19.564  0.00  0.00     0.076 H 
ATOM     17  H8  LOJ d   1      18.382  -1.625  21.136  0.00  0.00     0.065 H 
ATOM     18  H9  LOJ d   1      18.878  -2.799  22.402  0.00  0.00     0.065 H 
ATOM     19  H10 LOJ d   1      17.071  -4.297  21.826  0.00  0.00     0.053 H 
ENDROOT
BRANCH  10  20
ATOM     20  C17 LOJ d   1      17.496  -1.733  24.210  0.00  0.00    -0.001 C 
ATOM     21  H16 LOJ d   1      16.599  -1.795  24.844  0.00  0.00     0.064 H 
ATOM     22  H17 LOJ d   1      18.137  -2.608  24.394  0.00  0.00     0.064 H 
BRANCH  20  23
ATOM     23  C19 LOJ d   1      18.284  -0.476  24.632  0.00  0.00    -0.039 C 
ATOM     24  C20 LOJ d   1      19.166  -0.523  25.866  0.00  0.00    -0.060 C 
ATOM     25  C21 LOJ d   1      20.391  -0.657  24.938  0.00  0.00    -0.064 C 
ATOM     26  H12 LOJ d   1      18.991  -1.393  26.517  0.00  0.00     0.033 H 
ATOM     27  H13 LOJ d   1      19.152   0.396  26.470  0.00  0.00     0.033 H 
ATOM     28  C18 LOJ d   1      19.530  -0.158  23.792  0.00  0.00    -0.060 C 
ATOM     29  H14 LOJ d   1      20.758  -1.687  24.816  0.00  0.00     0.033 H 
ATOM     30  H15 LOJ d   1      21.232   0.004  25.196  0.00  0.00     0.033 H 
ATOM     31  H18 LOJ d   1      19.660   0.909  23.558  0.00  0.00     0.033 H 
ATOM     32  H19 LOJ d   1      19.617  -0.749  22.868  0.00  0.00     0.033 H 
ATOM     33  H11 LOJ d   1      17.567   0.358  24.669  0.00  0.00     0.042 H 
ENDBRANCH  20  23
ENDBRANCH  10  20
BRANCH   9  34
ATOM     34  C5  LOJ d   1      18.232  -4.151  20.079  0.00  0.00    -0.029 A 
ATOM     35  C4  LOJ d   1      18.482  -3.453  18.860  0.00  0.00    -0.073 A 
ATOM     36  C3  LOJ d   1      19.380  -3.960  17.910  0.00  0.00    -0.061 A 
ATOM     37  H20 LOJ d   1      17.970  -2.517  18.666  0.00  0.00     0.084 H 
ATOM     38  C2  LOJ d   1      20.035  -5.170  18.166  0.00  0.00     0.035 A 
ATOM     39  H2  LOJ d   1      19.565  -3.421  16.988  0.00  0.00     0.086 H 
ATOM     40  C1  LOJ d   1      19.796  -5.893  19.336  0.00  0.00    -0.040 A 
ATOM     41 CL2  LOJ d   1      21.246  -5.584  16.964  0.00  0.00    -0.084 Cl
ATOM     42  C6  LOJ d   1      18.913  -5.381  20.280  0.00  0.00     0.042 A 
ATOM     43  H1  LOJ d   1      20.293  -6.841  19.506  0.00  0.00     0.088 H 
ATOM     44 CL1  LOJ d   1      18.788  -6.339  21.718  0.00  0.00    -0.084 Cl
ENDBRANCH   9  34
BRANCH   2  45
ATOM     45  C16 LOJ d   1      13.666   1.637  23.785  0.00  0.00     0.209 C 
ATOM     46  O2  LOJ d   1      13.238   2.657  23.422  0.00  0.00    -0.644 OA
ATOM     47  O3  LOJ d   1      13.597   1.183  25.064  0.00  0.00    -0.644 OA
ENDBRANCH   2  45
TORSDOF 4
