REMARK  27 active torsions:
REMARK  status: ('A' for Active; 'I' for Inactive)
REMARK    1  A    between atoms: C_2  and  CA_1 
REMARK       I    between atoms: N_4  and  C_2 
REMARK    2  A    between atoms: CA_5  and  N_4 
REMARK    3  A    between atoms: C_6  and  CA_5 
REMARK       I    between atoms: N_8  and  C_6 
REMARK    4  A    between atoms: CA_9  and  N_8 
REMARK    5  A    between atoms: C_10  and  CA_9 
REMARK       I    between atoms: N_12  and  C_10 
REMARK    6  A    between atoms: CA_13  and  N_12 
REMARK    7  A    between atoms: C_14  and  CA_13 
REMARK    8  A    between atoms: CA_13  and  CB_16 
REMARK       I    between atoms: N_26  and  C_14 
REMARK    9  A    between atoms: CH_18  and  CH3_19 
REMARK       I    between atoms: NZ_20  and  CH_18 
REMARK   10  A    between atoms: CE_21  and  NZ_20 
REMARK   11  A    between atoms: CD_22  and  CE_21 
REMARK   12  A    between atoms: CG_23  and  CD_22 
REMARK   13  A    between atoms: CB_24  and  CG_23 
REMARK   14  A    between atoms: CA_25  and  CB_24 
REMARK   15  A    between atoms: CA_25  and  N_26 
REMARK   16  A    between atoms: CA_25  and  C_27 
REMARK       I    between atoms: C_27  and  N_29 
REMARK   17  A    between atoms: N_29  and  CA_30 
REMARK   18  A    between atoms: CA_30  and  C_31 
REMARK   19  A    between atoms: CA_30  and  CB_33 
REMARK       I    between atoms: C_31  and  N_40 
REMARK   20  A    between atoms: CB_33  and  CG_34 
REMARK   21  A    between atoms: CG_34  and  CD_35 
REMARK   22  A    between atoms: CD_35  and  NE_36 
REMARK       I    between atoms: NE_36  and  CZ_37 
REMARK       I    between atoms: CZ_37  and  NH1_38 
REMARK   23  A    between atoms: N_40  and  CA_41 
REMARK   24  A    between atoms: CA_41  and  C_42 
REMARK   25  A    between atoms: CA_41  and  CB_44 
REMARK       I    between atoms: C_42  and  N_50 
REMARK   26  A    between atoms: CB_44  and  CG_45 
REMARK   27  A    between atoms: N_50  and  CA_51 
ROOT
ATOM      1  CA  LYS d   1      53.206   5.841 -10.752  0.00  0.00     0.089 C 
ATOM      2  H27 LYS d   1      53.323   6.537 -11.596  0.00  0.00     0.087 H 
ENDROOT
BRANCH   1   3
ATOM      3  CB  LYS d   1      51.797   6.017 -10.163  0.00  0.00    -0.038 C 
ATOM      4  H25 LYS d   1      51.074   5.874 -10.979  0.00  0.00     0.036 H 
ATOM      5  H26 LYS d   1      51.653   5.234  -9.404  0.00  0.00     0.036 H 
BRANCH   3   6
ATOM      6  CG  LYS d   1      51.492   7.370  -9.502  0.00  0.00    -0.061 C 
ATOM      7  H23 LYS d   1      52.094   7.466  -8.586  0.00  0.00     0.033 H 
ATOM      8  H24 LYS d   1      51.755   8.178 -10.200  0.00  0.00     0.033 H 
BRANCH   6   9
ATOM      9  CD  LYS d   1      49.999   7.484  -9.138  0.00  0.00    -0.050 C 
ATOM     10  H21 LYS d   1      49.674   6.541  -8.674  0.00  0.00     0.035 H 
ATOM     11  H22 LYS d   1      49.870   8.309  -8.421  0.00  0.00     0.035 H 
BRANCH   9  12
ATOM     12  CE  LYS d   1      49.124   7.758 -10.372  0.00  0.00    -0.005 C 
ATOM     13  H19 LYS d   1      49.380   8.746 -10.783  0.00  0.00     0.064 H 
ATOM     14  H20 LYS d   1      49.317   6.984 -11.130  0.00  0.00     0.064 H 
BRANCH  12  15
ATOM     15  NZ  LYS d   1      47.707   7.739 -10.020  0.00  0.00    -0.361 N 
ATOM     16  CH  LYS d   1      46.917   8.807  -9.954  0.00  0.00     0.213 C 
ATOM     17  OH  LYS d   1      47.300   9.961 -10.129  0.00  0.00    -0.274 OA
ATOM     18  H18 LYS d   1      47.297   6.851  -9.812  0.00  0.00     0.162 HD
BRANCH  16  19
ATOM     19  CH3 LYS d   1      45.464   8.532  -9.648  0.00  0.00    -0.003 C 
ATOM     20  H15 LYS d   1      45.314   7.449  -9.524  0.00  0.00     0.040 H 
ATOM     21  H16 LYS d   1      44.839   8.896 -10.477  0.00  0.00     0.040 H 
ATOM     22  H17 LYS d   1      45.180   9.050  -8.720  0.00  0.00     0.040 H 
ENDBRANCH  16  19
ENDBRANCH  12  15
ENDBRANCH   9  12
ENDBRANCH   6   9
ENDBRANCH   3   6
ENDBRANCH   1   3
BRANCH   1  23
ATOM     23  N   LYS d   1      53.295   4.462 -11.268  0.00  0.00    -0.346 N 
ATOM     24  C   LYS d   1      52.942   4.092 -12.506  0.00  0.00     0.240 C 
ATOM     25  O   LYS d   1      52.668   4.916 -13.382  0.00  0.00    -0.271 OA
ATOM     26  H28 LYS d   1      53.642   3.755 -10.652  0.00  0.00     0.163 HD
BRANCH  24  27
ATOM     27  CA  LYS d   1      52.881   2.578 -12.803  0.00  0.00     0.086 C 
ATOM     28  H11 LYS d   1      52.673   2.055 -11.858  0.00  0.00     0.086 H 
BRANCH  27  29
ATOM     29  N   LYS d   1      51.824   2.248 -13.763  0.00  0.00    -0.347 N 
ATOM     30  C   LYS d   1      50.922   1.269 -13.641  0.00  0.00     0.236 C 
ATOM     31  O   LYS d   1      50.831   0.572 -12.631  0.00  0.00    -0.272 OA
ATOM     32  H10 LYS d   1      51.773   2.809 -14.589  0.00  0.00     0.163 HD
BRANCH  30  33
ATOM     33  CA  LYS d   1      49.935   1.049 -14.796  0.00  0.00     0.069 C 
ATOM     34  H8  LYS d   1      50.447   0.462 -15.572  0.00  0.00     0.078 H 
ATOM     35  H9  LYS d   1      49.081   0.476 -14.407  0.00  0.00     0.078 H 
BRANCH  33  36
ATOM     36  N   LYS d   1      49.410   2.275 -15.427  0.00  0.00    -0.351 N 
ATOM     37  C   LYS d   1      50.062   3.012 -16.335  0.00  0.00     0.235 C 
ATOM     38  O   LYS d   1      51.243   2.793 -16.612  0.00  0.00    -0.272 OA
ATOM     39  H7  LYS d   1      48.497   2.579 -15.156  0.00  0.00     0.163 HD
BRANCH  37  40
ATOM     40  CA  LYS d   1      49.316   4.157 -17.039  0.00  0.00     0.069 C 
ATOM     41  H5  LYS d   1      49.979   5.035 -17.052  0.00  0.00     0.078 H 
ATOM     42  H6  LYS d   1      49.107   3.840 -18.071  0.00  0.00     0.078 H 
BRANCH  40  43
ATOM     43  N   LYS d   1      48.043   4.560 -16.423  0.00  0.00    -0.353 N 
ATOM     44  C   LYS d   1      47.946   5.397 -15.388  0.00  0.00     0.213 C 
ATOM     45  O   LYS d   1      48.919   5.838 -14.781  0.00  0.00    -0.274 OA
ATOM     46  H4  LYS d   1      47.198   4.184 -16.803  0.00  0.00     0.162 HD
BRANCH  44  47
ATOM     47  CA  LYS d   1      46.549   5.818 -14.992  0.00  0.00    -0.003 C 
ATOM     48  H1  LYS d   1      45.817   5.322 -15.646  0.00  0.00     0.040 H 
ATOM     49  H2  LYS d   1      46.452   6.909 -15.094  0.00  0.00     0.040 H 
ATOM     50  H3  LYS d   1      46.361   5.530 -13.947  0.00  0.00     0.040 H 
ENDBRANCH  44  47
ENDBRANCH  40  43
ENDBRANCH  37  40
ENDBRANCH  33  36
ENDBRANCH  30  33
ENDBRANCH  27  29
BRANCH  27  51
ATOM     51  CB  LYS d   1      54.212   2.067 -13.366  0.00  0.00    -0.049 C 
ATOM     52  H12 LYS d   1      55.023   2.303 -12.662  0.00  0.00     0.030 H 
ATOM     53  H13 LYS d   1      54.412   2.553 -14.332  0.00  0.00     0.030 H 
ATOM     54  H14 LYS d   1      54.156   0.978 -13.508  0.00  0.00     0.030 H 
ENDBRANCH  27  51
ENDBRANCH  24  27
ENDBRANCH   1  23
BRANCH   1  55
ATOM     55  C   LYS d   1      54.304   6.169  -9.726  0.00  0.00     0.241 C 
ATOM     56  O   LYS d   1      54.550   5.391  -8.805  0.00  0.00    -0.271 OA
ATOM     57  N   LYS d   1      54.939   7.341  -9.860  0.00  0.00    -0.346 N 
ATOM     58  H29 LYS d   1      54.723   7.897 -10.663  0.00  0.00     0.163 HD
BRANCH  57  59
ATOM     59  CA  LYS d   1      55.935   7.871  -8.907  0.00  0.00     0.089 C 
ATOM     60  H30 LYS d   1      55.684   7.511  -7.898  0.00  0.00     0.087 H 
BRANCH  59  61
ATOM     61  C   LYS d   1      55.905   9.405  -8.884  0.00  0.00     0.241 C 
ATOM     62  O   LYS d   1      55.975  10.049  -9.933  0.00  0.00    -0.271 OA
ATOM     63  N   LYS d   1      55.783   9.983  -7.689  0.00  0.00    -0.346 N 
ATOM     64  H42 LYS d   1      55.749   9.384  -6.889  0.00  0.00     0.163 HD
BRANCH  63  65
ATOM     65  CA  LYS d   1      55.694  11.433  -7.456  0.00  0.00     0.094 C 
ATOM     66  H43 LYS d   1      55.029  11.857  -8.223  0.00  0.00     0.088 H 
BRANCH  65  67
ATOM     67  C   LYS d   1      57.054  12.143  -7.583  0.00  0.00     0.240 C 
ATOM     68  O   LYS d   1      58.111  11.525  -7.411  0.00  0.00    -0.271 OA
ATOM     69  N   LYS d   1      57.026  13.452  -7.861  0.00  0.00    -0.364 N 
ATOM     70  H49 LYS d   1      56.132  13.883  -7.985  0.00  0.00     0.161 HD
BRANCH  69  71
ATOM     71  CA  LYS d   1      58.215  14.295  -7.996  0.00  0.00    -0.018 C 
ATOM     72  H50 LYS d   1      57.909  15.326  -8.225  0.00  0.00     0.056 H 
ATOM     73  H51 LYS d   1      58.847  13.910  -8.810  0.00  0.00     0.056 H 
ATOM     74  H52 LYS d   1      58.783  14.282  -7.054  0.00  0.00     0.056 H 
ENDBRANCH  69  71
ENDBRANCH  65  67
BRANCH  65  75
ATOM     75  CB  LYS d   1      55.058  11.685  -6.079  0.00  0.00     0.004 C 
ATOM     76  H44 LYS d   1      54.967  12.771  -5.931  0.00  0.00     0.046 H 
ATOM     77  H45 LYS d   1      55.720  11.264  -5.308  0.00  0.00     0.046 H 
BRANCH  75  78
ATOM     78  CG  LYS d   1      53.686  11.064  -5.923  0.00  0.00     0.053 A 
ATOM     79  ND1 LYS d   1      53.415   9.707  -5.715  0.00  0.00    -0.247 NA
ATOM     80  CE1 LYS d   1      52.076   9.597  -5.682  0.00  0.00     0.064 A 
ATOM     81  NE2 LYS d   1      51.503  10.798  -5.862  0.00  0.00    -0.359 N 
ATOM     82  H47 LYS d   1      51.532   8.665  -5.531  0.00  0.00     0.143 H 
ATOM     83  CD2 LYS d   1      52.501  11.735  -6.019  0.00  0.00     0.002 A 
ATOM     84  H48 LYS d   1      50.491  10.987  -5.880  0.00  0.00     0.166 HD
ATOM     85  H46 LYS d   1      52.370  12.803  -6.187  0.00  0.00     0.114 H 
ENDBRANCH  75  78
ENDBRANCH  65  75
ENDBRANCH  63  65
ENDBRANCH  59  61
BRANCH  59  86
ATOM     86  CB  LYS d   1      57.325   7.322  -9.287  0.00  0.00    -0.036 C 
ATOM     87  H31 LYS d   1      57.642   7.789 -10.231  0.00  0.00     0.036 H 
ATOM     88  H32 LYS d   1      57.248   6.233  -9.425  0.00  0.00     0.036 H 
BRANCH  86  89
ATOM     89  CG  LYS d   1      58.390   7.607  -8.217  0.00  0.00    -0.048 C 
ATOM     90  H33 LYS d   1      58.057   7.196  -7.253  0.00  0.00     0.035 H 
ATOM     91  H34 LYS d   1      58.530   8.694  -8.123  0.00  0.00     0.035 H 
BRANCH  89  92
ATOM     92  CD  LYS d   1      59.718   6.957  -8.613  0.00  0.00     0.009 C 
ATOM     93  H35 LYS d   1      60.078   7.422  -9.542  0.00  0.00     0.064 H 
ATOM     94  H36 LYS d   1      59.552   5.883  -8.781  0.00  0.00     0.064 H 
BRANCH  92  95
ATOM     95  NE  LYS d   1      60.744   7.123  -7.568  0.00  0.00    -0.227 N 
ATOM     96  CZ  LYS d   1      61.990   6.688  -7.624  0.00  0.00     0.665 C 
ATOM     97  NH1 LYS d   1      62.452   6.042  -8.656  0.00  0.00    -0.235 N 
ATOM     98  NH2 LYS d   1      62.803   6.895  -6.630  0.00  0.00    -0.235 N 
ATOM     99  H38 LYS d   1      63.429   5.717  -8.665  0.00  0.00     0.174 HD
ATOM    100  H39 LYS d   1      61.840   5.856  -9.463  0.00  0.00     0.174 HD
ATOM    101  H40 LYS d   1      62.477   7.402  -5.795  0.00  0.00     0.174 HD
ATOM    102  H41 LYS d   1      63.773   6.552  -6.678  0.00  0.00     0.174 HD
ATOM    103  H37 LYS d   1      60.463   7.625  -6.714  0.00  0.00     0.177 HD
ENDBRANCH  92  95
ENDBRANCH  89  92
ENDBRANCH  86  89
ENDBRANCH  59  86
ENDBRANCH  57  59
ENDBRANCH   1  55
TORSDOF 27
