REMARK  7 active torsions:
REMARK  status: ('A' for Active; 'I' for Inactive)
REMARK    1  A    between atoms: C13_1  and  N4_26 
REMARK    2  A    between atoms: C15_5  and  C18_2 
REMARK    3  A    between atoms: C9_23  and  C17_3 
REMARK    4  A    between atoms: C8_22  and  C16_4 
REMARK       I    between atoms: N4_26  and  C15_5 
REMARK    5  A    between atoms: C19_6  and  C20_7 
REMARK    6  A    between atoms: C1_10  and  N1_11 
REMARK    7  A    between atoms: C4_14  and  C7_17 
REMARK       I    between atoms: C7_17  and  N2_19 
ROOT
ATOM      1  C13 LTJ d   1      22.472  -8.741  -1.298  0.00  0.00     0.028 C 
ATOM      2  C11 LTJ d   1      23.233  -6.487  -2.142  0.00  0.00    -0.048 C 
ATOM      3  C12 LTJ d   1      23.421  -8.007  -2.256  0.00  0.00    -0.043 C 
ATOM      4  N1  LTJ d   1      20.893  -6.900  -1.505  0.00  0.00    -0.376 N 
ATOM      5  C10 LTJ d   1      21.767  -6.088  -2.355  0.00  0.00    -0.005 C 
ATOM      6  C14 LTJ d   1      21.021  -8.346  -1.573  0.00  0.00     0.014 C 
ATOM      7  H1  LTJ d   1      22.713  -8.436  -0.269  0.00  0.00     0.075 H 
ATOM      8  H13 LTJ d   1      23.853  -5.991  -2.903  0.00  0.00     0.035 H 
ATOM      9  H14 LTJ d   1      23.551  -6.161  -1.141  0.00  0.00     0.035 H 
ATOM     10  H15 LTJ d   1      23.207  -8.321  -3.288  0.00  0.00     0.036 H 
ATOM     11  H16 LTJ d   1      24.460  -8.263  -2.002  0.00  0.00     0.036 H 
ATOM     12  H21 LTJ d   1      21.497  -6.246  -3.410  0.00  0.00     0.064 H 
ATOM     13  H22 LTJ d   1      21.639  -5.026  -2.099  0.00  0.00     0.064 H 
ATOM     14  H23 LTJ d   1      20.366  -8.808  -0.820  0.00  0.00     0.067 H 
ATOM     15  H24 LTJ d   1      20.730  -8.693  -2.575  0.00  0.00     0.067 H 
ENDROOT
BRANCH   4  16
ATOM     16  C1  LTJ d   1      19.573  -6.392  -1.182  0.00  0.00     0.082 A 
ATOM     17  C2  LTJ d   1      18.665  -6.130  -2.216  0.00  0.00     0.144 A 
ATOM     18  C3  LTJ d   1      17.381  -5.653  -2.009  0.00  0.00    -0.026 A 
ATOM     19  F1  LTJ d   1      19.014  -6.336  -3.514  0.00  0.00    -0.204 F 
ATOM     20  C4  LTJ d   1      16.964  -5.463  -0.704  0.00  0.00     0.062 A 
ATOM     21  H17 LTJ d   1      16.724  -5.436  -2.843  0.00  0.00     0.090 H 
ATOM     22  C5  LTJ d   1      17.841  -5.736   0.339  0.00  0.00     0.061 A 
ATOM     23  C6  LTJ d   1      19.170  -6.237   0.156  0.00  0.00     0.029 A 
ATOM     24  N3  LTJ d   1      17.642  -5.660   1.713  0.00  0.00    -0.358 N 
ATOM     25  C9  LTJ d   1      19.638  -6.357   1.395  0.00  0.00    -0.025 A 
ATOM     26  C8  LTJ d   1      18.779  -5.986   2.317  0.00  0.00     0.012 A 
ATOM     27  H20 LTJ d   1      16.764  -5.396   2.182  0.00  0.00     0.166 HD
BRANCH  20  28
ATOM     28  C7  LTJ d   1      15.554  -4.956  -0.391  0.00  0.00     0.251 C 
ATOM     29  O1  LTJ d   1      15.317  -4.510   0.692  0.00  0.00    -0.268 OA
ATOM     30  N2  LTJ d   1      14.527  -5.043  -1.406  0.00  0.00    -0.366 N 
ATOM     31  H18 LTJ d   1      13.603  -4.715  -1.212  0.00  0.00     0.159 HD
ATOM     32  H19 LTJ d   1      14.741  -5.432  -2.302  0.00  0.00     0.159 HD
ENDBRANCH  20  28
BRANCH  25  33
ATOM     33  C17 LTJ d   1      21.067  -6.839   1.737  0.00  0.00    -0.048 C 
ATOM     34  H3  LTJ d   1      21.600  -7.095   0.809  0.00  0.00     0.033 H 
ATOM     35  H4  LTJ d   1      21.009  -7.727   2.383  0.00  0.00     0.033 H 
ATOM     36  H5  LTJ d   1      21.608  -6.038   2.262  0.00  0.00     0.033 H 
ENDBRANCH  25  33
BRANCH  26  37
ATOM     37  C16 LTJ d   1      18.917  -5.936   3.839  0.00  0.00    -0.037 C 
ATOM     38  H6  LTJ d   1      19.934  -6.243   4.125  0.00  0.00     0.035 H 
ATOM     39  H7  LTJ d   1      18.185  -6.619   4.296  0.00  0.00     0.035 H 
ATOM     40  H8  LTJ d   1      18.731  -4.910   4.191  0.00  0.00     0.035 H 
ENDBRANCH  26  37
ENDBRANCH   4  16
BRANCH   1  41
ATOM     41  N4  LTJ d   1      22.694 -10.177  -1.405  0.00  0.00    -0.351 N 
ATOM     42  C15 LTJ d   1      22.203 -11.125  -0.432  0.00  0.00     0.241 C 
ATOM     43  O2  LTJ d   1      21.534 -10.765   0.487  0.00  0.00    -0.269 OA
ATOM     44  H25 LTJ d   1      23.210 -10.522  -2.189  0.00  0.00     0.163 HD
BRANCH  42  45
ATOM     45  C18 LTJ d   1      22.587 -12.586  -0.647  0.00  0.00    -0.022 C 
ATOM     46  C19 LTJ d   1      22.023 -13.614  -0.039  0.00  0.00    -0.102 C 
ATOM     47  H9  LTJ d   1      21.200 -13.469   0.659  0.00  0.00     0.076 H 
ATOM     48  H2  LTJ d   1      23.387 -12.797  -1.355  0.00  0.00     0.091 H 
BRANCH  46  49
ATOM     49  C20 LTJ d   1      22.558 -15.010  -0.342  0.00  0.00    -0.059 C 
ATOM     50  H10 LTJ d   1      21.990 -15.754   0.236  0.00  0.00     0.032 H 
ATOM     51  H11 LTJ d   1      23.621 -15.063  -0.065  0.00  0.00     0.032 H 
ATOM     52  H12 LTJ d   1      22.448 -15.220  -1.416  0.00  0.00     0.032 H 
ENDBRANCH  46  49
ENDBRANCH  42  45
ENDBRANCH   1  41
TORSDOF 7
