REMARK  5 active torsions:
REMARK  status: ('A' for Active; 'I' for Inactive)
REMARK    1  A    between atoms: C6_3  and  N17_17 
REMARK    2  A    between atoms: N11_13  and  C7_4 
REMARK    3  A    between atoms: C2_11  and  C1_10 
REMARK    4  A    between atoms: C2_11  and  C29_29 
REMARK       I    between atoms: N17_17  and  C18_18 
REMARK    5  A    between atoms: C18_18  and  C20_20 
ROOT
ATOM      1  C4  LS7 d   1      36.298   7.925  21.387  0.00  0.00    -0.020 A 
ATOM      2  C5  LS7 d   1      37.130   7.819  20.282  0.00  0.00    -0.046 A 
ATOM      3  C6  LS7 d   1      37.558   6.572  19.815  0.00  0.00     0.057 A 
ATOM      4  C7  LS7 d   1      37.116   5.410  20.483  0.00  0.00     0.040 A 
ATOM      5  C8  LS7 d   1      36.273   5.527  21.597  0.00  0.00    -0.027 A 
ATOM      6  C9  LS7 d   1      35.860   6.783  22.056  0.00  0.00     0.078 A 
ATOM      7  C3  LS7 d   1      35.697   9.127  22.090  0.00  0.00    -0.010 C 
ATOM      8  C2  LS7 d   1      34.994   8.510  23.326  0.00  0.00     0.064 C 
ATOM      9  O10 LS7 d   1      35.052   7.090  23.108  0.00  0.00    -0.340 OA
ATOM     10  H1  LS7 d   1      37.454   8.719  19.771  0.00  0.00     0.088 H 
ATOM     11  H2  LS7 d   1      35.937   4.633  22.110  0.00  0.00     0.090 H 
ATOM     12  H7  LS7 d   1      34.972   9.640  21.441  0.00  0.00     0.044 H 
ATOM     13  H8  LS7 d   1      36.481   9.835  22.396  0.00  0.00     0.044 H 
ENDROOT
BRANCH   3  14
ATOM     14  N17 LS7 d   1      38.393   6.418  18.681  0.00  0.00    -0.321 N 
ATOM     15  C18 LS7 d   1      39.132   7.335  18.002  0.00  0.00     0.261 C 
ATOM     16  O19 LS7 d   1      39.175   8.513  18.308  0.00  0.00    -0.267 OA
ATOM     17  H16 LS7 d   1      38.447   5.486  18.323  0.00  0.00     0.169 HD
BRANCH  15  18
ATOM     18  C20 LS7 d   1      39.889   6.868  16.833  0.00  0.00     0.099 A 
ATOM     19  C21 LS7 d   1      40.323   7.652  15.749  0.00  0.00     0.041 A 
ATOM     20  N22 LS7 d   1      40.948   6.886  14.895  0.00  0.00    -0.178 NA
ATOM     21  H17 LS7 d   1      40.164   8.724  15.639  0.00  0.00     0.119 H 
ATOM     22  N23 LS7 d   1      40.957   5.566  15.357  0.00  0.00    -0.226 N 
ATOM     23  C24 LS7 d   1      40.302   5.547  16.564  0.00  0.00     0.167 A 
ATOM     24  C28 LS7 d   1      41.481   4.420  14.818  0.00  0.00     0.007 A 
ATOM     25  N25 LS7 d   1      40.158   4.395  17.230  0.00  0.00    -0.240 NA
ATOM     26  C26 LS7 d   1      40.652   3.273  16.731  0.00  0.00     0.006 A 
ATOM     27  C27 LS7 d   1      41.333   3.249  15.499  0.00  0.00    -0.049 A 
ATOM     28  H18 LS7 d   1      40.529   2.345  17.287  0.00  0.00     0.114 H 
ATOM     29  H19 LS7 d   1      41.732   2.317  15.100  0.00  0.00     0.087 H 
ATOM     30  H20 LS7 d   1      42.005   4.445  13.864  0.00  0.00     0.115 H 
ENDBRANCH  15  18
ENDBRANCH   3  14
BRANCH   4  31
ATOM     31  N11 LS7 d   1      37.539   4.145  20.013  0.00  0.00    -0.277 NA
ATOM     32  C12 LS7 d   1      38.358   3.373  20.982  0.00  0.00     0.004 C 
ATOM     33  C13 LS7 d   1      38.885   2.084  20.330  0.00  0.00     0.031 C 
ATOM     34  H3  LS7 d   1      39.209   3.988  21.308  0.00  0.00     0.059 H 
ATOM     35  H4  LS7 d   1      37.739   3.112  21.853  0.00  0.00     0.059 H 
ATOM     36  O14 LS7 d   1      37.802   1.383  19.695  0.00  0.00    -0.389 OA
ATOM     37  H5  LS7 d   1      39.334   1.441  21.102  0.00  0.00     0.076 H 
ATOM     38  H6  LS7 d   1      39.646   2.340  19.578  0.00  0.00     0.076 H 
ATOM     39  C15 LS7 d   1      37.082   2.111  18.686  0.00  0.00     0.031 C 
ATOM     40  C16 LS7 d   1      36.480   3.378  19.314  0.00  0.00     0.004 C 
ATOM     41  H12 LS7 d   1      36.276   1.481  18.282  0.00  0.00     0.076 H 
ATOM     42  H13 LS7 d   1      37.769   2.393  17.874  0.00  0.00     0.076 H 
ATOM     43  H14 LS7 d   1      36.038   4.003  18.524  0.00  0.00     0.059 H 
ATOM     44  H15 LS7 d   1      35.700   3.093  20.035  0.00  0.00     0.059 H 
ENDBRANCH   4  31
BRANCH   8  45
ATOM     45  C1  LS7 d   1      35.739   8.885  24.607  0.00  0.00    -0.047 C 
ATOM     46  H9  LS7 d   1      35.227   8.439  25.473  0.00  0.00     0.031 H 
ATOM     47  H10 LS7 d   1      35.756   9.980  24.714  0.00  0.00     0.031 H 
ATOM     48  H11 LS7 d   1      36.770   8.506  24.556  0.00  0.00     0.031 H 
ENDBRANCH   8  45
BRANCH   8  49
ATOM     49  C29 LS7 d   1      33.534   8.962  23.410  0.00  0.00    -0.047 C 
ATOM     50  H21 LS7 d   1      33.011   8.686  22.483  0.00  0.00     0.031 H 
ATOM     51  H22 LS7 d   1      33.495  10.053  23.542  0.00  0.00     0.031 H 
ATOM     52  H23 LS7 d   1      33.047   8.472  24.266  0.00  0.00     0.031 H 
ENDBRANCH   8  49
TORSDOF 5
