REMARK WARNING: 32 MAX_TORS EXCEEDED!!!
REMARK  37 active torsions:
REMARK  status: ('A' for Active; 'I' for Inactive)
REMARK    1  A    between atoms: N_1  and  CA_2 
REMARK    2  A    between atoms: CA_2  and  C_3 
REMARK    3  A    between atoms: CA_2  and  CB_5 
REMARK       I    between atoms: C_3  and  N_8 
REMARK    4  A    between atoms: CB_5  and  OG1_6 
REMARK    5  A    between atoms: CB_5  and  CG2_7 
REMARK    6  A    between atoms: N_8  and  CA_9 
REMARK    7  A    between atoms: CA_9  and  C_10 
REMARK    8  A    between atoms: CA_9  and  CB_12 
REMARK       I    between atoms: C_10  and  N_15 
REMARK    9  A    between atoms: CB_12  and  OG1_13 
REMARK   10  A    between atoms: CB_12  and  CG2_14 
REMARK   11  A    between atoms: N_15  and  CA_16 
REMARK   12  A    between atoms: CA_16  and  C_17 
REMARK   13  A    between atoms: CA_16  and  CB_19 
REMARK       I    between atoms: C_17  and  N_20 
REMARK   14  A    between atoms: CA_21  and  C_22 
REMARK       I    between atoms: C_22  and  N_27 
REMARK   15  A    between atoms: N_27  and  CA_28 
REMARK   16  A    between atoms: CA_28  and  C_29 
REMARK   17  A    between atoms: CA_28  and  CB_31 
REMARK       I    between atoms: C_29  and  N_33 
REMARK   18  A    between atoms: CB_31  and  OG_32 
REMARK   19  A    between atoms: N_33  and  CA_34 
REMARK   20  A    between atoms: CA_34  and  C_35 
REMARK   21  A    between atoms: CA_34  and  CB_37 
REMARK       I    between atoms: C_35  and  N_41 
REMARK   22  A    between atoms: CB_37  and  CG_38 
REMARK   23  A    between atoms: CG_38  and  CD1_39 
REMARK   24  A    between atoms: CG_38  and  CD2_40 
REMARK   25  A    between atoms: N_41  and  CA_42 
REMARK   26  A    between atoms: CA_42  and  C_43 
REMARK   27  A    between atoms: CA_42  and  CB_45 
REMARK       I    between atoms: C_43  and  N_47 
REMARK   28  A    between atoms: CB_45  and  OG_46 
REMARK   29  A    between atoms: N_47  and  CA_48 
REMARK   30  A    between atoms: CA_48  and  C_49 
REMARK       I    between atoms: C_49  and  N_51 
REMARK   31  A    between atoms: N_51  and  CA_52 
REMARK   32  A    between atoms: CA_52  and  C_53 
REMARK   33  A    between atoms: CA_52  and  CB_55 
REMARK   34  A    between atoms: CB_55  and  CG_56 
REMARK   35  A    between atoms: CG_56  and  CD_57 
REMARK   36  A    between atoms: CD_57  and  CE_58 
REMARK   37  A    between atoms: CE_58  and  NZ_59 
ROOT
ATOM      1  CA  THR d   1      34.596  61.361  26.551  0.00  0.00     0.109 C 
ATOM      2  H30 THR d   1      33.607  60.969  26.270  0.00  0.00     0.090 H 
ENDROOT
BRANCH   1   3
ATOM      3  N   THR d   1      34.559  61.802  27.954  0.00  0.00    -0.344 N 
ATOM      4  C   THR d   1      34.235  61.060  28.976  0.00  0.00     0.241 C 
ATOM      5  O   THR d   1      33.838  59.923  28.863  0.00  0.00    -0.271 OA
ATOM      6  H29 THR d   1      34.804  62.754  28.140  0.00  0.00     0.163 HD
BRANCH   4   7
ATOM      7  CA  THR d   1      34.366  61.760  30.345  0.00  0.00     0.091 C 
ATOM      8  N   THR d   1      33.274  61.352  31.208  0.00  0.00    -0.337 N 
ATOM      9  C   THR d   1      31.998  61.540  30.776  0.00  0.00     0.243 C 
ATOM     10  CD  THR d   1      33.738  60.516  32.317  0.00  0.00    -0.001 C 
ATOM     11  O   THR d   1      31.760  62.203  29.771  0.00  0.00    -0.271 OA
ATOM     12  CG  THR d   1      35.203  60.928  32.453  0.00  0.00    -0.048 C 
ATOM     13  H27 THR d   1      33.647  59.447  32.074  0.00  0.00     0.064 H 
ATOM     14  H28 THR d   1      33.178  60.732  33.239  0.00  0.00     0.064 H 
ATOM     15  CB  THR d   1      35.664  61.289  31.063  0.00  0.00    -0.036 C 
ATOM     16  H25 THR d   1      35.295  61.795  33.124  0.00  0.00     0.035 H 
ATOM     17  H26 THR d   1      35.800  60.093  32.849  0.00  0.00     0.035 H 
ATOM     18  H23 THR d   1      36.408  62.099  31.096  0.00  0.00     0.036 H 
ATOM     19  H24 THR d   1      36.096  60.414  30.555  0.00  0.00     0.036 H 
ATOM     20  H22 THR d   1      34.370  62.852  30.209  0.00  0.00     0.087 H 
BRANCH   9  21
ATOM     21  CA  THR d   1      30.878  60.772  31.451  0.00  0.00     0.086 C 
ATOM     22  H18 THR d   1      31.115  60.652  32.519  0.00  0.00     0.086 H 
BRANCH  21  23
ATOM     23  N   THR d   1      29.592  61.510  31.308  0.00  0.00    -0.346 N 
ATOM     24  C   THR d   1      29.240  62.543  32.041  0.00  0.00     0.243 C 
ATOM     25  O   THR d   1      29.947  62.991  32.914  0.00  0.00    -0.271 OA
ATOM     26  H17 THR d   1      28.952  61.198  30.606  0.00  0.00     0.163 HD
BRANCH  24  27
ATOM     27  CA  THR d   1      27.839  63.129  31.771  0.00  0.00     0.113 C 
ATOM     28  H11 THR d   1      27.162  62.280  31.595  0.00  0.00     0.091 H 
BRANCH  27  29
ATOM     29  N   THR d   1      27.297  63.866  32.939  0.00  0.00    -0.344 N 
ATOM     30  C   THR d   1      26.816  63.244  34.005  0.00  0.00     0.251 C 
ATOM     31  O   THR d   1      26.798  61.981  34.176  0.00  0.00    -0.271 OA
ATOM     32  H10 THR d   1      27.295  64.866  32.921  0.00  0.00     0.163 HD
BRANCH  30  33
ATOM     33  CA  THR d   1      26.252  64.170  35.083  0.00  0.00     0.199 C 
ATOM     34  H4  THR d   1      25.849  65.073  34.601  0.00  0.00     0.103 H 
BRANCH  33  35
ATOM     35  N   THR d   1      25.150  63.521  35.805  0.00  0.00    -0.064 N 
ATOM     36  H1  THR d   1      24.421  63.275  35.154  0.00  0.00     0.275 HD
ATOM     37  H2  THR d   1      24.782  64.155  36.497  0.00  0.00     0.275 HD
ATOM     38  H3  THR d   1      25.490  62.688  36.259  0.00  0.00     0.275 HD
ENDBRANCH  33  35
BRANCH  33  39
ATOM     39  CB  THR d   1      27.429  64.590  35.997  0.00  0.00     0.068 C 
ATOM     40  H5  THR d   1      28.210  65.045  35.370  0.00  0.00     0.086 H 
BRANCH  39  41
ATOM     41  OG1 THR d   1      27.972  63.429  36.609  0.00  0.00    -0.393 OA
ATOM     42  H6  THR d   1      28.283  62.834  35.937  0.00  0.00     0.210 HD
ENDBRANCH  39  41
BRANCH  39  43
ATOM     43  CG2 THR d   1      26.991  65.632  37.020  0.00  0.00    -0.050 C 
ATOM     44  H7  THR d   1      27.848  65.908  37.652  0.00  0.00     0.031 H 
ATOM     45  H8  THR d   1      26.191  65.215  37.649  0.00  0.00     0.031 H 
ATOM     46  H9  THR d   1      26.618  66.525  36.497  0.00  0.00     0.031 H 
ENDBRANCH  39  43
ENDBRANCH  33  39
ENDBRANCH  30  33
ENDBRANCH  27  29
BRANCH  27  47
ATOM     47  CB  THR d   1      27.851  63.962  30.490  0.00  0.00     0.060 C 
ATOM     48  H12 THR d   1      28.393  63.410  29.708  0.00  0.00     0.086 H 
BRANCH  47  49
ATOM     49  OG1 THR d   1      28.515  65.182  30.768  0.00  0.00    -0.393 OA
ATOM     50  H13 THR d   1      28.051  65.644  31.456  0.00  0.00     0.210 HD
ENDBRANCH  47  49
BRANCH  47  51
ATOM     51  CG2 THR d   1      26.464  64.282  29.993  0.00  0.00    -0.050 C 
ATOM     52  H14 THR d   1      26.533  64.881  29.073  0.00  0.00     0.031 H 
ATOM     53  H15 THR d   1      25.922  64.852  30.761  0.00  0.00     0.031 H 
ATOM     54  H16 THR d   1      25.925  63.346  29.782  0.00  0.00     0.031 H 
ENDBRANCH  47  51
ENDBRANCH  27  47
ENDBRANCH  24  27
ENDBRANCH  21  23
BRANCH  21  55
ATOM     55  CB  THR d   1      30.727  59.413  30.813  0.00  0.00    -0.049 C 
ATOM     56  H19 THR d   1      31.670  58.855  30.911  0.00  0.00     0.030 H 
ATOM     57  H20 THR d   1      30.481  59.533  29.748  0.00  0.00     0.030 H 
ATOM     58  H21 THR d   1      29.920  58.860  31.316  0.00  0.00     0.030 H 
ENDBRANCH  21  55
ENDBRANCH   9  21
ENDBRANCH   4   7
ENDBRANCH   1   3
BRANCH   1  59
ATOM     59  C   THR d   1      35.631  60.216  26.390  0.00  0.00     0.243 C 
ATOM     60  O   THR d   1      36.737  60.304  26.945  0.00  0.00    -0.271 OA
ATOM     61  N   THR d   1      35.261  59.174  25.644  0.00  0.00    -0.346 N 
ATOM     62  H34 THR d   1      34.302  59.077  25.378  0.00  0.00     0.163 HD
BRANCH  61  63
ATOM     63  CA  THR d   1      36.239  58.164  25.205  0.00  0.00     0.089 C 
ATOM     64  H35 THR d   1      36.845  57.844  26.066  0.00  0.00     0.087 H 
BRANCH  63  65
ATOM     65  C   THR d   1      37.158  58.805  24.152  0.00  0.00     0.241 C 
ATOM     66  O   THR d   1      36.824  59.796  23.553  0.00  0.00    -0.271 OA
ATOM     67  N   THR d   1      38.330  58.229  23.950  0.00  0.00    -0.344 N 
ATOM     68  H45 THR d   1      38.620  57.508  24.580  0.00  0.00     0.163 HD
BRANCH  67  69
ATOM     69  CA  THR d   1      39.233  58.596  22.841  0.00  0.00     0.109 C 
ATOM     70  H46 THR d   1      39.366  59.688  22.834  0.00  0.00     0.090 H 
BRANCH  69  71
ATOM     71  C   THR d   1      38.596  58.162  21.503  0.00  0.00     0.242 C 
ATOM     72  O   THR d   1      37.546  57.418  21.470  0.00  0.00    -0.271 OA
ATOM     73  N   THR d   1      39.204  58.605  20.409  0.00  0.00    -0.350 N 
ATOM     74  H50 THR d   1      40.095  59.051  20.500  0.00  0.00     0.163 HD
BRANCH  73  75
ATOM     75  CA  THR d   1      38.619  58.465  19.077  0.00  0.00     0.069 C 
ATOM     76  H51 THR d   1      39.324  58.873  18.338  0.00  0.00     0.078 H 
ATOM     77  H52 THR d   1      37.680  59.037  19.043  0.00  0.00     0.078 H 
BRANCH  75  78
ATOM     78  C   THR d   1      38.321  57.020  18.718  0.00  0.00     0.236 C 
ATOM     79  O   THR d   1      39.008  56.162  19.104  0.00  0.00    -0.272 OA
ATOM     80  N   THR d   1      37.284  56.808  17.926  0.00  0.00    -0.345 N 
ATOM     81  H53 THR d   1      36.654  57.563  17.744  0.00  0.00     0.163 HD
BRANCH  80  82
ATOM     82  CA  THR d   1      37.024  55.507  17.306  0.00  0.00     0.096 C 
ATOM     83  H54 THR d   1      37.122  54.731  18.080  0.00  0.00     0.089 H 
BRANCH  82  84
ATOM     84  C   THR d   1      38.051  55.191  16.196  0.00  0.00     0.196 C 
ATOM     85  O   THR d   1      38.014  53.994  15.767  0.00  0.00    -0.646 OA
ATOM     86  OXT THR d   1      38.874  56.073  15.744  0.00  0.00    -0.646 OA
ENDBRANCH  82  84
BRANCH  82  87
ATOM     87  CB  THR d   1      35.587  55.482  16.790  0.00  0.00    -0.037 C 
ATOM     88  H55 THR d   1      35.428  54.541  16.242  0.00  0.00     0.036 H 
ATOM     89  H56 THR d   1      35.445  56.333  16.107  0.00  0.00     0.036 H 
BRANCH  87  90
ATOM     90  CG  THR d   1      34.563  55.575  17.891  0.00  0.00    -0.061 C 
ATOM     91  H57 THR d   1      34.848  56.404  18.555  0.00  0.00     0.033 H 
ATOM     92  H58 THR d   1      34.580  54.631  18.456  0.00  0.00     0.033 H 
BRANCH  90  93
ATOM     93  CD  THR d   1      33.156  55.814  17.420  0.00  0.00    -0.043 C 
ATOM     94  H59 THR d   1      32.942  55.172  16.553  0.00  0.00     0.035 H 
ATOM     95  H60 THR d   1      33.036  56.869  17.133  0.00  0.00     0.035 H 
BRANCH  93  96
ATOM     96  CE  THR d   1      32.210  55.484  18.538  0.00  0.00     0.080 C 
ATOM     97  H61 THR d   1      32.630  55.875  19.476  0.00  0.00     0.075 H 
ATOM     98  H62 THR d   1      32.119  54.390  18.605  0.00  0.00     0.075 H 
BRANCH  96  99
ATOM     99  NZ  THR d   1      30.854  56.058  18.356  0.00  0.00    -0.079 N 
ATOM    100  H63 THR d   1      30.272  55.800  19.138  0.00  0.00     0.274 HD
ATOM    101  H64 THR d   1      30.450  55.702  17.504  0.00  0.00     0.274 HD
ATOM    102  H65 THR d   1      30.919  57.062  18.303  0.00  0.00     0.274 HD
ENDBRANCH  96  99
ENDBRANCH  93  96
ENDBRANCH  90  93
ENDBRANCH  87  90
ENDBRANCH  82  87
ENDBRANCH  80  82
ENDBRANCH  75  78
ENDBRANCH  73  75
ENDBRANCH  69  71
BRANCH  69 103
ATOM    103  CB  THR d   1      40.600  57.937  23.030  0.00  0.00     0.044 C 
ATOM    104  H47 THR d   1      41.059  58.317  23.955  0.00  0.00     0.077 H 
ATOM    105  H48 THR d   1      41.242  58.187  22.173  0.00  0.00     0.077 H 
BRANCH 103 106
ATOM    106  OG  THR d   1      40.470  56.511  23.121  0.00  0.00    -0.398 OA
ATOM    107  H49 THR d   1      39.918  56.291  23.863  0.00  0.00     0.209 HD
ENDBRANCH 103 106
ENDBRANCH  69 103
ENDBRANCH  67  69
ENDBRANCH  63  65
BRANCH  63 108
ATOM    108  CB  THR d   1      35.511  56.947  24.636  0.00  0.00    -0.035 C 
ATOM    109  H36 THR d   1      36.271  56.206  24.349  0.00  0.00     0.037 H 
ATOM    110  H37 THR d   1      34.961  57.274  23.741  0.00  0.00     0.037 H 
BRANCH 108 111
ATOM    111  CG  THR d   1      34.512  56.253  25.571  0.00  0.00    -0.059 C 
ATOM    112  H38 THR d   1      33.611  56.882  25.618  0.00  0.00     0.038 H 
BRANCH 111 113
ATOM    113  CD1 THR d   1      34.113  54.905  25.004  0.00  0.00    -0.073 C 
ATOM    114  H39 THR d   1      33.397  54.419  25.683  0.00  0.00     0.028 H 
ATOM    115  H40 THR d   1      35.007  54.272  24.899  0.00  0.00     0.028 H 
ATOM    116  H41 THR d   1      33.645  55.046  24.018  0.00  0.00     0.028 H 
ENDBRANCH 111 113
BRANCH 111 117
ATOM    117  CD2 THR d   1      35.033  56.101  26.983  0.00  0.00    -0.073 C 
ATOM    118  H42 THR d   1      35.317  57.088  27.377  0.00  0.00     0.028 H 
ATOM    119  H43 THR d   1      35.912  55.440  26.980  0.00  0.00     0.028 H 
ATOM    120  H44 THR d   1      34.248  55.664  27.618  0.00  0.00     0.028 H 
ENDBRANCH 111 117
ENDBRANCH 108 111
ENDBRANCH  63 108
ENDBRANCH  61  63
ENDBRANCH   1  59
BRANCH   1 121
ATOM    121  CB  THR d   1      34.888  62.541  25.704  0.00  0.00     0.044 C 
ATOM    122  H31 THR d   1      35.791  63.041  26.085  0.00  0.00     0.077 H 
ATOM    123  H32 THR d   1      34.036  63.236  25.751  0.00  0.00     0.077 H 
BRANCH 121 124
ATOM    124  OG  THR d   1      35.102  62.167  24.363  0.00  0.00    -0.398 OA
ATOM    125  H33 THR d   1      35.286  62.942  23.845  0.00  0.00     0.209 HD
ENDBRANCH 121 124
ENDBRANCH   1 121
TORSDOF 37
