REMARK  5 active torsions:
REMARK  status: ('A' for Active; 'I' for Inactive)
REMARK    1  A    between atoms: C14_2  and  C17_17 
REMARK    2  A    between atoms: C5_3  and  N19_19 
REMARK    3  A    between atoms: N11_14  and  C6_4 
REMARK    4  A    between atoms: C17_17  and  N18_18 
REMARK       I    between atoms: N19_19  and  C20_20 
REMARK    5  A    between atoms: C20_20  and  C22_22 
ROOT
ATOM      1  C4  LTY d   1      19.764   9.736  42.320  0.00  0.00    -0.043 A 
ATOM      2  C5  LTY d   1      20.274   8.533  41.899  0.00  0.00     0.057 A 
ATOM      3  C6  LTY d   1      19.865   7.349  42.548  0.00  0.00     0.040 A 
ATOM      4  C7  LTY d   1      19.012   7.401  43.627  0.00  0.00    -0.032 A 
ATOM      5  C8  LTY d   1      18.501   8.638  44.079  0.00  0.00     0.068 A 
ATOM      6  C10 LTY d   1      17.227   9.825  45.601  0.00  0.00     0.003 A 
ATOM      7  C3  LTY d   1      18.867   9.825  43.410  0.00  0.00    -0.005 A 
ATOM      8  C1  LTY d   1      17.526  11.043  44.988  0.00  0.00    -0.065 A 
ATOM      9  C2  LTY d   1      18.346  11.043  43.897  0.00  0.00    -0.069 A 
ATOM     10  N9  LTY d   1      17.677   8.649  45.184  0.00  0.00    -0.260 NA
ATOM     11  H1  LTY d   1      20.057  10.643  41.803  0.00  0.00     0.088 H 
ATOM     12  H3  LTY d   1      18.730   6.485  44.134  0.00  0.00     0.090 H 
ATOM     13  H4  LTY d   1      16.585   9.841  46.475  0.00  0.00     0.114 H 
ATOM     14  H9  LTY d   1      17.115  11.970  45.371  0.00  0.00     0.085 H 
ATOM     15  H10 LTY d   1      18.597  11.976  43.406  0.00  0.00     0.085 H 
ENDROOT
BRANCH   3  16
ATOM     16  N11 LTY d   1      20.279   6.089  42.000  0.00  0.00    -0.281 NA
ATOM     17  C12 LTY d   1      19.262   5.426  41.174  0.00  0.00    -0.016 C 
ATOM     18  C13 LTY d   1      19.857   4.262  40.382  0.00  0.00    -0.049 C 
ATOM     19  H5  LTY d   1      18.464   5.043  41.828  0.00  0.00     0.056 H 
ATOM     20  H6  LTY d   1      18.840   6.159  40.470  0.00  0.00     0.056 H 
ATOM     21  C14 LTY d   1      20.563   3.244  41.279  0.00  0.00    -0.029 C 
ATOM     22  H7  LTY d   1      19.046   3.753  39.840  0.00  0.00     0.035 H 
ATOM     23  H8  LTY d   1      20.585   4.662  39.661  0.00  0.00     0.035 H 
ATOM     24  C15 LTY d   1      21.552   3.965  42.198  0.00  0.00    -0.049 C 
ATOM     25  H2  LTY d   1      19.808   2.742  41.902  0.00  0.00     0.042 H 
ATOM     26  C16 LTY d   1      20.932   5.158  42.930  0.00  0.00    -0.016 C 
ATOM     27  H11 LTY d   1      22.395   4.327  41.590  0.00  0.00     0.035 H 
ATOM     28  H12 LTY d   1      21.921   3.248  42.947  0.00  0.00     0.035 H 
ATOM     29  H13 LTY d   1      20.184   4.787  43.646  0.00  0.00     0.056 H 
ATOM     30  H14 LTY d   1      21.725   5.694  43.472  0.00  0.00     0.056 H 
BRANCH  21  31
ATOM     31  C17 LTY d   1      21.271   2.191  40.443  0.00  0.00     0.083 C 
ATOM     32  H15 LTY d   1      21.926   1.589  41.090  0.00  0.00     0.075 H 
ATOM     33  H16 LTY d   1      21.875   2.685  39.668  0.00  0.00     0.075 H 
BRANCH  31  34
ATOM     34  N18 LTY d   1      20.270   1.311  39.801  0.00  0.00    -0.079 N 
ATOM     35  H17 LTY d   1      20.742   0.614  39.247  0.00  0.00     0.274 HD
ATOM     36  H18 LTY d   1      19.670   1.862  39.207  0.00  0.00     0.274 HD
ATOM     37  H19 LTY d   1      19.716   0.858  40.511  0.00  0.00     0.274 HD
ENDBRANCH  31  34
ENDBRANCH  21  31
ENDBRANCH   3  16
BRANCH   2  38
ATOM     38  N19 LTY d   1      21.236   8.467  40.860  0.00  0.00    -0.321 N 
ATOM     39  C20 LTY d   1      21.704   9.472  40.029  0.00  0.00     0.261 C 
ATOM     40  O21 LTY d   1      21.485  10.670  40.201  0.00  0.00    -0.267 OA
ATOM     41  H20 LTY d   1      21.635   7.563  40.704  0.00  0.00     0.169 HD
BRANCH  39  42
ATOM     42  C22 LTY d   1      22.547   9.027  38.878  0.00  0.00     0.099 A 
ATOM     43  C23 LTY d   1      23.015   9.789  37.801  0.00  0.00     0.041 A 
ATOM     44  N24 LTY d   1      23.617   9.026  36.814  0.00  0.00    -0.178 NA
ATOM     45  H21 LTY d   1      22.916  10.872  37.745  0.00  0.00     0.119 H 
ATOM     46  N25 LTY d   1      23.576   7.749  37.337  0.00  0.00    -0.226 N 
ATOM     47  C26 LTY d   1      22.967   7.719  38.587  0.00  0.00     0.167 A 
ATOM     48  C30 LTY d   1      24.046   6.597  36.798  0.00  0.00     0.007 A 
ATOM     49  N27 LTY d   1      22.854   6.594  39.307  0.00  0.00    -0.240 NA
ATOM     50  C28 LTY d   1      23.328   5.465  38.744  0.00  0.00     0.006 A 
ATOM     51  C29 LTY d   1      23.922   5.412  37.492  0.00  0.00    -0.049 A 
ATOM     52  H22 LTY d   1      23.239   4.537  39.307  0.00  0.00     0.114 H 
ATOM     53  H23 LTY d   1      24.277   4.471  37.073  0.00  0.00     0.087 H 
ATOM     54  H24 LTY d   1      24.521   6.608  35.818  0.00  0.00     0.115 H 
ENDBRANCH  39  42
ENDBRANCH   2  38
TORSDOF 5
