REMARK  7 active torsions:
REMARK  status: ('A' for Active; 'I' for Inactive)
REMARK    1  A    between atoms: N1_18  and  C5_3 
REMARK    2  A    between atoms: C6_4  and  S1_19 
REMARK    3  A    between atoms: C7_5  and  C8_6 
REMARK    4  A    between atoms: S1_19  and  C7_5 
REMARK    5  A    between atoms: C8_6  and  N4_20 
REMARK    6  A    between atoms: N_11  and  C_12 
REMARK    7  A    between atoms: C3_16  and  S_17 
ROOT
ATOM      1  C2  M0S d   1      -2.406  -8.446  24.628  0.00  0.00     0.091 C 
ATOM      2  C4  M0S d   1      -3.301  -6.045  25.823  0.00  0.00     0.326 C 
ATOM      3  C6  M0S d   1      -2.492  -8.961  22.601  0.00  0.00     0.169 C 
ATOM      4  O   M0S d   1      -3.640  -5.025  26.441  0.00  0.00    -0.247 OA
ATOM      5  N   M0S d   1      -3.349  -6.160  24.380  0.00  0.00    -0.286 N 
ATOM      6  C1  M0S d   1      -3.025  -7.354  23.823  0.00  0.00     0.162 C 
ATOM      7  N3  M0S d   1      -2.956  -7.705  22.504  0.00  0.00    -0.204 NA
ATOM      8  N2  M0S d   1      -2.180  -9.518  23.843  0.00  0.00    -0.333 N 
ATOM      9  C3  M0S d   1      -2.540  -8.362  26.041  0.00  0.00     0.102 C 
ATOM     10  N1  M0S d   1      -2.807  -7.076  26.617  0.00  0.00    -0.319 N 
ATOM     11  H17 M0S d   1      -1.869 -10.469  24.087  0.00  0.00     0.168 HD
ATOM     12  H18 M0S d   1      -3.569  -8.745  26.105  0.00  0.00     0.100 H 
ENDROOT
BRANCH   3  13
ATOM     13  S1  M0S d   1      -2.355  -9.848  21.115  0.00  0.00    -0.090 SA
BRANCH  13  14
ATOM     14  C7  M0S d   1      -1.938 -11.538  21.399  0.00  0.00     0.007 C 
ATOM     15  H4  M0S d   1      -2.722 -12.010  22.009  0.00  0.00     0.052 H 
ATOM     16  H5  M0S d   1      -1.858 -12.062  20.435  0.00  0.00     0.052 H 
BRANCH  14  17
ATOM     17  C8  M0S d   1      -0.615 -11.623  22.128  0.00  0.00     0.092 C 
ATOM     18  H6  M0S d   1      -0.431 -10.639  22.584  0.00  0.00     0.077 H 
ATOM     19  H7  M0S d   1       0.160 -11.829  21.375  0.00  0.00     0.077 H 
BRANCH  17  20
ATOM     20  N4  M0S d   1      -0.464 -12.657  23.218  0.00  0.00    -0.070 N 
ATOM     21  C9  M0S d   1       0.785 -12.353  23.998  0.00  0.00     0.084 C 
ATOM     22  C10 M0S d   1       0.728 -13.070  25.333  0.00  0.00    -0.041 C 
ATOM     23  H8  M0S d   1       0.859 -11.268  24.166  0.00  0.00     0.076 H 
ATOM     24  H9  M0S d   1       1.664 -12.697  23.433  0.00  0.00     0.076 H 
ATOM     25  C11 M0S d   1      -0.681 -13.630  25.370  0.00  0.00    -0.041 C 
ATOM     26  H21 M0S d   1       0.895 -12.369  26.164  0.00  0.00     0.035 H 
ATOM     27  H22 M0S d   1       1.474 -13.877  25.379  0.00  0.00     0.035 H 
ATOM     28  C12 M0S d   1      -1.463 -12.849  24.296  0.00  0.00     0.084 C 
ATOM     29  H10 M0S d   1      -0.674 -14.705  25.135  0.00  0.00     0.035 H 
ATOM     30  H11 M0S d   1      -1.130 -13.475  26.362  0.00  0.00     0.035 H 
ATOM     31  H12 M0S d   1      -1.811 -11.882  24.688  0.00  0.00     0.076 H 
ATOM     32  H13 M0S d   1      -2.325 -13.430  23.936  0.00  0.00     0.076 H 
ATOM     33  H20 M0S d   1      -0.368 -13.542  22.745  0.00  0.00     0.279 HD
ENDBRANCH  17  20
ENDBRANCH  14  17
ENDBRANCH  13  14
ENDBRANCH   3  13
BRANCH   5  34
ATOM     34  C   M0S d   1      -3.830  -4.983  23.640  0.00  0.00    -0.008 C 
ATOM     35  H14 M0S d   1      -4.014  -4.158  24.343  0.00  0.00     0.057 H 
ATOM     36  H15 M0S d   1      -4.765  -5.235  23.118  0.00  0.00     0.057 H 
ATOM     37  H16 M0S d   1      -3.071  -4.676  22.905  0.00  0.00     0.057 H 
ENDBRANCH   5  34
BRANCH   9  38
ATOM     38  S   M0S d   1      -1.757  -9.680  27.038  0.00  0.00    -0.150 SA
ATOM     39  H19 M0S d   1      -1.648 -10.507  26.473  0.00  0.00     0.104 HD
ENDBRANCH   9  38
BRANCH  10  40
ATOM     40  C5  M0S d   1      -2.907  -6.892  28.057  0.00  0.00    -0.013 C 
ATOM     41  H1  M0S d   1      -3.115  -5.835  28.278  0.00  0.00     0.056 H 
ATOM     42  H2  M0S d   1      -1.959  -7.186  28.531  0.00  0.00     0.056 H 
ATOM     43  H3  M0S d   1      -3.723  -7.516  28.451  0.00  0.00     0.056 H 
ENDBRANCH  10  40
TORSDOF 7
