REMARK  6 active torsions:
REMARK  status: ('A' for Active; 'I' for Inactive)
REMARK    1  A    between atoms: S07_22  and  C06_7 
REMARK    2  A    between atoms: C09_9  and  C08_8 
REMARK    3  A    between atoms: C08_8  and  S07_22 
REMARK    4  A    between atoms: C09_9  and  N10_15 
REMARK    5  A    between atoms: N17_17  and  C18_11 
REMARK    6  A    between atoms: N20_18  and  C21_13 
ROOT
ATOM      1  C08 M0P d   1      -2.500 -11.597  21.609  0.00  0.00     0.007 C 
ATOM      2  H7  M0P d   1      -3.427 -11.712  22.190  0.00  0.00     0.052 H 
ATOM      3  H8  M0P d   1      -2.559 -12.210  20.698  0.00  0.00     0.052 H 
ENDROOT
BRANCH   1   4
ATOM      4  C09 M0P d   1      -1.413 -12.157  22.428  0.00  0.00     0.092 C 
ATOM      5  H9  M0P d   1      -0.476 -11.698  22.079  0.00  0.00     0.077 H 
ATOM      6  H10 M0P d   1      -1.386 -13.239  22.233  0.00  0.00     0.077 H 
BRANCH   4   7
ATOM      7  N10 M0P d   1      -1.463 -11.982  23.894  0.00  0.00    -0.066 N 
ATOM      8  C11 M0P d   1      -0.114 -12.223  24.356  0.00  0.00     0.103 C 
ATOM      9  C12 M0P d   1      -0.088 -11.829  25.826  0.00  0.00     0.042 C 
ATOM     10  H1  M0P d   1       0.143 -13.287  24.242  0.00  0.00     0.079 H 
ATOM     11  H2  M0P d   1       0.599 -11.610  23.785  0.00  0.00     0.079 H 
ATOM     12  O13 M0P d   1      -0.899 -12.783  26.510  0.00  0.00    -0.388 OA
ATOM     13  H3  M0P d   1      -0.498 -10.817  25.956  0.00  0.00     0.076 H 
ATOM     14  H4  M0P d   1       0.942 -11.859  26.210  0.00  0.00     0.076 H 
ATOM     15  C14 M0P d   1      -2.298 -12.500  26.224  0.00  0.00     0.042 C 
ATOM     16  C15 M0P d   1      -2.472 -12.761  24.700  0.00  0.00     0.103 C 
ATOM     17  H5  M0P d   1      -2.952 -13.167  26.805  0.00  0.00     0.076 H 
ATOM     18  H6  M0P d   1      -2.535 -11.453  26.464  0.00  0.00     0.076 H 
ATOM     19  H11 M0P d   1      -3.485 -12.457  24.397  0.00  0.00     0.079 H 
ATOM     20  H12 M0P d   1      -2.337 -13.835  24.502  0.00  0.00     0.079 H 
ATOM     21  H20 M0P d   1      -1.682 -11.012  24.059  0.00  0.00     0.280 HD
ENDBRANCH   4   7
ENDBRANCH   1   4
BRANCH   1  22
ATOM     22  S07 M0P d   1      -2.432  -9.879  21.075  0.00  0.00    -0.090 SA
BRANCH  22  23
ATOM     23  C06 M0P d   1      -2.589  -8.879  22.503  0.00  0.00     0.168 A 
ATOM     24  N05 M0P d   1      -2.967  -7.631  22.410  0.00  0.00    -0.319 N 
ATOM     25  C04 M0P d   1      -3.008  -7.220  23.749  0.00  0.00     0.148 A 
ATOM     26  H19 M0P d   1      -3.181  -7.085  21.563  0.00  0.00     0.169 HD
ATOM     27  C03 M0P d   1      -2.509  -8.309  24.573  0.00  0.00     0.172 A 
ATOM     28  N17 M0P d   1      -3.329  -6.016  24.290  0.00  0.00    -0.287 N 
ATOM     29  C02 M0P d   1      -2.383  -8.166  26.022  0.00  0.00     0.284 A 
ATOM     30  N16 M0P d   1      -2.268  -9.305  23.702  0.00  0.00    -0.215 NA
ATOM     31  N20 M0P d   1      -2.730  -6.913  26.541  0.00  0.00    -0.269 N 
ATOM     32  O01 M0P d   1      -1.977  -9.103  26.815  0.00  0.00    -0.265 OA
ATOM     33  C19 M0P d   1      -3.225  -5.864  25.701  0.00  0.00     0.332 A 
ATOM     34  O22 M0P d   1      -3.589  -4.795  26.227  0.00  0.00    -0.246 OA
BRANCH  31  35
ATOM     35  C21 M0P d   1      -2.696  -6.751  27.998  0.00  0.00    -0.007 C 
ATOM     36  H16 M0P d   1      -2.285  -7.662  28.459  0.00  0.00     0.057 H 
ATOM     37  H17 M0P d   1      -3.716  -6.579  28.372  0.00  0.00     0.057 H 
ATOM     38  H18 M0P d   1      -2.061  -5.891  28.257  0.00  0.00     0.057 H 
ENDBRANCH  31  35
BRANCH  28  39
ATOM     39  C18 M0P d   1      -3.851  -4.946  23.447  0.00  0.00    -0.008 C 
ATOM     40  H13 M0P d   1      -3.845  -5.271  22.396  0.00  0.00     0.057 H 
ATOM     41  H14 M0P d   1      -3.221  -4.051  23.558  0.00  0.00     0.057 H 
ATOM     42  H15 M0P d   1      -4.881  -4.709  23.751  0.00  0.00     0.057 H 
ENDBRANCH  28  39
ENDBRANCH  22  23
ENDBRANCH   1  22
TORSDOF 6
