REMARK  6 active torsions:
REMARK  status: ('A' for Active; 'I' for Inactive)
REMARK    1  A    between atoms: S07_22  and  C06_7 
REMARK    2  A    between atoms: C09_9  and  C08_8 
REMARK    3  A    between atoms: C08_8  and  S07_22 
REMARK    4  A    between atoms: C09_9  and  N10_15 
REMARK    5  A    between atoms: N17_17  and  C18_11 
REMARK    6  A    between atoms: N20_18  and  C21_13 
ROOT
ATOM      1  C08 M0M d   1      -1.567 -11.225  21.688  0.00  0.00     0.007 C 
ATOM      2  H7  M0M d   1      -1.366 -11.773  20.756  0.00  0.00     0.052 H 
ATOM      3  H8  M0M d   1      -0.619 -10.858  22.109  0.00  0.00     0.052 H 
ENDROOT
BRANCH   1   4
ATOM      4  C09 M0M d   1      -2.187 -12.204  22.692  0.00  0.00     0.092 C 
ATOM      5  H9  M0M d   1      -2.757 -12.949  22.117  0.00  0.00     0.077 H 
ATOM      6  H10 M0M d   1      -2.874 -11.630  23.331  0.00  0.00     0.077 H 
BRANCH   4   7
ATOM      7  N10 M0M d   1      -1.240 -12.962  23.607  0.00  0.00    -0.066 N 
ATOM      8  C11 M0M d   1      -1.941 -13.303  24.879  0.00  0.00     0.103 C 
ATOM      9  C12 M0M d   1      -1.007 -13.894  25.931  0.00  0.00     0.042 C 
ATOM     10  H1  M0M d   1      -2.394 -12.387  25.287  0.00  0.00     0.079 H 
ATOM     11  H2  M0M d   1      -2.731 -14.036  24.659  0.00  0.00     0.079 H 
ATOM     12  O13 M0M d   1       0.035 -12.933  26.135  0.00  0.00    -0.388 OA
ATOM     13  H3  M0M d   1      -0.583 -14.844  25.573  0.00  0.00     0.076 H 
ATOM     14  H4  M0M d   1      -1.553 -14.067  26.870  0.00  0.00     0.076 H 
ATOM     15  C14 M0M d   1       0.896 -12.844  25.015  0.00  0.00     0.042 C 
ATOM     16  C15 M0M d   1       0.085 -12.319  23.820  0.00  0.00     0.103 C 
ATOM     17  H5  M0M d   1       1.722 -12.152  25.236  0.00  0.00     0.076 H 
ATOM     18  H6  M0M d   1       1.303 -13.838  24.779  0.00  0.00     0.076 H 
ATOM     19  H11 M0M d   1       0.685 -12.472  22.911  0.00  0.00     0.079 H 
ATOM     20  H12 M0M d   1      -0.082 -11.242  23.972  0.00  0.00     0.079 H 
ATOM     21  H20 M0M d   1      -1.043 -13.836  23.145  0.00  0.00     0.280 HD
ENDBRANCH   4   7
ENDBRANCH   1   4
BRANCH   1  22
ATOM     22  S07 M0M d   1      -2.568  -9.829  21.297  0.00  0.00    -0.090 SA
BRANCH  22  23
ATOM     23  C06 M0M d   1      -2.767  -8.881  22.766  0.00  0.00     0.168 A 
ATOM     24  N05 M0M d   1      -3.235  -7.599  22.732  0.00  0.00    -0.319 N 
ATOM     25  C04 M0M d   1      -3.228  -7.227  24.052  0.00  0.00     0.145 A 
ATOM     26  H19 M0M d   1      -3.524  -7.045  21.913  0.00  0.00     0.169 HD
ATOM     27  C03 M0M d   1      -2.680  -8.367  24.858  0.00  0.00     0.142 A 
ATOM     28  N17 M0M d   1      -3.592  -6.051  24.603  0.00  0.00    -0.287 N 
ATOM     29  C02 M0M d   1      -2.533  -8.273  26.325  0.00  0.00     0.139 A 
ATOM     30  N16 M0M d   1      -2.398  -9.341  24.002  0.00  0.00    -0.218 NA
ATOM     31  N20 M0M d   1      -2.959  -7.006  26.844  0.00  0.00    -0.292 N 
ATOM     32  S01 M0M d   1      -1.929  -9.572  27.263  0.00  0.00    -0.057 SA
ATOM     33  C19 M0M d   1      -3.446  -5.935  26.041  0.00  0.00     0.330 A 
ATOM     34  O22 M0M d   1      -3.740  -4.857  26.566  0.00  0.00    -0.246 OA
BRANCH  31  35
ATOM     35  C21 M0M d   1      -2.885  -6.844  28.274  0.00  0.00    -0.009 C 
ATOM     36  H16 M0M d   1      -2.489  -7.765  28.727  0.00  0.00     0.057 H 
ATOM     37  H17 M0M d   1      -3.890  -6.642  28.673  0.00  0.00     0.057 H 
ATOM     38  H18 M0M d   1      -2.219  -6.002  28.514  0.00  0.00     0.057 H 
ENDBRANCH  31  35
BRANCH  28  39
ATOM     39  C18 M0M d   1      -4.107  -4.926  23.778  0.00  0.00    -0.008 C 
ATOM     40  H13 M0M d   1      -4.135  -5.229  22.721  0.00  0.00     0.057 H 
ATOM     41  H14 M0M d   1      -3.445  -4.055  23.892  0.00  0.00     0.057 H 
ATOM     42  H15 M0M d   1      -5.122  -4.662  24.111  0.00  0.00     0.057 H 
ENDBRANCH  28  39
ENDBRANCH  22  23
ENDBRANCH   1  22
TORSDOF 6
