REMARK  6 active torsions:
REMARK  status: ('A' for Active; 'I' for Inactive)
REMARK    1  A    between atoms: C11_14  and  C10_1 
REMARK    2  A    between atoms: C13_3  and  N14_24 
REMARK    3  A    between atoms: N22_26  and  C21_5 
REMARK    4  A    between atoms: C27_19  and  C28_8 
REMARK    5  A    between atoms: C02_9  and  N01_22 
REMARK    6  A    between atoms: C04_11  and  C05_12 
ROOT
ATOM      1  N12 M1J d   1     -18.564   9.428  27.944  0.00  0.00    -0.041 NA
ATOM      2  C13 M1J d   1     -19.139  10.395  28.688  0.00  0.00     0.742 A 
ATOM      3  C21 M1J d   1     -17.126  11.614  28.731  0.00  0.00     0.743 A 
ATOM      4  C11 M1J d   1     -17.276   9.542  27.597  0.00  0.00     0.199 A 
ATOM      5  N20 M1J d   1     -18.406  11.499  29.080  0.00  0.00     0.130 NA
ATOM      6  N29 M1J d   1     -16.547  10.650  27.991  0.00  0.00    -0.041 NA
ENDROOT
BRANCH   3   7
ATOM      7  N22 M1J d   1     -16.350  12.810  29.168  0.00  0.00    -0.205 N 
ATOM      8  C23 M1J d   1     -14.876  12.824  29.043  0.00  0.00     0.032 C 
ATOM      9  C24 M1J d   1     -14.303  14.250  29.165  0.00  0.00     0.035 C 
ATOM     10  H19 M1J d   1     -14.446  12.198  29.839  0.00  0.00     0.068 H 
ATOM     11  H20 M1J d   1     -14.598  12.412  28.062  0.00  0.00     0.068 H 
ATOM     12  O25 M1J d   1     -14.624  14.809  30.387  0.00  0.00    -0.388 OA
ATOM     13  H3  M1J d   1     -14.721  14.876  28.362  0.00  0.00     0.076 H 
ATOM     14  H4  M1J d   1     -13.208  14.208  29.065  0.00  0.00     0.076 H 
ATOM     15  C26 M1J d   1     -16.000  14.886  30.588  0.00  0.00     0.039 C 
ATOM     16  C27 M1J d   1     -16.751  13.536  30.366  0.00  0.00     0.046 C 
ATOM     17  H5  M1J d   1     -16.180  15.216  31.622  0.00  0.00     0.077 H 
ATOM     18  H6  M1J d   1     -16.410  15.629  29.889  0.00  0.00     0.077 H 
ATOM     19  H21 M1J d   1     -17.825  13.759  30.282  0.00  0.00     0.076 H 
BRANCH  16  20
ATOM     20  C28 M1J d   1     -16.520  12.618  31.597  0.00  0.00    -0.055 C 
ATOM     21  H7  M1J d   1     -17.047  11.664  31.447  0.00  0.00     0.030 H 
ATOM     22  H8  M1J d   1     -16.906  13.112  32.501  0.00  0.00     0.030 H 
ATOM     23  H9  M1J d   1     -15.443  12.427  31.715  0.00  0.00     0.030 H 
ENDBRANCH  16  20
ENDBRANCH   3   7
BRANCH   2  24
ATOM     24  N14 M1J d   1     -20.526  10.308  29.084  0.00  0.00    -0.209 N 
ATOM     25  C15 M1J d   1     -20.916  10.870  30.411  0.00  0.00     0.032 C 
ATOM     26  C16 M1J d   1     -22.163  11.818  30.346  0.00  0.00     0.035 C 
ATOM     27  H1  M1J d   1     -21.148  10.035  31.088  0.00  0.00     0.068 H 
ATOM     28  H2  M1J d   1     -20.065  11.441  30.811  0.00  0.00     0.068 H 
ATOM     29  O17 M1J d   1     -23.257  11.132  29.868  0.00  0.00    -0.388 OA
ATOM     30  H13 M1J d   1     -21.943  12.663  29.677  0.00  0.00     0.076 H 
ATOM     31  H14 M1J d   1     -22.384  12.197  31.355  0.00  0.00     0.076 H 
ATOM     32  C18 M1J d   1     -23.058  10.626  28.571  0.00  0.00     0.035 C 
ATOM     33  C19 M1J d   1     -21.555  10.595  28.080  0.00  0.00     0.032 C 
ATOM     34  H15 M1J d   1     -23.445   9.597  28.545  0.00  0.00     0.076 H 
ATOM     35  H16 M1J d   1     -23.631  11.251  27.871  0.00  0.00     0.076 H 
ATOM     36  H17 M1J d   1     -21.328  11.580  27.647  0.00  0.00     0.068 H 
ATOM     37  H18 M1J d   1     -21.478   9.825  27.299  0.00  0.00     0.068 H 
ENDBRANCH   2  24
BRANCH   4  38
ATOM     38  C10 M1J d   1     -16.576   8.463  26.741  0.00  0.00     0.042 A 
ATOM     39  C04 M1J d   1     -16.652   7.085  26.993  0.00  0.00     0.025 A 
ATOM     40  C03 M1J d   1     -15.967   6.241  26.132  0.00  0.00    -0.027 A 
ATOM     41  C02 M1J d   1     -15.263   6.745  25.101  0.00  0.00     0.121 A 
ATOM     42  H10 M1J d   1     -15.998   5.169  26.290  0.00  0.00     0.090 H 
ATOM     43  N08 M1J d   1     -15.214   8.063  24.899  0.00  0.00    -0.243 NA
ATOM     44  C09 M1J d   1     -15.841   8.887  25.677  0.00  0.00     0.019 A 
ATOM     45  H12 M1J d   1     -15.778   9.950  25.474  0.00  0.00     0.116 H 
BRANCH  39  46
ATOM     46  C05 M1J d   1     -17.461   6.457  28.184  0.00  0.00     0.235 C 
ATOM     47  F06 M1J d   1     -18.770   6.281  27.816  0.00  0.00    -0.209 F 
ATOM     48  F07 M1J d   1     -17.413   7.264  29.314  0.00  0.00    -0.209 F 
ATOM     49  H11 M1J d   1     -17.022   5.479  28.429  0.00  0.00     0.153 H 
ENDBRANCH  39  46
BRANCH  41  50
ATOM     50  N01 M1J d   1     -14.513   5.816  24.158  0.00  0.00    -0.384 N 
ATOM     51  H22 M1J d   1     -13.976   6.206  23.370  0.00  0.00     0.157 HD
ATOM     52  H23 M1J d   1     -14.543   4.797  24.307  0.00  0.00     0.157 HD
ENDBRANCH  41  50
ENDBRANCH   4  38
TORSDOF 6
