REMARK  7 active torsions:
REMARK  status: ('A' for Active; 'I' for Inactive)
REMARK    1  A    between atoms: C4_1  and  NAA_18 
REMARK    2  A    between atoms: CAP_9  and  CAS_10 
REMARK    3  A    between atoms: CAJ_14  and  CAM_13 
REMARK    4  A    between atoms: NAA_18  and  CAB_19 
REMARK    5  A    between atoms: CAB_19  and  PBA_20 
REMARK    6  A    between atoms: CAB_19  and  CAL_24 
REMARK    7  A    between atoms: CAL_24  and  CAT_25 
ROOT
ATOM      1  C4  M2Y d   1       5.750  71.287  27.179  0.00  0.00     0.139 A 
ATOM      2  C5  M2Y d   1       4.867  72.193  27.671  0.00  0.00     0.047 A 
ATOM      3  C6  M2Y d   1       3.751  71.732  28.293  0.00  0.00     0.113 A 
ATOM      4  N1  M2Y d   1       3.508  70.408  28.432  0.00  0.00    -0.234 NA
ATOM      5  N3  M2Y d   1       5.553  69.955  27.290  0.00  0.00    -0.224 NA
ATOM      6  CAJ M2Y d   1       3.908  74.223  28.200  0.00  0.00     0.018 A 
ATOM      7  SAK M2Y d   1       2.853  73.075  28.790  0.00  0.00    -0.069 SA
ATOM      8  CAI M2Y d   1       4.935  73.562  27.632  0.00  0.00    -0.049 A 
ATOM      9  C2  M2Y d   1       4.411  69.469  27.929  0.00  0.00     0.090 A 
ATOM     10  H7  M2Y d   1       5.771  74.084  27.169  0.00  0.00     0.087 H 
ATOM     11  H8  M2Y d   1       4.232  68.405  28.031  0.00  0.00     0.146 H 
ENDROOT
BRANCH   1  12
ATOM     12  NAA M2Y d   1       6.846  71.784  26.568  0.00  0.00    -0.357 N 
ATOM     13  H9  M2Y d   1       6.879  72.799  26.399  0.00  0.00     0.162 HD
BRANCH  12  14
ATOM     14  CAB M2Y d   1       7.999  70.979  26.125  0.00  0.00     0.123 C 
ATOM     15  H10 M2Y d   1       7.704  69.928  25.992  0.00  0.00     0.095 H 
BRANCH  14  16
ATOM     16  PBA M2Y d   1       8.565  71.710  24.511  0.00  0.00     0.283 P 
ATOM     17  OBC M2Y d   1       7.189  72.185  23.757  0.00  0.00    -0.638 OA
ATOM     18  OBD M2Y d   1       9.177  70.573  23.540  0.00  0.00    -0.638 OA
ATOM     19  OBB M2Y d   1       9.538  72.790  24.763  0.00  0.00    -0.638 OA
ENDBRANCH  14  16
BRANCH  14  20
ATOM     20  CAL M2Y d   1       9.143  71.076  27.151  0.00  0.00    -0.010 C 
ATOM     21  H11 M2Y d   1       9.480  72.121  27.224  0.00  0.00     0.044 H 
ATOM     22  H12 M2Y d   1       9.980  70.442  26.824  0.00  0.00     0.044 H 
BRANCH  20  23
ATOM     23  CAT M2Y d   1       8.698  70.646  28.401  0.00  0.00    -0.056 A 
ATOM     24  CAU M2Y d   1       8.671  69.281  28.688  0.00  0.00    -0.077 A 
ATOM     25  CAV M2Y d   1       8.220  68.840  29.931  0.00  0.00    -0.082 A 
ATOM     26  H13 M2Y d   1       9.001  68.564  27.945  0.00  0.00     0.084 H 
ATOM     27  CAW M2Y d   1       7.791  69.761  30.887  0.00  0.00    -0.083 A 
ATOM     28  H14 M2Y d   1       8.203  67.780  30.155  0.00  0.00     0.083 H 
ATOM     29  CAX M2Y d   1       7.812  71.123  30.603  0.00  0.00    -0.082 A 
ATOM     30  H15 M2Y d   1       7.441  69.415  31.853  0.00  0.00     0.083 H 
ATOM     31  CAY M2Y d   1       8.267  71.568  29.362  0.00  0.00    -0.077 A 
ATOM     32  H16 M2Y d   1       7.475  71.837  31.346  0.00  0.00     0.083 H 
ATOM     33  H17 M2Y d   1       8.287  72.629  29.141  0.00  0.00     0.084 H 
ENDBRANCH  20  23
ENDBRANCH  14  20
ENDBRANCH  12  14
ENDBRANCH   1  12
BRANCH   6  34
ATOM     34  CAM M2Y d   1       3.762  75.576  28.287  0.00  0.00    -0.017 A 
ATOM     35  CAN M2Y d   1       2.491  76.142  28.453  0.00  0.00    -0.050 A 
ATOM     36  CAO M2Y d   1       2.316  77.524  28.555  0.00  0.00     0.040 A 
ATOM     37  H1  M2Y d   1       1.624  75.493  28.503  0.00  0.00     0.087 H 
ATOM     38 CLAZ M2Y d   1       0.698  78.116  28.758  0.00  0.00    -0.084 Cl
ATOM     39  CAP M2Y d   1       3.413  78.392  28.496  0.00  0.00    -0.040 A 
ATOM     40  CAQ M2Y d   1       4.686  77.851  28.335  0.00  0.00    -0.075 A 
ATOM     41  CAR M2Y d   1       4.857  76.465  28.235  0.00  0.00    -0.071 A 
ATOM     42  H5  M2Y d   1       5.548  78.506  28.287  0.00  0.00     0.084 H 
ATOM     43  H6  M2Y d   1       5.857  76.064  28.114  0.00  0.00     0.084 H 
BRANCH  39  44
ATOM     44  CAS M2Y d   1       3.245  79.773  28.597  0.00  0.00    -0.050 C 
ATOM     45  H2  M2Y d   1       4.225  80.268  28.527  0.00  0.00     0.033 H 
ATOM     46  H3  M2Y d   1       2.780  80.016  29.564  0.00  0.00     0.033 H 
ATOM     47  H4  M2Y d   1       2.598  80.124  27.780  0.00  0.00     0.033 H 
ENDBRANCH  39  44
ENDBRANCH   6  34
TORSDOF 7
