REMARK  7 active torsions:
REMARK  status: ('A' for Active; 'I' for Inactive)
REMARK    1  A    between atoms: C4_1  and  NAA_18 
REMARK    2  A    between atoms: CAP_9  and  CAS_10 
REMARK    3  A    between atoms: CAJ_14  and  CAM_13 
REMARK    4  A    between atoms: NAA_18  and  CAB_19 
REMARK    5  A    between atoms: CAB_19  and  PBA_20 
REMARK    6  A    between atoms: CAB_19  and  CAL_24 
REMARK    7  A    between atoms: CAL_24  and  CAT_25 
ROOT
ATOM      1  C4  M2V d   1       2.776  39.968  -6.667  0.00  0.00     0.139 A 
ATOM      2  C5  M2V d   1       3.280  38.701  -6.554  0.00  0.00     0.047 A 
ATOM      3  C6  M2V d   1       4.471  38.548  -5.924  0.00  0.00     0.113 A 
ATOM      4  N1  M2V d   1       5.146  39.603  -5.424  0.00  0.00    -0.234 NA
ATOM      5  N3  M2V d   1       3.424  41.055  -6.187  0.00  0.00    -0.224 NA
ATOM      6  CAJ M2V d   1       3.544  36.408  -6.711  0.00  0.00     0.018 A 
ATOM      7  SAK M2V d   1       4.862  36.901  -5.918  0.00  0.00    -0.069 SA
ATOM      8  CAI M2V d   1       2.778  37.498  -6.978  0.00  0.00    -0.049 A 
ATOM      9  C2  M2V d   1       4.644  40.903  -5.543  0.00  0.00     0.090 A 
ATOM     10  H7  M2V d   1       1.824  37.421  -7.497  0.00  0.00     0.087 H 
ATOM     11  H8  M2V d   1       5.185  41.756  -5.149  0.00  0.00     0.146 H 
ENDROOT
BRANCH   1  12
ATOM     12  NAA M2V d   1       1.590  40.143  -7.292  0.00  0.00    -0.357 N 
ATOM     13  H9  M2V d   1       1.217  39.376  -7.869  0.00  0.00     0.162 HD
BRANCH  12  14
ATOM     14  CAB M2V d   1       0.798  41.405  -7.179  0.00  0.00     0.123 C 
ATOM     15  H10 M2V d   1       1.436  42.172  -6.716  0.00  0.00     0.095 H 
BRANCH  14  16
ATOM     16  PBA M2V d   1      -0.691  41.142  -6.132  0.00  0.00     0.283 P 
ATOM     17  OBC M2V d   1      -0.703  39.573  -5.676  0.00  0.00    -0.638 OA
ATOM     18  OBD M2V d   1      -1.929  41.382  -7.185  0.00  0.00    -0.638 OA
ATOM     19  OBB M2V d   1      -0.702  42.036  -4.958  0.00  0.00    -0.638 OA
ENDBRANCH  14  16
BRANCH  14  20
ATOM     20  CAL M2V d   1       0.312  41.922  -8.554  0.00  0.00    -0.010 C 
ATOM     21  H11 M2V d   1      -0.272  42.843  -8.410  0.00  0.00     0.044 H 
ATOM     22  H12 M2V d   1      -0.321  41.157  -9.027  0.00  0.00     0.044 H 
BRANCH  20  23
ATOM     23  CAT M2V d   1       1.399  42.192  -9.378  0.00  0.00    -0.056 A 
ATOM     24  CAU M2V d   1       1.662  41.352 -10.451  0.00  0.00    -0.077 A 
ATOM     25  CAV M2V d   1       2.745  41.610 -11.270  0.00  0.00    -0.082 A 
ATOM     26  H13 M2V d   1       1.022  40.499 -10.646  0.00  0.00     0.084 H 
ATOM     27  CAW M2V d   1       3.570  42.708 -11.037  0.00  0.00    -0.083 A 
ATOM     28  H14 M2V d   1       2.955  40.950 -12.104  0.00  0.00     0.083 H 
ATOM     29  CAX M2V d   1       3.314  43.554  -9.962  0.00  0.00    -0.082 A 
ATOM     30  H15 M2V d   1       4.411  42.903 -11.693  0.00  0.00     0.083 H 
ATOM     31  CAY M2V d   1       2.226  43.293  -9.134  0.00  0.00    -0.077 A 
ATOM     32  H16 M2V d   1       3.955  44.407  -9.771  0.00  0.00     0.083 H 
ATOM     33  H17 M2V d   1       2.018  43.947  -8.295  0.00  0.00     0.084 H 
ENDBRANCH  20  23
ENDBRANCH  14  20
ENDBRANCH  12  14
ENDBRANCH   1  12
BRANCH   6  34
ATOM     34  CAM M2V d   1       3.274  35.107  -6.987  0.00  0.00    -0.017 A 
ATOM     35  CAN M2V d   1       1.965  34.658  -7.205  0.00  0.00    -0.050 A 
ATOM     36  CAO M2V d   1       1.676  33.310  -7.467  0.00  0.00     0.040 A 
ATOM     37  H1  M2V d   1       1.151  35.373  -7.170  0.00  0.00     0.087 H 
ATOM     38 CLAZ M2V d   1      -0.030  32.824  -7.742  0.00  0.00    -0.084 Cl
ATOM     39  CAP M2V d   1       2.701  32.363  -7.505  0.00  0.00    -0.040 A 
ATOM     40  CAQ M2V d   1       4.004  32.793  -7.278  0.00  0.00    -0.075 A 
ATOM     41  CAR M2V d   1       4.285  34.139  -7.016  0.00  0.00    -0.071 A 
ATOM     42  H5  M2V d   1       4.815  32.074  -7.304  0.00  0.00     0.084 H 
ATOM     43  H6  M2V d   1       5.310  34.439  -6.831  0.00  0.00     0.084 H 
BRANCH  39  44
ATOM     44  CAS M2V d   1       2.423  31.012  -7.762  0.00  0.00    -0.050 C 
ATOM     45  H2  M2V d   1       3.360  30.436  -7.749  0.00  0.00     0.033 H 
ATOM     46  H3  M2V d   1       1.948  30.917  -8.750  0.00  0.00     0.033 H 
ATOM     47  H4  M2V d   1       1.743  30.624  -6.989  0.00  0.00     0.033 H 
ENDBRANCH  39  44
ENDBRANCH   6  34
TORSDOF 7
