REMARK  6 active torsions:
REMARK  status: ('A' for Active; 'I' for Inactive)
REMARK    1  A    between atoms: C15_11  and  C2_2 
REMARK    2  A    between atoms: C19_15  and  O3_6 
REMARK    3  A    between atoms: C12_8  and  C16_12 
REMARK       I    between atoms: N1_32  and  C15_11 
REMARK    4  A    between atoms: C23_19  and  C22_18 
REMARK    5  A    between atoms: C22_18  and  N1_32 
REMARK    6  A    between atoms: N2_33  and  C23_19 
ROOT
ATOM      1  C16 M3D d   1       1.172   4.243 104.288  0.00  0.00    -0.024 A 
ATOM      2  C17 M3D d   1      -0.240   4.285 104.451  0.00  0.00    -0.070 A 
ATOM      3  C18 M3D d   1      -0.900   5.443 104.949  0.00  0.00    -0.049 A 
ATOM      4  C19 M3D d   1      -0.170   6.630 105.158  0.00  0.00     0.086 A 
ATOM      5  C20 M3D d   1       1.237   6.639 104.958  0.00  0.00     0.078 A 
ATOM      6  C21 M3D d   1       1.897   5.441 104.574  0.00  0.00    -0.049 A 
ATOM      7  C28 M3D d   1       2.030   7.861 105.182  0.00  0.00     0.102 C 
ATOM      8  N3  M3D d   1       2.658   8.843 105.320  0.00  0.00    -0.191 NA
ATOM      9  H6  M3D d   1      -0.828   3.413 104.189  0.00  0.00     0.085 H 
ATOM     10  H7  M3D d   1      -1.961   5.412 105.167  0.00  0.00     0.087 H 
ATOM     11  H8  M3D d   1       2.978   5.435 104.496  0.00  0.00     0.087 H 
ENDROOT
BRANCH   4  12
ATOM     12  O3  M3D d   1      -0.833   7.724 105.623  0.00  0.00    -0.359 OA
ATOM     13  H2  M3D d   1      -0.223   8.446 105.716  0.00  0.00     0.217 HD
ENDBRANCH   4  12
BRANCH   1  14
ATOM     14  C12 M3D d   1       1.836   3.016 103.790  0.00  0.00    -0.023 A 
ATOM     15  C11 M3D d   1       3.235   2.844 103.883  0.00  0.00    -0.039 A 
ATOM     16  C10 M3D d   1       3.885   1.693 103.382  0.00  0.00     0.088 A 
ATOM     17  H3  M3D d   1       3.829   3.619 104.353  0.00  0.00     0.089 H 
ATOM     18  O1  M3D d   1       5.215   1.567 103.639  0.00  0.00    -0.309 OA
ATOM     19  C9  M3D d   1       3.167   0.662 102.747  0.00  0.00     0.013 A 
ATOM     20  C3  M3D d   1       6.096   1.532 102.606  0.00  0.00     0.086 A 
ATOM     21  C4  M3D d   1       6.103   0.441 101.701  0.00  0.00    -0.001 A 
ATOM     22  C8  M3D d   1       7.033   2.577 102.483  0.00  0.00    -0.049 A 
ATOM     23  C1  M3D d   1       5.135  -0.648 101.824  0.00  0.00    -0.054 C 
ATOM     24  C5  M3D d   1       7.039   0.430 100.634  0.00  0.00    -0.070 A 
ATOM     25  C2  M3D d   1       3.851  -0.566 102.248  0.00  0.00     0.045 C 
ATOM     26  H1  M3D d   1       5.487  -1.639 101.542  0.00  0.00     0.086 H 
ATOM     27  C6  M3D d   1       7.953   1.501 100.493  0.00  0.00    -0.082 A 
ATOM     28  H21 M3D d   1       7.054  -0.395  99.931  0.00  0.00     0.084 H 
ATOM     29  C7  M3D d   1       7.947   2.566 101.409  0.00  0.00    -0.080 A 
ATOM     30  H22 M3D d   1       8.662   1.500  99.673  0.00  0.00     0.083 H 
ATOM     31  H23 M3D d   1       8.649   3.384 101.290  0.00  0.00     0.083 H 
ATOM     32  H24 M3D d   1       7.051   3.383 103.208  0.00  0.00     0.087 H 
ATOM     33  C14 M3D d   1       1.758   0.834 102.643  0.00  0.00    -0.069 A 
ATOM     34  C13 M3D d   1       1.102   1.984 103.159  0.00  0.00    -0.071 A 
ATOM     35  H5  M3D d   1       1.168   0.066 102.156  0.00  0.00     0.085 H 
ATOM     36  H4  M3D d   1       0.025   2.072 103.068  0.00  0.00     0.084 H 
BRANCH  25  37
ATOM     37  C15 M3D d   1       3.135  -1.849 102.267  0.00  0.00     0.252 C 
ATOM     38  O2  M3D d   1       2.600  -2.320 103.268  0.00  0.00    -0.268 OA
ATOM     39  N1  M3D d   1       3.165  -2.519 101.102  0.00  0.00    -0.355 N 
ATOM     40  H25 M3D d   1       3.623  -2.065 100.338  0.00  0.00     0.162 HD
BRANCH  39  41
ATOM     41  C22 M3D d   1       2.607  -3.823 100.835  0.00  0.00     0.018 C 
ATOM     42  H9  M3D d   1       3.192  -4.305 100.038  0.00  0.00     0.066 H 
ATOM     43  H10 M3D d   1       2.665  -4.430 101.751  0.00  0.00     0.066 H 
BRANCH  41  44
ATOM     44  C23 M3D d   1       1.148  -3.733 100.393  0.00  0.00     0.098 C 
ATOM     45  H11 M3D d   1       1.093  -3.217  99.423  0.00  0.00     0.078 H 
ATOM     46  H12 M3D d   1       0.575  -3.167 101.142  0.00  0.00     0.078 H 
BRANCH  44  47
ATOM     47  N2  M3D d   1       0.583  -5.063 100.262  0.00  0.00    -0.066 N 
ATOM     48  C24 M3D d   1       1.155  -5.854  99.163  0.00  0.00     0.103 C 
ATOM     49  C25 M3D d   1       0.715  -7.319  99.331  0.00  0.00     0.042 C 
ATOM     50  H13 M3D d   1       0.792  -5.466  98.200  0.00  0.00     0.079 H 
ATOM     51  H14 M3D d   1       2.253  -5.791  99.194  0.00  0.00     0.079 H 
ATOM     52  O4  M3D d   1      -0.718  -7.359  99.460  0.00  0.00    -0.388 OA
ATOM     53  H15 M3D d   1       1.180  -7.744 100.233  0.00  0.00     0.076 H 
ATOM     54  H16 M3D d   1       1.024  -7.901  98.450  0.00  0.00     0.076 H 
ATOM     55  C26 M3D d   1      -1.236  -6.595 100.539  0.00  0.00     0.042 C 
ATOM     56  C27 M3D d   1      -0.870  -5.134 100.229  0.00  0.00     0.103 C 
ATOM     57  H17 M3D d   1      -2.328  -6.712 100.602  0.00  0.00     0.076 H 
ATOM     58  H18 M3D d   1      -0.778  -6.912 101.488  0.00  0.00     0.076 H 
ATOM     59  H19 M3D d   1      -1.302  -4.464 100.987  0.00  0.00     0.079 H 
ATOM     60  H20 M3D d   1      -1.243  -4.851  99.234  0.00  0.00     0.079 H 
ATOM     61  H26 M3D d   1       0.854  -5.538 101.109  0.00  0.00     0.280 HD
ENDBRANCH  44  47
ENDBRANCH  41  44
ENDBRANCH  39  41
ENDBRANCH  25  37
ENDBRANCH   1  14
TORSDOF 6
