REMARK  3 active torsions:
REMARK  status: ('A' for Active; 'I' for Inactive)
REMARK    1  A    between atoms: N7_18  and  C8_6 
REMARK    2  A    between atoms: C15_9  and  N1_17 
REMARK    3  A    between atoms: C23_14  and  C17_10 
ROOT
ATOM      1  C15 M5V d   1      38.678  13.200  34.940  0.00  0.00     0.130 A 
ATOM      2  C17 M5V d   1      36.695  13.668  33.754  0.00  0.00     0.162 A 
ATOM      3  C19 M5V d   1      37.340  11.452  33.890  0.00  0.00     0.028 A 
ATOM      4  C21 M5V d   1      39.330  10.743  35.057  0.00  0.00     0.104 C 
ATOM      5  N22 M5V d   1      40.045   9.926  35.398  0.00  0.00    -0.191 NA
ATOM      6  N16 M5V d   1      37.753  14.053  34.472  0.00  0.00    -0.215 NA
ATOM      7  N18 M5V d   1      36.492  12.380  33.469  0.00  0.00    -0.239 NA
ATOM      8  C20 M5V d   1      38.471  11.812  34.648  0.00  0.00     0.102 A 
ATOM      9  H10 M5V d   1      37.162  10.410  33.649  0.00  0.00     0.117 H 
ENDROOT
BRANCH   1  10
ATOM     10  N1  M5V d   1      39.740  13.715  35.694  0.00  0.00    -0.259 NA
ATOM     11  C2  M5V d   1      41.080  13.078  35.611  0.00  0.00     0.001 C 
ATOM     12  C3  M5V d   1      42.098  14.251  35.817  0.00  0.00     0.012 C 
ATOM     13  H1  M5V d   1      41.198  12.320  36.400  0.00  0.00     0.058 H 
ATOM     14  H2  M5V d   1      41.225  12.608  34.627  0.00  0.00     0.058 H 
ATOM     15  C4  M5V d   1      41.192  15.287  36.576  0.00  0.00    -0.033 C 
ATOM     16  N7  M5V d   1      42.174  15.016  34.534  0.00  0.00    -0.276 NA
ATOM     17  H3  M5V d   1      43.057  13.970  36.276  0.00  0.00     0.066 H 
ATOM     18  C5  M5V d   1      39.999  15.191  35.561  0.00  0.00     0.013 C 
ATOM     19  H4  M5V d   1      41.636  16.292  36.623  0.00  0.00     0.037 H 
ATOM     20  H5  M5V d   1      40.921  14.958  37.590  0.00  0.00     0.037 H 
ATOM     21  C6  M5V d   1      40.781  15.420  34.221  0.00  0.00    -0.001 C 
ATOM     22  H6  M5V d   1      39.133  15.849  35.724  0.00  0.00     0.066 H 
ATOM     23  H7  M5V d   1      40.740  16.478  33.922  0.00  0.00     0.058 H 
ATOM     24  H8  M5V d   1      40.366  14.795  33.416  0.00  0.00     0.058 H 
BRANCH  16  25
ATOM     25  C8  M5V d   1      42.959  14.533  33.467  0.00  0.00     0.012 A 
ATOM     26  C9  M5V d   1      43.127  15.360  32.349  0.00  0.00    -0.062 A 
ATOM     27  C10 M5V d   1      43.890  14.940  31.269  0.00  0.00    -0.080 A 
ATOM     28  H13 M5V d   1      42.657  16.337  32.327  0.00  0.00     0.086 H 
ATOM     29  C11 M5V d   1      44.506  13.698  31.286  0.00  0.00    -0.062 A 
ATOM     30  H14 M5V d   1      44.005  15.587  30.407  0.00  0.00     0.083 H 
ATOM     31  C12 M5V d   1      44.356  12.874  32.391  0.00  0.00     0.035 A 
ATOM     32  H9  M5V d   1      45.101  13.373  30.440  0.00  0.00     0.086 H 
ATOM     33 CL1  M5V d   1      45.118  11.321  32.436  0.00  0.00    -0.084 Cl
ATOM     34  C14 M5V d   1      43.598  13.281  33.475  0.00  0.00    -0.041 A 
ATOM     35  H15 M5V d   1      43.496  12.630  34.336  0.00  0.00     0.088 H 
ENDBRANCH  16  25
ENDBRANCH   1  10
BRANCH   2  36
ATOM     36  C23 M5V d   1      35.722  14.684  33.277  0.00  0.00     0.029 A 
ATOM     37  C24 M5V d   1      36.086  16.034  33.136  0.00  0.00     0.015 A 
ATOM     38  N25 M5V d   1      35.207  16.928  32.707  0.00  0.00    -0.272 NA
ATOM     39  H11 M5V d   1      37.095  16.347  33.380  0.00  0.00     0.116 H 
ATOM     40  C26 M5V d   1      33.962  16.589  32.404  0.00  0.00     0.002 A 
ATOM     41  C27 M5V d   1      33.520  15.279  32.513  0.00  0.00    -0.065 A 
ATOM     42  H16 M5V d   1      33.273  17.354  32.063  0.00  0.00     0.114 H 
ATOM     43  C28 M5V d   1      34.401  14.305  32.955  0.00  0.00    -0.067 A 
ATOM     44  H12 M5V d   1      32.499  15.021  32.256  0.00  0.00     0.085 H 
ATOM     45  H17 M5V d   1      34.082  13.273  33.051  0.00  0.00     0.085 H 
ENDBRANCH   2  36
TORSDOF 3
