REMARK  5 active torsions:
REMARK  status: ('A' for Active; 'I' for Inactive)
REMARK    1  A    between atoms: C11_3  and  C5_11 
REMARK    2  A    between atoms: C15_7  and  C12_4 
REMARK    3  A    between atoms: C15_7  and  C13_5 
REMARK    4  A    between atoms: C15_7  and  C14_6 
REMARK    5  A    between atoms: C7_13  and  C15_7 
REMARK       I    between atoms: C7_13  and  N16_17 
ROOT
ATOM      1  C10 M5J d   1      18.761  -4.737  51.963  0.00  0.00    -0.002 C 
ATOM      2  C11 M5J d   1      19.545  -2.595  51.279  0.00  0.00     0.040 C 
ATOM      3  C7  M5J d   1      20.776  -3.736  52.945  0.00  0.00     0.228 C 
ATOM      4  C8  M5J d   1      17.827  -4.232  50.894  0.00  0.00    -0.048 C 
ATOM      5  C9  M5J d   1      18.374  -2.916  50.396  0.00  0.00    -0.041 C 
ATOM      6  N16 M5J d   1      19.584  -3.608  52.282  0.00  0.00    -0.343 N 
ATOM      7  O17 M5J d   1      21.666  -2.907  52.811  0.00  0.00    -0.273 OA
ATOM      8  H2  M5J d   1      19.372  -5.569  51.584  0.00  0.00     0.064 H 
ATOM      9  H3  M5J d   1      18.197  -5.069  52.847  0.00  0.00     0.064 H 
ATOM     10  H4  M5J d   1      20.475  -2.628  50.693  0.00  0.00     0.080 H 
ATOM     11  H17 M5J d   1      16.821  -4.085  51.313  0.00  0.00     0.035 H 
ATOM     12  H18 M5J d   1      17.778  -4.955  50.066  0.00  0.00     0.035 H 
ATOM     13  H19 M5J d   1      18.698  -3.009  49.349  0.00  0.00     0.036 H 
ATOM     14  H20 M5J d   1      17.609  -2.130  50.475  0.00  0.00     0.036 H 
ENDROOT
BRANCH   2  15
ATOM     15  C5  M5J d   1      19.393  -1.238  51.847  0.00  0.00    -0.032 A 
ATOM     16  C2  M5J d   1      20.231  -0.257  51.377  0.00  0.00    -0.075 A 
ATOM     17  C1  M5J d   1      20.138   1.032  51.851  0.00  0.00    -0.080 A 
ATOM     18  H14 M5J d   1      20.973  -0.500  50.625  0.00  0.00     0.084 H 
ATOM     19  C3  M5J d   1      19.200   1.339  52.807  0.00  0.00    -0.046 A 
ATOM     20  H1  M5J d   1      20.801   1.801  51.472  0.00  0.00     0.083 H 
ATOM     21  C6  M5J d   1      18.364   0.357  53.284  0.00  0.00     0.117 A 
ATOM     22  H15 M5J d   1      19.119   2.352  53.184  0.00  0.00     0.088 H 
ATOM     23  C4  M5J d   1      18.452  -0.936  52.806  0.00  0.00    -0.038 A 
ATOM     24  F18 M5J d   1      17.460   0.703  54.228  0.00  0.00    -0.206 F 
ATOM     25  H16 M5J d   1      17.787  -1.705  53.182  0.00  0.00     0.089 H 
ENDBRANCH   2  15
BRANCH   3  26
ATOM     26  C15 M5J d   1      20.856  -4.952  53.840  0.00  0.00     0.030 C 
BRANCH  26  27
ATOM     27  C12 M5J d   1      20.275  -6.135  53.119  0.00  0.00    -0.061 C 
ATOM     28  H5  M5J d   1      20.331  -7.023  53.766  0.00  0.00     0.029 H 
ATOM     29  H6  M5J d   1      20.845  -6.318  52.196  0.00  0.00     0.029 H 
ATOM     30  H7  M5J d   1      19.224  -5.931  52.867  0.00  0.00     0.029 H 
ENDBRANCH  26  27
BRANCH  26  31
ATOM     31  C13 M5J d   1      20.007  -4.651  55.042  0.00  0.00    -0.061 C 
ATOM     32  H8  M5J d   1      20.424  -3.785  55.578  0.00  0.00     0.029 H 
ATOM     33  H9  M5J d   1      19.994  -5.525  55.710  0.00  0.00     0.029 H 
ATOM     34  H10 M5J d   1      18.981  -4.422  54.718  0.00  0.00     0.029 H 
ENDBRANCH  26  31
BRANCH  26  35
ATOM     35  C14 M5J d   1      22.283  -5.298  54.231  0.00  0.00    -0.061 C 
ATOM     36  H11 M5J d   1      22.870  -5.511  53.325  0.00  0.00     0.029 H 
ATOM     37  H12 M5J d   1      22.280  -6.184  54.883  0.00  0.00     0.029 H 
ATOM     38  H13 M5J d   1      22.732  -4.449  54.768  0.00  0.00     0.029 H 
ENDBRANCH  26  35
ENDBRANCH   3  26
TORSDOF 5
