REMARK  6 active torsions:
REMARK  status: ('A' for Active; 'I' for Inactive)
REMARK    1  A    between atoms: C25_23  and  C1_1 
REMARK    2  A    between atoms: C5_4  and  N7_15 
REMARK    3  A    between atoms: C14_19  and  C16_7 
REMARK    4  A    between atoms: C19_9  and  C21_10 
REMARK    5  A    between atoms: N28_26  and  C30_12 
REMARK    6  A    between atoms: C9_16  and  C22_21 
REMARK       I    between atoms: N11_17  and  C14_19 
ROOT
ATOM      1  C1  M5D d   1      36.205  14.221  33.567  0.00  0.00     0.111 A 
ATOM      2  C2  M5D d   1      35.886  12.909  33.123  0.00  0.00     0.166 A 
ATOM      3  C4  M5D d   1      37.861  12.125  34.041  0.00  0.00     0.048 A 
ATOM      4  C5  M5D d   1      38.209  13.418  34.498  0.00  0.00     0.144 A 
ATOM      5  C23 M5D d   1      34.692  12.583  32.408  0.00  0.00     0.122 C 
ATOM      6  N3  M5D d   1      36.736  11.917  33.386  0.00  0.00    -0.244 NA
ATOM      7  N6  M5D d   1      37.346  14.408  34.239  0.00  0.00    -0.226 NA
ATOM      8  N24 M5D d   1      33.795  12.185  31.833  0.00  0.00    -0.190 NA
ATOM      9  H1  M5D d   1      38.529  11.293  34.232  0.00  0.00     0.120 H 
ENDROOT
BRANCH   1  10
ATOM     10  C25 M5D d   1      35.346  15.415  33.357  0.00  0.00     0.032 A 
ATOM     11  C26 M5D d   1      35.822  16.741  33.332  0.00  0.00     0.035 A 
ATOM     12  N27 M5D d   1      34.811  17.546  33.153  0.00  0.00    -0.185 NA
ATOM     13  H22 M5D d   1      36.862  17.044  33.444  0.00  0.00     0.118 H 
ATOM     14  N28 M5D d   1      33.653  16.773  33.058  0.00  0.00    -0.285 N 
ATOM     15  C29 M5D d   1      33.988  15.481  33.191  0.00  0.00     0.012 A 
ATOM     16  H23 M5D d   1      33.302  14.635  33.171  0.00  0.00     0.115 H 
BRANCH  14  17
ATOM     17  C30 M5D d   1      32.291  17.270  32.864  0.00  0.00     0.002 C 
ATOM     18  H13 M5D d   1      31.592  16.421  32.829  0.00  0.00     0.059 H 
ATOM     19  H14 M5D d   1      32.236  17.829  31.918  0.00  0.00     0.059 H 
ATOM     20  H15 M5D d   1      32.020  17.933  33.699  0.00  0.00     0.059 H 
ENDBRANCH  14  17
ENDBRANCH   1  10
BRANCH   4  21
ATOM     21  N7  M5D d   1      39.407  13.690  35.192  0.00  0.00    -0.361 N 
ATOM     22  C8  M5D d   1      39.904  15.081  35.385  0.00  0.00     0.015 C 
ATOM     23  C9  M5D d   1      41.261  15.224  34.655  0.00  0.00     0.026 C 
ATOM     24  H2  M5D d   1      40.037  15.282  36.458  0.00  0.00     0.067 H 
ATOM     25  H3  M5D d   1      39.180  15.795  34.965  0.00  0.00     0.067 H 
ATOM     26  N11 M5D d   1      42.035  13.963  34.771  0.00  0.00    -0.344 N 
ATOM     27  H16 M5D d   1      41.062  15.412  33.590  0.00  0.00     0.074 H 
ATOM     28  C12 M5D d   1      41.708  13.118  35.942  0.00  0.00     0.013 C 
ATOM     29  C14 M5D d   1      42.972  13.571  33.855  0.00  0.00     0.224 C 
ATOM     30  C13 M5D d   1      40.267  12.613  35.753  0.00  0.00     0.011 C 
ATOM     31  H4  M5D d   1      41.781  13.710  36.866  0.00  0.00     0.066 H 
ATOM     32  H5  M5D d   1      42.401  12.266  35.997  0.00  0.00     0.066 H 
ATOM     33  H17 M5D d   1      39.863  12.297  36.726  0.00  0.00     0.066 H 
ATOM     34  H18 M5D d   1      40.271  11.757  35.063  0.00  0.00     0.066 H 
ATOM     35  O15 M5D d   1      43.566  12.515  33.998  0.00  0.00    -0.273 OA
BRANCH  23  36
ATOM     36  C22 M5D d   1      42.064  16.406  35.207  0.00  0.00    -0.056 C 
ATOM     37  H19 M5D d   1      43.021  16.482  34.670  0.00  0.00     0.030 H 
ATOM     38  H20 M5D d   1      42.257  16.250  36.279  0.00  0.00     0.030 H 
ATOM     39  H21 M5D d   1      41.491  17.335  35.069  0.00  0.00     0.030 H 
ENDBRANCH  23  36
BRANCH  29  40
ATOM     40  C16 M5D d   1      43.326  14.412  32.646  0.00  0.00     0.027 A 
ATOM     41  C18 M5D d   1      44.622  14.103  31.891  0.00  0.00    -0.050 A 
ATOM     42  C19 M5D d   1      44.535  15.343  32.788  0.00  0.00    -0.045 A 
ATOM     43  H7  M5D d   1      44.662  14.217  30.798  0.00  0.00     0.034 H 
ATOM     44  H8  M5D d   1      45.244  13.248  32.194  0.00  0.00     0.034 H 
ATOM     45  H9  M5D d   1      45.087  15.399  33.738  0.00  0.00     0.040 H 
ATOM     46  H6  M5D d   1      42.420  14.725  32.106  0.00  0.00     0.055 H 
BRANCH  42  47
ATOM     47  C21 M5D d   1      44.521  16.707  32.097  0.00  0.00    -0.072 C 
ATOM     48  H10 M5D d   1      44.456  17.501  32.855  0.00  0.00     0.028 H 
ATOM     49  H11 M5D d   1      43.652  16.769  31.426  0.00  0.00     0.028 H 
ATOM     50  H12 M5D d   1      45.445  16.832  31.513  0.00  0.00     0.028 H 
ENDBRANCH  42  47
ENDBRANCH  29  40
ENDBRANCH   4  21
TORSDOF 6
