REMARK  12 active torsions:
REMARK  status: ('A' for Active; 'I' for Inactive)
REMARK    1  A    between atoms: C22_2  and  C23_3 
REMARK    2  A    between atoms: C18_7  and  C20_6 
REMARK       I    between atoms: N17_20  and  C18_7 
REMARK    3  A    between atoms: C15_10  and  C16_18 
REMARK    4  A    between atoms: C04_11  and  C06_12 
REMARK       I    between atoms: N03_23  and  C04_11 
REMARK    5  A    between atoms: C06_12  and  C07_13 
REMARK    6  A    between atoms: C06_12  and  N17_20 
REMARK    7  A    between atoms: C07_13  and  C08_14 
REMARK       I    between atoms: C08_14  and  N10_19 
REMARK    8  A    between atoms: C02_24  and  N03_23 
REMARK    9  A    between atoms: C26_25  and  C02_24 
REMARK   10  A    between atoms: C02_24  and  C01_27 
REMARK       I    between atoms: N28_37  and  C26_25 
REMARK   11  A    between atoms: C29_28  and  C30_29 
REMARK   12  A    between atoms: C29_28  and  N28_37 
ROOT
ATOM      1  C06 M6M d   1      72.235 -29.033 197.736  0.00  0.00     0.097 C 
ATOM      2  H8  M6M d   1      72.399 -29.687 198.605  0.00  0.00     0.088 H 
ENDROOT
BRANCH   1   3
ATOM      3  C04 M6M d   1      72.634 -29.731 196.443  0.00  0.00     0.241 C 
ATOM      4  O05 M6M d   1      72.845 -29.149 195.431  0.00  0.00    -0.271 OA
ATOM      5  N03 M6M d   1      72.734 -31.175 196.561  0.00  0.00    -0.346 N 
ATOM      6  H21 M6M d   1      72.566 -31.588 197.456  0.00  0.00     0.163 HD
BRANCH   5   7
ATOM      7  C02 M6M d   1      73.067 -32.060 195.445  0.00  0.00     0.086 C 
ATOM      8  H22 M6M d   1      73.589 -31.546 194.624  0.00  0.00     0.086 H 
BRANCH   7   9
ATOM      9  C26 M6M d   1      71.674 -32.549 195.032  0.00  0.00     0.240 C 
ATOM     10  O27 M6M d   1      70.921 -32.925 195.867  0.00  0.00    -0.271 OA
ATOM     11  N28 M6M d   1      71.198 -32.541 193.619  0.00  0.00    -0.355 N 
ATOM     12  H31 M6M d   1      71.794 -32.209 192.888  0.00  0.00     0.162 HD
BRANCH  11  13
ATOM     13  C29 M6M d   1      69.843 -33.026 193.310  0.00  0.00     0.022 C 
ATOM     14  H26 M6M d   1      69.907 -34.037 192.882  0.00  0.00     0.071 H 
ATOM     15  H27 M6M d   1      69.248 -33.056 194.234  0.00  0.00     0.071 H 
BRANCH  13  16
ATOM     16  C30 M6M d   1      69.154 -32.073 192.283  0.00  0.00    -0.002 A 
ATOM     17  C31 M6M d   1      69.459 -32.206 190.956  0.00  0.00    -0.069 A 
ATOM     18  C32 M6M d   1      68.854 -31.363 190.022  0.00  0.00    -0.045 A 
ATOM     19  H28 M6M d   1      70.166 -32.961 190.632  0.00  0.00     0.084 H 
ATOM     20  C33 M6M d   1      67.942 -30.401 190.447  0.00  0.00     0.119 A 
ATOM     21  H29 M6M d   1      69.094 -31.457 188.969  0.00  0.00     0.088 H 
ATOM     22  C35 M6M d   1      67.638 -30.277 191.792  0.00  0.00    -0.008 A 
ATOM     23  F34 M6M d   1      67.342 -29.566 189.542  0.00  0.00    -0.206 F 
ATOM     24  C36 M6M d   1      68.236 -31.114 192.707  0.00  0.00     0.127 A 
ATOM     25  H30 M6M d   1      66.932 -29.524 192.123  0.00  0.00     0.093 H 
ATOM     26  F37 M6M d   1      67.928 -30.984 194.030  0.00  0.00    -0.205 F 
ENDBRANCH  13  16
ENDBRANCH  11  13
ENDBRANCH   7   9
BRANCH   7  27
ATOM     27  C01 M6M d   1      73.906 -33.182 196.002  0.00  0.00    -0.049 C 
ATOM     28  H23 M6M d   1      74.179 -33.873 195.191  0.00  0.00     0.030 H 
ATOM     29  H24 M6M d   1      73.332 -33.724 196.768  0.00  0.00     0.030 H 
ATOM     30  H25 M6M d   1      74.820 -32.768 196.453  0.00  0.00     0.030 H 
ENDBRANCH   7  27
ENDBRANCH   5   7
ENDBRANCH   1   3
BRANCH   1  31
ATOM     31  C07 M6M d   1      70.761 -28.698 197.567  0.00  0.00     0.036 C 
ATOM     32  H9  M6M d   1      70.248 -29.599 197.200  0.00  0.00     0.051 H 
ATOM     33  H10 M6M d   1      70.679 -27.898 196.816  0.00  0.00     0.051 H 
BRANCH  31  34
ATOM     34  C08 M6M d   1      70.035 -28.224 198.853  0.00  0.00     0.222 C 
ATOM     35  N10 M6M d   1      68.827 -27.395 198.733  0.00  0.00    -0.348 N 
ATOM     36  C15 M6M d   1      68.063 -26.886 197.449  0.00  0.00     0.011 C 
ATOM     37  C11 M6M d   1      67.840 -26.782 199.789  0.00  0.00    -0.002 C 
ATOM     38  C14 M6M d   1      67.392 -25.508 197.532  0.00  0.00    -0.046 C 
ATOM     39  H7  M6M d   1      68.802 -26.824 196.637  0.00  0.00     0.072 H 
ATOM     40  C13 M6M d   1      67.864 -24.716 198.551  0.00  0.00    -0.062 C 
ATOM     41  H15 M6M d   1      67.561 -24.983 196.580  0.00  0.00     0.035 H 
ATOM     42  H16 M6M d   1      66.313 -25.658 197.682  0.00  0.00     0.035 H 
ATOM     43  C12 M6M d   1      67.711 -25.265 199.798  0.00  0.00    -0.050 C 
ATOM     44  H5  M6M d   1      68.936 -24.535 198.381  0.00  0.00     0.033 H 
ATOM     45  H6  M6M d   1      67.322 -23.759 198.525  0.00  0.00     0.033 H 
ATOM     46  H13 M6M d   1      66.715 -24.998 200.181  0.00  0.00     0.035 H 
ATOM     47  H14 M6M d   1      68.483 -24.850 200.463  0.00  0.00     0.035 H 
ATOM     48  H11 M6M d   1      66.841 -27.201 199.596  0.00  0.00     0.064 H 
ATOM     49  H12 M6M d   1      68.182 -27.094 200.787  0.00  0.00     0.064 H 
ATOM     50  O09 M6M d   1      70.462 -28.520 199.904  0.00  0.00    -0.273 OA
BRANCH  36  51
ATOM     51  C16 M6M d   1      67.058 -27.933 197.094  0.00  0.00    -0.057 C 
ATOM     52  H17 M6M d   1      67.554 -28.913 197.038  0.00  0.00     0.030 H 
ATOM     53  H18 M6M d   1      66.608 -27.694 196.119  0.00  0.00     0.030 H 
ATOM     54  H19 M6M d   1      66.272 -27.963 197.863  0.00  0.00     0.030 H 
ENDBRANCH  36  51
ENDBRANCH  31  34
ENDBRANCH   1  31
BRANCH   1  55
ATOM     55  N17 M6M d   1      72.970 -27.819 197.885  0.00  0.00    -0.342 N 
ATOM     56  C18 M6M d   1      74.416 -27.942 198.160  0.00  0.00     0.273 C 
ATOM     57  O19 M6M d   1      74.890 -29.013 198.219  0.00  0.00    -0.266 OA
ATOM     58  H20 M6M d   1      72.526 -26.926 197.807  0.00  0.00     0.163 HD
BRANCH  56  59
ATOM     59  C20 M6M d   1      75.246 -26.677 198.320  0.00  0.00     0.154 A 
ATOM     60  C21 M6M d   1      76.524 -26.461 197.771  0.00  0.00    -0.017 A 
ATOM     61  C22 M6M d   1      76.916 -25.190 198.142  0.00  0.00     0.077 A 
ATOM     62  H1  M6M d   1      77.096 -27.164 197.167  0.00  0.00     0.091 H 
ATOM     63  O24 M6M d   1      75.899 -24.666 198.880  0.00  0.00    -0.218 OA
ATOM     64  N25 M6M d   1      74.882 -25.597 198.973  0.00  0.00    -0.123 NA
BRANCH  61  65
ATOM     65  C23 M6M d   1      78.232 -24.526 197.775  0.00  0.00    -0.029 C 
ATOM     66  H2  M6M d   1      78.267 -23.516 198.209  0.00  0.00     0.036 H 
ATOM     67  H3  M6M d   1      78.315 -24.457 196.680  0.00  0.00     0.036 H 
ATOM     68  H4  M6M d   1      79.067 -25.124 198.169  0.00  0.00     0.036 H 
ENDBRANCH  61  65
ENDBRANCH  56  59
ENDBRANCH   1  55
TORSDOF 12
