REMARK  12 active torsions:
REMARK  status: ('A' for Active; 'I' for Inactive)
REMARK    1  A    between atoms: C26_2  and  C27_3 
REMARK    2  A    between atoms: C22_7  and  C24_6 
REMARK       I    between atoms: N21_24  and  C22_7 
REMARK    3  A    between atoms: C14_19  and  C15_10 
REMARK    4  A    between atoms: C04_13  and  C06_14 
REMARK       I    between atoms: N03_27  and  C04_13 
REMARK    5  A    between atoms: C06_14  and  C07_15 
REMARK    6  A    between atoms: C06_14  and  N21_24 
REMARK    7  A    between atoms: C07_15  and  C08_16 
REMARK       I    between atoms: C08_16  and  N10_23 
REMARK    8  A    between atoms: C02_28  and  N03_27 
REMARK    9  A    between atoms: C30_29  and  C02_28 
REMARK   10  A    between atoms: C02_28  and  C01_31 
REMARK       I    between atoms: N32_41  and  C30_29 
REMARK   11  A    between atoms: C33_32  and  C34_33 
REMARK   12  A    between atoms: C33_32  and  N32_41 
ROOT
ATOM      1  C06 M6Y d   1      71.976 -28.734 199.822  0.00  0.00     0.097 C 
ATOM      2  H9  M6Y d   1      72.170 -29.356 200.708  0.00  0.00     0.088 H 
ENDROOT
BRANCH   1   3
ATOM      3  C04 M6Y d   1      72.188 -29.547 198.548  0.00  0.00     0.241 C 
ATOM      4  O05 M6Y d   1      72.439 -29.011 197.518  0.00  0.00    -0.271 OA
ATOM      5  N03 M6Y d   1      72.073 -30.997 198.615  0.00  0.00    -0.346 N 
ATOM      6  H21 M6Y d   1      71.870 -31.436 199.490  0.00  0.00     0.163 HD
BRANCH   5   7
ATOM      7  C02 M6Y d   1      72.249 -31.815 197.426  0.00  0.00     0.086 C 
ATOM      8  H22 M6Y d   1      72.714 -31.228 196.620  0.00  0.00     0.086 H 
BRANCH   7   9
ATOM      9  C30 M6Y d   1      70.863 -32.303 196.989  0.00  0.00     0.240 C 
ATOM     10  O31 M6Y d   1      70.074 -32.672 197.795  0.00  0.00    -0.271 OA
ATOM     11  N32 M6Y d   1      70.483 -32.318 195.588  0.00  0.00    -0.355 N 
ATOM     12  H31 M6Y d   1      71.124 -32.010 194.885  0.00  0.00     0.162 HD
BRANCH  11  13
ATOM     13  C33 M6Y d   1      69.153 -32.788 195.221  0.00  0.00     0.022 C 
ATOM     14  H26 M6Y d   1      69.222 -33.818 194.840  0.00  0.00     0.071 H 
ATOM     15  H27 M6Y d   1      68.502 -32.768 196.107  0.00  0.00     0.071 H 
BRANCH  13  16
ATOM     16  C34 M6Y d   1      68.562 -31.884 194.136  0.00  0.00    -0.002 A 
ATOM     17  C35 M6Y d   1      68.678 -32.241 192.804  0.00  0.00    -0.069 A 
ATOM     18  C36 M6Y d   1      68.138 -31.423 191.820  0.00  0.00    -0.045 A 
ATOM     19  H28 M6Y d   1      69.189 -33.157 192.529  0.00  0.00     0.084 H 
ATOM     20  C37 M6Y d   1      67.493 -30.249 192.171  0.00  0.00     0.119 A 
ATOM     21  H29 M6Y d   1      68.222 -31.704 190.776  0.00  0.00     0.088 H 
ATOM     22  C39 M6Y d   1      67.378 -29.890 193.503  0.00  0.00    -0.008 A 
ATOM     23  F38 M6Y d   1      66.971 -29.444 191.207  0.00  0.00    -0.206 F 
ATOM     24  C40 M6Y d   1      67.913 -30.710 194.483  0.00  0.00     0.127 A 
ATOM     25  H30 M6Y d   1      66.872 -28.972 193.778  0.00  0.00     0.093 H 
ATOM     26  F41 M6Y d   1      67.796 -30.358 195.792  0.00  0.00    -0.205 F 
ENDBRANCH  13  16
ENDBRANCH  11  13
ENDBRANCH   7   9
BRANCH   7  27
ATOM     27  C01 M6Y d   1      73.138 -32.999 197.787  0.00  0.00    -0.049 C 
ATOM     28  H23 M6Y d   1      73.284 -33.632 196.899  0.00  0.00     0.030 H 
ATOM     29  H24 M6Y d   1      72.659 -33.588 198.583  0.00  0.00     0.030 H 
ATOM     30  H25 M6Y d   1      74.113 -32.631 198.140  0.00  0.00     0.030 H 
ENDBRANCH   7  27
ENDBRANCH   5   7
ENDBRANCH   1   3
BRANCH   1  31
ATOM     31  C07 M6Y d   1      70.531 -28.244 199.830  0.00  0.00     0.036 C 
ATOM     32  H10 M6Y d   1      69.901 -29.090 199.518  0.00  0.00     0.051 H 
ATOM     33  H11 M6Y d   1      70.458 -27.438 199.085  0.00  0.00     0.051 H 
BRANCH  31  34
ATOM     34  C08 M6Y d   1      69.947 -27.705 201.133  0.00  0.00     0.222 C 
ATOM     35  N10 M6Y d   1      69.045 -26.564 201.092  0.00  0.00    -0.343 N 
ATOM     36  C11 M6Y d   1      68.464 -25.994 202.138  0.00  0.00    -0.002 C 
ATOM     37  C14 M6Y d   1      68.587 -25.755 199.759  0.00  0.00     0.040 C 
ATOM     38  C12 M6Y d   1      67.347 -25.059 201.543  0.00  0.00    -0.048 C 
ATOM     39  H12 M6Y d   1      68.018 -26.757 202.793  0.00  0.00     0.064 H 
ATOM     40  H13 M6Y d   1      69.195 -25.403 202.709  0.00  0.00     0.064 H 
ATOM     41  C13 M6Y d   1      67.936 -24.647 200.175  0.00  0.00    -0.041 C 
ATOM     42  H14 M6Y d   1      66.400 -25.604 201.418  0.00  0.00     0.035 H 
ATOM     43  H15 M6Y d   1      67.183 -24.180 202.184  0.00  0.00     0.035 H 
ATOM     44  H5  M6Y d   1      68.632 -23.802 200.286  0.00  0.00     0.036 H 
ATOM     45  H6  M6Y d   1      67.137 -24.374 199.470  0.00  0.00     0.036 H 
ATOM     46  H16 M6Y d   1      69.470 -25.485 199.161  0.00  0.00     0.080 H 
ATOM     47  O09 M6Y d   1      70.216 -28.211 202.168  0.00  0.00    -0.273 OA
BRANCH  37  48
ATOM     48  C15 M6Y d   1      67.632 -26.571 198.919  0.00  0.00    -0.035 A 
ATOM     49  C20 M6Y d   1      67.411 -26.213 197.598  0.00  0.00    -0.075 A 
ATOM     50  C19 M6Y d   1      66.531 -26.941 196.819  0.00  0.00    -0.082 A 
ATOM     51  H8  M6Y d   1      67.930 -25.360 197.175  0.00  0.00     0.084 H 
ATOM     52  C18 M6Y d   1      65.868 -28.027 197.366  0.00  0.00    -0.083 A 
ATOM     53  H19 M6Y d   1      66.361 -26.663 195.785  0.00  0.00     0.083 H 
ATOM     54  C17 M6Y d   1      66.084 -28.380 198.689  0.00  0.00    -0.082 A 
ATOM     55  H18 M6Y d   1      65.179 -28.602 196.758  0.00  0.00     0.083 H 
ATOM     56  C16 M6Y d   1      66.965 -27.649 199.468  0.00  0.00    -0.075 A 
ATOM     57  H7  M6Y d   1      65.562 -29.230 199.114  0.00  0.00     0.083 H 
ATOM     58  H17 M6Y d   1      67.131 -27.921 200.504  0.00  0.00     0.084 H 
ENDBRANCH  37  48
ENDBRANCH  31  34
ENDBRANCH   1  31
BRANCH   1  59
ATOM     59  N21 M6Y d   1      72.875 -27.601 199.809  0.00  0.00    -0.342 N 
ATOM     60  C22 M6Y d   1      74.285 -27.804 200.101  0.00  0.00     0.273 C 
ATOM     61  O23 M6Y d   1      74.685 -28.891 200.348  0.00  0.00    -0.266 OA
ATOM     62  H20 M6Y d   1      72.530 -26.686 199.601  0.00  0.00     0.163 HD
BRANCH  60  63
ATOM     63  C24 M6Y d   1      75.243 -26.612 200.080  0.00  0.00     0.154 A 
ATOM     64  C25 M6Y d   1      76.619 -26.659 199.900  0.00  0.00    -0.017 A 
ATOM     65  C26 M6Y d   1      77.087 -25.354 199.947  0.00  0.00     0.077 A 
ATOM     66  H1  M6Y d   1      77.220 -27.555 199.750  0.00  0.00     0.091 H 
ATOM     67  O28 M6Y d   1      76.019 -24.562 200.145  0.00  0.00    -0.218 OA
ATOM     68  N29 M6Y d   1      74.904 -25.343 200.222  0.00  0.00    -0.123 NA
BRANCH  65  69
ATOM     69  C27 M6Y d   1      78.537 -24.902 199.802  0.00  0.00    -0.029 C 
ATOM     70  H2  M6Y d   1      78.589 -23.806 199.884  0.00  0.00     0.036 H 
ATOM     71  H3  M6Y d   1      78.922 -25.215 198.820  0.00  0.00     0.036 H 
ATOM     72  H4  M6Y d   1      79.145 -25.359 200.597  0.00  0.00     0.036 H 
ENDBRANCH  65  69
ENDBRANCH  60  63
ENDBRANCH   1  59
TORSDOF 12
