REMARK  5 active torsions:
REMARK  status: ('A' for Active; 'I' for Inactive)
REMARK    1  A    between atoms: C9_21  and  C6_5 
REMARK    2  A    between atoms: N11_24  and  C12_7 
REMARK    3  A    between atoms: C14_15  and  C19_11 
REMARK    4  A    between atoms: C19_11  and  C20_16 
REMARK    5  A    between atoms: C22_17  and  N23_26 
REMARK       I    between atoms: C9_21  and  N11_24 
ROOT
ATOM      1  C2  M7D d   1     -30.230 -46.436  17.236  0.00  0.00     0.101 C 
ATOM      2  C3  M7D d   1     -31.612 -46.086  17.171  0.00  0.00     0.062 A 
ATOM      3  C4  M7D d   1     -32.031 -45.028  16.367  0.00  0.00    -0.059 A 
ATOM      4  C5  M7D d   1     -33.384 -44.704  16.318  0.00  0.00    -0.048 A 
ATOM      5  C6  M7D d   1     -34.245 -45.471  17.084  0.00  0.00     0.124 A 
ATOM      6  C8  M7D d   1     -32.561 -46.789  17.901  0.00  0.00     0.023 A 
ATOM      7  N1  M7D d   1     -29.105 -46.717  17.284  0.00  0.00    -0.191 NA
ATOM      8  N7  M7D d   1     -33.883 -46.505  17.875  0.00  0.00    -0.254 NA
ATOM      9  H1  M7D d   1     -31.311 -44.463  15.786  0.00  0.00     0.086 H 
ATOM     10  H2  M7D d   1     -33.748 -43.886  15.706  0.00  0.00     0.087 H 
ATOM     11  H3  M7D d   1     -32.224 -47.609  18.525  0.00  0.00     0.117 H 
ENDROOT
BRANCH   5  12
ATOM     12  C9  M7D d   1     -35.666 -45.130  17.031  0.00  0.00     0.274 C 
ATOM     13  N11 M7D d   1     -36.414 -45.759  17.991  0.00  0.00    -0.322 N 
ATOM     14  H15 M7D d   1     -35.969 -46.457  18.552  0.00  0.00     0.169 HD
ATOM     15  O10 M7D d   1     -36.059 -44.351  16.178  0.00  0.00    -0.266 OA
BRANCH  13  16
ATOM     16  C12 M7D d   1     -37.769 -45.482  18.234  0.00  0.00     0.035 A 
ATOM     17  C18 M7D d   1     -38.587 -44.859  17.289  0.00  0.00    -0.054 A 
ATOM     18  C17 M7D d   1     -39.928 -44.610  17.588  0.00  0.00    -0.043 A 
ATOM     19  H5  M7D d   1     -38.182 -44.569  16.326  0.00  0.00     0.087 H 
ATOM     20  C15 M7D d   1     -40.450 -44.992  18.825  0.00  0.00     0.125 A 
ATOM     21  H4  M7D d   1     -40.564 -44.120  16.860  0.00  0.00     0.088 H 
ATOM     22  C14 M7D d   1     -39.638 -45.622  19.768  0.00  0.00     0.012 A 
ATOM     23  F16 M7D d   1     -41.741 -44.756  19.105  0.00  0.00    -0.205 F 
ATOM     24  C13 M7D d   1     -38.297 -45.867  19.468  0.00  0.00    -0.046 A 
ATOM     25  H7  M7D d   1     -37.662 -46.358  20.197  0.00  0.00     0.088 H 
BRANCH  22  26
ATOM     26  C19 M7D d   1     -40.174 -46.059  21.139  0.00  0.00     0.075 C 
ATOM     27  C29 M7D d   1     -40.630 -44.874  22.026  0.00  0.00     0.027 C 
ATOM     28  N28 M7D d   1     -39.484 -44.221  22.615  0.00  0.00    -0.351 N 
ATOM     29  H13 M7D d   1     -41.285 -45.250  22.826  0.00  0.00     0.069 H 
ATOM     30  H14 M7D d   1     -41.183 -44.150  21.409  0.00  0.00     0.069 H 
ATOM     31  C24 M7D d   1     -38.358 -44.937  22.919  0.00  0.00     0.078 A 
ATOM     32  C27 M7D d   1     -39.337 -42.911  22.937  0.00  0.00    -0.020 A 
ATOM     33  C22 M7D d   1     -38.267 -46.362  22.673  0.00  0.00     0.123 C 
ATOM     34  C25 M7D d   1     -37.453 -44.044  23.457  0.00  0.00    -0.052 A 
ATOM     35  N21 M7D d   1     -39.136 -46.861  21.839  0.00  0.00    -0.360 N 
ATOM     36  H16 M7D d   1     -39.101 -47.874  21.654  0.00  0.00     0.162 HD
ATOM     37  C26 M7D d   1     -38.072 -42.768  23.467  0.00  0.00    -0.066 A 
ATOM     38  H11 M7D d   1     -36.449 -44.276  23.809  0.00  0.00     0.087 H 
ATOM     39  H12 M7D d   1     -37.628 -41.842  23.828  0.00  0.00     0.085 H 
ATOM     40  H6  M7D d   1     -40.077 -42.123  22.802  0.00  0.00     0.111 H 
BRANCH  26  41
ATOM     41  C20 M7D d   1     -41.364 -46.951  20.913  0.00  0.00    -0.047 C 
ATOM     42  H8  M7D d   1     -41.767 -47.278  21.883  0.00  0.00     0.031 H 
ATOM     43  H9  M7D d   1     -41.057 -47.831  20.328  0.00  0.00     0.031 H 
ATOM     44  H10 M7D d   1     -42.139 -46.397  20.363  0.00  0.00     0.031 H 
ENDBRANCH  26  41
BRANCH  33  45
ATOM     45  N23 M7D d   1     -37.319 -47.125  23.294  0.00  0.00    -0.384 N 
ATOM     46  H17 M7D d   1     -36.652 -46.688  23.946  0.00  0.00     0.157 HD
ATOM     47  H18 M7D d   1     -37.271 -48.137  23.110  0.00  0.00     0.157 HD
ENDBRANCH  33  45
ENDBRANCH  22  26
ENDBRANCH  13  16
ENDBRANCH   5  12
TORSDOF 5
