REMARK  11 active torsions:
REMARK  status: ('A' for Active; 'I' for Inactive)
REMARK    1  A    between atoms: C25_2  and  C26_3 
REMARK    2  A    between atoms: C20_7  and  C22_6 
REMARK       I    between atoms: N19_24  and  C20_7 
REMARK    3  A    between atoms: C31_19  and  C32_10 
REMARK    4  A    between atoms: C16_13  and  C18_14 
REMARK       I    between atoms: N15_41  and  C16_13 
REMARK    5  A    between atoms: C18_14  and  C28_15 
REMARK    6  A    between atoms: C18_14  and  N19_24 
REMARK    7  A    between atoms: C28_15  and  C29_16 
REMARK       I    between atoms: C29_16  and  N30_23 
REMARK    8  A    between atoms: C02_30  and  C01_29 
REMARK    9  A    between atoms: C03_31  and  C02_30 
REMARK   10  A    between atoms: C02_30  and  N15_41 
REMARK   11  A    between atoms: C06_33  and  C05_32 
ROOT
ATOM      1  C18 M9G d   1      74.507 -28.473 198.639  0.00  0.00     0.097 C 
ATOM      2  H9  M9G d   1      74.773 -29.156 199.459  0.00  0.00     0.088 H 
ENDROOT
BRANCH   1   3
ATOM      3  C16 M9G d   1      74.530 -29.234 197.291  0.00  0.00     0.241 C 
ATOM      4  O17 M9G d   1      74.763 -28.651 196.254  0.00  0.00    -0.271 OA
ATOM      5  N15 M9G d   1      74.239 -30.721 197.285  0.00  0.00    -0.348 N 
ATOM      6  H29 M9G d   1      74.052 -31.203 198.141  0.00  0.00     0.163 HD
BRANCH   5   7
ATOM      7  C02 M9G d   1      74.234 -31.433 196.031  0.00  0.00     0.066 C 
ATOM      8  H24 M9G d   1      75.089 -31.113 195.418  0.00  0.00     0.084 H 
BRANCH   7   9
ATOM      9  C01 M9G d   1      74.311 -32.911 196.255  0.00  0.00    -0.051 C 
ATOM     10  H21 M9G d   1      75.255 -33.156 196.764  0.00  0.00     0.030 H 
ATOM     11  H22 M9G d   1      74.271 -33.431 195.287  0.00  0.00     0.030 H 
ATOM     12  H23 M9G d   1      73.464 -33.232 196.879  0.00  0.00     0.030 H 
ENDBRANCH   7   9
BRANCH   7  13
ATOM     13  C03 M9G d   1      72.858 -31.072 195.288  0.00  0.00     0.127 A 
ATOM     14  N04 M9G d   1      72.659 -31.079 193.969  0.00  0.00    -0.231 NA
ATOM     15  C05 M9G d   1      71.406 -30.711 193.719  0.00  0.00     0.087 A 
ATOM     16  C13 M9G d   1      70.796 -30.472 194.977  0.00  0.00     0.007 A 
ATOM     17  N14 M9G d   1      71.717 -30.699 195.901  0.00  0.00    -0.350 N 
ATOM     18  H20 M9G d   1      69.767 -30.161 195.150  0.00  0.00     0.115 H 
ATOM     19  H28 M9G d   1      71.584 -30.606 196.918  0.00  0.00     0.166 HD
BRANCH  15  20
ATOM     20  C06 M9G d   1      70.836 -30.620 192.432  0.00  0.00     0.033 A 
ATOM     21  C07 M9G d   1      69.864 -29.671 192.113  0.00  0.00     0.129 A 
ATOM     22  C09 M9G d   1      69.343 -29.636 190.823  0.00  0.00    -0.045 A 
ATOM     23  F08 M9G d   1      69.421 -28.784 193.061  0.00  0.00    -0.205 F 
ATOM     24  C10 M9G d   1      69.793 -30.542 189.855  0.00  0.00    -0.080 A 
ATOM     25  H25 M9G d   1      68.586 -28.904 190.566  0.00  0.00     0.088 H 
ATOM     26  C11 M9G d   1      70.765 -31.486 190.174  0.00  0.00    -0.082 A 
ATOM     27  H19 M9G d   1      69.382 -30.508 188.852  0.00  0.00     0.083 H 
ATOM     28  C12 M9G d   1      71.282 -31.517 191.463  0.00  0.00    -0.068 A 
ATOM     29  H26 M9G d   1      71.114 -32.188 189.426  0.00  0.00     0.083 H 
ATOM     30  H27 M9G d   1      72.041 -32.247 191.718  0.00  0.00     0.085 H 
ENDBRANCH  15  20
ENDBRANCH   7  13
ENDBRANCH   5   7
ENDBRANCH   1   3
BRANCH   1  31
ATOM     31  C28 M9G d   1      73.049 -27.954 198.832  0.00  0.00     0.037 C 
ATOM     32  H10 M9G d   1      72.381 -28.820 198.719  0.00  0.00     0.051 H 
ATOM     33  H11 M9G d   1      72.854 -27.233 198.024  0.00  0.00     0.051 H 
BRANCH  31  34
ATOM     34  C29 M9G d   1      72.666 -27.252 200.175  0.00  0.00     0.226 C 
ATOM     35  N30 M9G d   1      71.751 -26.039 200.157  0.00  0.00    -0.319 N 
ATOM     36  C40 M9G d   1      71.279 -25.233 201.364  0.00  0.00    -0.020 C 
ATOM     37  C31 M9G d   1      71.091 -25.362 198.872  0.00  0.00     0.047 C 
ATOM     38  C39 M9G d   1      70.311 -24.404 200.923  0.00  0.00    -0.086 C 
ATOM     39  H12 M9G d   1      71.652 -25.312 202.384  0.00  0.00     0.111 H 
ATOM     40  C38 M9G d   1      70.445 -24.312 199.291  0.00  0.00    -0.025 C 
ATOM     41  H13 M9G d   1      69.575 -23.889 201.538  0.00  0.00     0.079 H 
ATOM     42  H5  M9G d   1      70.997 -23.401 199.014  0.00  0.00     0.042 H 
ATOM     43  H6  M9G d   1      69.444 -24.286 198.837  0.00  0.00     0.042 H 
ATOM     44  H14 M9G d   1      71.868 -25.076 198.147  0.00  0.00     0.081 H 
ATOM     45  O41 M9G d   1      73.084 -27.659 201.176  0.00  0.00    -0.273 OA
BRANCH  37  46
ATOM     46  C32 M9G d   1      70.062 -26.362 198.198  0.00  0.00    -0.035 A 
ATOM     47  C33 M9G d   1      69.380 -27.301 198.982  0.00  0.00    -0.075 A 
ATOM     48  C34 M9G d   1      68.476 -28.183 198.395  0.00  0.00    -0.082 A 
ATOM     49  H8  M9G d   1      69.557 -27.341 200.051  0.00  0.00     0.084 H 
ATOM     50  C35 M9G d   1      68.245 -28.134 197.021  0.00  0.00    -0.083 A 
ATOM     51  H17 M9G d   1      67.952 -28.908 199.007  0.00  0.00     0.083 H 
ATOM     52  C36 M9G d   1      68.928 -27.189 196.230  0.00  0.00    -0.082 A 
ATOM     53  H16 M9G d   1      67.542 -28.821 196.563  0.00  0.00     0.083 H 
ATOM     54  C37 M9G d   1      69.829 -26.311 196.815  0.00  0.00    -0.075 A 
ATOM     55  H7  M9G d   1      68.749 -27.148 195.162  0.00  0.00     0.083 H 
ATOM     56  H15 M9G d   1      70.353 -25.585 196.204  0.00  0.00     0.084 H 
ENDBRANCH  37  46
ENDBRANCH  31  34
ENDBRANCH   1  31
BRANCH   1  57
ATOM     57  N19 M9G d   1      75.425 -27.391 198.619  0.00  0.00    -0.342 N 
ATOM     58  C20 M9G d   1      76.892 -27.637 198.393  0.00  0.00     0.273 C 
ATOM     59  O21 M9G d   1      77.306 -28.761 198.220  0.00  0.00    -0.266 OA
ATOM     60  H18 M9G d   1      75.094 -26.457 198.756  0.00  0.00     0.163 HD
BRANCH  58  61
ATOM     61  C22 M9G d   1      77.828 -26.455 198.381  0.00  0.00     0.154 A 
ATOM     62  C27 M9G d   1      79.168 -26.481 198.047  0.00  0.00    -0.017 A 
ATOM     63  C25 M9G d   1      79.632 -25.185 198.159  0.00  0.00     0.077 A 
ATOM     64  H1  M9G d   1      79.747 -27.355 197.752  0.00  0.00     0.091 H 
ATOM     65  O24 M9G d   1      78.600 -24.424 198.541  0.00  0.00    -0.218 OA
ATOM     66  N23 M9G d   1      77.501 -25.219 198.670  0.00  0.00    -0.123 NA
BRANCH  63  67
ATOM     67  C26 M9G d   1      81.050 -24.727 197.893  0.00  0.00    -0.029 C 
ATOM     68  H2  M9G d   1      81.123 -23.643 198.064  0.00  0.00     0.036 H 
ATOM     69  H3  M9G d   1      81.319 -24.953 196.851  0.00  0.00     0.036 H 
ATOM     70  H4  M9G d   1      81.738 -25.252 198.572  0.00  0.00     0.036 H 
ENDBRANCH  63  67
ENDBRANCH  58  61
ENDBRANCH   1  57
TORSDOF 11
