REMARK  6 active torsions:
REMARK  status: ('A' for Active; 'I' for Inactive)
REMARK    1  A    between atoms: C13_18  and  N1_2 
REMARK    2  A    between atoms: O1_3  and  C11_16 
REMARK    3  A    between atoms: C12_17  and  O1_3 
REMARK    4  A    between atoms: O_30  and  C5_10 
REMARK    5  A    between atoms: C6_11  and  O_30 
REMARK    6  A    between atoms: C12_17  and  C13_18 
ROOT
ATOM      1  C1  M9A d   1     440.490  -8.866 229.762  0.00  0.00     0.045 A 
ATOM      2  C2  M9A d   1     440.578  -9.901 228.832  0.00  0.00    -0.062 A 
ATOM      3  C3  M9A d   1     440.088  -9.751 227.571  0.00  0.00    -0.068 A 
ATOM      4  C4  M9A d   1     439.440  -8.558 227.171  0.00  0.00     0.008 A 
ATOM      5  C5  M9A d   1     438.885  -8.367 225.875  0.00  0.00     0.090 A 
ATOM      6  C18 M9A d   1     438.162  -7.241 225.570  0.00  0.00    -0.012 A 
ATOM      7  C19 M9A d   1     438.002  -6.284 226.547  0.00  0.00     0.119 A 
ATOM      8  C20 M9A d   1     438.549  -6.357 227.785  0.00  0.00    -0.035 A 
ATOM      9  C21 M9A d   1     439.285  -7.519 228.132  0.00  0.00    -0.019 A 
ATOM     10  C22 M9A d   1     439.832  -7.696 229.426  0.00  0.00    -0.052 A 
ATOM     11  N   M9A d   1     441.759  -9.087 232.002  0.00  0.00    -0.191 NA
ATOM     12  C   M9A d   1     441.187  -8.976 231.019  0.00  0.00     0.099 C 
ATOM     13  F   M9A d   1     437.174  -5.240 226.266  0.00  0.00    -0.206 F 
ATOM     14  H1  M9A d   1     441.043 -10.838 229.117  0.00  0.00     0.085 H 
ATOM     15  H3  M9A d   1     440.196 -10.561 226.859  0.00  0.00     0.085 H 
ATOM     16  H14 M9A d   1     437.728  -7.109 224.585  0.00  0.00     0.092 H 
ATOM     17  H15 M9A d   1     438.427  -5.546 228.494  0.00  0.00     0.089 H 
ATOM     18  H16 M9A d   1     439.734  -6.906 230.162  0.00  0.00     0.087 H 
ENDROOT
BRANCH   5  19
ATOM     19  O   M9A d   1     439.145  -9.367 224.950  0.00  0.00    -0.307 OA
BRANCH  19  20
ATOM     20  C6  M9A d   1     438.985  -9.131 223.592  0.00  0.00     0.109 A 
ATOM     21  C7  M9A d   1     439.965  -8.551 222.802  0.00  0.00    -0.048 A 
ATOM     22  C8  M9A d   1     439.746  -8.407 221.442  0.00  0.00    -0.080 A 
ATOM     23  H4  M9A d   1     440.895  -8.213 223.245  0.00  0.00     0.087 H 
ATOM     24  C9  M9A d   1     438.559  -8.827 220.874  0.00  0.00    -0.080 A 
ATOM     25  H5  M9A d   1     440.512  -7.961 220.818  0.00  0.00     0.083 H 
ATOM     26  C10 M9A d   1     437.571  -9.403 221.656  0.00  0.00    -0.048 A 
ATOM     27  H6  M9A d   1     438.399  -8.705 219.809  0.00  0.00     0.083 H 
ATOM     28  C11 M9A d   1     437.786  -9.565 223.013  0.00  0.00     0.102 A 
ATOM     29  H7  M9A d   1     436.637  -9.724 221.208  0.00  0.00     0.087 H 
BRANCH  28  30
ATOM     30  O1  M9A d   1     436.957 -10.233 223.861  0.00  0.00    -0.347 OA
BRANCH  30  31
ATOM     31  C12 M9A d   1     435.764 -10.812 223.325  0.00  0.00     0.041 C 
ATOM     32  H8  M9A d   1     436.008 -11.525 222.524  0.00  0.00     0.077 H 
ATOM     33  H9  M9A d   1     435.099 -10.030 222.930  0.00  0.00     0.077 H 
BRANCH  31  34
ATOM     34  C13 M9A d   1     435.115 -11.521 224.482  0.00  0.00     0.024 C 
ATOM     35  H10 M9A d   1     434.959 -10.800 225.298  0.00  0.00     0.068 H 
ATOM     36  H11 M9A d   1     434.144 -11.920 224.154  0.00  0.00     0.068 H 
BRANCH  34  37
ATOM     37  N1  M9A d   1     435.942 -12.634 224.983  0.00  0.00    -0.308 N 
ATOM     38  C14 M9A d   1     436.620 -12.503 226.166  0.00  0.00    -0.011 A 
ATOM     39  C15 M9A d   1     437.390 -13.483 226.667  0.00  0.00    -0.002 A 
ATOM     40  H12 M9A d   1     436.531 -11.570 226.721  0.00  0.00     0.112 H 
ATOM     41  C16 M9A d   1     437.517 -14.718 225.955  0.00  0.00     0.250 A 
ATOM     42  H13 M9A d   1     437.915 -13.338 227.610  0.00  0.00     0.094 H 
ATOM     43  N2  M9A d   1     436.814 -14.773 224.764  0.00  0.00    -0.275 N 
ATOM     44  O2  M9A d   1     438.160 -15.709 226.335  0.00  0.00    -0.268 OA
ATOM     45  C17 M9A d   1     436.016 -13.787 224.229  0.00  0.00     0.329 A 
ATOM     46  H2  M9A d   1     436.894 -15.619 224.236  0.00  0.00     0.173 HD
ATOM     47  O3  M9A d   1     435.413 -13.936 223.175  0.00  0.00    -0.246 OA
ENDBRANCH  34  37
ENDBRANCH  31  34
ENDBRANCH  30  31
ENDBRANCH  28  30
ENDBRANCH  19  20
ENDBRANCH   5  19
TORSDOF 6
