REMARK  7 active torsions:
REMARK  status: ('A' for Active; 'I' for Inactive)
REMARK    1  A    between atoms: P_2  and  O5'_5 
REMARK    2  A    between atoms: O5'_5  and  C5'_6 
REMARK    3  A    between atoms: C5'_6  and  C4'_7 
REMARK    4  A    between atoms: C3'_9  and  O3'_10 
REMARK    5  A    between atoms: C2'_11  and  O2'_12 
REMARK    6  A    between atoms: C1'_13  and  N1_14 
REMARK    7  A    between atoms: C4_17  and  N4_21 
ROOT
ATOM      1  C4' C5P d   1      16.343 -12.511  10.489  0.00  0.00     0.089 C 
ATOM      2  O4' C5P d   1      17.648 -12.038  10.187  0.00  0.00    -0.353 OA
ATOM      3  C3' C5P d   1      15.450 -11.286  10.585  0.00  0.00     0.091 C 
ATOM      4  C2' C5P d   1      16.213 -10.214   9.831  0.00  0.00     0.105 C 
ATOM      5  C1' C5P d   1      17.644 -10.611  10.102  0.00  0.00     0.141 C 
ATOM      6  H3  C5P d   1      16.334 -13.049  11.448  0.00  0.00     0.090 H 
ATOM      7  H4  C5P d   1      14.465 -11.464  10.129  0.00  0.00     0.091 H 
ATOM      8  H6  C5P d   1      15.983 -10.247   8.756  0.00  0.00     0.093 H 
ATOM      9  H8  C5P d   1      17.949 -10.174  11.064  0.00  0.00     0.123 H 
ENDROOT
BRANCH   5  10
ATOM     10  N1  C5P d   1      18.630 -10.217   9.092  0.00  0.00    -0.280 N 
ATOM     11  C2  C5P d   1      19.591  -9.225   9.400  0.00  0.00     0.330 A 
ATOM     12  N3  C5P d   1      20.518  -8.877   8.492  0.00  0.00    -0.295 N 
ATOM     13  O2  C5P d   1      19.600  -8.641  10.499  0.00  0.00    -0.246 OA
ATOM     14  C4  C5P d   1      20.554  -9.471   7.285  0.00  0.00     0.103 A 
ATOM     15  H9  C5P d   1      21.188  -8.169   8.715  0.00  0.00     0.172 HD
ATOM     16  C5  C5P d   1      19.628 -10.464   6.956  0.00  0.00    -0.026 A 
ATOM     17  C6  C5P d   1      18.665 -10.829   7.892  0.00  0.00    -0.010 A 
ATOM     18  H10 C5P d   1      19.659 -10.946   5.980  0.00  0.00     0.091 H 
ATOM     19  H11 C5P d   1      17.941 -11.607   7.655  0.00  0.00     0.112 H 
BRANCH  14  20
ATOM     20  N4  C5P d   1      21.498  -9.090   6.403  0.00  0.00    -0.385 N 
ATOM     21  H12 C5P d   1      21.543  -9.532   5.474  0.00  0.00     0.157 HD
ATOM     22  H13 C5P d   1      22.175  -8.357   6.658  0.00  0.00     0.157 HD
ENDBRANCH  14  20
ENDBRANCH   5  10
BRANCH   4  23
ATOM     23  O2' C5P d   1      15.948  -8.905  10.329  0.00  0.00    -0.388 OA
ATOM     24  H7  C5P d   1      16.202  -8.858  11.243  0.00  0.00     0.210 HD
ENDBRANCH   4  23
BRANCH   1  25
ATOM     25  C5' C5P d   1      15.946 -13.455   9.380  0.00  0.00     0.059 C 
ATOM     26  H1  C5P d   1      15.367 -12.914   8.617  0.00  0.00     0.079 H 
ATOM     27  H2  C5P d   1      16.845 -13.889   8.918  0.00  0.00     0.079 H 
BRANCH  25  28
ATOM     28  O5' C5P d   1      15.155 -14.479   9.946  0.00  0.00    -0.280 OA
BRANCH  28  29
ATOM     29  P   C5P d   1      14.606 -15.645   8.999  0.00  0.00     0.422 P 
ATOM     30  O3P C5P d   1      15.872 -16.412   8.677  0.00  0.00    -0.617 OA
ATOM     31  O1P C5P d   1      13.931 -14.902   7.859  0.00  0.00    -0.617 OA
ATOM     32  O2P C5P d   1      13.641 -16.385   9.885  0.00  0.00    -0.617 OA
ENDBRANCH  28  29
ENDBRANCH  25  28
ENDBRANCH   1  25
BRANCH   3  33
ATOM     33  O3' C5P d   1      15.301 -10.949  11.968  0.00  0.00    -0.390 OA
ATOM     34  H5  C5P d   1      14.744 -10.183  12.048  0.00  0.00     0.210 HD
ENDBRANCH   3  33
TORSDOF 7
