REMARK  8 active torsions:
REMARK  status: ('A' for Active; 'I' for Inactive)
REMARK    1  A    between atoms: C8_5  and  C9_21 
REMARK    2  A    between atoms: C16_16  and  C10_6 
REMARK    3  A    between atoms: C11_13  and  C17_9 
REMARK    4  A    between atoms: C21_11  and  C20_10 
REMARK    5  A    between atoms: C21_11  and  C18_17 
REMARK    6  A    between atoms: C21_11  and  C19_18 
REMARK    7  A    between atoms: N25_25  and  C21_11 
REMARK    8  A    between atoms: N26_26  and  C14_15 
REMARK       I    between atoms: C16_16  and  N26_26 
ROOT
ATOM      1  C5  MKP d   1       2.939  -1.579 -18.943  0.00  0.00    -0.041 A 
ATOM      2  C6  MKP d   1       2.716   0.497 -20.073  0.00  0.00     0.015 A 
ATOM      3  C13 MKP d   1       2.219  -1.372 -21.202  0.00  0.00     0.161 A 
ATOM      4  C15 MKP d   1       1.892  -3.570 -21.751  0.00  0.00     0.329 A 
ATOM      5  C12 MKP d   1       2.526  -2.154 -20.118  0.00  0.00     0.083 A 
ATOM      6  C9  MKP d   1       3.036  -0.209 -18.937  0.00  0.00    -0.005 A 
ATOM      7  N22 MKP d   1       2.302  -0.041 -21.223  0.00  0.00    -0.240 NA
ATOM      8  N24 MKP d   1       2.322  -3.496 -20.451  0.00  0.00    -0.305 N 
ATOM      9  N25 MKP d   1       1.838  -2.275 -22.190  0.00  0.00    -0.273 N 
ATOM     10  O27 MKP d   1       1.617  -4.579 -22.383  0.00  0.00    -0.246 OA
ATOM     11  H2  MKP d   1       3.176  -2.173 -18.068  0.00  0.00     0.088 H 
ATOM     12  H3  MKP d   1       2.807   1.576 -20.032  0.00  0.00     0.116 H 
ATOM     13  H20 MKP d   1       2.466  -4.275 -19.841  0.00  0.00     0.171 HD
ENDROOT
BRANCH   6  14
ATOM     14  C8  MKP d   1       3.423   0.452 -17.724  0.00  0.00    -0.018 A 
ATOM     15  C4  MKP d   1       2.400   0.940 -16.951  0.00  0.00    -0.056 A 
ATOM     16  C10 MKP d   1       2.695   1.569 -15.770  0.00  0.00     0.033 A 
ATOM     17  H1  MKP d   1       1.370   0.829 -17.271  0.00  0.00     0.086 H 
ATOM     18  C1  MKP d   1       3.987   1.723 -15.332  0.00  0.00    -0.067 A 
ATOM     19  C2  MKP d   1       5.004   1.228 -16.117  0.00  0.00    -0.075 A 
ATOM     20  H11 MKP d   1       4.201   2.221 -14.393  0.00  0.00     0.085 H 
ATOM     21  C11 MKP d   1       4.728   0.592 -17.307  0.00  0.00    -0.051 A 
ATOM     22  H18 MKP d   1       6.033   1.340 -15.795  0.00  0.00     0.084 H 
BRANCH  16  23
ATOM     23  C16 MKP d   1       1.572   2.068 -14.987  0.00  0.00     0.257 C 
ATOM     24  N26 MKP d   1       1.881   3.094 -14.139  0.00  0.00    -0.306 N 
ATOM     25  H21 MKP d   1       2.726   3.623 -14.225  0.00  0.00     0.170 HD
ATOM     26  O28 MKP d   1       0.471   1.561 -15.137  0.00  0.00    -0.267 OA
BRANCH  24  27
ATOM     27  C14 MKP d   1       0.949   3.350 -13.158  0.00  0.00     0.159 A 
ATOM     28  C3  MKP d   1       0.026   2.392 -12.668  0.00  0.00    -0.013 A 
ATOM     29  C7  MKP d   1      -0.694   3.082 -11.719  0.00  0.00     0.047 A 
ATOM     30  H19 MKP d   1      -0.087   1.352 -12.972  0.00  0.00     0.092 H 
ATOM     31  O29 MKP d   1      -0.237   4.360 -11.648  0.00  0.00    -0.224 OA
ATOM     32  H4  MKP d   1      -1.503   2.668 -11.119  0.00  0.00     0.127 H 
ATOM     33  N23 MKP d   1       0.799   4.533 -12.557  0.00  0.00    -0.111 NA
ENDBRANCH  24  27
ENDBRANCH  16  23
BRANCH  21  34
ATOM     34  C17 MKP d   1       5.840   0.061 -18.137  0.00  0.00    -0.050 C 
ATOM     35  H5  MKP d   1       6.799   0.268 -17.640  0.00  0.00     0.033 H 
ATOM     36  H6  MKP d   1       5.825   0.547 -19.124  0.00  0.00     0.033 H 
ATOM     37  H7  MKP d   1       5.718  -1.025 -18.261  0.00  0.00     0.033 H 
ENDBRANCH  21  34
ENDBRANCH   6  14
BRANCH   9  38
ATOM     38  C21 MKP d   1       1.430  -1.867 -23.506  0.00  0.00     0.033 C 
BRANCH  38  39
ATOM     39  C20 MKP d   1       0.208  -0.988 -23.403  0.00  0.00    -0.053 C 
ATOM     40  H8  MKP d   1      -0.105  -0.675 -24.410  0.00  0.00     0.030 H 
ATOM     41  H9  MKP d   1       0.446  -0.099 -22.800  0.00  0.00     0.030 H 
ATOM     42  H10 MKP d   1      -0.608  -1.549 -22.923  0.00  0.00     0.030 H 
ENDBRANCH  38  39
BRANCH  38  43
ATOM     43  C18 MKP d   1       2.542  -1.107 -24.186  0.00  0.00    -0.053 C 
ATOM     44  H12 MKP d   1       3.432  -1.749 -24.261  0.00  0.00     0.030 H 
ATOM     45  H13 MKP d   1       2.785  -0.209 -23.599  0.00  0.00     0.030 H 
ATOM     46  H14 MKP d   1       2.219  -0.809 -25.195  0.00  0.00     0.030 H 
ENDBRANCH  38  43
BRANCH  38  47
ATOM     47  C19 MKP d   1       1.088  -3.089 -24.322  0.00  0.00    -0.053 C 
ATOM     48  H15 MKP d   1       0.277  -3.645 -23.828  0.00  0.00     0.030 H 
ATOM     49  H16 MKP d   1       1.975  -3.733 -24.407  0.00  0.00     0.030 H 
ATOM     50  H17 MKP d   1       0.762  -2.780 -25.326  0.00  0.00     0.030 H 
ENDBRANCH  38  47
ENDBRANCH   9  38
TORSDOF 8
