REMARK  10 active torsions:
REMARK  status: ('A' for Active; 'I' for Inactive)
REMARK    1  A    between atoms: C21_15  and  N_1 
REMARK    2  A    between atoms: N_1  and  C22_16 
REMARK    3  A    between atoms: N_1  and  C24_18 
REMARK    4  A    between atoms: C12_5  and  C19_12 
REMARK    5  A    between atoms: C5_22  and  C18_11 
REMARK    6  A    between atoms: C2_13  and  O1_27 
REMARK    7  A    between atoms: C20_14  and  C21_15 
REMARK    8  A    between atoms: O1_27  and  C20_14 
REMARK    9  A    between atoms: C22_16  and  C23_17 
REMARK   10  A    between atoms: C24_18  and  C25_19 
ROOT
ATOM      1  C1  MKM d   1     -15.487  10.107  27.047  0.00  0.00    -0.040 C 
ATOM      2  C10 MKM d   1     -11.963  10.750  25.279  0.00  0.00    -0.043 C 
ATOM      3  C11 MKM d   1      -9.714  10.463  24.088  0.00  0.00    -0.036 C 
ATOM      4  C12 MKM d   1      -8.969  10.819  25.408  0.00  0.00     0.021 C 
ATOM      5  C13 MKM d   1      -9.730  11.684  26.258  0.00  0.00    -0.051 C 
ATOM      6  C14 MKM d   1     -11.210  11.045  26.559  0.00  0.00    -0.060 C 
ATOM      7  C15 MKM d   1      -8.603   9.639  23.202  0.00  0.00    -0.054 C 
ATOM      8  C16 MKM d   1      -7.299  10.494  23.302  0.00  0.00    -0.009 C 
ATOM      9  C17 MKM d   1      -7.397  11.212  24.901  0.00  0.00     0.135 C 
ATOM     10  C2  MKM d   1     -16.286  10.049  25.835  0.00  0.00     0.039 C 
ATOM     11  C3  MKM d   1     -15.592   9.209  24.741  0.00  0.00    -0.037 C 
ATOM     12  C4  MKM d   1     -14.207   9.831  24.356  0.00  0.00    -0.044 C 
ATOM     13  C5  MKM d   1     -13.371   9.958  25.620  0.00  0.00    -0.036 C 
ATOM     14  C6  MKM d   1     -14.099  10.663  26.782  0.00  0.00    -0.055 C 
ATOM     15  C7  MKM d   1     -13.420   9.463  22.916  0.00  0.00    -0.060 C 
ATOM     16  C8  MKM d   1     -11.917   9.779  22.813  0.00  0.00    -0.061 C 
ATOM     17  C9  MKM d   1     -11.134   9.921  24.288  0.00  0.00    -0.045 C 
ATOM     18  O2  MKM d   1      -6.558  11.822  25.483  0.00  0.00    -0.297 OA
ATOM     19  H2  MKM d   1     -15.391   9.092  27.459  0.00  0.00     0.036 H 
ATOM     20  H3  MKM d   1     -15.995  10.753  27.778  0.00  0.00     0.036 H 
ATOM     21  H4  MKM d   1     -12.208  11.710  24.800  0.00  0.00     0.041 H 
ATOM     22  H5  MKM d   1      -9.874  11.408  23.549  0.00  0.00     0.042 H 
ATOM     23  H6  MKM d   1      -9.851  12.660  25.765  0.00  0.00     0.034 H 
ATOM     24  H7  MKM d   1      -9.194  11.818  27.209  0.00  0.00     0.034 H 
ATOM     25  H8  MKM d   1     -11.086  10.109  27.124  0.00  0.00     0.033 H 
ATOM     26  H9  MKM d   1     -11.792  11.761  27.158  0.00  0.00     0.033 H 
ATOM     27  H10 MKM d   1      -8.930   9.552  22.155  0.00  0.00     0.034 H 
ATOM     28  H11 MKM d   1      -8.441   8.635  23.621  0.00  0.00     0.034 H 
ATOM     29  H12 MKM d   1      -7.278  11.271  22.523  0.00  0.00     0.044 H 
ATOM     30  H13 MKM d   1      -6.405   9.859  23.211  0.00  0.00     0.044 H 
ATOM     31  H20 MKM d   1     -16.434  11.072  25.459  0.00  0.00     0.083 H 
ATOM     32  H35 MKM d   1     -16.234   9.178  23.848  0.00  0.00     0.037 H 
ATOM     33  H36 MKM d   1     -15.436   8.187  25.116  0.00  0.00     0.037 H 
ATOM     34  H37 MKM d   1     -14.485  10.876  24.152  0.00  0.00     0.041 H 
ATOM     35  H38 MKM d   1     -13.496  10.546  27.694  0.00  0.00     0.034 H 
ATOM     36  H39 MKM d   1     -14.192  11.732  26.539  0.00  0.00     0.034 H 
ATOM     37  H40 MKM d   1     -13.927  10.020  22.114  0.00  0.00     0.033 H 
ATOM     38  H41 MKM d   1     -13.540   8.383  22.744  0.00  0.00     0.033 H 
ATOM     39  H42 MKM d   1     -11.802  10.729  22.270  0.00  0.00     0.033 H 
ATOM     40  H43 MKM d   1     -11.434   8.971  22.244  0.00  0.00     0.033 H 
ATOM     41  H44 MKM d   1     -11.040   8.911  24.713  0.00  0.00     0.041 H 
ENDROOT
BRANCH  10  42
ATOM     42  O1  MKM d   1     -17.582   9.455  26.137  0.00  0.00    -0.384 OA
BRANCH  42  43
ATOM     43  C20 MKM d   1     -18.274   8.985  24.971  0.00  0.00     0.043 C 
ATOM     44  H21 MKM d   1     -17.613   9.064  24.096  0.00  0.00     0.076 H 
ATOM     45  H22 MKM d   1     -18.565   7.934  25.116  0.00  0.00     0.076 H 
BRANCH  43  46
ATOM     46  C21 MKM d   1     -19.550   9.851  24.739  0.00  0.00     0.103 C 
ATOM     47  H23 MKM d   1     -19.792  10.407  25.657  0.00  0.00     0.079 H 
ATOM     48  H24 MKM d   1     -19.372  10.560  23.917  0.00  0.00     0.079 H 
BRANCH  46  49
ATOM     49  N   MKM d   1     -20.681   8.947  24.386  0.00  0.00    -0.070 N 
ATOM     50  H1  MKM d   1     -20.370   8.265  23.712  0.00  0.00     0.279 HD
BRANCH  49  51
ATOM     51  C22 MKM d   1     -21.782   9.742  23.795  0.00  0.00     0.080 C 
ATOM     52  H25 MKM d   1     -21.412  10.249  22.892  0.00  0.00     0.075 H 
ATOM     53  H26 MKM d   1     -22.114  10.493  24.527  0.00  0.00     0.075 H 
BRANCH  51  54
ATOM     54  C23 MKM d   1     -22.984   8.847  23.413  0.00  0.00    -0.053 C 
ATOM     55  H27 MKM d   1     -23.781   9.469  22.978  0.00  0.00     0.029 H 
ATOM     56  H28 MKM d   1     -23.364   8.340  24.312  0.00  0.00     0.029 H 
ATOM     57  H29 MKM d   1     -22.662   8.096  22.677  0.00  0.00     0.029 H 
ENDBRANCH  51  54
ENDBRANCH  49  51
BRANCH  49  58
ATOM     58  C24 MKM d   1     -21.126   8.249  25.616  0.00  0.00     0.080 C 
ATOM     59  H30 MKM d   1     -22.189   8.470  25.793  0.00  0.00     0.075 H 
ATOM     60  H31 MKM d   1     -20.531   8.606  26.469  0.00  0.00     0.075 H 
BRANCH  58  61
ATOM     61  C25 MKM d   1     -20.943   6.723  25.473  0.00  0.00    -0.053 C 
ATOM     62  H32 MKM d   1     -21.279   6.226  26.395  0.00  0.00     0.029 H 
ATOM     63  H33 MKM d   1     -19.881   6.496  25.300  0.00  0.00     0.029 H 
ATOM     64  H34 MKM d   1     -21.539   6.360  24.623  0.00  0.00     0.029 H 
ENDBRANCH  58  61
ENDBRANCH  49  58
ENDBRANCH  46  49
ENDBRANCH  43  46
ENDBRANCH  42  43
ENDBRANCH  10  42
BRANCH  13  65
ATOM     65  C18 MKM d   1     -12.990   8.527  26.094  0.00  0.00    -0.068 C 
ATOM     66  H14 MKM d   1     -13.905   7.964  26.332  0.00  0.00     0.028 H 
ATOM     67  H15 MKM d   1     -12.357   8.594  26.991  0.00  0.00     0.028 H 
ATOM     68  H16 MKM d   1     -12.439   8.010  25.294  0.00  0.00     0.028 H 
ENDBRANCH  13  65
BRANCH   4  69
ATOM     69  C19 MKM d   1      -8.798   9.499  26.209  0.00  0.00    -0.062 C 
ATOM     70  H17 MKM d   1      -8.217   8.780  25.612  0.00  0.00     0.029 H 
ATOM     71  H18 MKM d   1      -9.788   9.075  26.432  0.00  0.00     0.029 H 
ATOM     72  H19 MKM d   1      -8.268   9.707  27.150  0.00  0.00     0.029 H 
ENDBRANCH   4  69
TORSDOF 10
