REMARK  11 active torsions:
REMARK  status: ('A' for Active; 'I' for Inactive)
REMARK    1  A    between atoms: CB_2  and  CA_1 
REMARK    2  A    between atoms: C20_25  and  CB_2 
REMARK    3  A    between atoms: OL_3  and  CA1_4 
REMARK    4  A    between atoms: C1_6  and  OL_3 
REMARK    5  A    between atoms: CA1_4  and  CB1_5 
REMARK    6  A    between atoms: CB1_5  and  NI_26 
REMARK    7  A    between atoms: C7_12  and  C4_11 
REMARK    8  A    between atoms: C7_12  and  C8_13 
REMARK    9  A    between atoms: C18_23  and  C20_25 
REMARK   10  A    between atoms: NI_26  and  C21_27 
REMARK   11  A    between atoms: NI_26  and  C22_28 
ROOT
ATOM      1  C7  CTX d   1     -11.468   9.352  26.231  0.00  0.00    -0.009 C 
ATOM      2  C20 CTX d   1     -10.584   8.599  26.947  0.00  0.00    -0.036 C 
ENDROOT
BRANCH   1   3
ATOM      3  C4  CTX d   1     -12.945   9.323  26.264  0.00  0.00    -0.024 A 
ATOM      4  C3  CTX d   1     -13.611  10.453  26.740  0.00  0.00    -0.070 A 
ATOM      5  C2  CTX d   1     -14.985  10.507  26.752  0.00  0.00    -0.050 A 
ATOM      6  H11 CTX d   1     -13.039  11.298  27.105  0.00  0.00     0.085 H 
ATOM      7  C1  CTX d   1     -15.712   9.434  26.262  0.00  0.00     0.068 A 
ATOM      8  H10 CTX d   1     -15.495  11.381  27.141  0.00  0.00     0.087 H 
ATOM      9  C6  CTX d   1     -15.057   8.317  25.756  0.00  0.00    -0.050 A 
ATOM     10  C5  CTX d   1     -13.677   8.257  25.740  0.00  0.00    -0.070 A 
ATOM     11  H13 CTX d   1     -15.635   7.485  25.370  0.00  0.00     0.087 H 
ATOM     12  H12 CTX d   1     -13.170   7.393  25.326  0.00  0.00     0.085 H 
BRANCH   7  13
ATOM     13  OL  CTX d   1     -17.070   9.494  26.267  0.00  0.00    -0.350 OA
BRANCH  13  14
ATOM     14  CA1 CTX d   1     -17.396  10.343  25.159  0.00  0.00     0.049 C 
ATOM     15  H6  CTX d   1     -16.998   9.898  24.235  0.00  0.00     0.077 H 
ATOM     16  H7  CTX d   1     -16.939  11.331  25.317  0.00  0.00     0.077 H 
BRANCH  14  17
ATOM     17  CB1 CTX d   1     -18.912  10.509  25.021  0.00  0.00     0.102 C 
ATOM     18  H8  CTX d   1     -19.149  11.574  24.882  0.00  0.00     0.079 H 
ATOM     19  H9  CTX d   1     -19.402  10.141  25.934  0.00  0.00     0.079 H 
BRANCH  17  20
ATOM     20  NI  CTX d   1     -19.407   9.749  23.867  0.00  0.00    -0.077 N 
ATOM     21  H24 CTX d   1     -18.893   9.948  23.023  0.00  0.00     0.279 HD
BRANCH  20  22
ATOM     22  C21 CTX d   1     -20.833  10.080  23.754  0.00  0.00     0.066 C 
ATOM     23  H25 CTX d   1     -21.268   9.539  22.901  0.00  0.00     0.068 H 
ATOM     24  H26 CTX d   1     -20.947  11.163  23.598  0.00  0.00     0.068 H 
ATOM     25  H27 CTX d   1     -21.352   9.786  24.678  0.00  0.00     0.068 H 
ENDBRANCH  20  22
BRANCH  20  26
ATOM     26  C22 CTX d   1     -19.346   8.330  24.240  0.00  0.00     0.066 C 
ATOM     27  H28 CTX d   1     -18.295   8.022  24.340  0.00  0.00     0.068 H 
ATOM     28  H29 CTX d   1     -19.833   7.725  23.461  0.00  0.00     0.068 H 
ATOM     29  H30 CTX d   1     -19.865   8.180  25.198  0.00  0.00     0.068 H 
ENDBRANCH  20  26
ENDBRANCH  17  20
ENDBRANCH  14  17
ENDBRANCH  13  14
ENDBRANCH   7  13
ENDBRANCH   1   3
BRANCH   1  30
ATOM     30  C8  CTX d   1     -10.984  10.276  25.183  0.00  0.00    -0.025 A 
ATOM     31  C9  CTX d   1     -11.083   9.884  23.850  0.00  0.00    -0.072 A 
ATOM     32  C10 CTX d   1     -10.660  10.750  22.871  0.00  0.00    -0.082 A 
ATOM     33  H14 CTX d   1     -11.487   8.912  23.590  0.00  0.00     0.084 H 
ATOM     34  C11 CTX d   1     -10.156  11.997  23.203  0.00  0.00    -0.083 A 
ATOM     35  H15 CTX d   1     -10.721  10.455  21.830  0.00  0.00     0.083 H 
ATOM     36  C12 CTX d   1     -10.067  12.400  24.522  0.00  0.00    -0.082 A 
ATOM     37  H16 CTX d   1      -9.827  12.666  22.417  0.00  0.00     0.083 H 
ATOM     38  C13 CTX d   1     -10.492  11.547  25.516  0.00  0.00    -0.072 A 
ATOM     39  H17 CTX d   1      -9.667  13.376  24.771  0.00  0.00     0.083 H 
ATOM     40  H18 CTX d   1     -10.447  11.857  26.554  0.00  0.00     0.084 H 
ENDBRANCH   1  30
BRANCH   2  41
ATOM     41  CB  CTX d   1      -9.107   8.851  26.767  0.00  0.00    -0.043 C 
ATOM     42  H4  CTX d   1      -8.960   9.822  26.271  0.00  0.00     0.039 H 
ATOM     43  H5  CTX d   1      -8.616   8.864  27.751  0.00  0.00     0.039 H 
BRANCH  41  44
ATOM     44  CA  CTX d   1      -8.494   7.745  25.909  0.00  0.00    -0.073 C 
ATOM     45  H1  CTX d   1      -7.418   7.934  25.781  0.00  0.00     0.028 H 
ATOM     46  H2  CTX d   1      -8.983   7.731  24.924  0.00  0.00     0.028 H 
ATOM     47  H3  CTX d   1      -8.639   6.774  26.404  0.00  0.00     0.028 H 
ENDBRANCH  41  44
ENDBRANCH   2  41
BRANCH   2  48
ATOM     48  C18 CTX d   1     -10.925   7.556  27.923  0.00  0.00    -0.029 A 
ATOM     49  C17 CTX d   1     -10.949   7.889  29.278  0.00  0.00    -0.072 A 
ATOM     50  C16 CTX d   1     -11.232   6.927  30.220  0.00  0.00    -0.082 A 
ATOM     51  H22 CTX d   1     -10.744   8.907  29.589  0.00  0.00     0.084 H 
ATOM     52  C15 CTX d   1     -11.472   5.628  29.816  0.00  0.00    -0.083 A 
ATOM     53  H21 CTX d   1     -11.266   7.187  31.272  0.00  0.00     0.083 H 
ATOM     54  C14 CTX d   1     -11.434   5.280  28.475  0.00  0.00    -0.082 A 
ATOM     55  H20 CTX d   1     -11.693   4.870  30.558  0.00  0.00     0.083 H 
ATOM     56  C19 CTX d   1     -11.153   6.233  27.521  0.00  0.00    -0.072 A 
ATOM     57  H19 CTX d   1     -11.626   4.256  28.176  0.00  0.00     0.083 H 
ATOM     58  H23 CTX d   1     -11.109   5.963  26.472  0.00  0.00     0.084 H 
ENDBRANCH   2  48
TORSDOF 11
