REMARK  5 active torsions:
REMARK  status: ('A' for Active; 'I' for Inactive)
REMARK    1  A    between atoms: CAH_3  and  NAA_4 
REMARK    2  A    between atoms: NAB_7  and  CAM_8 
REMARK    3  A    between atoms: C2_12  and  NAG_13 
REMARK    4  A    between atoms: CAS_18  and  CAT_19 
REMARK    5  A    between atoms: CAY_25  and  CAZ_26 
ROOT
ATOM      1  CAM MQV d   1      33.358 103.474   1.067  0.00  0.00     0.139 A 
ATOM      2  NAC MQV d   1      32.657 102.878   2.061  0.00  0.00    -0.209 NA
ATOM      3  C4  MQV d   1      31.841 103.546   2.900  0.00  0.00     0.182 A 
ATOM      4  N3  MQV d   1      31.172 102.880   3.865  0.00  0.00    -0.043 NA
ATOM      5  C2  MQV d   1      30.348 103.516   4.724  0.00  0.00     0.722 A 
ATOM      6  N1  MQV d   1      30.165 104.854   4.634  0.00  0.00    -0.074 NA
ATOM      7  C6  MQV d   1      30.840 105.592   3.638  0.00  0.00     0.035 A 
ATOM      8  C5  MQV d   1      31.688 104.924   2.765  0.00  0.00     0.032 A 
ATOM      9  CAR MQV d   1      32.383 105.593   1.762  0.00  0.00    -0.053 A 
ATOM     10  CAS MQV d   1      33.219 104.869   0.905  0.00  0.00     0.024 A 
ATOM     11  H13 MQV d   1      30.698 106.664   3.556  0.00  0.00     0.117 H 
ATOM     12  H14 MQV d   1      32.278 106.666   1.646  0.00  0.00     0.086 H 
ENDROOT
BRANCH  10  13
ATOM     13  CAT MQV d   1      33.919 105.542  -0.091  0.00  0.00     0.011 A 
ATOM     14  CAU MQV d   1      35.271 105.828   0.135  0.00  0.00     0.046 A 
ATOM     15 CLE  MQV d   1      36.036 105.358   1.644  0.00  0.00    -0.083 Cl
ATOM     16  CAV MQV d   1      36.015 106.488  -0.843  0.00  0.00    -0.061 A 
ATOM     17  CAW MQV d   1      35.411 106.858  -2.038  0.00  0.00    -0.081 A 
ATOM     18  H15 MQV d   1      37.062 106.712  -0.671  0.00  0.00     0.086 H 
ATOM     19  CAX MQV d   1      34.065 106.573  -2.265  0.00  0.00    -0.071 A 
ATOM     20  H16 MQV d   1      35.989 107.371  -2.798  0.00  0.00     0.083 H 
ATOM     21  CAY MQV d   1      33.307 105.909  -1.302  0.00  0.00    -0.012 A 
ATOM     22  H17 MQV d   1      33.604 106.871  -3.200  0.00  0.00     0.084 H 
BRANCH  21  23
ATOM     23  CAZ MQV d   1      31.956 105.658  -1.567  0.00  0.00    -0.007 A 
ATOM     24  CBA MQV d   1      31.506 104.420  -2.015  0.00  0.00    -0.070 A 
ATOM     25  CBB MQV d   1      30.158 104.191  -2.279  0.00  0.00    -0.065 A 
ATOM     26  H18 MQV d   1      32.219 103.617  -2.162  0.00  0.00     0.085 H 
ATOM     27  CBC MQV d   1      29.232 105.206  -2.097  0.00  0.00     0.002 A 
ATOM     28  H19 MQV d   1      29.832 103.218  -2.627  0.00  0.00     0.085 H 
ATOM     29  NAF MQV d   1      29.667 106.454  -1.643  0.00  0.00    -0.272 NA
ATOM     30  H20 MQV d   1      28.182 105.034  -2.304  0.00  0.00     0.114 H 
ATOM     31  CBD MQV d   1      31.028 106.677  -1.383  0.00  0.00     0.013 A 
ATOM     32  H21 MQV d   1      31.358 107.650  -1.037  0.00  0.00     0.116 H 
ENDBRANCH  21  23
ENDBRANCH  10  13
BRANCH   1  33
ATOM     33  NAB MQV d   1      34.146 102.678   0.303  0.00  0.00    -0.364 N 
ATOM     34  CAJ MQV d   1      34.449 101.302   0.840  0.00  0.00     0.002 C 
ATOM     35  CAI MQV d   1      35.613 100.747   0.033  0.00  0.00    -0.004 A 
ATOM     36  H1  MQV d   1      34.724 101.365   1.903  0.00  0.00     0.065 H 
ATOM     37  H2  MQV d   1      33.569 100.652   0.727  0.00  0.00     0.065 H 
ATOM     38  CAH MQV d   1      36.890 101.578  -0.128  0.00  0.00     0.111 A 
ATOM     39  CAL MQV d   1      35.767 101.650  -1.172  0.00  0.00    -0.004 A 
ATOM     40  H3  MQV d   1      35.646  99.648   0.013  0.00  0.00     0.046 H 
ATOM     41  H4  MQV d   1      37.114 102.430   0.531  0.00  0.00     0.085 H 
ATOM     42  CAK MQV d   1      34.792 102.798  -1.089  0.00  0.00     0.002 C 
ATOM     43  H8  MQV d   1      35.914 101.287  -2.200  0.00  0.00     0.046 H 
ATOM     44  H9  MQV d   1      34.029 102.714  -1.877  0.00  0.00     0.065 H 
ATOM     45  H10 MQV d   1      35.318 103.759  -1.189  0.00  0.00     0.065 H 
BRANCH  38  46
ATOM     46  NAA MQV d   1      38.113 100.844  -0.481  0.00  0.00    -0.074 N 
ATOM     47  H5  MQV d   1      38.882 101.491  -0.559  0.00  0.00     0.274 HD
ATOM     48  H6  MQV d   1      37.980 100.373  -1.362  0.00  0.00     0.274 HD
ATOM     49  H7  MQV d   1      38.316 100.165   0.236  0.00  0.00     0.274 HD
ENDBRANCH  38  46
ENDBRANCH   1  33
BRANCH   5  50
ATOM     50  NAG MQV d   1      29.720 102.809   5.665  0.00  0.00    -0.231 N 
ATOM     51  H11 MQV d   1      29.865 101.791   5.727  0.00  0.00     0.174 HD
ATOM     52  H12 MQV d   1      29.090 103.281   6.330  0.00  0.00     0.174 HD
ENDBRANCH   5  50
TORSDOF 5
