REMARK  5 active torsions:
REMARK  status: ('A' for Active; 'I' for Inactive)
REMARK    1  A    between atoms: CAH_14  and  CAS_13 
REMARK    2  A    between atoms: C2_16  and  NAK_17 
REMARK    3  A    between atoms: CAI_19  and  NAL_20 
REMARK    4  A    between atoms: CAN_24  and  CAQ_25 
REMARK    5  A    between atoms: CAQ_25  and  NAR_26 
ROOT
ATOM      1  C4  MQM d   1      38.597 131.637  24.430  0.00  0.00     0.182 A 
ATOM      2  C5  MQM d   1      39.298 130.752  25.250  0.00  0.00     0.032 A 
ATOM      3  C6  MQM d   1      40.434 131.219  25.904  0.00  0.00     0.035 A 
ATOM      4  N1  MQM d   1      40.842 132.555  25.733  0.00  0.00    -0.074 NA
ATOM      5  N3  MQM d   1      39.019 132.919  24.291  0.00  0.00    -0.043 NA
ATOM      6  CAH MQM d   1      37.734 128.970  24.737  0.00  0.00     0.024 A 
ATOM      7  CAG MQM d   1      38.864 129.428  25.410  0.00  0.00    -0.053 A 
ATOM      8  C2  MQM d   1      40.123 133.379  24.937  0.00  0.00     0.722 A 
ATOM      9  NAJ MQM d   1      37.498 131.190  23.776  0.00  0.00    -0.209 NA
ATOM     10  CAI MQM d   1      37.039 129.916  23.907  0.00  0.00     0.139 A 
ATOM     11  H1  MQM d   1      41.004 130.555  26.544  0.00  0.00     0.117 H 
ATOM     12  H5  MQM d   1      39.412 128.757  26.062  0.00  0.00     0.086 H 
ENDROOT
BRANCH  10  13
ATOM     13  NAL MQM d   1      35.938 129.638  23.181  0.00  0.00    -0.365 N 
ATOM     14  CAM MQM d   1      35.152 130.640  22.389  0.00  0.00     0.001 C 
ATOM     15  CAN MQM d   1      33.866 129.885  21.977  0.00  0.00    -0.014 C 
ATOM     16  H8  MQM d   1      35.715 130.962  21.501  0.00  0.00     0.065 H 
ATOM     17  H9  MQM d   1      34.907 131.517  23.006  0.00  0.00     0.065 H 
ATOM     18  CAO MQM d   1      34.381 128.565  21.631  0.00  0.00    -0.044 C 
ATOM     19  H14 MQM d   1      33.358 130.378  21.135  0.00  0.00     0.045 H 
ATOM     20  CAP MQM d   1      35.352 128.298  22.808  0.00  0.00    -0.003 C 
ATOM     21  H12 MQM d   1      33.576 127.816  21.595  0.00  0.00     0.036 H 
ATOM     22  H13 MQM d   1      34.911 128.580  20.667  0.00  0.00     0.036 H 
ATOM     23  H10 MQM d   1      34.807 127.869  23.662  0.00  0.00     0.064 H 
ATOM     24  H11 MQM d   1      36.149 127.607  22.496  0.00  0.00     0.064 H 
BRANCH  15  25
ATOM     25  CAQ MQM d   1      32.882 129.690  23.179  0.00  0.00     0.085 C 
ATOM     26  H15 MQM d   1      33.044 130.507  23.898  0.00  0.00     0.075 H 
ATOM     27  H16 MQM d   1      33.107 128.727  23.661  0.00  0.00     0.075 H 
BRANCH  25  28
ATOM     28  NAR MQM d   1      31.465 129.692  22.782  0.00  0.00    -0.079 N 
ATOM     29  H17 MQM d   1      30.887 129.563  23.598  0.00  0.00     0.274 HD
ATOM     30  H18 MQM d   1      31.298 128.942  22.130  0.00  0.00     0.274 HD
ATOM     31  H19 MQM d   1      31.239 130.573  22.346  0.00  0.00     0.274 HD
ENDBRANCH  25  28
ENDBRANCH  15  25
ENDBRANCH  10  13
BRANCH   6  32
ATOM     32  CAS MQM d   1      37.274 127.641  24.913  0.00  0.00     0.021 A 
ATOM     33  CAT MQM d   1      36.135 127.419  25.715  0.00  0.00     0.046 A 
ATOM     34 CLY  MQM d   1      35.278 128.721  26.532  0.00  0.00    -0.083 Cl
ATOM     35  CAU MQM d   1      35.605 126.138  25.900  0.00  0.00    -0.061 A 
ATOM     36  CAV MQM d   1      36.195 125.036  25.313  0.00  0.00    -0.080 A 
ATOM     37  H2  MQM d   1      34.720 126.008  26.512  0.00  0.00     0.086 H 
ATOM     38  CAW MQM d   1      37.317 125.225  24.513  0.00  0.00    -0.061 A 
ATOM     39  H3  MQM d   1      35.791 124.043  25.473  0.00  0.00     0.083 H 
ATOM     40  CAX MQM d   1      37.867 126.502  24.324  0.00  0.00     0.046 A 
ATOM     41  H4  MQM d   1      37.775 124.371  24.027  0.00  0.00     0.086 H 
ATOM     42 CLZ  MQM d   1      39.278 126.600  23.327  0.00  0.00    -0.083 Cl
ENDBRANCH   6  32
BRANCH   8  43
ATOM     43  NAK MQM d   1      40.515 134.643  24.798  0.00  0.00    -0.231 N 
ATOM     44  H6  MQM d   1      41.353 134.980  25.293  0.00  0.00     0.174 HD
ATOM     45  H7  MQM d   1      39.980 135.285  24.196  0.00  0.00     0.174 HD
ENDBRANCH   8  43
TORSDOF 5
