REMARK WARNING: 32 MAX_TORS EXCEEDED!!!
REMARK  73 active torsions:
REMARK  status: ('A' for Active; 'I' for Inactive)
REMARK    1  A    between atoms: N_1  and  CA_2 
REMARK    2  A    between atoms: CA_2  and  C_3 
REMARK    3  A    between atoms: CA_2  and  CB_5 
REMARK       I    between atoms: C_3  and  N_6 
REMARK    4  A    between atoms: N_6  and  CA_7 
REMARK    5  A    between atoms: CA_7  and  C_8 
REMARK    6  A    between atoms: CA_7  and  CB_10 
REMARK       I    between atoms: C_8  and  N_17 
REMARK    7  A    between atoms: CB_10  and  CG_11 
REMARK    8  A    between atoms: CG_11  and  CD_12 
REMARK    9  A    between atoms: CD_12  and  NE_13 
REMARK       I    between atoms: NE_13  and  CZ_14 
REMARK       I    between atoms: CZ_14  and  NH1_15 
REMARK       I    between atoms: CZ_14  and  NH2_16 
REMARK   10  A    between atoms: N_17  and  CA_18 
REMARK   11  A    between atoms: CA_18  and  C_19 
REMARK   12  A    between atoms: CA_18  and  CB_21 
REMARK       I    between atoms: C_19  and  N_24 
REMARK   13  A    between atoms: CB_21  and  OG1_22 
REMARK   14  A    between atoms: CB_21  and  CG2_23 
REMARK   15  A    between atoms: N_24  and  CA_25 
REMARK   16  A    between atoms: CA_25  and  C_26 
REMARK   17  A    between atoms: CA_25  and  CB_28 
REMARK       I    between atoms: C_26  and  N_33 
REMARK   18  A    between atoms: CB_28  and  CG_29 
REMARK   19  A    between atoms: CG_29  and  CD_30 
REMARK   20  A    between atoms: CD_30  and  CE_31 
REMARK   21  A    between atoms: CE_31  and  NZ_32 
REMARK   22  A    between atoms: N_33  and  CA_34 
REMARK   23  A    between atoms: CA_34  and  C_35 
REMARK   24  A    between atoms: CA_34  and  CB_37 
REMARK       I    between atoms: C_35  and  N_42 
REMARK   25  A    between atoms: CB_37  and  CG_38 
REMARK   26  A    between atoms: CG_38  and  CD_39 
REMARK       I    between atoms: CD_39  and  NE2_41 
REMARK   27  A    between atoms: N_42  and  CA_43 
REMARK   28  A    between atoms: CA_43  and  C_44 
REMARK   29  A    between atoms: CA_43  and  CB_46 
REMARK       I    between atoms: C_44  and  N_49 
REMARK   30  A    between atoms: CB_46  and  OG1_47 
REMARK   31  A    between atoms: CB_46  and  CG2_48 
REMARK   32  A    between atoms: N_49  and  CA_50 
REMARK   33  A    between atoms: CA_50  and  C_51 
REMARK   34  A    between atoms: CA_50  and  CB_53 
REMARK       I    between atoms: C_51  and  N_54 
REMARK   35  A    between atoms: N_54  and  CA_55 
REMARK   36  A    between atoms: CA_55  and  C_56 
REMARK   37  A    between atoms: CA_55  and  CB_58 
REMARK       I    between atoms: C_56  and  N_65 
REMARK   38  A    between atoms: CB_58  and  CG_59 
REMARK   39  A    between atoms: CG_59  and  CD_60 
REMARK   40  A    between atoms: CD_60  and  NE_61 
REMARK       I    between atoms: NE_61  and  CZ_62 
REMARK       I    between atoms: CZ_62  and  NH1_63 
REMARK   41  A    between atoms: N_65  and  CA_66 
REMARK   42  A    between atoms: CA_66  and  C_67 
REMARK   43  A    between atoms: CA_66  and  CB_69 
REMARK       I    between atoms: C_67  and  N_74 
REMARK   44  A    between atoms: CB_69  and  CG_70 
REMARK   45  A    between atoms: CG_70  and  CD_71 
REMARK   46  A    between atoms: CD_71  and  CE_72 
REMARK   47  A    between atoms: CE_72  and  NZ_73 
REMARK   48  A    between atoms: N_74  and  CA_75 
REMARK   49  A    between atoms: CA_75  and  C_76 
REMARK   50  A    between atoms: CA_75  and  CB_78 
REMARK       I    between atoms: C_76  and  N_80 
REMARK   51  A    between atoms: CB_78  and  OG_79 
REMARK   52  A    between atoms: N_80  and  CA_81 
REMARK   53  A    between atoms: CA_81  and  C_82 
REMARK   54  A    between atoms: CA_81  and  CB_84 
REMARK       I    between atoms: C_82  and  N_87 
REMARK   55  A    between atoms: CB_84  and  OG1_85 
REMARK   56  A    between atoms: CB_84  and  CG2_86 
REMARK   57  A    between atoms: N_87  and  CA_88 
REMARK   58  A    between atoms: CA_88  and  C_89 
REMARK       I    between atoms: C_89  and  N_91 
REMARK   59  A    between atoms: N_91  and  CA_92 
REMARK   60  A    between atoms: CA_92  and  C_93 
REMARK       I    between atoms: C_93  and  N_95 
REMARK   61  A    between atoms: N_95  and  CA_96 
REMARK   62  A    between atoms: CA_96  and  CB_97 
REMARK   63  A    between atoms: CA_96  and  C_107 
REMARK   64  A    between atoms: CB_97  and  CG_98 
REMARK   65  A    between atoms: CG_98  and  CD_99 
REMARK   66  A    between atoms: CD_99  and  CE_100 
REMARK   67  A    between atoms: CE_100  and  NZ_101 
REMARK       I    between atoms: NZ_101  and  CH_102 
REMARK   68  A    between atoms: CH_102  and  CX_104 
REMARK   69  A    between atoms: CY_105  and  CH3_106 
REMARK       I    between atoms: C_107  and  N_109 
REMARK   70  A    between atoms: N_109  and  CA_110 
REMARK   71  A    between atoms: CA_110  and  C_111 
REMARK   72  A    between atoms: CA_110  and  CB_113 
REMARK       I    between atoms: C_111  and  N_114 
REMARK   73  A    between atoms: CA_115  and  C_116 
ROOT
ATOM      1  CA  ALA d   1      99.160  -3.123  36.150  0.00  0.00     0.089 C 
ATOM      2  H62 ALA d   1      99.997  -2.450  35.913  0.00  0.00     0.087 H 
ENDROOT
BRANCH   1   3
ATOM      3  N   ALA d   1      99.581  -4.498  35.884  0.00  0.00    -0.346 N 
ATOM      4  C   ALA d   1     100.601  -5.057  36.549  0.00  0.00     0.240 C 
ATOM      5  O   ALA d   1     101.237  -4.448  37.417  0.00  0.00    -0.271 OA
ATOM      6  H61 ALA d   1      99.097  -5.032  35.191  0.00  0.00     0.163 HD
BRANCH   4   7
ATOM      7  CA  ALA d   1     100.954  -6.495  36.186  0.00  0.00     0.086 C 
ATOM      8  H57 ALA d   1     101.606  -6.898  36.975  0.00  0.00     0.086 H 
BRANCH   7   9
ATOM      9  N   ALA d   1      99.753  -7.325  36.115  0.00  0.00    -0.346 N 
ATOM     10  C   ALA d   1      99.018  -7.555  37.207  0.00  0.00     0.243 C 
ATOM     11  O   ALA d   1      99.324  -7.095  38.314  0.00  0.00    -0.271 OA
ATOM     12  H56 ALA d   1      99.479  -7.725  35.240  0.00  0.00     0.163 HD
BRANCH  10  13
ATOM     13  CA  ALA d   1      97.767  -8.417  37.043  0.00  0.00     0.113 C 
ATOM     14  H50 ALA d   1      97.089  -8.197  37.881  0.00  0.00     0.091 H 
BRANCH  13  15
ATOM     15  N   ALA d   1      97.063  -8.099  35.799  0.00  0.00    -0.344 N 
ATOM     16  C   ALA d   1      96.553  -6.873  35.621  0.00  0.00     0.241 C 
ATOM     17  O   ALA d   1      96.678  -5.985  36.471  0.00  0.00    -0.271 OA
ATOM     18  H49 ALA d   1      96.963  -8.793  35.086  0.00  0.00     0.163 HD
BRANCH  16  19
ATOM     19  CA  ALA d   1      95.809  -6.589  34.319  0.00  0.00     0.090 C 
ATOM     20  H42 ALA d   1      95.692  -5.498  34.237  0.00  0.00     0.087 H 
BRANCH  19  21
ATOM     21  N   ALA d   1      96.558  -7.051  33.159  0.00  0.00    -0.346 N 
ATOM     22  C   ALA d   1      97.614  -6.385  32.699  0.00  0.00     0.241 C 
ATOM     23  O   ALA d   1      98.042  -5.360  33.242  0.00  0.00    -0.271 OA
ATOM     24  H41 ALA d   1      96.272  -7.890  32.696  0.00  0.00     0.163 HD
BRANCH  22  25
ATOM     25  CA  ALA d   1      98.328  -6.967  31.492  0.00  0.00     0.089 C 
ATOM     26  H29 ALA d   1      99.386  -6.670  31.540  0.00  0.00     0.087 H 
BRANCH  25  27
ATOM     27  N   ALA d   1      98.257  -8.422  31.496  0.00  0.00    -0.346 N 
ATOM     28  C   ALA d   1      98.720  -9.102  32.550  0.00  0.00     0.243 C 
ATOM     29  O   ALA d   1      99.231  -8.562  33.539  0.00  0.00    -0.271 OA
ATOM     30  H28 ALA d   1      97.865  -8.909  30.716  0.00  0.00     0.163 HD
BRANCH  28  31
ATOM     31  CA  ALA d   1      98.514 -10.603  32.492  0.00  0.00     0.113 C 
ATOM     32  H22 ALA d   1      98.954 -10.992  31.562  0.00  0.00     0.091 H 
BRANCH  31  33
ATOM     33  N   ALA d   1      99.202 -11.203  33.620  0.00  0.00    -0.344 N 
ATOM     34  C   ALA d   1     100.123 -12.129  33.422  0.00  0.00     0.241 C 
ATOM     35  O   ALA d   1     100.357 -12.610  32.309  0.00  0.00    -0.271 OA
ATOM     36  H21 ALA d   1      98.978 -10.914  34.551  0.00  0.00     0.163 HD
BRANCH  34  37
ATOM     37  CA  ALA d   1     100.823 -12.657  34.664  0.00  0.00     0.089 C 
ATOM     38  H9  ALA d   1     100.231 -12.394  35.553  0.00  0.00     0.087 H 
BRANCH  37  39
ATOM     39  N   ALA d   1     100.923 -14.106  34.574  0.00  0.00    -0.346 N 
ATOM     40  C   ALA d   1      99.976 -14.922  35.024  0.00  0.00     0.248 C 
ATOM     41  O   ALA d   1      98.984 -14.525  35.601  0.00  0.00    -0.271 OA
ATOM     42  H8  ALA d   1     101.739 -14.505  34.156  0.00  0.00     0.163 HD
BRANCH  40  43
ATOM     43  CA  ALA d   1     100.198 -16.419  34.778  0.00  0.00     0.172 C 
ATOM     44  H4  ALA d   1     101.275 -16.620  34.873  0.00  0.00     0.098 H 
BRANCH  43  45
ATOM     45  N   ALA d   1      99.500 -17.253  35.748  0.00  0.00    -0.067 N 
ATOM     46  H1  ALA d   1      99.677 -18.224  35.545  0.00  0.00     0.275 HD
ATOM     47  H2  ALA d   1      98.510 -17.073  35.695  0.00  0.00     0.275 HD
ATOM     48  H3  ALA d   1      99.831 -17.038  36.676  0.00  0.00     0.275 HD
ENDBRANCH  43  45
BRANCH  43  49
ATOM     49  CB  ALA d   1      99.762 -16.789  33.356  0.00  0.00    -0.042 C 
ATOM     50  H5  ALA d   1     100.294 -16.154  32.632  0.00  0.00     0.030 H 
ATOM     51  H6  ALA d   1      98.678 -16.633  33.253  0.00  0.00     0.030 H 
ATOM     52  H7  ALA d   1     100.001 -17.845  33.162  0.00  0.00     0.030 H 
ENDBRANCH  43  49
ENDBRANCH  40  43
ENDBRANCH  37  39
BRANCH  37  53
ATOM     53  CB  ALA d   1     102.207 -12.019  34.785  0.00  0.00    -0.036 C 
ATOM     54  H10 ALA d   1     102.085 -10.926  34.790  0.00  0.00     0.036 H 
ATOM     55  H11 ALA d   1     102.804 -12.318  33.910  0.00  0.00     0.036 H 
BRANCH  53  56
ATOM     56  CG  ALA d   1     102.972 -12.426  36.054  0.00  0.00    -0.048 C 
ATOM     57  H12 ALA d   1     103.161 -13.509  36.023  0.00  0.00     0.035 H 
ATOM     58  H13 ALA d   1     102.356 -12.186  36.933  0.00  0.00     0.035 H 
BRANCH  56  59
ATOM     59  CD  ALA d   1     104.299 -11.699  36.171  0.00  0.00     0.009 C 
ATOM     60  H14 ALA d   1     104.851 -12.095  37.036  0.00  0.00     0.064 H 
ATOM     61  H15 ALA d   1     104.109 -10.626  36.318  0.00  0.00     0.064 H 
BRANCH  59  62
ATOM     62  NE  ALA d   1     105.105 -11.881  34.966  0.00  0.00    -0.227 N 
ATOM     63  CZ  ALA d   1     105.413 -10.905  34.116  0.00  0.00     0.665 C 
ATOM     64  NH1 ALA d   1     105.005  -9.675  34.363  0.00  0.00    -0.235 N 
ATOM     65  NH2 ALA d   1     106.155 -11.156  33.035  0.00  0.00    -0.235 N 
ATOM     66  H17 ALA d   1     105.239  -8.914  33.710  0.00  0.00     0.174 HD
ATOM     67  H18 ALA d   1     104.452  -9.476  35.209  0.00  0.00     0.174 HD
ATOM     68  H19 ALA d   1     106.474 -12.116  32.841  0.00  0.00     0.174 HD
ATOM     69  H20 ALA d   1     106.408 -10.390  32.395  0.00  0.00     0.174 HD
ATOM     70  H16 ALA d   1     105.458 -12.827  34.761  0.00  0.00     0.177 HD
ENDBRANCH  59  62
ENDBRANCH  56  59
ENDBRANCH  53  56
ENDBRANCH  37  53
ENDBRANCH  34  37
ENDBRANCH  31  33
BRANCH  31  71
ATOM     71  CB  ALA d   1      97.018 -10.929  32.492  0.00  0.00     0.060 C 
ATOM     72  H23 ALA d   1      96.551 -10.490  31.598  0.00  0.00     0.086 H 
BRANCH  71  73
ATOM     73  OG1 ALA d   1      96.411 -10.371  33.664  0.00  0.00    -0.393 OA
ATOM     74  H24 ALA d   1      95.483 -10.573  33.665  0.00  0.00     0.210 HD
ENDBRANCH  71  73
BRANCH  71  75
ATOM     75  CG2 ALA d   1      96.813 -12.443  32.472  0.00  0.00    -0.050 C 
ATOM     76  H25 ALA d   1      95.736 -12.667  32.472  0.00  0.00     0.031 H 
ATOM     77  H26 ALA d   1      97.280 -12.888  33.363  0.00  0.00     0.031 H 
ATOM     78  H27 ALA d   1      97.275 -12.864  31.567  0.00  0.00     0.031 H 
ENDBRANCH  71  75
ENDBRANCH  31  71
ENDBRANCH  28  31
ENDBRANCH  25  27
BRANCH  25  79
ATOM     79  CB  ALA d   1      97.724  -6.413  30.192  0.00  0.00    -0.038 C 
ATOM     80  H30 ALA d   1      96.671  -6.728  30.137  0.00  0.00     0.036 H 
ATOM     81  H31 ALA d   1      98.279  -6.839  29.343  0.00  0.00     0.036 H 
BRANCH  79  82
ATOM     82  CG  ALA d   1      97.777  -4.886  30.086  0.00  0.00    -0.061 C 
ATOM     83  H32 ALA d   1      98.806  -4.555  30.289  0.00  0.00     0.033 H 
ATOM     84  H33 ALA d   1      97.099  -4.457  30.838  0.00  0.00     0.033 H 
BRANCH  82  85
ATOM     85  CD  ALA d   1      97.362  -4.374  28.705  0.00  0.00    -0.043 C 
ATOM     86  H34 ALA d   1      97.331  -3.275  28.725  0.00  0.00     0.035 H 
ATOM     87  H35 ALA d   1      96.362  -4.765  28.463  0.00  0.00     0.035 H 
BRANCH  85  88
ATOM     88  CE  ALA d   1      98.340  -4.822  27.635  0.00  0.00     0.080 C 
ATOM     89  H36 ALA d   1      97.884  -5.656  27.082  0.00  0.00     0.075 H 
ATOM     90  H37 ALA d   1      99.257  -5.170  28.133  0.00  0.00     0.075 H 
BRANCH  88  91
ATOM     91  NZ  ALA d   1      98.720  -3.761  26.649  0.00  0.00    -0.079 N 
ATOM     92  H38 ALA d   1      99.369  -4.142  25.978  0.00  0.00     0.274 HD
ATOM     93  H39 ALA d   1      99.153  -2.991  27.134  0.00  0.00     0.274 HD
ATOM     94  H40 ALA d   1      97.895  -3.436  26.171  0.00  0.00     0.274 HD
ENDBRANCH  88  91
ENDBRANCH  85  88
ENDBRANCH  82  85
ENDBRANCH  79  82
ENDBRANCH  25  79
ENDBRANCH  22  25
ENDBRANCH  19  21
BRANCH  19  95
ATOM     95  CB  ALA d   1      94.414  -7.215  34.298  0.00  0.00    -0.030 C 
ATOM     96  H43 ALA d   1      94.536  -8.308  34.311  0.00  0.00     0.037 H 
ATOM     97  H44 ALA d   1      93.924  -6.912  33.361  0.00  0.00     0.037 H 
BRANCH  95  98
ATOM     98  CG  ALA d   1      93.501  -6.840  35.437  0.00  0.00     0.011 C 
ATOM     99  H45 ALA d   1      93.649  -5.779  35.686  0.00  0.00     0.047 H 
ATOM    100  H46 ALA d   1      93.742  -7.460  36.313  0.00  0.00     0.047 H 
BRANCH  98 101
ATOM    101  CD  ALA d   1      92.056  -7.064  35.050  0.00  0.00     0.215 C 
ATOM    102  OE1 ALA d   1      91.536  -6.374  34.171  0.00  0.00    -0.274 OA
ATOM    103  NE2 ALA d   1      91.400  -8.026  35.689  0.00  0.00    -0.370 N 
ATOM    104  H47 ALA d   1      90.443  -8.211  35.467  0.00  0.00     0.159 HD
ATOM    105  H48 ALA d   1      91.864  -8.565  36.392  0.00  0.00     0.159 HD
ENDBRANCH  98 101
ENDBRANCH  95  98
ENDBRANCH  19  95
ENDBRANCH  16  19
ENDBRANCH  13  15
BRANCH  13 106
ATOM    106  CB  ALA d   1      98.135  -9.908  37.105  0.00  0.00     0.060 C 
ATOM    107  H51 ALA d   1      98.453 -10.147  38.130  0.00  0.00     0.086 H 
BRANCH 106 108
ATOM    108  OG1 ALA d   1      99.212 -10.205  36.202  0.00  0.00    -0.393 OA
ATOM    109  H52 ALA d   1      99.974  -9.691  36.440  0.00  0.00     0.210 HD
ENDBRANCH 106 108
BRANCH 106 110
ATOM    110  CG2 ALA d   1      96.936 -10.778  36.745  0.00  0.00    -0.050 C 
ATOM    111  H53 ALA d   1      97.224 -11.838  36.796  0.00  0.00     0.031 H 
ATOM    112  H54 ALA d   1      96.602 -10.538  35.725  0.00  0.00     0.031 H 
ATOM    113  H55 ALA d   1      96.117 -10.586  37.454  0.00  0.00     0.031 H 
ENDBRANCH 106 110
ENDBRANCH  13 106
ENDBRANCH  10  13
ENDBRANCH   7   9
BRANCH   7 114
ATOM    114  CB  ALA d   1     101.713  -6.550  34.863  0.00  0.00    -0.049 C 
ATOM    115  H58 ALA d   1     102.613  -5.922  34.931  0.00  0.00     0.030 H 
ATOM    116  H59 ALA d   1     101.067  -6.179  34.054  0.00  0.00     0.030 H 
ATOM    117  H60 ALA d   1     102.006  -7.589  34.651  0.00  0.00     0.030 H 
ENDBRANCH   7 114
ENDBRANCH   4   7
ENDBRANCH   1   3
BRANCH   1 118
ATOM    118  C   ALA d   1      98.787  -2.929  37.613  0.00  0.00     0.241 C 
ATOM    119  O   ALA d   1      99.130  -1.907  38.218  0.00  0.00    -0.271 OA
ATOM    120  N   ALA d   1      98.090  -3.899  38.206  0.00  0.00    -0.346 N 
ATOM    121  H74 ALA d   1      97.796  -4.699  37.683  0.00  0.00     0.163 HD
BRANCH 120 122
ATOM    122  CA  ALA d   1      97.759  -3.785  39.622  0.00  0.00     0.089 C 
ATOM    123  H75 ALA d   1      97.437  -2.751  39.815  0.00  0.00     0.087 H 
BRANCH 122 124
ATOM    124  C   ALA d   1      98.965  -4.076  40.507  0.00  0.00     0.241 C 
ATOM    125  O   ALA d   1      99.155  -3.414  41.531  0.00  0.00    -0.271 OA
ATOM    126  N   ALA d   1      99.794  -5.051  40.117  0.00  0.00    -0.344 N 
ATOM    127  H87 ALA d   1      99.606  -5.535  39.262  0.00  0.00     0.163 HD
BRANCH 126 128
ATOM    128  CA  ALA d   1     100.967  -5.429  40.905  0.00  0.00     0.109 C 
ATOM    129  H88 ALA d   1     100.620  -5.827  41.870  0.00  0.00     0.090 H 
BRANCH 128 130
ATOM    130  C   ALA d   1     101.875  -4.237  41.185  0.00  0.00     0.243 C 
ATOM    131  O   ALA d   1     102.480  -4.142  42.259  0.00  0.00    -0.271 OA
ATOM    132  N   ALA d   1     102.023  -3.343  40.209  0.00  0.00    -0.344 N 
ATOM    133  H92 ALA d   1     101.561  -3.497  39.336  0.00  0.00     0.163 HD
BRANCH 132 134
ATOM    134  CA  ALA d   1     102.838  -2.148  40.376  0.00  0.00     0.113 C 
ATOM    135  H93 ALA d   1     103.743  -2.430  40.934  0.00  0.00     0.091 H 
BRANCH 134 136
ATOM    136  C   ALA d   1     102.129  -1.044  41.140  0.00  0.00     0.243 C 
ATOM    137  O   ALA d   1     102.793  -0.136  41.647  0.00  0.00    -0.271 OA
ATOM    138  N   ALA d   1     100.807  -1.060  41.182  0.00  0.00    -0.350 N 
ATOM    139  H99 ALA d   1     100.311  -1.888  40.921  0.00  0.00     0.163 HD
BRANCH 138 140
ATOM    140  CA  ALA d   1     100.076   0.112  41.602  0.00  0.00     0.069 C 
ATOM    141 0H10 ALA d   1     100.534   0.524  42.513  0.00  0.00     0.078 H 
ATOM    142 1H10 ALA d   1      99.031  -0.161  41.808  0.00  0.00     0.078 H 
BRANCH 140 143
ATOM    143  C   ALA d   1     100.121   1.152  40.496  0.00  0.00     0.235 C 
ATOM    144  O   ALA d   1     100.657   0.938  39.410  0.00  0.00    -0.272 OA
ATOM    145  N   ALA d   1      99.558   2.314  40.796  0.00  0.00    -0.351 N 
ATOM    146 2H10 ALA d   1      99.175   2.462  41.708  0.00  0.00     0.163 HD
BRANCH 145 147
ATOM    147  CA  ALA d   1      99.495   3.372  39.806  0.00  0.00     0.069 C 
ATOM    148 3H10 ALA d   1      98.828   4.157  40.191  0.00  0.00     0.078 H 
ATOM    149 4H10 ALA d   1      99.069   2.949  38.884  0.00  0.00     0.078 H 
BRANCH 147 150
ATOM    150  C   ALA d   1     100.823   4.018  39.454  0.00  0.00     0.236 C 
ATOM    151  O   ALA d   1     101.781   3.967  40.225  0.00  0.00    -0.272 OA
ATOM    152  N   ALA d   1     100.876   4.607  38.266  0.00  0.00    -0.346 N 
ATOM    153 5H10 ALA d   1     100.167   4.400  37.592  0.00  0.00     0.163 HD
BRANCH 152 154
ATOM    154  CA  ALA d   1     101.905   5.520  37.922  0.00  0.00     0.089 C 
ATOM    155 6H10 ALA d   1     102.885   5.052  38.096  0.00  0.00     0.087 H 
BRANCH 154 156
ATOM    156  CB  ALA d   1     101.808   5.925  36.458  0.00  0.00    -0.038 C 
ATOM    157 7H10 ALA d   1     102.559   6.701  36.250  0.00  0.00     0.036 H 
ATOM    158 8H10 ALA d   1     100.803   6.326  36.263  0.00  0.00     0.036 H 
BRANCH 156 159
ATOM    159  CG  ALA d   1     102.055   4.735  35.539  0.00  0.00    -0.061 C 
ATOM    160 9H10 ALA d   1     101.483   3.868  35.900  0.00  0.00     0.033 H 
ATOM    161 0H11 ALA d   1     103.127   4.491  35.535  0.00  0.00     0.033 H 
BRANCH 159 162
ATOM    162  CD  ALA d   1     101.607   5.087  34.120  0.00  0.00    -0.050 C 
ATOM    163 1H11 ALA d   1     102.219   5.918  33.739  0.00  0.00     0.035 H 
ATOM    164 2H11 ALA d   1     100.549   5.388  34.135  0.00  0.00     0.035 H 
BRANCH 162 165
ATOM    165  CE  ALA d   1     101.777   3.866  33.202  0.00  0.00    -0.004 C 
ATOM    166 3H11 ALA d   1     101.128   3.964  32.319  0.00  0.00     0.064 H 
ATOM    167 4H11 ALA d   1     101.519   2.946  33.746  0.00  0.00     0.064 H 
BRANCH 165 168
ATOM    168  NZ  ALA d   1     103.160   3.830  32.797  0.00  0.00    -0.358 N 
ATOM    169  CH  ALA d   1     103.957   2.639  32.824  0.00  0.00     0.240 C 
ATOM    170  OH  ALA d   1     103.503   1.555  33.146  0.00  0.00    -0.269 OA
ATOM    171 5H11 ALA d   1     103.585   4.679  32.481  0.00  0.00     0.162 HD
BRANCH 169 172
ATOM    172  CX  ALA d   1     105.408   2.762  32.387  0.00  0.00    -0.022 C 
ATOM    173  CY  ALA d   1     106.253   1.726  32.600  0.00  0.00    -0.102 C 
ATOM    174 7H11 ALA d   1     105.899   0.813  33.076  0.00  0.00     0.076 H 
ATOM    175 6H11 ALA d   1     105.763   3.673  31.908  0.00  0.00     0.091 H 
BRANCH 173 176
ATOM    176  CH3 ALA d   1     107.694   1.856  32.167  0.00  0.00    -0.059 C 
ATOM    177 8H11 ALA d   1     108.236   0.931  32.413  0.00  0.00     0.032 H 
ATOM    178 9H11 ALA d   1     108.159   2.704  32.691  0.00  0.00     0.032 H 
ATOM    179 0H12 ALA d   1     107.737   2.028  31.081  0.00  0.00     0.032 H 
ENDBRANCH 173 176
ENDBRANCH 169 172
ENDBRANCH 165 168
ENDBRANCH 162 165
ENDBRANCH 159 162
ENDBRANCH 156 159
ENDBRANCH 154 156
BRANCH 154 180
ATOM    180  C   ALA d   1     101.750   6.730  38.831  0.00  0.00     0.241 C 
ATOM    181  O   ALA d   1     100.616   7.051  39.265  0.00  0.00    -0.271 OA
ATOM    182  N   ALA d   1     102.839   7.422  39.136  0.00  0.00    -0.346 N 
ATOM    183 1H12 ALA d   1     103.735   7.107  38.823  0.00  0.00     0.163 HD
BRANCH 182 184
ATOM    184  CA  ALA d   1     102.732   8.644  39.929  0.00  0.00     0.086 C 
ATOM    185 2H12 ALA d   1     102.221   8.398  40.871  0.00  0.00     0.086 H 
BRANCH 184 186
ATOM    186  C   ALA d   1     101.911   9.703  39.203  0.00  0.00     0.243 C 
ATOM    187  O   ALA d   1     102.101   9.937  38.013  0.00  0.00    -0.271 OA
ATOM    188  N   ALA d   1     100.978  10.343  39.916  0.00  0.00    -0.336 N 
ATOM    189  CA  ALA d   1     100.252  11.457  39.298  0.00  0.00     0.098 C 
ATOM    190  CD  ALA d   1     100.468  10.005  41.256  0.00  0.00    -0.001 C 
ATOM    191  CB  ALA d   1      99.008  11.590  40.175  0.00  0.00    -0.035 C 
ATOM    192 6H12 ALA d   1      99.975  11.213  38.262  0.00  0.00     0.089 H 
ATOM    193  CG  ALA d   1      99.418  11.051  41.504  0.00  0.00    -0.048 C 
ATOM    194 7H12 ALA d   1      98.176  11.003  39.759  0.00  0.00     0.036 H 
ATOM    195 8H12 ALA d   1      98.706  12.644  40.261  0.00  0.00     0.036 H 
ATOM    196 9H12 ALA d   1      98.552  10.602  42.012  0.00  0.00     0.035 H 
ATOM    197 0H13 ALA d   1      99.830  11.858  42.127  0.00  0.00     0.035 H 
ATOM    198 1H13 ALA d   1     101.268  10.065  42.008  0.00  0.00     0.064 H 
ATOM    199 2H13 ALA d   1     100.029   8.996  41.267  0.00  0.00     0.064 H 
BRANCH 189 200
ATOM    200  C   ALA d   1     101.078  12.746  39.304  0.00  0.00     0.196 C 
ATOM    201  O   ALA d   1     102.245  12.722  39.713  0.00  0.00    -0.646 OA
ATOM    202  OXT ALA d   1     100.570  13.799  38.900  0.00  0.00    -0.646 OA
ENDBRANCH 189 200
ENDBRANCH 184 186
BRANCH 184 203
ATOM    203  CB  ALA d   1     104.114   9.191  40.261  0.00  0.00    -0.049 C 
ATOM    204 3H12 ALA d   1     104.011  10.110  40.857  0.00  0.00     0.030 H 
ATOM    205 4H12 ALA d   1     104.652   9.418  39.329  0.00  0.00     0.030 H 
ATOM    206 5H12 ALA d   1     104.677   8.441  40.837  0.00  0.00     0.030 H 
ENDBRANCH 184 203
ENDBRANCH 182 184
ENDBRANCH 154 180
ENDBRANCH 152 154
ENDBRANCH 147 150
ENDBRANCH 145 147
ENDBRANCH 140 143
ENDBRANCH 138 140
ENDBRANCH 134 136
BRANCH 134 207
ATOM    207  CB  ALA d   1     103.246  -1.593  39.014  0.00  0.00     0.060 C 
ATOM    208  H94 ALA d   1     104.047  -0.852  39.150  0.00  0.00     0.086 H 
BRANCH 207 209
ATOM    209  OG1 ALA d   1     102.111  -0.963  38.409  0.00  0.00    -0.393 OA
ATOM    210  H95 ALA d   1     101.808  -0.256  38.966  0.00  0.00     0.210 HD
ENDBRANCH 207 209
BRANCH 207 211
ATOM    211  CG2 ALA d   1     103.748  -2.712  38.108  0.00  0.00    -0.050 C 
ATOM    212  H96 ALA d   1     104.037  -2.293  37.133  0.00  0.00     0.031 H 
ATOM    213  H97 ALA d   1     102.949  -3.455  37.966  0.00  0.00     0.031 H 
ATOM    214  H98 ALA d   1     104.620  -3.196  38.572  0.00  0.00     0.031 H 
ENDBRANCH 207 211
ENDBRANCH 134 207
ENDBRANCH 132 134
ENDBRANCH 128 130
BRANCH 128 215
ATOM    215  CB  ALA d   1     101.739  -6.530  40.175  0.00  0.00     0.044 C 
ATOM    216  H89 ALA d   1     101.838  -6.255  39.115  0.00  0.00     0.077 H 
ATOM    217  H90 ALA d   1     101.181  -7.474  40.258  0.00  0.00     0.077 H 
BRANCH 215 218
ATOM    218  OG  ALA d   1     103.027  -6.708  40.726  0.00  0.00    -0.398 OA
ATOM    219  H91 ALA d   1     103.516  -5.897  40.653  0.00  0.00     0.209 HD
ENDBRANCH 215 218
ENDBRANCH 128 215
ENDBRANCH 126 128
ENDBRANCH 122 124
BRANCH 122 220
ATOM    220  CB  ALA d   1      96.601  -4.721  39.971  0.00  0.00    -0.038 C 
ATOM    221  H76 ALA d   1      96.802  -5.173  40.953  0.00  0.00     0.036 H 
ATOM    222  H77 ALA d   1      96.549  -5.511  39.208  0.00  0.00     0.036 H 
BRANCH 220 223
ATOM    223  CG  ALA d   1      95.251  -4.016  40.030  0.00  0.00    -0.061 C 
ATOM    224  H78 ALA d   1      95.258  -3.174  39.323  0.00  0.00     0.033 H 
ATOM    225  H79 ALA d   1      95.092  -3.637  41.050  0.00  0.00     0.033 H 
BRANCH 223 226
ATOM    226  CD  ALA d   1      94.108  -4.951  39.669  0.00  0.00    -0.043 C 
ATOM    227  H80 ALA d   1      93.827  -5.534  40.558  0.00  0.00     0.035 H 
ATOM    228  H81 ALA d   1      94.440  -5.633  38.873  0.00  0.00     0.035 H 
BRANCH 226 229
ATOM    229  CE  ALA d   1      92.893  -4.172  39.181  0.00  0.00     0.080 C 
ATOM    230  H82 ALA d   1      92.395  -3.712  40.047  0.00  0.00     0.075 H 
ATOM    231  H83 ALA d   1      92.200  -4.869  38.687  0.00  0.00     0.075 H 
BRANCH 229 232
ATOM    232  NZ  ALA d   1      93.265  -3.099  38.215  0.00  0.00    -0.079 N 
ATOM    233  H84 ALA d   1      92.434  -2.611  37.919  0.00  0.00     0.274 HD
ATOM    234  H85 ALA d   1      93.716  -3.510  37.413  0.00  0.00     0.274 HD
ATOM    235  H86 ALA d   1      93.896  -2.450  38.660  0.00  0.00     0.274 HD
ENDBRANCH 229 232
ENDBRANCH 226 229
ENDBRANCH 223 226
ENDBRANCH 220 223
ENDBRANCH 122 220
ENDBRANCH 120 122
ENDBRANCH   1 118
BRANCH   1 236
ATOM    236  CB  ALA d   1      97.974  -2.767  35.254  0.00  0.00    -0.036 C 
ATOM    237  H63 ALA d   1      97.059  -3.145  35.735  0.00  0.00     0.036 H 
ATOM    238  H64 ALA d   1      98.115  -3.272  34.287  0.00  0.00     0.036 H 
BRANCH 236 239
ATOM    239  CG  ALA d   1      97.788  -1.303  34.990  0.00  0.00    -0.048 C 
ATOM    240  H65 ALA d   1      98.592  -0.946  34.329  0.00  0.00     0.035 H 
ATOM    241  H66 ALA d   1      97.825  -0.753  35.942  0.00  0.00     0.035 H 
BRANCH 239 242
ATOM    242  CD  ALA d   1      96.450  -1.066  34.325  0.00  0.00     0.009 C 
ATOM    243  H67 ALA d   1      96.110  -0.049  34.569  0.00  0.00     0.064 H 
ATOM    244  H68 ALA d   1      95.728  -1.798  34.716  0.00  0.00     0.064 H 
BRANCH 242 245
ATOM    245  NE  ALA d   1      96.514  -1.202  32.873  0.00  0.00    -0.227 N 
ATOM    246  CZ  ALA d   1      95.762  -2.043  32.167  0.00  0.00     0.665 C 
ATOM    247  NH1 ALA d   1      94.894  -2.835  32.783  0.00  0.00    -0.235 N 
ATOM    248  NH2 ALA d   1      95.876  -2.094  30.843  0.00  0.00    -0.235 N 
ATOM    249  H70 ALA d   1      94.312  -3.486  32.236  0.00  0.00     0.174 HD
ATOM    250  H71 ALA d   1      94.802  -2.799  33.808  0.00  0.00     0.174 HD
ATOM    251  H72 ALA d   1      96.548  -1.481  30.360  0.00  0.00     0.174 HD
ATOM    252  H73 ALA d   1      95.292  -2.746  30.300  0.00  0.00     0.174 HD
ATOM    253  H69 ALA d   1      97.184  -0.609  32.362  0.00  0.00     0.177 HD
ENDBRANCH 242 245
ENDBRANCH 239 242
ENDBRANCH 236 239
ENDBRANCH   1 236
TORSDOF 73
