REMARK  11 active torsions:
REMARK  status: ('A' for Active; 'I' for Inactive)
REMARK    1  A    between atoms: C21_1  and  C20_2 
REMARK       I    between atoms: N6_4  and  C23_5 
REMARK    2  A    between atoms: C23_5  and  C24_7 
REMARK    3  A    between atoms: C24_7  and  C25_8 
REMARK    4  A    between atoms: N2_11  and  C7_12 
REMARK    5  A    between atoms: N4_16  and  C9_17 
REMARK    6  A    between atoms: C13_18  and  C22_19 
REMARK    7  A    between atoms: C10_23  and  C14_24 
REMARK    8  A    between atoms: C14_24  and  C16_25 
REMARK    9  A    between atoms: C14_24  and  C15_26 
REMARK   10  A    between atoms: C3_33  and  C6_34 
REMARK   11  A    between atoms: C26_40  and  O3_41 
ROOT
ATOM      1  C7  MOV d   1       0.232  -7.655  -1.586  0.00  0.00     0.145 A 
ATOM      2  N3  MOV d   1      -0.485  -8.794  -1.541  0.00  0.00    -0.175 NA
ATOM      3  C8  MOV d   1       0.088 -10.003  -1.564  0.00  0.00     0.356 A 
ATOM      4  O1  MOV d   1      -0.606 -11.017  -1.525  0.00  0.00    -0.244 OA
ATOM      5  N4  MOV d   1       1.468 -10.112  -1.635  0.00  0.00    -0.243 N 
ATOM      6  C2  MOV d   1       2.258  -8.966  -1.680  0.00  0.00     0.153 A 
ATOM      7  N1  MOV d   1       3.595  -9.086  -1.744  0.00  0.00    -0.226 NA
ATOM      8  C1  MOV d   1       1.642  -7.717  -1.656  0.00  0.00     0.059 A 
ATOM      9  C5  MOV d   1       2.467  -6.591  -1.708  0.00  0.00    -0.026 A 
ATOM     10  C4  MOV d   1       3.854  -6.742  -1.782  0.00  0.00     0.147 A 
ATOM     11  F1  MOV d   1       4.658  -5.663  -1.836  0.00  0.00    -0.204 F 
ATOM     12  C3  MOV d   1       4.408  -8.024  -1.795  0.00  0.00     0.113 A 
ATOM     13  H28 MOV d   1       2.031  -5.599  -1.691  0.00  0.00     0.090 H 
ENDROOT
BRANCH   1  14
ATOM     14  N2  MOV d   1      -0.516  -6.457  -1.522  0.00  0.00    -0.357 N 
ATOM     15  C20 MOV d   1      -1.985  -6.526  -1.667  0.00  0.00     0.025 C 
ATOM     16  C19 MOV d   1      -2.541  -5.147  -2.020  0.00  0.00     0.016 C 
ATOM     17  H4  MOV d   1      -2.228  -7.219  -2.486  0.00  0.00     0.074 H 
ATOM     18  N6  MOV d   1      -2.128  -4.145  -1.011  0.00  0.00    -0.349 N 
ATOM     19  H5  MOV d   1      -3.639  -5.197  -2.051  0.00  0.00     0.067 H 
ATOM     20  H6  MOV d   1      -2.160  -4.845  -3.007  0.00  0.00     0.067 H 
ATOM     21  C23 MOV d   1      -2.919  -3.127  -0.691  0.00  0.00     0.219 C 
ATOM     22  C18 MOV d   1      -0.822  -4.289  -0.337  0.00  0.00     0.013 C 
ATOM     23  O2  MOV d   1      -2.563  -2.305   0.154  0.00  0.00    -0.273 OA
ATOM     24  C17 MOV d   1       0.121  -5.160  -1.149  0.00  0.00     0.012 C 
ATOM     25  H12 MOV d   1      -0.976  -4.750   0.650  0.00  0.00     0.066 H 
ATOM     26  H13 MOV d   1      -0.372  -3.293  -0.210  0.00  0.00     0.066 H 
ATOM     27  H14 MOV d   1       1.022  -5.363  -0.552  0.00  0.00     0.066 H 
ATOM     28  H15 MOV d   1       0.402  -4.623  -2.067  0.00  0.00     0.066 H 
BRANCH  15  29
ATOM     29  C21 MOV d   1      -2.610  -7.064  -0.371  0.00  0.00    -0.056 C 
ATOM     30  H1  MOV d   1      -3.703  -7.113  -0.484  0.00  0.00     0.030 H 
ATOM     31  H2  MOV d   1      -2.358  -6.394   0.464  0.00  0.00     0.030 H 
ATOM     32  H3  MOV d   1      -2.217  -8.070  -0.165  0.00  0.00     0.030 H 
ENDBRANCH  15  29
BRANCH  21  33
ATOM     33  C24 MOV d   1      -4.277  -2.959  -1.369  0.00  0.00     0.006 C 
ATOM     34  H7  MOV d   1      -4.676  -3.968  -1.550  0.00  0.00     0.046 H 
ATOM     35  H8  MOV d   1      -4.099  -2.457  -2.332  0.00  0.00     0.046 H 
BRANCH  33  36
ATOM     36  C25 MOV d   1      -5.364  -2.168  -0.643  0.00  0.00    -0.068 C 
ATOM     37  H9  MOV d   1      -6.273  -2.141  -1.262  0.00  0.00     0.028 H 
ATOM     38  H10 MOV d   1      -5.012  -1.141  -0.463  0.00  0.00     0.028 H 
ATOM     39  H11 MOV d   1      -5.590  -2.652   0.319  0.00  0.00     0.028 H 
ENDBRANCH  33  36
ENDBRANCH  21  33
ENDBRANCH   1  14
BRANCH   5  40
ATOM     40  C9  MOV d   1       2.047 -11.378  -1.648  0.00  0.00     0.076 A 
ATOM     41  C13 MOV d   1       2.347 -11.976  -2.860  0.00  0.00    -0.031 A 
ATOM     42  C12 MOV d   1       2.924 -13.240  -2.857  0.00  0.00    -0.058 A 
ATOM     43  C11 MOV d   1       3.178 -13.859  -1.638  0.00  0.00     0.003 A 
ATOM     44  H19 MOV d   1       3.172 -13.735  -3.789  0.00  0.00     0.086 H 
ATOM     45  N5  MOV d   1       2.882 -13.267  -0.492  0.00  0.00    -0.263 NA
ATOM     46  H20 MOV d   1       3.627 -14.845  -1.626  0.00  0.00     0.114 H 
ATOM     47  C10 MOV d   1       2.320 -12.047  -0.454  0.00  0.00     0.065 A 
BRANCH  41  48
ATOM     48  C22 MOV d   1       2.037 -11.248  -4.165  0.00  0.00    -0.049 C 
ATOM     49  H16 MOV d   1       2.343 -11.874  -5.016  0.00  0.00     0.033 H 
ATOM     50  H17 MOV d   1       2.588 -10.296  -4.194  0.00  0.00     0.033 H 
ATOM     51  H18 MOV d   1       0.957 -11.049  -4.226  0.00  0.00     0.033 H 
ENDBRANCH  41  48
BRANCH  47  52
ATOM     52  C14 MOV d   1       2.006 -11.420   0.913  0.00  0.00    -0.017 C 
ATOM     53  H21 MOV d   1       1.580 -10.418   0.755  0.00  0.00     0.048 H 
BRANCH  52  54
ATOM     54  C16 MOV d   1       0.986 -12.270   1.683  0.00  0.00    -0.068 C 
ATOM     55  H22 MOV d   1       0.778 -11.801   2.656  0.00  0.00     0.028 H 
ATOM     56  H23 MOV d   1       1.395 -13.279   1.842  0.00  0.00     0.028 H 
ATOM     57  H24 MOV d   1       0.054 -12.339   1.103  0.00  0.00     0.028 H 
ENDBRANCH  52  54
BRANCH  52  58
ATOM     58  C15 MOV d   1       3.303 -11.287   1.711  0.00  0.00    -0.068 C 
ATOM     59  H25 MOV d   1       4.021 -10.676   1.145  0.00  0.00     0.028 H 
ATOM     60  H26 MOV d   1       3.730 -12.286   1.886  0.00  0.00     0.028 H 
ATOM     61  H27 MOV d   1       3.092 -10.804   2.676  0.00  0.00     0.028 H 
ENDBRANCH  52  58
ENDBRANCH  47  52
ENDBRANCH   5  40
BRANCH  12  62
ATOM     62  C6  MOV d   1       5.789  -8.217  -1.865  0.00  0.00     0.068 A 
ATOM     63  C30 MOV d   1       6.635  -7.660  -0.895  0.00  0.00     0.131 A 
ATOM     64  F2  MOV d   1       6.144  -6.931   0.129  0.00  0.00    -0.205 F 
ATOM     65  C29 MOV d   1       8.011  -7.850  -0.968  0.00  0.00    -0.045 A 
ATOM     66  C28 MOV d   1       8.550  -8.602  -2.005  0.00  0.00    -0.077 A 
ATOM     67  H29 MOV d   1       8.661  -7.413  -0.218  0.00  0.00     0.088 H 
ATOM     68  C27 MOV d   1       7.719  -9.162  -2.966  0.00  0.00    -0.050 A 
ATOM     69  H30 MOV d   1       9.622  -8.752  -2.064  0.00  0.00     0.083 H 
ATOM     70  C26 MOV d   1       6.343  -8.975  -2.901  0.00  0.00     0.081 A 
ATOM     71  H31 MOV d   1       8.146  -9.748  -3.772  0.00  0.00     0.087 H 
BRANCH  70  72
ATOM     72  O3  MOV d   1       5.556  -9.536  -3.856  0.00  0.00    -0.360 OA
ATOM     73  H32 MOV d   1       4.647  -9.323  -3.681  0.00  0.00     0.217 HD
ENDBRANCH  70  72
ENDBRANCH  12  62
TORSDOF 11
