REMARK  4 active torsions:
REMARK  status: ('A' for Active; 'I' for Inactive)
REMARK    1  A    between atoms: C10_1  and  C11_2 
REMARK       I    between atoms: N09_12  and  C10_1 
REMARK    2  A    between atoms: N08_13  and  N09_12 
REMARK    3  A    between atoms: S07_14  and  N08_13 
REMARK    4  A    between atoms: C06_17  and  S07_14 
ROOT
ATOM      1  S07 MQJ d   1      -3.216   7.918 -19.253  0.00  0.00     0.276 S 
ATOM      2  O17 MQJ d   1      -4.592   7.587 -19.621  0.00  0.00    -0.199 OA
ATOM      3  O18 MQJ d   1      -2.490   6.844 -18.548  0.00  0.00    -0.199 OA
ENDROOT
BRANCH   1   4
ATOM      4  N08 MQJ d   1      -2.999   9.441 -18.322  0.00  0.00    -0.220 N 
ATOM      5  H8  MQJ d   1      -2.271   9.558 -17.647  0.00  0.00     0.200 HD
BRANCH   4   6
ATOM      6  N09 MQJ d   1      -3.937  10.466 -18.615  0.00  0.00    -0.256 N 
ATOM      7  C10 MQJ d   1      -5.113  10.622 -17.855  0.00  0.00     0.273 C 
ATOM      8  O19 MQJ d   1      -5.399   9.830 -16.918  0.00  0.00    -0.266 OA
ATOM      9  H7  MQJ d   1      -3.759  11.090 -19.376  0.00  0.00     0.191 HD
BRANCH   7  10
ATOM     10  C11 MQJ d   1      -5.891  11.756 -18.265  0.00  0.00     0.072 A 
ATOM     11  C13 MQJ d   1      -6.124  12.140 -19.665  0.00  0.00     0.132 A 
ATOM     12  C12 MQJ d   1      -6.868  13.232 -20.114  0.00  0.00    -0.045 A 
ATOM     13  F20 MQJ d   1      -5.608  11.375 -20.694  0.00  0.00    -0.205 F 
ATOM     14  C16 MQJ d   1      -7.437  14.024 -19.119  0.00  0.00    -0.080 A 
ATOM     15  H1  MQJ d   1      -6.995  13.450 -21.168  0.00  0.00     0.088 H 
ATOM     16  C15 MQJ d   1      -7.242  13.670 -17.729  0.00  0.00    -0.082 A 
ATOM     17  H4  MQJ d   1      -8.021  14.898 -19.384  0.00  0.00     0.083 H 
ATOM     18  C14 MQJ d   1      -6.490  12.565 -17.272  0.00  0.00    -0.065 A 
ATOM     19  H3  MQJ d   1      -7.709  14.301 -16.982  0.00  0.00     0.083 H 
ATOM     20  H2  MQJ d   1      -6.378  12.349 -16.216  0.00  0.00     0.085 H 
ENDBRANCH   7  10
ENDBRANCH   4   6
ENDBRANCH   1   4
BRANCH   1  21
ATOM     21  C06 MQJ d   1      -2.427   8.090 -20.897  0.00  0.00     0.082 A 
ATOM     22  C01 MQJ d   1      -1.404   7.189 -21.276  0.00  0.00    -0.050 A 
ATOM     23  C02 MQJ d   1      -0.865   7.402 -22.570  0.00  0.00    -0.025 A 
ATOM     24  H9  MQJ d   1      -1.058   6.394 -20.625  0.00  0.00     0.087 H 
ATOM     25  C21 MQJ d   1       0.111   6.499 -23.014  0.00  0.00    -0.072 A 
ATOM     26  C03 MQJ d   1      -1.386   8.422 -23.402  0.00  0.00    -0.026 A 
ATOM     27  C22 MQJ d   1       0.669   6.707 -24.280  0.00  0.00    -0.082 A 
ATOM     28  H5  MQJ d   1       0.424   5.665 -22.396  0.00  0.00     0.084 H 
ATOM     29  C23 MQJ d   1       0.166   7.705 -25.098  0.00  0.00    -0.082 A 
ATOM     30  H6  MQJ d   1       1.492   6.089 -24.620  0.00  0.00     0.083 H 
ATOM     31  C24 MQJ d   1      -0.880   8.586 -24.710  0.00  0.00    -0.072 A 
ATOM     32  H10 MQJ d   1       0.593   7.821 -26.088  0.00  0.00     0.083 H 
ATOM     33  H11 MQJ d   1      -1.268   9.343 -25.382  0.00  0.00     0.084 H 
ATOM     34  C04 MQJ d   1      -2.425   9.290 -22.977  0.00  0.00    -0.071 A 
ATOM     35  C05 MQJ d   1      -2.909   9.111 -21.705  0.00  0.00    -0.059 A 
ATOM     36  H12 MQJ d   1      -2.820  10.061 -23.629  0.00  0.00     0.084 H 
ATOM     37  H13 MQJ d   1      -3.677   9.775 -21.326  0.00  0.00     0.085 H 
ENDBRANCH   1  21
TORSDOF 4
