REMARK  5 active torsions:
REMARK  status: ('A' for Active; 'I' for Inactive)
REMARK    1  A    between atoms: C11_2  and  C10_1 
REMARK       I    between atoms: C10_1  and  N09_15 
REMARK    2  A    between atoms: C20_8  and  C12_3 
REMARK    3  A    between atoms: N09_15  and  N08_16 
REMARK    4  A    between atoms: N08_16  and  S07_17 
REMARK    5  A    between atoms: S07_17  and  C06_20 
ROOT
ATOM      1  C11 ML7 d   1       6.000  11.863  18.196  0.00  0.00     0.034 A 
ATOM      2  C12 ML7 d   1       7.262  13.820  17.546  0.00  0.00    -0.025 A 
ATOM      3  C13 ML7 d   1       6.458  12.718  17.215  0.00  0.00    -0.057 A 
ATOM      4  C14 ML7 d   1       6.202  12.123  19.591  0.00  0.00    -0.068 A 
ATOM      5  C15 ML7 d   1       7.024  13.220  19.935  0.00  0.00    -0.081 A 
ATOM      6  C16 ML7 d   1       7.576  14.062  18.930  0.00  0.00    -0.072 A 
ATOM      7  H1  ML7 d   1       6.195  12.537  16.179  0.00  0.00     0.086 H 
ATOM      8  H2  ML7 d   1       5.742  11.503  20.352  0.00  0.00     0.085 H 
ATOM      9  H3  ML7 d   1       7.237  13.422  20.979  0.00  0.00     0.083 H 
ATOM     10  H4  ML7 d   1       8.230  14.882  19.205  0.00  0.00     0.084 H 
ENDROOT
BRANCH   1  11
ATOM     11  C10 ML7 d   1       5.186  10.785  17.855  0.00  0.00     0.270 C 
ATOM     12  O19 ML7 d   1       5.420  10.085  16.896  0.00  0.00    -0.266 OA
ATOM     13  N09 ML7 d   1       4.100  10.581  18.623  0.00  0.00    -0.256 N 
ATOM     14  H10 ML7 d   1       3.949  11.143  19.436  0.00  0.00     0.191 HD
BRANCH  13  15
ATOM     15  N08 ML7 d   1       3.083   9.472  18.243  0.00  0.00    -0.220 N 
ATOM     16  H11 ML7 d   1       2.419   9.556  17.500  0.00  0.00     0.200 HD
BRANCH  15  17
ATOM     17  S07 ML7 d   1       3.234   8.014  19.295  0.00  0.00     0.276 S 
ATOM     18  O17 ML7 d   1       2.419   6.918  18.818  0.00  0.00    -0.199 OA
ATOM     19  O18 ML7 d   1       4.668   7.590  19.653  0.00  0.00    -0.199 OA
BRANCH  17  20
ATOM     20  C06 ML7 d   1       2.583   8.460  20.964  0.00  0.00     0.081 C 
ATOM     21  C01 ML7 d   1       3.219   9.463  21.710  0.00  0.00    -0.060 C 
ATOM     22  C02 ML7 d   1       2.703   9.700  23.016  0.00  0.00    -0.082 C 
ATOM     23  H12 ML7 d   1       4.056  10.026  21.315  0.00  0.00     0.085 H 
ATOM     24  C03 ML7 d   1       1.517   9.047  23.382  0.00  0.00    -0.083 C 
ATOM     25  H13 ML7 d   1       3.211  10.364  23.706  0.00  0.00     0.083 H 
ATOM     26  C04 ML7 d   1       0.893   8.089  22.573  0.00  0.00    -0.082 C 
ATOM     27  H14 ML7 d   1       1.063   9.295  24.334  0.00  0.00     0.083 H 
ATOM     28  C05 ML7 d   1       1.468   7.767  21.310  0.00  0.00    -0.060 C 
ATOM     29  H15 ML7 d   1      -0.016   7.599  22.904  0.00  0.00     0.083 H 
ATOM     30  H16 ML7 d   1       1.039   7.011  20.662  0.00  0.00     0.085 H 
ENDBRANCH  17  20
ENDBRANCH  15  17
ENDBRANCH  13  15
ENDBRANCH   1  11
BRANCH   2  31
ATOM     31  C20 ML7 d   1       7.749  14.702  16.540  0.00  0.00    -0.026 A 
ATOM     32  C23 ML7 d   1       8.146  14.270  15.269  0.00  0.00    -0.072 A 
ATOM     33  C22 ML7 d   1       8.647  15.150  14.257  0.00  0.00    -0.082 A 
ATOM     34  H7  ML7 d   1       8.070  13.213  15.039  0.00  0.00     0.084 H 
ATOM     35  C21 ML7 d   1       8.802  16.544  14.550  0.00  0.00    -0.083 A 
ATOM     36  H6  ML7 d   1       8.907  14.765  13.277  0.00  0.00     0.083 H 
ATOM     37  C25 ML7 d   1       8.375  16.931  15.832  0.00  0.00    -0.082 A 
ATOM     38  H5  ML7 d   1       9.217  17.247  13.837  0.00  0.00     0.083 H 
ATOM     39  C24 ML7 d   1       7.933  16.036  16.838  0.00  0.00    -0.072 A 
ATOM     40  H8  ML7 d   1       8.384  17.989  16.068  0.00  0.00     0.083 H 
ATOM     41  H9  ML7 d   1       7.740  16.399  17.841  0.00  0.00     0.084 H 
ENDBRANCH   2  31
TORSDOF 5
