REMARK  5 active torsions:
REMARK  status: ('A' for Active; 'I' for Inactive)
REMARK    1  A    between atoms: S13_20  and  C16_1 
REMARK    2  A    between atoms: C02_9  and  C01_8 
REMARK    3  A    between atoms: C09_16  and  C05_12 
REMARK       I    between atoms: N11_18  and  C09_16 
REMARK    4  A    between atoms: N12_19  and  N11_18 
REMARK    5  A    between atoms: N12_19  and  S13_20 
ROOT
ATOM      1  N12 MLS d   1       3.358  10.078  18.693  0.00  0.00    -0.220 N 
ATOM      2  H12 MLS d   1       2.616  10.144  18.026  0.00  0.00     0.200 HD
ENDROOT
BRANCH   1   3
ATOM      3  N11 MLS d   1       4.215  11.093  18.958  0.00  0.00    -0.256 N 
ATOM      4  C09 MLS d   1       5.323  11.419  18.105  0.00  0.00     0.273 C 
ATOM      5  O10 MLS d   1       5.565  10.795  17.086  0.00  0.00    -0.266 OA
ATOM      6  H11 MLS d   1       4.070  11.639  19.783  0.00  0.00     0.191 HD
BRANCH   4   7
ATOM      7  C05 MLS d   1       6.170  12.588  18.473  0.00  0.00     0.072 A 
ATOM      8  C03 MLS d   1       6.377  12.939  19.802  0.00  0.00     0.138 A 
ATOM      9  C02 MLS d   1       7.129  14.048  20.111  0.00  0.00    -0.022 A 
ATOM     10  F04 MLS d   1       5.858  12.230  20.803  0.00  0.00    -0.204 F 
ATOM     11  C08 MLS d   1       7.697  14.812  19.105  0.00  0.00    -0.074 A 
ATOM     12  C07 MLS d   1       7.478  14.474  17.775  0.00  0.00    -0.081 A 
ATOM     13  H10 MLS d   1       8.310  15.671  19.354  0.00  0.00     0.084 H 
ATOM     14  C06 MLS d   1       6.719  13.357  17.460  0.00  0.00    -0.065 A 
ATOM     15  H9  MLS d   1       7.900  15.083  16.984  0.00  0.00     0.083 H 
ATOM     16  H8  MLS d   1       6.556  13.086  16.423  0.00  0.00     0.085 H 
BRANCH   9  17
ATOM     17  C01 MLS d   1       7.342  14.379  21.549  0.00  0.00    -0.048 C 
ATOM     18  H5  MLS d   1       7.959  15.286  21.629  0.00  0.00     0.033 H 
ATOM     19  H6  MLS d   1       7.855  13.542  22.046  0.00  0.00     0.033 H 
ATOM     20  H7  MLS d   1       6.370  14.553  22.033  0.00  0.00     0.033 H 
ENDBRANCH   9  17
ENDBRANCH   4   7
ENDBRANCH   1   3
BRANCH   1  21
ATOM     21  S13 MLS d   1       3.658   8.737  19.573  0.00  0.00     0.276 S 
ATOM     22  O14 MLS d   1       5.062   8.528  19.783  0.00  0.00    -0.199 OA
ATOM     23  O15 MLS d   1       3.085   7.608  18.920  0.00  0.00    -0.199 OA
BRANCH  21  24
ATOM     24  C16 MLS d   1       2.892   8.851  21.157  0.00  0.00     0.082 A 
ATOM     25  C17 MLS d   1       1.867   7.976  21.508  0.00  0.00    -0.050 A 
ATOM     26  C18 MLS d   1       1.248   8.072  22.790  0.00  0.00    -0.025 A 
ATOM     27  H1  MLS d   1       1.538   7.219  20.805  0.00  0.00     0.087 H 
ATOM     28  C19 MLS d   1       1.676   9.020  23.675  0.00  0.00    -0.026 A 
ATOM     29  C23 MLS d   1       0.187   7.189  23.147  0.00  0.00    -0.072 A 
ATOM     30  C20 MLS d   1       1.081   9.123  24.974  0.00  0.00    -0.072 A 
ATOM     31  C24 MLS d   1       2.733   9.903  23.308  0.00  0.00    -0.071 A 
ATOM     32  C21 MLS d   1       0.045   8.257  25.321  0.00  0.00    -0.082 A 
ATOM     33  H2  MLS d   1       1.433   9.867  25.680  0.00  0.00     0.084 H 
ATOM     34  C22 MLS d   1      -0.405   7.294  24.407  0.00  0.00    -0.082 A 
ATOM     35  H3  MLS d   1      -0.414   8.329  26.300  0.00  0.00     0.083 H 
ATOM     36  H4  MLS d   1      -1.216   6.628  24.680  0.00  0.00     0.083 H 
ATOM     37  C25 MLS d   1       3.333   9.815  22.052  0.00  0.00    -0.059 A 
ATOM     38  H14 MLS d   1       3.075  10.652  24.013  0.00  0.00     0.084 H 
ATOM     39  H15 MLS d   1       4.134  10.492  21.778  0.00  0.00     0.085 H 
ATOM     40  H13 MLS d   1      -0.158   6.440  22.444  0.00  0.00     0.084 H 
ENDBRANCH  21  24
ENDBRANCH   1  21
TORSDOF 5
