REMARK  5 active torsions:
REMARK  status: ('A' for Active; 'I' for Inactive)
REMARK    1  A    between atoms: C11_2  and  C10_1 
REMARK       I    between atoms: C10_1  and  N09_16 
REMARK    2  A    between atoms: C20_8  and  C12_3 
REMARK    3  A    between atoms: N09_16  and  N08_17 
REMARK    4  A    between atoms: N08_17  and  S07_18 
REMARK    5  A    between atoms: S07_18  and  C06_21 
ROOT
ATOM      1  C11 MLV d   1      -5.996 -11.926  18.272  0.00  0.00     0.073 A 
ATOM      2  C12 MLV d   1      -7.330 -13.873  17.562  0.00  0.00     0.014 A 
ATOM      3  C13 MLV d   1      -6.485 -12.769  17.315  0.00  0.00     0.143 A 
ATOM      4  C14 MLV d   1      -6.266 -12.154  19.674  0.00  0.00    -0.065 A 
ATOM      5  C15 MLV d   1      -7.106 -13.260  19.912  0.00  0.00    -0.081 A 
ATOM      6  C16 MLV d   1      -7.671 -14.135  18.937  0.00  0.00    -0.069 A 
ATOM      7  F26 MLV d   1      -6.155 -12.454  15.931  0.00  0.00    -0.204 F 
ATOM      8  H1  MLV d   1      -5.861 -11.534  20.466  0.00  0.00     0.085 H 
ATOM      9  H2  MLV d   1      -7.349 -13.469  20.948  0.00  0.00     0.083 H 
ATOM     10  H3  MLV d   1      -8.323 -14.955  19.216  0.00  0.00     0.085 H 
ENDROOT
BRANCH   1  11
ATOM     11  C10 MLV d   1      -5.188 -10.818  17.910  0.00  0.00     0.273 C 
ATOM     12  O19 MLV d   1      -5.514  -9.988  17.042  0.00  0.00    -0.266 OA
ATOM     13  N09 MLV d   1      -4.099 -10.664  18.686  0.00  0.00    -0.256 N 
ATOM     14  H9  MLV d   1      -3.930 -11.266  19.466  0.00  0.00     0.191 HD
BRANCH  13  15
ATOM     15  N08 MLV d   1      -3.173  -9.588  18.349  0.00  0.00    -0.220 N 
ATOM     16  H10 MLV d   1      -2.513  -9.649  17.600  0.00  0.00     0.200 HD
BRANCH  15  17
ATOM     17  S07 MLV d   1      -3.324  -8.179  19.378  0.00  0.00     0.276 S 
ATOM     18  O17 MLV d   1      -2.547  -7.088  18.847  0.00  0.00    -0.199 OA
ATOM     19  O18 MLV d   1      -4.753  -7.771  19.731  0.00  0.00    -0.199 OA
BRANCH  17  20
ATOM     20  C06 MLV d   1      -2.626  -8.557  21.027  0.00  0.00     0.081 A 
ATOM     21  C01 MLV d   1      -3.264  -9.519  21.802  0.00  0.00    -0.060 A 
ATOM     22  C02 MLV d   1      -2.763  -9.784  23.083  0.00  0.00    -0.082 A 
ATOM     23  H11 MLV d   1      -4.129 -10.052  21.424  0.00  0.00     0.085 H 
ATOM     24  C03 MLV d   1      -1.561  -9.141  23.412  0.00  0.00    -0.083 A 
ATOM     25  H12 MLV d   1      -3.272 -10.444  23.776  0.00  0.00     0.083 H 
ATOM     26  C04 MLV d   1      -0.943  -8.165  22.613  0.00  0.00    -0.082 A 
ATOM     27  H13 MLV d   1      -1.078  -9.415  24.343  0.00  0.00     0.083 H 
ATOM     28  C05 MLV d   1      -1.484  -7.834  21.346  0.00  0.00    -0.060 A 
ATOM     29  H14 MLV d   1      -0.050  -7.663  22.967  0.00  0.00     0.083 H 
ATOM     30  H15 MLV d   1      -1.049  -7.089  20.690  0.00  0.00     0.085 H 
ENDBRANCH  17  20
ENDBRANCH  15  17
ENDBRANCH  13  15
ENDBRANCH   1  11
BRANCH   2  31
ATOM     31  C20 MLV d   1      -7.790 -14.732  16.530  0.00  0.00    -0.023 A 
ATOM     32  C23 MLV d   1      -7.799 -16.122  16.722  0.00  0.00    -0.072 A 
ATOM     33  C22 MLV d   1      -8.154 -17.041  15.708  0.00  0.00    -0.082 A 
ATOM     34  H6  MLV d   1      -7.520 -16.510  17.695  0.00  0.00     0.084 H 
ATOM     35  C21 MLV d   1      -8.657 -16.545  14.486  0.00  0.00    -0.083 A 
ATOM     36  H5  MLV d   1      -8.042 -18.108  15.866  0.00  0.00     0.083 H 
ATOM     37  C25 MLV d   1      -8.694 -15.146  14.284  0.00  0.00    -0.082 A 
ATOM     38  H4  MLV d   1      -9.008 -17.224  13.717  0.00  0.00     0.083 H 
ATOM     39  C24 MLV d   1      -8.220 -14.259  15.277  0.00  0.00    -0.072 A 
ATOM     40  H7  MLV d   1      -9.091 -14.749  13.357  0.00  0.00     0.083 H 
ATOM     41  H8  MLV d   1      -8.187 -13.196  15.069  0.00  0.00     0.084 H 
ENDBRANCH   2  31
TORSDOF 5
