REMARK  5 active torsions:
REMARK  status: ('A' for Active; 'I' for Inactive)
REMARK    1  A    between atoms: CAV_6  and  CAW_7 
REMARK    2  A    between atoms: CAY_13  and  CAT_14 
REMARK       I    between atoms: CAT_14  and  NAR_16 
REMARK    3  A    between atoms: NAR_16  and  NAS_17 
REMARK    4  A    between atoms: NAS_17  and  SAZ_18 
REMARK    5  A    between atoms: SAZ_18  and  CAX_21 
ROOT
ATOM      1  CAW MNJ d   1       7.363  13.911  17.672  0.00  0.00    -0.025 A 
ATOM      2  CAQ MNJ d   1       6.532  12.815  17.352  0.00  0.00    -0.054 A 
ATOM      3  CAP MNJ d   1       7.654  14.186  19.047  0.00  0.00    -0.069 A 
ATOM      4  CAO MNJ d   1       7.130  13.338  20.064  0.00  0.00    -0.044 A 
ATOM      5  CAU MNJ d   1       6.318  12.257  19.685  0.00  0.00     0.132 A 
ATOM      6  FAD MNJ d   1       5.782  11.419  20.634  0.00  0.00    -0.205 F 
ATOM      7  CAY MNJ d   1       6.020  11.959  18.325  0.00  0.00     0.073 A 
ATOM      8  H6  MNJ d   1       6.284  12.633  16.313  0.00  0.00     0.086 H 
ATOM      9  H7  MNJ d   1       8.271  15.037  19.313  0.00  0.00     0.085 H 
ATOM     10  H8  MNJ d   1       7.353  13.523  21.108  0.00  0.00     0.088 H 
ENDROOT
BRANCH   7  11
ATOM     11  CAT MNJ d   1       5.188  10.841  17.975  0.00  0.00     0.273 C 
ATOM     12  OAA MNJ d   1       5.493  10.100  17.020  0.00  0.00    -0.266 OA
ATOM     13  NAR MNJ d   1       4.034  10.646  18.726  0.00  0.00    -0.256 N 
ATOM     14  H9  MNJ d   1       3.855  11.200  19.539  0.00  0.00     0.191 HD
BRANCH  13  15
ATOM     15  NAS MNJ d   1       3.163   9.698  18.337  0.00  0.00    -0.220 N 
ATOM     16  H10 MNJ d   1       2.510   9.810  17.588  0.00  0.00     0.200 HD
BRANCH  15  17
ATOM     17  SAZ MNJ d   1       3.315   8.207  19.326  0.00  0.00     0.276 S 
ATOM     18  OAB MNJ d   1       4.747   7.836  19.679  0.00  0.00    -0.199 OA
ATOM     19  OAC MNJ d   1       2.655   7.055  18.684  0.00  0.00    -0.199 OA
BRANCH  17  20
ATOM     20  CAX MNJ d   1       2.605   8.519  20.978  0.00  0.00     0.081 A 
ATOM     21  CAM MNJ d   1       3.237   9.476  21.763  0.00  0.00    -0.060 A 
ATOM     22  CAI MNJ d   1       2.699   9.670  23.044  0.00  0.00    -0.082 A 
ATOM     23  H11 MNJ d   1       4.093  10.038  21.407  0.00  0.00     0.085 H 
ATOM     24  CAF MNJ d   1       1.569   8.949  23.487  0.00  0.00    -0.083 A 
ATOM     25  H12 MNJ d   1       3.162  10.390  23.709  0.00  0.00     0.083 H 
ATOM     26  CAJ MNJ d   1       0.963   7.970  22.670  0.00  0.00    -0.082 A 
ATOM     27  H13 MNJ d   1       1.160   9.150  24.471  0.00  0.00     0.083 H 
ATOM     28  CAN MNJ d   1       1.515   7.781  21.396  0.00  0.00    -0.060 A 
ATOM     29  H14 MNJ d   1       0.112   7.392  23.012  0.00  0.00     0.083 H 
ATOM     30  H15 MNJ d   1       1.080   7.045  20.729  0.00  0.00     0.085 H 
ENDBRANCH  17  20
ENDBRANCH  15  17
ENDBRANCH  13  15
ENDBRANCH   7  11
BRANCH   1  31
ATOM     31  CAV MNJ d   1       7.829  14.771  16.614  0.00  0.00    -0.026 A 
ATOM     32  CAK MNJ d   1       8.315  14.322  15.371  0.00  0.00    -0.072 A 
ATOM     33  CAG MNJ d   1       8.745  15.209  14.347  0.00  0.00    -0.082 A 
ATOM     34  H1  MNJ d   1       8.363  13.255  15.187  0.00  0.00     0.084 H 
ATOM     35  CAE MNJ d   1       8.627  16.596  14.547  0.00  0.00    -0.083 A 
ATOM     36  H2  MNJ d   1       9.159  14.821  13.423  0.00  0.00     0.083 H 
ATOM     37  CAH MNJ d   1       8.096  17.130  15.753  0.00  0.00    -0.082 A 
ATOM     38  H3  MNJ d   1       8.948  17.273  13.764  0.00  0.00     0.083 H 
ATOM     39  CAL MNJ d   1       7.755  16.221  16.773  0.00  0.00    -0.072 A 
ATOM     40  H4  MNJ d   1       7.959  18.198  15.883  0.00  0.00     0.083 H 
ATOM     41  H5  MNJ d   1       7.420  16.618  17.725  0.00  0.00     0.084 H 
ENDBRANCH   1  31
TORSDOF 5
