REMARK WARNING: 32 MAX_TORS EXCEEDED!!!
REMARK  41 active torsions:
REMARK  status: ('A' for Active; 'I' for Inactive)
REMARK    1  A    between atoms: N_1  and  CA_2 
REMARK    2  A    between atoms: CA_2  and  C_3 
REMARK       I    between atoms: C_3  and  N_5 
REMARK    3  A    between atoms: N_5  and  CA_6 
REMARK    4  A    between atoms: CA_6  and  C_7 
REMARK    5  A    between atoms: CA_6  and  CB_9 
REMARK       I    between atoms: C_7  and  N_16 
REMARK    6  A    between atoms: CB_9  and  CG_10 
REMARK    7  A    between atoms: CG_10  and  CD_11 
REMARK    8  A    between atoms: CD_11  and  NE_12 
REMARK       I    between atoms: NE_12  and  CZ_13 
REMARK       I    between atoms: CZ_13  and  NH1_14 
REMARK       I    between atoms: CZ_13  and  NH2_15 
REMARK    9  A    between atoms: N_16  and  CA_17 
REMARK   10  A    between atoms: CA_17  and  C_18 
REMARK   11  A    between atoms: CA_17  and  CB_20 
REMARK       I    between atoms: C_18  and  N_27 
REMARK   12  A    between atoms: CB_20  and  CG_21 
REMARK   13  A    between atoms: CG_21  and  CD_22 
REMARK   14  A    between atoms: CD_22  and  NE_23 
REMARK       I    between atoms: NE_23  and  CZ_24 
REMARK       I    between atoms: CZ_24  and  NH1_25 
REMARK   15  A    between atoms: N_27  and  CA_28 
REMARK   16  A    between atoms: CA_28  and  C_29 
REMARK       I    between atoms: C_29  and  N_31 
REMARK   17  A    between atoms: N_31  and  CA_32 
REMARK   18  A    between atoms: CA_32  and  C_33 
REMARK   19  A    between atoms: CA_32  and  CB_35 
REMARK       I    between atoms: C_33  and  N_39 
REMARK   20  A    between atoms: CB_35  and  CG_36 
REMARK   21  A    between atoms: N_39  and  CA_40 
REMARK   22  A    between atoms: CA_40  and  C_41 
REMARK   23  A    between atoms: CA_40  and  CB_43 
REMARK       I    between atoms: C_41  and  N_47 
REMARK   24  A    between atoms: CB_43  and  CG_44 
REMARK   25  A    between atoms: CG_44  and  CD1_45 
REMARK   26  A    between atoms: CG_44  and  CD2_46 
REMARK   27  A    between atoms: N_47  and  CA_48 
REMARK   28  A    between atoms: CA_48  and  C_49 
REMARK   29  A    between atoms: CA_48  and  CB_51 
REMARK       I    between atoms: C_49  and  N_52 
REMARK   30  A    between atoms: N_52  and  CA_53 
REMARK   31  A    between atoms: CA_53  and  C_54 
REMARK   32  A    between atoms: CA_53  and  CB_56 
REMARK       I    between atoms: C_54  and  N_59 
REMARK   33  A    between atoms: CB_56  and  OG1_57 
REMARK   34  A    between atoms: CB_56  and  CG2_58 
REMARK   35  A    between atoms: N_59  and  CA_60 
REMARK   36  A    between atoms: CA_60  and  C_61 
REMARK   37  A    between atoms: CA_60  and  CB_63 
REMARK       I    between atoms: C_61  and  N_67 
REMARK   38  A    between atoms: CB_63  and  CG1_64 
REMARK   39  A    between atoms: CB_63  and  CG2_65 
REMARK   40  A    between atoms: CG1_64  and  CD1_66 
REMARK   41  A    between atoms: N_67  and  CA_68 
ROOT
ATOM      1  CA  GLY d   1     -69.696  -9.297 -43.143  0.00  0.00     0.098 C 
ATOM      2  H36 GLY d   1     -69.833 -10.017 -42.323  0.00  0.00     0.088 H 
ENDROOT
BRANCH   1   3
ATOM      3  N   GLY d   1     -68.316  -9.388 -43.598  0.00  0.00    -0.346 N 
ATOM      4  C   GLY d   1     -67.692 -10.564 -43.695  0.00  0.00     0.236 C 
ATOM      5  O   GLY d   1     -68.237 -11.639 -43.428  0.00  0.00    -0.272 OA
ATOM      6  H35 GLY d   1     -67.825  -8.552 -43.843  0.00  0.00     0.163 HD
BRANCH   4   7
ATOM      7  CA  GLY d   1     -66.253 -10.511 -44.160  0.00  0.00     0.069 C 
ATOM      8  H33 GLY d   1     -66.090  -9.550 -44.669  0.00  0.00     0.078 H 
ATOM      9  H34 GLY d   1     -65.602 -10.573 -43.276  0.00  0.00     0.078 H 
BRANCH   7  10
ATOM     10  N   GLY d   1     -65.887 -11.575 -45.069  0.00  0.00    -0.351 N 
ATOM     11  C   GLY d   1     -65.768 -11.313 -46.366  0.00  0.00     0.240 C 
ATOM     12  O   GLY d   1     -66.024 -10.205 -46.841  0.00  0.00    -0.271 OA
ATOM     13  H32 GLY d   1     -65.725 -12.500 -44.724  0.00  0.00     0.163 HD
BRANCH  11  14
ATOM     14  CA  GLY d   1     -65.311 -12.469 -47.249  0.00  0.00     0.089 C 
ATOM     15  H20 GLY d   1     -66.030 -13.295 -47.148  0.00  0.00     0.087 H 
BRANCH  14  16
ATOM     16  N   GLY d   1     -65.299 -12.018 -48.630  0.00  0.00    -0.346 N 
ATOM     17  C   GLY d   1     -65.996 -12.612 -49.589  0.00  0.00     0.241 C 
ATOM     18  O   GLY d   1     -66.686 -13.619 -49.399  0.00  0.00    -0.271 OA
ATOM     19  H19 GLY d   1     -64.740 -11.224 -48.868  0.00  0.00     0.163 HD
BRANCH  17  20
ATOM     20  CA  GLY d   1     -65.904 -11.990 -50.975  0.00  0.00     0.089 C 
ATOM     21  H7  GLY d   1     -65.323 -11.058 -50.909  0.00  0.00     0.087 H 
BRANCH  20  22
ATOM     22  N   GLY d   1     -65.205 -12.918 -51.858  0.00  0.00    -0.346 N 
ATOM     23  C   GLY d   1     -64.122 -12.575 -52.551  0.00  0.00     0.243 C 
ATOM     24  O   GLY d   1     -63.647 -11.440 -52.528  0.00  0.00    -0.272 OA
ATOM     25  H6  GLY d   1     -65.555 -13.851 -51.946  0.00  0.00     0.163 HD
BRANCH  23  26
ATOM     26  CA  GLY d   1     -63.486 -13.666 -53.390  0.00  0.00     0.152 C 
ATOM     27  H4  GLY d   1     -63.944 -14.628 -53.117  0.00  0.00     0.090 H 
ATOM     28  H5  GLY d   1     -63.686 -13.453 -54.450  0.00  0.00     0.090 H 
BRANCH  26  29
ATOM     29  N   GLY d   1     -62.050 -13.769 -53.203  0.00  0.00    -0.071 N 
ATOM     30  H1  GLY d   1     -61.688 -14.508 -53.785  0.00  0.00     0.274 HD
ATOM     31  H2  GLY d   1     -61.851 -13.974 -52.236  0.00  0.00     0.274 HD
ATOM     32  H3  GLY d   1     -61.614 -12.896 -53.458  0.00  0.00     0.274 HD
ENDBRANCH  26  29
ENDBRANCH  23  26
ENDBRANCH  20  22
BRANCH  20  33
ATOM     33  CB  GLY d   1     -67.293 -11.654 -51.515  0.00  0.00    -0.036 C 
ATOM     34  H8  GLY d   1     -67.841 -11.098 -50.740  0.00  0.00     0.036 H 
ATOM     35  H9  GLY d   1     -67.818 -12.596 -51.730  0.00  0.00     0.036 H 
BRANCH  33  36
ATOM     36  CG  GLY d   1     -67.276 -10.818 -52.779  0.00  0.00    -0.048 C 
ATOM     37  H10 GLY d   1     -66.746 -11.372 -53.568  0.00  0.00     0.035 H 
ATOM     38  H11 GLY d   1     -66.749  -9.874 -52.577  0.00  0.00     0.035 H 
BRANCH  36  39
ATOM     39  CD  GLY d   1     -68.685 -10.506 -53.255  0.00  0.00     0.009 C 
ATOM     40  H12 GLY d   1     -69.212  -9.949 -52.466  0.00  0.00     0.064 H 
ATOM     41  H13 GLY d   1     -69.212 -11.451 -53.452  0.00  0.00     0.064 H 
BRANCH  39  42
ATOM     42  NE  GLY d   1     -68.679  -9.705 -54.476  0.00  0.00    -0.227 N 
ATOM     43  CZ  GLY d   1     -69.770  -9.372 -55.157  0.00  0.00     0.665 C 
ATOM     44  NH1 GLY d   1     -70.960  -9.777 -54.742  0.00  0.00    -0.235 N 
ATOM     45  NH2 GLY d   1     -69.670  -8.639 -56.257  0.00  0.00    -0.235 N 
ATOM     46  H15 GLY d   1     -71.805  -9.518 -55.271  0.00  0.00     0.174 HD
ATOM     47  H16 GLY d   1     -71.041 -10.351 -53.890  0.00  0.00     0.174 HD
ATOM     48  H17 GLY d   1     -68.746  -8.322 -56.583  0.00  0.00     0.174 HD
ATOM     49  H18 GLY d   1     -70.517  -8.386 -56.786  0.00  0.00     0.174 HD
ATOM     50  H14 GLY d   1     -67.770  -9.377 -54.832  0.00  0.00     0.177 HD
ENDBRANCH  39  42
ENDBRANCH  36  39
ENDBRANCH  33  36
ENDBRANCH  20  33
ENDBRANCH  17  20
ENDBRANCH  14  16
BRANCH  14  51
ATOM     51  CB  GLY d   1     -63.926 -12.983 -46.843  0.00  0.00    -0.036 C 
ATOM     52  H21 GLY d   1     -64.054 -13.806 -46.124  0.00  0.00     0.036 H 
ATOM     53  H22 GLY d   1     -63.373 -12.161 -46.365  0.00  0.00     0.036 H 
BRANCH  51  54
ATOM     54  CG  GLY d   1     -63.112 -13.493 -48.025  0.00  0.00    -0.048 C 
ATOM     55  H23 GLY d   1     -62.696 -12.630 -48.565  0.00  0.00     0.035 H 
ATOM     56  H24 GLY d   1     -63.777 -14.058 -48.694  0.00  0.00     0.035 H 
BRANCH  54  57
ATOM     57  CD  GLY d   1     -61.971 -14.396 -47.597  0.00  0.00     0.009 C 
ATOM     58  H25 GLY d   1     -61.520 -14.841 -48.496  0.00  0.00     0.064 H 
ATOM     59  H26 GLY d   1     -62.376 -15.194 -46.957  0.00  0.00     0.064 H 
BRANCH  57  60
ATOM     60  NE  GLY d   1     -60.931 -13.688 -46.856  0.00  0.00    -0.227 N 
ATOM     61  CZ  GLY d   1     -59.889 -13.085 -47.419  0.00  0.00     0.665 C 
ATOM     62  NH1 GLY d   1     -59.745 -13.090 -48.736  0.00  0.00    -0.235 N 
ATOM     63  NH2 GLY d   1     -58.988 -12.474 -46.662  0.00  0.00    -0.235 N 
ATOM     64  H28 GLY d   1     -58.936 -12.621 -49.167  0.00  0.00     0.174 HD
ATOM     65  H29 GLY d   1     -60.442 -13.563 -49.328  0.00  0.00     0.174 HD
ATOM     66  H30 GLY d   1     -59.095 -12.467 -45.638  0.00  0.00     0.174 HD
ATOM     67  H31 GLY d   1     -58.181 -12.006 -47.098  0.00  0.00     0.174 HD
ATOM     68  H27 GLY d   1     -61.010 -13.654 -45.830  0.00  0.00     0.177 HD
ENDBRANCH  57  60
ENDBRANCH  54  57
ENDBRANCH  51  54
ENDBRANCH  14  51
ENDBRANCH  11  14
ENDBRANCH   7  10
ENDBRANCH   4   7
ENDBRANCH   1   3
BRANCH   1  69
ATOM     69  C   GLY d   1     -70.691  -9.642 -44.243  0.00  0.00     0.241 C 
ATOM     70  O   GLY d   1     -71.765 -10.180 -43.953  0.00  0.00    -0.271 OA
ATOM     71  N   GLY d   1     -70.357  -9.348 -45.498  0.00  0.00    -0.346 N 
ATOM     72  H39 GLY d   1     -69.468  -8.925 -45.672  0.00  0.00     0.163 HD
BRANCH  71  73
ATOM     73  CA  GLY d   1     -71.237  -9.619 -46.627  0.00  0.00     0.089 C 
ATOM     74  H40 GLY d   1     -72.272  -9.623 -46.254  0.00  0.00     0.087 H 
BRANCH  73  75
ATOM     75  C   GLY d   1     -70.968 -10.973 -47.274  0.00  0.00     0.241 C 
ATOM     76  O   GLY d   1     -71.488 -11.238 -48.362  0.00  0.00    -0.271 OA
ATOM     77  N   GLY d   1     -70.177 -11.833 -46.630  0.00  0.00    -0.346 N 
ATOM     78  H50 GLY d   1     -69.842 -11.607 -45.715  0.00  0.00     0.163 HD
BRANCH  77  79
ATOM     79  CA  GLY d   1     -69.796 -13.099 -47.246  0.00  0.00     0.086 C 
ATOM     80  H51 GLY d   1     -69.550 -12.904 -48.300  0.00  0.00     0.086 H 
BRANCH  79  81
ATOM     81  C   GLY d   1     -70.932 -14.115 -47.208  0.00  0.00     0.240 C 
ATOM     82  O   GLY d   1     -71.161 -14.828 -48.191  0.00  0.00    -0.271 OA
ATOM     83  N   GLY d   1     -71.649 -14.200 -46.085  0.00  0.00    -0.344 N 
ATOM     84  H55 GLY d   1     -71.455 -13.582 -45.323  0.00  0.00     0.163 HD
BRANCH  83  85
ATOM     85  CA  GLY d   1     -72.715 -15.191 -45.964  0.00  0.00     0.113 C 
ATOM     86  H56 GLY d   1     -72.280 -16.187 -46.136  0.00  0.00     0.091 H 
BRANCH  85  87
ATOM     87  C   GLY d   1     -73.807 -14.964 -47.003  0.00  0.00     0.243 C 
ATOM     88  O   GLY d   1     -74.307 -15.921 -47.606  0.00  0.00    -0.271 OA
ATOM     89  N   GLY d   1     -74.193 -13.709 -47.219  0.00  0.00    -0.346 N 
ATOM     90  H62 GLY d   1     -73.733 -12.972 -46.723  0.00  0.00     0.163 HD
BRANCH  89  91
ATOM     91  CA  GLY d   1     -75.263 -13.366 -48.152  0.00  0.00     0.092 C 
ATOM     92  H63 GLY d   1     -76.213 -13.701 -47.711  0.00  0.00     0.088 H 
BRANCH  91  93
ATOM     93  C   GLY d   1     -75.095 -14.074 -49.494  0.00  0.00     0.240 C 
ATOM     94  O   GLY d   1     -75.981 -14.808 -49.933  0.00  0.00    -0.271 OA
ATOM     95  N   GLY d   1     -73.956 -13.849 -50.142  0.00  0.00    -0.364 N 
ATOM     96  H73 GLY d   1     -73.276 -13.240 -49.734  0.00  0.00     0.161 HD
BRANCH  95  97
ATOM     97  CA  GLY d   1     -73.673 -14.468 -51.432  0.00  0.00    -0.018 C 
ATOM     98  H74 GLY d   1     -72.682 -14.146 -51.784  0.00  0.00     0.056 H 
ATOM     99  H75 GLY d   1     -74.438 -14.163 -52.161  0.00  0.00     0.056 H 
ATOM    100  H76 GLY d   1     -73.685 -15.563 -51.324  0.00  0.00     0.056 H 
ENDBRANCH  95  97
ENDBRANCH  91  93
BRANCH  91 101
ATOM    101  CB  GLY d   1     -75.342 -11.843 -48.356  0.00  0.00    -0.030 C 
ATOM    102  H64 GLY d   1     -74.393 -11.502 -48.796  0.00  0.00     0.043 H 
BRANCH 101 103
ATOM    103  CG1 GLY d   1     -75.533 -11.134 -47.014  0.00  0.00    -0.063 C 
ATOM    104  H65 GLY d   1     -75.678 -10.061 -47.206  0.00  0.00     0.033 H 
ATOM    105  H66 GLY d   1     -74.624 -11.280 -46.412  0.00  0.00     0.033 H 
BRANCH 103 106
ATOM    106  CD1 GLY d   1     -76.717 -11.641 -46.221  0.00  0.00    -0.076 C 
ATOM    107  H70 GLY d   1     -76.789 -11.086 -45.274  0.00  0.00     0.027 H 
ATOM    108  H71 GLY d   1     -76.585 -12.712 -46.009  0.00  0.00     0.027 H 
ATOM    109  H72 GLY d   1     -77.639 -11.493 -46.803  0.00  0.00     0.027 H 
ENDBRANCH 103 106
ENDBRANCH 101 103
BRANCH 101 110
ATOM    110  CG2 GLY d   1     -76.468 -11.491 -49.315  0.00  0.00    -0.071 C 
ATOM    111  H67 GLY d   1     -76.311 -12.011 -50.272  0.00  0.00     0.028 H 
ATOM    112  H68 GLY d   1     -76.478 -10.404 -49.486  0.00  0.00     0.028 H 
ATOM    113  H69 GLY d   1     -77.430 -11.803 -48.882  0.00  0.00     0.028 H 
ENDBRANCH 101 110
ENDBRANCH  91 101
ENDBRANCH  89  91
ENDBRANCH  85  87
BRANCH  85 114
ATOM    114  CB  GLY d   1     -73.308 -15.159 -44.554  0.00  0.00     0.060 C 
ATOM    115  H57 GLY d   1     -73.894 -16.076 -44.390  0.00  0.00     0.086 H 
BRANCH 114 116
ATOM    116  OG1 GLY d   1     -74.165 -14.018 -44.418  0.00  0.00    -0.393 OA
ATOM    117  H58 GLY d   1     -74.531 -14.001 -43.542  0.00  0.00     0.210 HD
ENDBRANCH 114 116
BRANCH 114 118
ATOM    118  CG2 GLY d   1     -72.201 -15.081 -43.513  0.00  0.00    -0.050 C 
ATOM    119  H59 GLY d   1     -72.645 -15.059 -42.507  0.00  0.00     0.031 H 
ATOM    120  H60 GLY d   1     -71.611 -14.167 -43.673  0.00  0.00     0.031 H 
ATOM    121  H61 GLY d   1     -71.547 -15.961 -43.606  0.00  0.00     0.031 H 
ENDBRANCH 114 118
ENDBRANCH  85 114
ENDBRANCH  83  85
ENDBRANCH  79  81
BRANCH  79 122
ATOM    122  CB  GLY d   1     -68.553 -13.664 -46.558  0.00  0.00    -0.049 C 
ATOM    123  H52 GLY d   1     -68.275 -14.618 -47.030  0.00  0.00     0.030 H 
ATOM    124  H53 GLY d   1     -68.768 -13.831 -45.492  0.00  0.00     0.030 H 
ATOM    125  H54 GLY d   1     -67.722 -12.950 -46.657  0.00  0.00     0.030 H 
ENDBRANCH  79 122
ENDBRANCH  77  79
ENDBRANCH  73  75
BRANCH  73 126
ATOM    126  CB  GLY d   1     -71.105  -8.510 -47.675  0.00  0.00    -0.035 C 
ATOM    127  H41 GLY d   1     -71.875  -8.683 -48.441  0.00  0.00     0.037 H 
ATOM    128  H42 GLY d   1     -70.108  -8.600 -48.130  0.00  0.00     0.037 H 
BRANCH 126 129
ATOM    129  CG  GLY d   1     -71.260  -7.072 -47.182  0.00  0.00    -0.059 C 
ATOM    130  H43 GLY d   1     -70.553  -6.911 -46.355  0.00  0.00     0.038 H 
BRANCH 129 131
ATOM    131  CD1 GLY d   1     -70.928  -6.088 -48.291  0.00  0.00    -0.073 C 
ATOM    132  H44 GLY d   1     -71.045  -5.060 -47.917  0.00  0.00     0.028 H 
ATOM    133  H45 GLY d   1     -71.609  -6.249 -49.140  0.00  0.00     0.028 H 
ATOM    134  H46 GLY d   1     -69.889  -6.242 -48.619  0.00  0.00     0.028 H 
ENDBRANCH 129 131
BRANCH 129 135
ATOM    135  CD2 GLY d   1     -72.667  -6.840 -46.660  0.00  0.00    -0.073 C 
ATOM    136  H47 GLY d   1     -72.885  -7.562 -45.859  0.00  0.00     0.028 H 
ATOM    137  H48 GLY d   1     -73.389  -6.972 -47.480  0.00  0.00     0.028 H 
ATOM    138  H49 GLY d   1     -72.747  -5.817 -46.263  0.00  0.00     0.028 H 
ENDBRANCH 129 135
ENDBRANCH 126 129
ENDBRANCH  73 126
ENDBRANCH  71  73
ENDBRANCH   1  69
BRANCH   1 139
ATOM    139  CB  GLY d   1     -69.973  -7.892 -42.607  0.00  0.00     0.043 C 
ATOM    140  H37 GLY d   1     -69.910  -7.178 -43.441  0.00  0.00     0.052 H 
ATOM    141  H38 GLY d   1     -69.209  -7.645 -41.855  0.00  0.00     0.052 H 
BRANCH 139 142
ATOM    142  CG  GLY d   1     -71.337  -7.772 -41.969  0.00  0.00     0.175 C 
ATOM    143  OD1 GLY d   1     -71.625  -8.546 -41.033  0.00  0.00    -0.648 OA
ATOM    144  OD2 GLY d   1     -72.119  -6.896 -42.395  0.00  0.00    -0.648 OA
ENDBRANCH 139 142
ENDBRANCH   1 139
TORSDOF 41
