REMARK WARNING: 32 MAX_TORS EXCEEDED!!!
REMARK  38 active torsions:
REMARK  status: ('A' for Active; 'I' for Inactive)
REMARK       I    between atoms: N_1  and  CN_2 
REMARK    1  A    between atoms: CA_4  and  N_1 
REMARK    2  A    between atoms: CA_4  and  CB_5 
REMARK    3  A    between atoms: C_9  and  CA_4 
REMARK    4  A    between atoms: CB_5  and  CG_6 
REMARK    5  A    between atoms: CG_6  and  SD_7 
REMARK    6  A    between atoms: SD_7  and  CE_8 
REMARK       I    between atoms: N_11  and  C_9 
REMARK    7  A    between atoms: CA_12  and  N_11 
REMARK    8  A    between atoms: C_13  and  CA_12 
REMARK    9  A    between atoms: CA_12  and  CB_15 
REMARK       I    between atoms: N_22  and  C_13 
REMARK   10  A    between atoms: CB_15  and  CG_16 
REMARK   11  A    between atoms: CG_16  and  CD_17 
REMARK   12  A    between atoms: CD_17  and  NE_18 
REMARK       I    between atoms: NE_18  and  CZ_19 
REMARK       I    between atoms: CZ_19  and  NH1_20 
REMARK   13  A    between atoms: CA_23  and  N_22 
REMARK   14  A    between atoms: C_24  and  CA_23 
REMARK   15  A    between atoms: CA_23  and  CB_26 
REMARK       I    between atoms: N_29  and  C_24 
REMARK   16  A    between atoms: CB_26  and  OG1_27 
REMARK   17  A    between atoms: CB_26  and  CG2_28 
REMARK   18  A    between atoms: CA_30  and  N_29 
REMARK   19  A    between atoms: C_31  and  CA_30 
REMARK       I    between atoms: N_33  and  C_31 
REMARK   20  A    between atoms: CA_34  and  N_33 
REMARK   21  A    between atoms: C_35  and  CA_34 
REMARK   22  A    between atoms: CA_34  and  CB_37 
REMARK       I    between atoms: N_41  and  C_35 
REMARK   23  A    between atoms: CB_37  and  CG_38 
REMARK       I    between atoms: CG_38  and  ND2_40 
REMARK   24  A    between atoms: CA_42  and  N_41 
REMARK   25  A    between atoms: C_43  and  CA_42 
REMARK   26  A    between atoms: CA_42  and  CB_45 
REMARK       I    between atoms: N_46  and  C_43 
REMARK   27  A    between atoms: CA_47  and  N_46 
REMARK   28  A    between atoms: C_48  and  CA_47 
REMARK   29  A    between atoms: CA_47  and  CB_50 
REMARK       I    between atoms: N3A_57  and  C_48 
REMARK   30  A    between atoms: CB_50  and  CG_51 
REMARK   31  A    between atoms: PA_55  and  N3A_57 
REMARK   32  A    between atoms: PA_55  and  O5'_58 
REMARK   33  A    between atoms: O5'_58  and  C5'_59 
REMARK   34  A    between atoms: C5'_59  and  C4'_60 
REMARK   35  A    between atoms: C3'_61  and  O3'_62 
REMARK   36  A    between atoms: C2'_63  and  O2'_64 
REMARK   37  A    between atoms: C1'_65  and  N9_67 
REMARK   38  A    between atoms: C6_75  and  N6_76 
ROOT
ATOM      1  CA  FME d   1     -16.730   4.773 -14.957  0.00  0.00     0.097 C 
ATOM      2  H35 FME d   1     -17.829   4.790 -14.985  0.00  0.00     0.088 H 
ENDROOT
BRANCH   1   3
ATOM      3  N   FME d   1     -16.295   5.936 -14.199  0.00  0.00    -0.346 N 
ATOM      4  C   FME d   1     -17.299   6.387 -13.300  0.00  0.00     0.236 C 
ATOM      5  O   FME d   1     -18.349   5.795 -13.159  0.00  0.00    -0.272 OA
ATOM      6  H34 FME d   1     -15.398   6.366 -14.299  0.00  0.00     0.163 HD
BRANCH   4   7
ATOM      7  CA  FME d   1     -16.869   7.561 -12.449  0.00  0.00     0.069 C 
ATOM      8  H32 FME d   1     -16.251   7.175 -11.625  0.00  0.00     0.078 H 
ATOM      9  H33 FME d   1     -16.265   8.232 -13.077  0.00  0.00     0.078 H 
BRANCH   7  10
ATOM     10  N   FME d   1     -17.923   8.321 -11.886  0.00  0.00    -0.350 N 
ATOM     11  C   FME d   1     -18.780   9.105 -12.745  0.00  0.00     0.243 C 
ATOM     12  O   FME d   1     -18.647   9.123 -13.964  0.00  0.00    -0.271 OA
ATOM     13  H31 FME d   1     -18.073   8.315 -10.897  0.00  0.00     0.163 HD
BRANCH  11  14
ATOM     14  CA  FME d   1     -19.856   9.872 -11.943  0.00  0.00     0.113 C 
ATOM     15  H25 FME d   1     -19.380  10.479 -11.159  0.00  0.00     0.091 H 
BRANCH  14  16
ATOM     16  N   FME d   1     -20.419  10.743 -12.930  0.00  0.00    -0.344 N 
ATOM     17  C   FME d   1     -20.422  12.191 -12.801  0.00  0.00     0.241 C 
ATOM     18  O   FME d   1     -20.109  12.701 -11.760  0.00  0.00    -0.271 OA
ATOM     19  H24 FME d   1     -20.829  10.336 -13.746  0.00  0.00     0.163 HD
BRANCH  17  20
ATOM     20  CA  FME d   1     -20.915  13.035 -13.953  0.00  0.00     0.089 C 
ATOM     21  H12 FME d   1     -20.055  13.598 -14.345  0.00  0.00     0.087 H 
BRANCH  20  22
ATOM     22  N   FME d   1     -21.445  12.158 -15.035  0.00  0.00    -0.346 N 
ATOM     23  C   FME d   1     -20.607  11.620 -16.103  0.00  0.00     0.241 C 
ATOM     24  O   FME d   1     -19.436  11.847 -16.111  0.00  0.00    -0.271 OA
ATOM     25  H11 FME d   1     -22.418  11.928 -15.029  0.00  0.00     0.163 HD
BRANCH  23  26
ATOM     26  CA  FME d   1     -21.296  10.669 -17.097  0.00  0.00     0.089 C 
ATOM     27  H3  FME d   1     -21.233   9.643 -16.705  0.00  0.00     0.087 H 
BRANCH  26  28
ATOM     28  N   FME d   1     -22.734  11.007 -17.237  0.00  0.00    -0.355 N 
ATOM     29  CN  FME d   1     -23.718  10.011 -16.872  0.00  0.00     0.169 C 
ATOM     30  O1  FME d   1     -23.378   8.949 -16.478  0.00  0.00    -0.284 OA
ATOM     31  H2  FME d   1     -24.779  10.241 -16.961  0.00  0.00     0.180 H 
ATOM     32  H1  FME d   1     -23.017  11.904 -17.576  0.00  0.00     0.162 HD
ENDBRANCH  26  28
BRANCH  26  33
ATOM     33  CB  FME d   1     -20.518  10.723 -18.425  0.00  0.00    -0.030 C 
ATOM     34  H4  FME d   1     -20.818   9.864 -19.043  0.00  0.00     0.037 H 
ATOM     35  H5  FME d   1     -19.442  10.659 -18.205  0.00  0.00     0.037 H 
BRANCH  33  36
ATOM     36  CG  FME d   1     -20.783  12.023 -19.222  0.00  0.00    -0.021 C 
ATOM     37  H6  FME d   1     -20.580  12.887 -18.572  0.00  0.00     0.049 H 
ATOM     38  H7  FME d   1     -21.837  12.040 -19.536  0.00  0.00     0.049 H 
BRANCH  36  39
ATOM     39  SD  FME d   1     -19.740  12.134 -20.679  0.00  0.00    -0.173 SA
BRANCH  39  40
ATOM     40  CE  FME d   1     -18.044  11.718 -20.108  0.00  0.00    -0.035 C 
ATOM     41  H8  FME d   1     -17.348  11.768 -20.959  0.00  0.00     0.041 H 
ATOM     42  H9  FME d   1     -18.038  10.701 -19.688  0.00  0.00     0.041 H 
ATOM     43  H10 FME d   1     -17.731  12.436 -19.336  0.00  0.00     0.041 H 
ENDBRANCH  39  40
ENDBRANCH  36  39
ENDBRANCH  33  36
ENDBRANCH  26  33
ENDBRANCH  23  26
ENDBRANCH  20  22
BRANCH  20  44
ATOM     44  CB  FME d   1     -21.994  14.040 -13.567  0.00  0.00    -0.036 C 
ATOM     45  H13 FME d   1     -21.705  14.610 -12.672  0.00  0.00     0.036 H 
ATOM     46  H14 FME d   1     -22.957  13.540 -13.388  0.00  0.00     0.036 H 
BRANCH  44  47
ATOM     47  CG  FME d   1     -22.063  14.973 -14.840  0.00  0.00    -0.048 C 
ATOM     48  H15 FME d   1     -22.385  14.333 -15.675  0.00  0.00     0.035 H 
ATOM     49  H16 FME d   1     -21.036  15.324 -15.022  0.00  0.00     0.035 H 
BRANCH  47  50
ATOM     50  CD  FME d   1     -22.954  16.214 -14.883  0.00  0.00     0.009 C 
ATOM     51  H17 FME d   1     -23.655  16.245 -14.036  0.00  0.00     0.064 H 
ATOM     52  H18 FME d   1     -23.515  16.283 -15.826  0.00  0.00     0.064 H 
BRANCH  50  53
ATOM     53  NE  FME d   1     -21.952  17.232 -14.783  0.00  0.00    -0.227 N 
ATOM     54  CZ  FME d   1     -21.626  18.314 -15.642  0.00  0.00     0.665 C 
ATOM     55  NH1 FME d   1     -20.508  19.070 -15.138  0.00  0.00    -0.235 N 
ATOM     56  NH2 FME d   1     -22.193  18.642 -16.756  0.00  0.00    -0.235 N 
ATOM     57  H20 FME d   1     -20.161  19.887 -15.661  0.00  0.00     0.174 HD
ATOM     58  H21 FME d   1     -20.056  18.794 -14.255  0.00  0.00     0.174 HD
ATOM     59  H22 FME d   1     -22.992  18.095 -17.108  0.00  0.00     0.174 HD
ATOM     60  H23 FME d   1     -21.846  19.450 -17.292  0.00  0.00     0.174 HD
ATOM     61  H19 FME d   1     -21.364  17.168 -13.939  0.00  0.00     0.177 HD
ENDBRANCH  50  53
ENDBRANCH  47  50
ENDBRANCH  44  47
ENDBRANCH  20  44
ENDBRANCH  17  20
ENDBRANCH  14  16
BRANCH  14  62
ATOM     62  CB  FME d   1     -20.817   8.922 -11.257  0.00  0.00     0.060 C 
ATOM     63  H26 FME d   1     -20.276   8.239 -10.586  0.00  0.00     0.086 H 
BRANCH  62  64
ATOM     64  OG1 FME d   1     -21.437   8.187 -12.261  0.00  0.00    -0.393 OA
ATOM     65  H27 FME d   1     -21.902   8.777 -12.843  0.00  0.00     0.210 HD
ENDBRANCH  62  64
BRANCH  62  66
ATOM     66  CG2 FME d   1     -21.792   9.788 -10.427  0.00  0.00    -0.050 C 
ATOM     67  H28 FME d   1     -22.511   9.136  -9.909  0.00  0.00     0.031 H 
ATOM     68  H29 FME d   1     -22.334  10.473 -11.095  0.00  0.00     0.031 H 
ATOM     69  H30 FME d   1     -21.225  10.370  -9.686  0.00  0.00     0.031 H 
ENDBRANCH  62  66
ENDBRANCH  14  62
ENDBRANCH  11  14
ENDBRANCH   7  10
ENDBRANCH   4   7
ENDBRANCH   1   3
BRANCH   1  70
ATOM     70  C   FME d   1     -16.319   3.423 -14.353  0.00  0.00     0.241 C 
ATOM     71  O   FME d   1     -15.544   3.252 -13.435  0.00  0.00    -0.271 OA
ATOM     72  N   FME d   1     -17.071   2.318 -14.939  0.00  0.00    -0.346 N 
ATOM     73  H40 FME d   1     -17.818   2.517 -15.574  0.00  0.00     0.163 HD
BRANCH  72  74
ATOM     74  CA  FME d   1     -16.762   0.954 -14.624  0.00  0.00     0.086 C 
ATOM     75  H41 FME d   1     -16.014   0.899 -13.820  0.00  0.00     0.086 H 
BRANCH  74  76
ATOM     76  C   FME d   1     -16.171   0.437 -15.929  0.00  0.00     0.240 C 
ATOM     77  O   FME d   1     -16.297   1.025 -16.964  0.00  0.00    -0.271 OA
ATOM     78  N   FME d   1     -15.468  -0.808 -15.931  0.00  0.00    -0.346 N 
ATOM     79  H45 FME d   1     -15.399  -1.350 -15.094  0.00  0.00     0.163 HD
BRANCH  78  80
ATOM     80  CA  FME d   1     -14.849  -1.282 -17.175  0.00  0.00     0.099 C 
ATOM     81  H46 FME d   1     -15.519  -1.020 -18.007  0.00  0.00     0.088 H 
BRANCH  80  82
ATOM     82  C   FME d   1     -14.567  -2.758 -17.243  0.00  0.00     0.250 C 
ATOM     83  O   FME d   1     -13.914  -3.247 -18.139  0.00  0.00    -0.271 OA
ATOM     84  N3A FME d   1     -15.203  -3.505 -16.211  0.00  0.00    -0.260 N 
ATOM     85  H49 FME d   1     -15.768  -3.015 -15.547  0.00  0.00     0.175 HD
BRANCH  84  86
ATOM     86  PA  FME d   1     -15.046  -5.189 -16.056  0.00  0.00     0.366 P 
ATOM     87  O1A FME d   1     -15.742  -5.500 -14.762  0.00  0.00    -0.629 OA
ATOM     88  O2A FME d   1     -15.561  -5.865 -17.319  0.00  0.00    -0.629 OA
BRANCH  86  89
ATOM     89  O5' FME d   1     -13.491  -5.498 -16.022  0.00  0.00    -0.293 OA
BRANCH  89  90
ATOM     90  C5' FME d   1     -12.751  -4.927 -14.900  0.00  0.00     0.058 C 
ATOM     91  H50 FME d   1     -13.358  -4.953 -13.983  0.00  0.00     0.079 H 
ATOM     92  H51 FME d   1     -12.460  -3.889 -15.118  0.00  0.00     0.079 H 
BRANCH  90  93
ATOM     93  C4' FME d   1     -11.496  -5.824 -14.747  0.00  0.00     0.089 C 
ATOM     94  C3' FME d   1     -11.932  -7.186 -14.108  0.00  0.00     0.091 C 
ATOM     95  C2' FME d   1     -11.457  -6.982 -12.607  0.00  0.00     0.105 C 
ATOM     96  H53 FME d   1     -13.028  -7.273 -14.125  0.00  0.00     0.091 H 
ATOM     97  C1' FME d   1     -10.410  -6.149 -12.679  0.00  0.00     0.139 C 
ATOM     98  H55 FME d   1     -12.265  -6.559 -11.992  0.00  0.00     0.093 H 
ATOM     99  O4' FME d   1     -10.693  -5.188 -13.953  0.00  0.00    -0.353 OA
ATOM    100  H57 FME d   1      -9.496  -6.744 -12.824  0.00  0.00     0.122 H 
ATOM    101  H52 FME d   1     -11.017  -6.000 -15.721  0.00  0.00     0.090 H 
BRANCH  94 102
ATOM    102  O3' FME d   1     -11.440  -8.273 -14.791  0.00  0.00    -0.390 OA
ATOM    103  H54 FME d   1     -10.491  -8.242 -14.792  0.00  0.00     0.210 HD
ENDBRANCH  94 102
BRANCH  95 104
ATOM    104  O2' FME d   1     -10.993  -8.267 -12.037  0.00  0.00    -0.388 OA
ATOM    105  H56 FME d   1     -10.265  -8.596 -12.552  0.00  0.00     0.210 HD
ENDBRANCH  95 104
BRANCH  97 106
ATOM    106  N9  FME d   1     -10.208  -5.247 -11.581  0.00  0.00    -0.294 N 
ATOM    107  C4  FME d   1      -9.038  -5.055 -10.911  0.00  0.00     0.167 A 
ATOM    108  C5  FME d   1      -9.261  -4.114  -9.970  0.00  0.00     0.149 A 
ATOM    109  N3  FME d   1      -7.826  -5.632 -11.051  0.00  0.00    -0.222 NA
ATOM    110  N7  FME d   1     -10.551  -3.716 -10.063  0.00  0.00    -0.236 NA
ATOM    111  C6  FME d   1      -8.207  -3.758  -9.155  0.00  0.00     0.155 A 
ATOM    112  C8  FME d   1     -11.100  -4.398 -11.049  0.00  0.00     0.071 A 
ATOM    113  H58 FME d   1     -12.130  -4.288 -11.384  0.00  0.00     0.144 H 
ATOM    114  N1  FME d   1      -7.050  -4.342  -9.319  0.00  0.00    -0.222 NA
ATOM    115  C2  FME d   1      -6.855  -5.259 -10.273  0.00  0.00     0.091 A 
ATOM    116  H59 FME d   1      -5.872  -5.698 -10.399  0.00  0.00     0.146 H 
BRANCH 111 117
ATOM    117  N6  FME d   1      -8.392  -2.766  -8.111  0.00  0.00    -0.382 N 
ATOM    118  H60 FME d   1      -7.602  -2.503  -7.505  0.00  0.00     0.157 HD
ATOM    119  H61 FME d   1      -9.313  -2.325  -7.977  0.00  0.00     0.157 HD
ENDBRANCH 111 117
ENDBRANCH  97 106
ENDBRANCH  90  93
ENDBRANCH  89  90
ENDBRANCH  86  89
ENDBRANCH  84  86
ENDBRANCH  80  82
BRANCH  80 120
ATOM    120  CB  FME d   1     -13.491  -0.568 -17.355  0.00  0.00     0.043 C 
ATOM    121  H47 FME d   1     -13.646   0.281 -18.037  0.00  0.00     0.052 H 
ATOM    122  H48 FME d   1     -12.793  -1.284 -17.813  0.00  0.00     0.052 H 
BRANCH 120 123
ATOM    123  CG  FME d   1     -12.839  -0.031 -16.083  0.00  0.00     0.175 C 
ATOM    124  OD1 FME d   1     -12.337  -0.966 -15.375  0.00  0.00    -0.648 OA
ATOM    125  OD2 FME d   1     -12.846   1.245 -15.845  0.00  0.00    -0.648 OA
ENDBRANCH 120 123
ENDBRANCH  80 120
ENDBRANCH  78  80
ENDBRANCH  74  76
BRANCH  74 126
ATOM    126  CB  FME d   1     -18.007   0.207 -14.179  0.00  0.00    -0.049 C 
ATOM    127  H42 FME d   1     -17.745  -0.835 -13.943  0.00  0.00     0.030 H 
ATOM    128  H43 FME d   1     -18.753   0.224 -14.987  0.00  0.00     0.030 H 
ATOM    129  H44 FME d   1     -18.425   0.691 -13.284  0.00  0.00     0.030 H 
ENDBRANCH  74 126
ENDBRANCH  72  74
ENDBRANCH   1  70
BRANCH   1 130
ATOM    130  CB  FME d   1     -16.239   4.904 -16.320  0.00  0.00     0.036 C 
ATOM    131  H36 FME d   1     -16.968   5.530 -16.856  0.00  0.00     0.051 H 
ATOM    132  H37 FME d   1     -16.238   3.892 -16.751  0.00  0.00     0.051 H 
BRANCH 130 133
ATOM    133  CG  FME d   1     -14.909   5.479 -16.596  0.00  0.00     0.217 C 
ATOM    134  OD1 FME d   1     -14.811   6.610 -16.877  0.00  0.00    -0.274 OA
ATOM    135  ND2 FME d   1     -13.852   4.581 -16.525  0.00  0.00    -0.370 N 
ATOM    136  H38 FME d   1     -12.918   4.893 -16.699  0.00  0.00     0.159 HD
ATOM    137  H39 FME d   1     -14.025   3.622 -16.300  0.00  0.00     0.159 HD
ENDBRANCH 130 133
ENDBRANCH   1 130
TORSDOF 38
