REMARK  9 active torsions:
REMARK  status: ('A' for Active; 'I' for Inactive)
REMARK    1  A    between atoms: C4_3  and  N7_24 
REMARK    2  A    between atoms: C16_26  and  C5_4 
REMARK    3  A    between atoms: C6_5  and  N8_23 
REMARK    4  A    between atoms: C9_22  and  C10_6 
REMARK    5  A    between atoms: C29_15  and  C31_16 
REMARK       I    between atoms: N13_18  and  C29_15 
REMARK    6  A    between atoms: C31_16  and  C32_17 
REMARK    7  A    between atoms: N8_23  and  C9_22 
REMARK    8  A    between atoms: O22_29  and  C19_27 
REMARK    9  A    between atoms: O22_29  and  C23_30 
ROOT
ATOM      1  N1  MZJ d   1      20.053   5.636   0.792  0.00  0.00    -0.224 NA
ATOM      2  N3  MZJ d   1      17.813   4.959   0.823  0.00  0.00    -0.224 NA
ATOM      3  C4  MZJ d   1      17.702   5.122   2.155  0.00  0.00     0.137 A 
ATOM      4  C5  MZJ d   1      18.802   5.565   2.884  0.00  0.00     0.065 A 
ATOM      5  C6  MZJ d   1      20.045   5.844   2.124  0.00  0.00     0.139 A 
ATOM      6  C2  MZJ d   1      18.953   5.204   0.170  0.00  0.00     0.091 A 
ATOM      7  H26 MZJ d   1      18.986   5.047  -0.902  0.00  0.00     0.146 H 
ENDROOT
BRANCH   5   8
ATOM      8  N8  MZJ d   1      21.191   6.288   2.689  0.00  0.00    -0.374 N 
ATOM      9  H23 MZJ d   1      21.269   6.410   3.709  0.00  0.00     0.161 HD
BRANCH   8  10
ATOM     10  C9  MZJ d   1      22.311   6.587   1.808  0.00  0.00    -0.003 C 
ATOM     11  H21 MZJ d   1      22.916   5.676   1.689  0.00  0.00     0.064 H 
ATOM     12  H22 MZJ d   1      21.915   6.894   0.829  0.00  0.00     0.064 H 
BRANCH  10  13
ATOM     13  C10 MZJ d   1      23.211   7.706   2.344  0.00  0.00    -0.036 C 
ATOM     14  C15 MZJ d   1      22.428   9.012   2.547  0.00  0.00    -0.045 C 
ATOM     15  C14 MZJ d   1      22.522  10.112   1.488  0.00  0.00    -0.002 C 
ATOM     16  H2  MZJ d   1      22.773   9.449   3.496  0.00  0.00     0.036 H 
ATOM     17  H3  MZJ d   1      21.366   8.739   2.634  0.00  0.00     0.036 H 
ATOM     18  N13 MZJ d   1      23.824  10.108   0.830  0.00  0.00    -0.352 N 
ATOM     19  H19 MZJ d   1      22.368  11.088   1.971  0.00  0.00     0.064 H 
ATOM     20  H20 MZJ d   1      21.739   9.950   0.733  0.00  0.00     0.064 H 
ATOM     21  C29 MZJ d   1      24.594  11.191   0.716  0.00  0.00     0.219 C 
ATOM     22  C12 MZJ d   1      24.192   8.823   0.279  0.00  0.00    -0.002 C 
ATOM     23  O30 MZJ d   1      25.668  11.195   0.130  0.00  0.00    -0.273 OA
ATOM     24  C11 MZJ d   1      24.415   7.858   1.420  0.00  0.00    -0.045 C 
ATOM     25  H15 MZJ d   1      25.116   8.922  -0.309  0.00  0.00     0.064 H 
ATOM     26  H16 MZJ d   1      23.384   8.452  -0.368  0.00  0.00     0.064 H 
ATOM     27  H17 MZJ d   1      24.654   6.871   0.997  0.00  0.00     0.036 H 
ATOM     28  H18 MZJ d   1      25.266   8.218   2.017  0.00  0.00     0.036 H 
ATOM     29  H1  MZJ d   1      23.586   7.397   3.331  0.00  0.00     0.042 H 
BRANCH  21  30
ATOM     30  C31 MZJ d   1      24.009  12.450   1.168  0.00  0.00     0.006 C 
ATOM     31  H10 MZJ d   1      24.359  12.641   2.193  0.00  0.00     0.046 H 
ATOM     32  H11 MZJ d   1      22.915  12.338   1.169  0.00  0.00     0.046 H 
BRANCH  30  33
ATOM     33  C32 MZJ d   1      24.342  13.602   0.358  0.00  0.00    -0.068 C 
ATOM     34  H12 MZJ d   1      23.858  14.497   0.776  0.00  0.00     0.028 H 
ATOM     35  H13 MZJ d   1      23.989  13.441  -0.671  0.00  0.00     0.028 H 
ATOM     36  H14 MZJ d   1      25.433  13.744   0.353  0.00  0.00     0.028 H 
ENDBRANCH  30  33
ENDBRANCH  21  30
ENDBRANCH  10  13
ENDBRANCH   8  10
ENDBRANCH   5   8
BRANCH   4  37
ATOM     37  C16 MZJ d   1      18.656   5.733   4.366  0.00  0.00    -0.018 A 
ATOM     38  C17 MZJ d   1      18.735   6.983   4.955  0.00  0.00    -0.069 A 
ATOM     39  C18 MZJ d   1      18.557   7.115   6.332  0.00  0.00    -0.049 A 
ATOM     40  H4  MZJ d   1      18.935   7.858   4.347  0.00  0.00     0.085 H 
ATOM     41  C19 MZJ d   1      18.275   6.007   7.115  0.00  0.00     0.076 A 
ATOM     42  H27 MZJ d   1      18.640   8.092   6.793  0.00  0.00     0.087 H 
ATOM     43  C20 MZJ d   1      18.209   4.753   6.533  0.00  0.00    -0.049 A 
ATOM     44  C21 MZJ d   1      18.383   4.622   5.159  0.00  0.00    -0.069 A 
ATOM     45  H5  MZJ d   1      18.023   3.878   7.145  0.00  0.00     0.087 H 
ATOM     46  H6  MZJ d   1      18.305   3.643   4.700  0.00  0.00     0.085 H 
BRANCH  41  47
ATOM     47  O22 MZJ d   1      18.102   6.147   8.473  0.00  0.00    -0.311 OA
BRANCH  47  48
ATOM     48  C23 MZJ d   1      16.929   6.860   8.981  0.00  0.00     0.076 A 
ATOM     49  C24 MZJ d   1      15.894   7.135   8.178  0.00  0.00    -0.050 A 
ATOM     50  C25 MZJ d   1      14.794   7.835   8.821  0.00  0.00    -0.080 A 
ATOM     51  H7  MZJ d   1      15.877   6.857   7.130  0.00  0.00     0.087 H 
ATOM     52  C26 MZJ d   1      14.940   8.135  10.035  0.00  0.00    -0.083 A 
ATOM     53  H29 MZJ d   1      13.889   8.087   8.280  0.00  0.00     0.083 H 
ATOM     54  C27 MZJ d   1      15.926   7.822  10.658  0.00  0.00    -0.080 A 
ATOM     55  H8  MZJ d   1      14.156   8.691  10.537  0.00  0.00     0.083 H 
ATOM     56  C28 MZJ d   1      16.864   7.222  10.194  0.00  0.00    -0.050 A 
ATOM     57  H28 MZJ d   1      15.971   8.099  11.705  0.00  0.00     0.083 H 
ATOM     58  H9  MZJ d   1      17.694   6.980  10.848  0.00  0.00     0.087 H 
ENDBRANCH  47  48
ENDBRANCH  41  47
ENDBRANCH   4  37
BRANCH   3  59
ATOM     59  N7  MZJ d   1      16.521   4.879   2.763  0.00  0.00    -0.383 N 
ATOM     60  H24 MZJ d   1      16.431   5.002   3.782  0.00  0.00     0.157 HD
ATOM     61  H25 MZJ d   1      15.710   4.570   2.208  0.00  0.00     0.157 HD
ENDBRANCH   3  59
TORSDOF 9
