REMARK  16 active torsions:
REMARK  status: ('A' for Active; 'I' for Inactive)
REMARK    1  A    between atoms: C2_2  and  N1_1 
REMARK    2  A    between atoms: S8_8  and  C5_5 
REMARK    3  A    between atoms: N11_11  and  S8_8 
REMARK    4  A    between atoms: N11_11  and  C12_12 
REMARK    5  A    between atoms: C16_16  and  N11_11 
REMARK    6  A    between atoms: C12_12  and  C13_13 
REMARK    7  A    between atoms: C13_13  and  C14_14 
REMARK    8  A    between atoms: C13_13  and  C15_15 
REMARK    9  A    between atoms: C17_17  and  C16_16 
REMARK   10  A    between atoms: C17_17  and  O18_18 
REMARK   11  A    between atoms: C19_19  and  C17_17 
REMARK   12  A    between atoms: C19_19  and  N20_20 
REMARK   13  A    between atoms: C32_32  and  C19_19 
REMARK       I    between atoms: N20_20  and  C21_21 
REMARK   14  A    between atoms: C21_21  and  O23_23 
REMARK   15  A    between atoms: O23_23  and  C24_24 
REMARK   16  A    between atoms: C38_38  and  C32_32 
ROOT
ATOM      1  C19 MOL d   1       5.839  -0.087  32.413  0.00  0.00     0.044 C 
ATOM      2  H20 MOL d   1       5.881   0.830  33.019  0.00  0.00     0.077 H 
ENDROOT
BRANCH   1   3
ATOM      3  C17 MOL d   1       5.444   0.254  30.976  0.00  0.00     0.071 C 
ATOM      4  H18 MOL d   1       4.400   0.601  30.966  0.00  0.00     0.088 H 
BRANCH   3   5
ATOM      5  C16 MOL d   1       6.360   1.382  30.409  0.00  0.00     0.031 C 
ATOM      6  H16 MOL d   1       7.415   1.119  30.577  0.00  0.00     0.069 H 
ATOM      7  H17 MOL d   1       6.178   1.497  29.330  0.00  0.00     0.069 H 
BRANCH   5   8
ATOM      8  N11 MOL d   1       6.036   2.701  31.130  0.00  0.00    -0.304 N 
BRANCH   8   9
ATOM      9  S8  MOL d   1       7.294   3.270  32.159  0.00  0.00     0.260 S 
ATOM     10  O9  MOL d   1       6.745   4.123  33.185  0.00  0.00    -0.200 OA
ATOM     11  O10 MOL d   1       7.955   2.133  32.855  0.00  0.00    -0.200 OA
BRANCH   9  12
ATOM     12  C5  MOL d   1       8.484   4.123  31.068  0.00  0.00     0.079 A 
ATOM     13  C4  MOL d   1       9.555   3.401  30.551  0.00  0.00    -0.058 A 
ATOM     14  C3  MOL d   1      10.443   4.016  29.712  0.00  0.00    -0.056 A 
ATOM     15  H4  MOL d   1       9.685   2.357  30.812  0.00  0.00     0.086 H 
ATOM     16  C2  MOL d   1      10.269   5.336  29.386  0.00  0.00     0.025 A 
ATOM     17  H3  MOL d   1      11.281   3.462  29.306  0.00  0.00     0.086 H 
ATOM     18  C7  MOL d   1       9.194   6.058  29.899  0.00  0.00    -0.056 A 
ATOM     19  C6  MOL d   1       8.291   5.430  30.750  0.00  0.00    -0.058 A 
ATOM     20  H6  MOL d   1       9.062   7.102  29.637  0.00  0.00     0.086 H 
ATOM     21  H5  MOL d   1       7.446   5.975  31.154  0.00  0.00     0.086 H 
BRANCH  16  22
ATOM     22  N1  MOL d   1      11.249   5.989  28.473  0.00  0.00    -0.399 N 
ATOM     23  H1  MOL d   1      12.042   5.449  28.097  0.00  0.00     0.156 HD
ATOM     24  H2  MOL d   1      11.134   6.980  28.218  0.00  0.00     0.156 HD
ENDBRANCH  16  22
ENDBRANCH   9  12
ENDBRANCH   8   9
BRANCH   8  25
ATOM     25  C12 MOL d   1       5.244   3.745  30.459  0.00  0.00     0.008 C 
ATOM     26  H7  MOL d   1       5.638   3.896  29.443  0.00  0.00     0.066 H 
ATOM     27  H8  MOL d   1       5.330   4.682  31.029  0.00  0.00     0.066 H 
BRANCH  25  28
ATOM     28  C13 MOL d   1       3.769   3.350  30.368  0.00  0.00    -0.045 C 
ATOM     29  H9  MOL d   1       3.716   2.330  29.959  0.00  0.00     0.041 H 
BRANCH  28  30
ATOM     30  C14 MOL d   1       3.027   4.320  29.381  0.00  0.00    -0.072 C 
ATOM     31  H10 MOL d   1       1.966   4.036  29.316  0.00  0.00     0.028 H 
ATOM     32  H11 MOL d   1       3.487   4.251  28.384  0.00  0.00     0.028 H 
ATOM     33  H12 MOL d   1       3.108   5.353  29.752  0.00  0.00     0.028 H 
ENDBRANCH  28  30
BRANCH  28  34
ATOM     34  C15 MOL d   1       3.072   3.342  31.737  0.00  0.00    -0.072 C 
ATOM     35  H13 MOL d   1       3.604   2.659  32.415  0.00  0.00     0.028 H 
ATOM     36  H14 MOL d   1       2.032   3.004  31.617  0.00  0.00     0.028 H 
ATOM     37  H15 MOL d   1       3.081   4.358  32.159  0.00  0.00     0.028 H 
ENDBRANCH  28  34
ENDBRANCH  25  28
ENDBRANCH   8  25
ENDBRANCH   5   8
ENDBRANCH   3   5
BRANCH   3  38
ATOM     38  O18 MOL d   1       5.557  -0.866  30.182  0.00  0.00    -0.392 OA
ATOM     39  H19 MOL d   1       5.289  -0.653  29.296  0.00  0.00     0.210 HD
ENDBRANCH   3  38
ENDBRANCH   1   3
BRANCH   1  40
ATOM     40  N20 MOL d   1       4.818  -0.999  32.884  0.00  0.00    -0.329 N 
ATOM     41  C21 MOL d   1       3.856  -0.721  33.928  0.00  0.00     0.361 C 
ATOM     42  O22 MOL d   1       3.820   0.346  34.495  0.00  0.00    -0.238 OA
ATOM     43  H21 MOL d   1       4.774  -1.899  32.450  0.00  0.00     0.165 HD
BRANCH  41  44
ATOM     44  O23 MOL d   1       3.003  -1.802  34.180  0.00  0.00    -0.296 OA
BRANCH  44  45
ATOM     45  C24 MOL d   1       2.255  -1.796  35.375  0.00  0.00     0.078 C 
ATOM     46  C25 MOL d   1       0.748  -2.381  34.955  0.00  0.00     0.048 C 
ATOM     47  O26 MOL d   1       0.970  -3.715  34.843  0.00  0.00    -0.358 OA
ATOM     48  H23 MOL d   1       0.408  -1.953  34.000  0.00  0.00     0.078 H 
ATOM     49  H24 MOL d   1       0.006  -2.166  35.738  0.00  0.00     0.078 H 
ATOM     50  C27 MOL d   1       2.055  -4.078  35.908  0.00  0.00     0.137 C 
ATOM     51  O28 MOL d   1       2.952  -4.783  35.376  0.00  0.00    -0.361 OA
ATOM     52  C31 MOL d   1       2.673  -2.662  36.296  0.00  0.00     0.023 C 
ATOM     53  H25 MOL d   1       1.620  -4.591  36.778  0.00  0.00     0.129 H 
ATOM     54  C29 MOL d   1       4.354  -3.994  35.562  0.00  0.00     0.023 C 
ATOM     55  C30 MOL d   1       4.143  -2.926  36.309  0.00  0.00    -0.035 C 
ATOM     56  H26 MOL d   1       4.739  -3.687  34.578  0.00  0.00     0.074 H 
ATOM     57  H27 MOL d   1       5.086  -4.651  36.054  0.00  0.00     0.074 H 
ATOM     58  H28 MOL d   1       4.685  -2.063  35.894  0.00  0.00     0.037 H 
ATOM     59  H29 MOL d   1       4.483  -3.113  37.338  0.00  0.00     0.037 H 
ATOM     60  H30 MOL d   1       2.341  -2.327  37.290  0.00  0.00     0.051 H 
ATOM     61  H22 MOL d   1       2.212  -0.779  35.791  0.00  0.00     0.088 H 
ENDBRANCH  44  45
ENDBRANCH  41  44
ENDBRANCH   1  40
BRANCH   1  62
ATOM     62  C32 MOL d   1       7.144  -0.856  32.543  0.00  0.00    -0.020 C 
ATOM     63  H31 MOL d   1       7.969  -0.205  32.217  0.00  0.00     0.043 H 
ATOM     64  H32 MOL d   1       7.096  -1.741  31.892  0.00  0.00     0.043 H 
BRANCH  62  65
ATOM     65  C38 MOL d   1       7.425  -1.319  33.979  0.00  0.00    -0.056 A 
ATOM     66  C33 MOL d   1       7.695  -0.387  34.957  0.00  0.00    -0.077 A 
ATOM     67  C34 MOL d   1       7.950  -0.803  36.275  0.00  0.00    -0.082 A 
ATOM     68  H33 MOL d   1       7.711   0.668  34.710  0.00  0.00     0.084 H 
ATOM     69  C35 MOL d   1       7.937  -2.167  36.597  0.00  0.00    -0.083 A 
ATOM     70  H34 MOL d   1       8.157  -0.068  37.044  0.00  0.00     0.083 H 
ATOM     71  C36 MOL d   1       7.666  -3.099  35.625  0.00  0.00    -0.082 A 
ATOM     72  H35 MOL d   1       8.141  -2.486  37.613  0.00  0.00     0.083 H 
ATOM     73  C37 MOL d   1       7.416  -2.690  34.309  0.00  0.00    -0.077 A 
ATOM     74  H36 MOL d   1       7.646  -4.153  35.877  0.00  0.00     0.083 H 
ATOM     75  H37 MOL d   1       7.215  -3.429  33.542  0.00  0.00     0.084 H 
ENDBRANCH  62  65
ENDBRANCH   1  62
TORSDOF 16
