REMARK  16 active torsions:
REMARK  status: ('A' for Active; 'I' for Inactive)
REMARK    1  A    between atoms: C2_2  and  N1_1 
REMARK    2  A    between atoms: S8_8  and  C5_5 
REMARK    3  A    between atoms: N11_11  and  S8_8 
REMARK    4  A    between atoms: N11_11  and  C12_12 
REMARK    5  A    between atoms: C16_16  and  N11_11 
REMARK    6  A    between atoms: C12_12  and  C13_13 
REMARK    7  A    between atoms: C13_13  and  C14_14 
REMARK    8  A    between atoms: C13_13  and  C15_15 
REMARK    9  A    between atoms: C17_17  and  C16_16 
REMARK   10  A    between atoms: C17_17  and  O18_18 
REMARK   11  A    between atoms: C19_19  and  C17_17 
REMARK   12  A    between atoms: C19_19  and  N20_20 
REMARK   13  A    between atoms: C32_32  and  C19_19 
REMARK       I    between atoms: N20_20  and  C21_21 
REMARK   14  A    between atoms: C21_21  and  O23_23 
REMARK   15  A    between atoms: O23_23  and  C24_24 
REMARK   16  A    between atoms: C38_38  and  C32_32 
ROOT
ATOM      1  C19 MOL d   1     -10.359 -15.757   7.164  0.00  0.00     0.044 C 
ATOM      2  H20 MOL d   1      -9.515 -15.080   7.359  0.00  0.00     0.077 H 
ENDROOT
BRANCH   1   3
ATOM      3  C17 MOL d   1      -9.972 -17.181   7.576  0.00  0.00     0.071 C 
ATOM      4  H18 MOL d   1      -9.097 -17.496   6.988  0.00  0.00     0.088 H 
BRANCH   3   5
ATOM      5  C16 MOL d   1      -9.612 -17.263   9.096  0.00  0.00     0.031 C 
ATOM      6  H16 MOL d   1     -10.450 -16.856   9.681  0.00  0.00     0.069 H 
ATOM      7  H17 MOL d   1      -9.454 -18.317   9.366  0.00  0.00     0.069 H 
BRANCH   5   8
ATOM      8  N11 MOL d   1      -8.330 -16.463   9.437  0.00  0.00    -0.304 N 
BRANCH   8   9
ATOM      9  S8  MOL d   1      -8.529 -14.983  10.326  0.00  0.00     0.260 S 
ATOM     10  O9  MOL d   1      -9.703 -14.222   9.942  0.00  0.00    -0.200 OA
ATOM     11  O10 MOL d   1      -7.462 -13.999  10.008  0.00  0.00    -0.200 OA
BRANCH   9  12
ATOM     12  C5  MOL d   1      -8.533 -15.420  12.111  0.00  0.00     0.079 A 
ATOM     13  C4  MOL d   1      -7.308 -15.553  12.765  0.00  0.00    -0.058 A 
ATOM     14  C3  MOL d   1      -7.273 -15.885  14.097  0.00  0.00    -0.056 A 
ATOM     15  H4  MOL d   1      -6.384 -15.394  12.222  0.00  0.00     0.086 H 
ATOM     16  C2  MOL d   1      -8.447 -16.095  14.783  0.00  0.00     0.025 A 
ATOM     17  H3  MOL d   1      -6.322 -15.982  14.607  0.00  0.00     0.086 H 
ATOM     18  C7  MOL d   1      -9.667 -15.970  14.136  0.00  0.00    -0.056 A 
ATOM     19  C6  MOL d   1      -9.702 -15.633  12.782  0.00  0.00    -0.058 A 
ATOM     20  H6  MOL d   1     -10.590 -16.133  14.680  0.00  0.00     0.086 H 
ATOM     21  H5  MOL d   1     -10.651 -15.541  12.267  0.00  0.00     0.086 H 
BRANCH  16  22
ATOM     22  N1  MOL d   1      -8.382 -16.454  16.227  0.00  0.00    -0.399 N 
ATOM     23  H1  MOL d   1      -7.469 -16.543  16.695  0.00  0.00     0.156 HD
ATOM     24  H2  MOL d   1      -9.250 -16.613  16.758  0.00  0.00     0.156 HD
ENDBRANCH  16  22
ENDBRANCH   9  12
ENDBRANCH   8   9
BRANCH   8  25
ATOM     25  C12 MOL d   1      -7.098 -17.215   9.774  0.00  0.00     0.008 C 
ATOM     26  H7  MOL d   1      -7.359 -18.013  10.484  0.00  0.00     0.066 H 
ATOM     27  H8  MOL d   1      -6.384 -16.523  10.246  0.00  0.00     0.066 H 
BRANCH  25  28
ATOM     28  C13 MOL d   1      -6.425 -17.851   8.552  0.00  0.00    -0.045 C 
ATOM     29  H9  MOL d   1      -7.133 -18.565   8.107  0.00  0.00     0.041 H 
BRANCH  28  30
ATOM     30  C14 MOL d   1      -5.155 -18.649   9.018  0.00  0.00    -0.072 C 
ATOM     31  H10 MOL d   1      -4.669 -19.107   8.144  0.00  0.00     0.028 H 
ATOM     32  H11 MOL d   1      -5.456 -19.436   9.725  0.00  0.00     0.028 H 
ATOM     33  H12 MOL d   1      -4.451 -17.962   9.511  0.00  0.00     0.028 H 
ENDBRANCH  28  30
BRANCH  28  34
ATOM     34  C15 MOL d   1      -6.075 -16.807   7.469  0.00  0.00    -0.072 C 
ATOM     35  H13 MOL d   1      -6.987 -16.270   7.169  0.00  0.00     0.028 H 
ATOM     36  H14 MOL d   1      -5.645 -17.316   6.594  0.00  0.00     0.028 H 
ATOM     37  H15 MOL d   1      -5.344 -16.091   7.873  0.00  0.00     0.028 H 
ENDBRANCH  28  34
ENDBRANCH  25  28
ENDBRANCH   8  25
ENDBRANCH   5   8
ENDBRANCH   3   5
BRANCH   3  38
ATOM     38  O18 MOL d   1     -11.033 -18.025   7.305  0.00  0.00    -0.392 OA
ATOM     39  H19 MOL d   1     -10.791 -18.917   7.525  0.00  0.00     0.210 HD
ENDBRANCH   3  38
ENDBRANCH   1   3
BRANCH   1  40
ATOM     40  N20 MOL d   1     -10.713 -15.745   5.753  0.00  0.00    -0.329 N 
ATOM     41  C21 MOL d   1      -9.829 -15.197   4.711  0.00  0.00     0.361 C 
ATOM     42  O22 MOL d   1      -8.860 -14.572   4.997  0.00  0.00    -0.238 OA
ATOM     43  H21 MOL d   1     -11.596 -16.126   5.479  0.00  0.00     0.165 HD
BRANCH  41  44
ATOM     44  O23 MOL d   1     -10.178 -15.443   3.381  0.00  0.00    -0.296 OA
BRANCH  44  45
ATOM     45  C24 MOL d   1      -9.586 -14.626   2.388  0.00  0.00     0.078 C 
ATOM     46  C25 MOL d   1      -8.992 -15.622   1.192  0.00  0.00     0.048 C 
ATOM     47  O26 MOL d   1     -10.054 -15.957   0.440  0.00  0.00    -0.358 OA
ATOM     48  H23 MOL d   1      -8.535 -16.520   1.632  0.00  0.00     0.078 H 
ATOM     49  H24 MOL d   1      -8.245 -15.090   0.585  0.00  0.00     0.078 H 
ATOM     50  C27 MOL d   1     -11.179 -14.901   0.775  0.00  0.00     0.137 C 
ATOM     51  O28 MOL d   1     -12.109 -15.407   1.447  0.00  0.00    -0.361 OA
ATOM     52  C31 MOL d   1     -10.501 -13.874   1.775  0.00  0.00     0.023 C 
ATOM     53  H25 MOL d   1     -11.558 -14.420  -0.139  0.00  0.00     0.129 H 
ATOM     54  C29 MOL d   1     -12.607 -14.260   2.499  0.00  0.00     0.023 C 
ATOM     55  C30 MOL d   1     -11.611 -13.414   2.665  0.00  0.00    -0.035 C 
ATOM     56  H26 MOL d   1     -12.871 -14.723   3.462  0.00  0.00     0.074 H 
ATOM     57  H27 MOL d   1     -13.483 -13.733   2.093  0.00  0.00     0.074 H 
ATOM     58  H28 MOL d   1     -11.281 -13.418   3.714  0.00  0.00     0.037 H 
ATOM     59  H29 MOL d   1     -11.926 -12.398   2.384  0.00  0.00     0.037 H 
ATOM     60  H30 MOL d   1     -10.034 -13.019   1.264  0.00  0.00     0.051 H 
ATOM     61  H22 MOL d   1      -8.794 -14.002   2.828  0.00  0.00     0.088 H 
ENDBRANCH  44  45
ENDBRANCH  41  44
ENDBRANCH   1  40
BRANCH   1  62
ATOM     62  C32 MOL d   1     -11.606 -15.264   7.891  0.00  0.00    -0.020 C 
ATOM     63  H31 MOL d   1     -11.353 -15.049   8.940  0.00  0.00     0.043 H 
ATOM     64  H32 MOL d   1     -12.380 -16.044   7.853  0.00  0.00     0.043 H 
BRANCH  62  65
ATOM     65  C38 MOL d   1     -12.139 -13.991   7.229  0.00  0.00    -0.056 A 
ATOM     66  C33 MOL d   1     -11.487 -12.797   7.419  0.00  0.00    -0.077 A 
ATOM     67  C34 MOL d   1     -11.971 -11.627   6.808  0.00  0.00    -0.082 A 
ATOM     68  H33 MOL d   1     -10.599 -12.757   8.040  0.00  0.00     0.084 H 
ATOM     69  C35 MOL d   1     -13.120 -11.677   6.000  0.00  0.00    -0.083 A 
ATOM     70  H34 MOL d   1     -11.457 -10.685   6.960  0.00  0.00     0.083 H 
ATOM     71  C36 MOL d   1     -13.773 -12.874   5.804  0.00  0.00    -0.082 A 
ATOM     72  H35 MOL d   1     -13.492 -10.773   5.531  0.00  0.00     0.083 H 
ATOM     73  C37 MOL d   1     -13.293 -14.041   6.411  0.00  0.00    -0.077 A 
ATOM     74  H36 MOL d   1     -14.659 -12.912   5.180  0.00  0.00     0.083 H 
ATOM     75  H37 MOL d   1     -13.806 -14.983   6.254  0.00  0.00     0.084 H 
ENDBRANCH  62  65
ENDBRANCH   1  62
TORSDOF 16
