REMARK  16 active torsions:
REMARK  status: ('A' for Active; 'I' for Inactive)
REMARK    1  A    between atoms: C2_2  and  N1_1 
REMARK    2  A    between atoms: S8_8  and  C5_5 
REMARK    3  A    between atoms: N11_11  and  S8_8 
REMARK    4  A    between atoms: N11_11  and  C12_12 
REMARK    5  A    between atoms: C16_16  and  N11_11 
REMARK    6  A    between atoms: C12_12  and  C13_13 
REMARK    7  A    between atoms: C13_13  and  C14_14 
REMARK    8  A    between atoms: C13_13  and  C15_15 
REMARK    9  A    between atoms: C17_17  and  C16_16 
REMARK   10  A    between atoms: C17_17  and  O18_18 
REMARK   11  A    between atoms: C19_19  and  C17_17 
REMARK   12  A    between atoms: C19_19  and  N20_20 
REMARK   13  A    between atoms: C32_32  and  C19_19 
REMARK       I    between atoms: N20_20  and  C21_21 
REMARK   14  A    between atoms: C21_21  and  O23_23 
REMARK   15  A    between atoms: O23_23  and  C24_24 
REMARK   16  A    between atoms: C38_38  and  C32_32 
ROOT
ATOM      1  C19 MOL d   1      19.936   0.112  16.691  0.00  0.00     0.044 C 
ATOM      2  H20 MOL d   1      19.997  -0.788  17.320  0.00  0.00     0.077 H 
ENDROOT
BRANCH   1   3
ATOM      3  C17 MOL d   1      20.300  -0.245  15.257  0.00  0.00     0.071 C 
ATOM      4  H18 MOL d   1      21.335  -0.616  15.231  0.00  0.00     0.088 H 
BRANCH   3   5
ATOM      5  C16 MOL d   1      19.349  -1.346  14.710  0.00  0.00     0.031 C 
ATOM      6  H16 MOL d   1      18.312  -1.082  14.965  0.00  0.00     0.069 H 
ATOM      7  H17 MOL d   1      19.456  -1.400  13.617  0.00  0.00     0.069 H 
BRANCH   5   8
ATOM      8  N11 MOL d   1      19.678  -2.728  15.315  0.00  0.00    -0.304 N 
BRANCH   8   9
ATOM      9  S8  MOL d   1      18.437  -3.378  16.332  0.00  0.00     0.260 S 
ATOM     10  O9  MOL d   1      17.774  -2.323  17.085  0.00  0.00    -0.200 OA
ATOM     11  O10 MOL d   1      18.959  -4.263  17.402  0.00  0.00    -0.200 OA
BRANCH   9  12
ATOM     12  C5  MOL d   1      17.231  -4.231  15.227  0.00  0.00     0.079 A 
ATOM     13  C4  MOL d   1      16.193  -3.481  14.660  0.00  0.00    -0.058 A 
ATOM     14  C3  MOL d   1      15.288  -4.079  13.822  0.00  0.00    -0.056 A 
ATOM     15  H4  MOL d   1      16.105  -2.424  14.885  0.00  0.00     0.086 H 
ATOM     16  C2  MOL d   1      15.406  -5.413  13.527  0.00  0.00     0.025 A 
ATOM     17  H3  MOL d   1      14.480  -3.498  13.393  0.00  0.00     0.086 H 
ATOM     18  C7  MOL d   1      16.434  -6.161  14.084  0.00  0.00    -0.056 A 
ATOM     19  C6  MOL d   1      17.354  -5.554  14.939  0.00  0.00    -0.058 A 
ATOM     20  H6  MOL d   1      16.522  -7.217  13.855  0.00  0.00     0.086 H 
ATOM     21  H5  MOL d   1      18.162  -6.133  15.371  0.00  0.00     0.086 H 
BRANCH  16  22
ATOM     22  N1  MOL d   1      14.412  -6.054  12.624  0.00  0.00    -0.399 N 
ATOM     23  H1  MOL d   1      13.652  -5.493  12.214  0.00  0.00     0.156 HD
ATOM     24  H2  MOL d   1      14.484  -7.059  12.409  0.00  0.00     0.156 HD
ENDBRANCH  16  22
ENDBRANCH   9  12
ENDBRANCH   8   9
BRANCH   8  25
ATOM     25  C12 MOL d   1      20.413  -3.711  14.500  0.00  0.00     0.008 C 
ATOM     26  H7  MOL d   1      20.000  -3.700  13.481  0.00  0.00     0.066 H 
ATOM     27  H8  MOL d   1      20.272  -4.708  14.942  0.00  0.00     0.066 H 
BRANCH  25  28
ATOM     28  C13 MOL d   1      21.915  -3.421  14.421  0.00  0.00    -0.045 C 
ATOM     29  H9  MOL d   1      22.037  -2.431  13.957  0.00  0.00     0.041 H 
BRANCH  28  30
ATOM     30  C14 MOL d   1      22.623  -4.474  13.499  0.00  0.00    -0.072 C 
ATOM     31  H10 MOL d   1      23.700  -4.254  13.451  0.00  0.00     0.028 H 
ATOM     32  H11 MOL d   1      22.193  -4.424  12.488  0.00  0.00     0.028 H 
ATOM     33  H12 MOL d   1      22.473  -5.482  13.912  0.00  0.00     0.028 H 
ENDBRANCH  28  30
BRANCH  28  34
ATOM     34  C15 MOL d   1      22.580  -3.363  15.807  0.00  0.00    -0.072 C 
ATOM     35  H13 MOL d   1      22.064  -2.618  16.430  0.00  0.00     0.028 H 
ATOM     36  H14 MOL d   1      23.637  -3.079  15.695  0.00  0.00     0.028 H 
ATOM     37  H15 MOL d   1      22.515  -4.351  16.287  0.00  0.00     0.028 H 
ENDBRANCH  28  34
ENDBRANCH  25  28
ENDBRANCH   8  25
ENDBRANCH   5   8
ENDBRANCH   3   5
BRANCH   3  38
ATOM     38  O18 MOL d   1      20.194   0.875  14.459  0.00  0.00    -0.392 OA
ATOM     39  H19 MOL d   1      20.439   0.652  13.569  0.00  0.00     0.210 HD
ENDBRANCH   3  38
ENDBRANCH   1   3
BRANCH   1  40
ATOM     40  N20 MOL d   1      20.894   1.121  17.134  0.00  0.00    -0.329 N 
ATOM     41  C21 MOL d   1      21.968   0.845  18.083  0.00  0.00     0.361 C 
ATOM     42  O22 MOL d   1      22.070  -0.234  18.589  0.00  0.00    -0.238 OA
ATOM     43  H21 MOL d   1      20.810   2.048  16.769  0.00  0.00     0.165 HD
BRANCH  41  44
ATOM     44  O23 MOL d   1      22.837   1.892  18.362  0.00  0.00    -0.296 OA
BRANCH  44  45
ATOM     45  C24 MOL d   1      23.556   1.827  19.573  0.00  0.00     0.078 C 
ATOM     46  C25 MOL d   1      25.081   2.428  19.230  0.00  0.00     0.048 C 
ATOM     47  O26 MOL d   1      24.884   3.765  19.167  0.00  0.00    -0.358 OA
ATOM     48  H23 MOL d   1      25.451   2.039  18.270  0.00  0.00     0.078 H 
ATOM     49  H24 MOL d   1      25.794   2.172  20.028  0.00  0.00     0.078 H 
ATOM     50  C27 MOL d   1      23.688   4.065  20.157  0.00  0.00     0.137 C 
ATOM     51  O28 MOL d   1      22.780   4.704  19.558  0.00  0.00    -0.361 OA
ATOM     52  C31 MOL d   1      23.095   2.636  20.514  0.00  0.00     0.023 C 
ATOM     53  H25 MOL d   1      24.030   4.608  21.051  0.00  0.00     0.129 H 
ATOM     54  C29 MOL d   1      21.378   3.902  19.773  0.00  0.00     0.023 C 
ATOM     55  C30 MOL d   1      21.616   2.838  20.501  0.00  0.00    -0.035 C 
ATOM     56  H26 MOL d   1      20.969   3.600  18.797  0.00  0.00     0.074 H 
ATOM     57  H27 MOL d   1      20.655   4.551  20.289  0.00  0.00     0.074 H 
ATOM     58  H28 MOL d   1      21.119   1.961  20.061  0.00  0.00     0.037 H 
ATOM     59  H29 MOL d   1      21.247   2.992  21.526  0.00  0.00     0.037 H 
ATOM     60  H30 MOL d   1      23.421   2.286  21.504  0.00  0.00     0.051 H 
ATOM     61  H22 MOL d   1      23.590   0.790  19.939  0.00  0.00     0.088 H 
ENDBRANCH  44  45
ENDBRANCH  41  44
ENDBRANCH   1  40
BRANCH   1  62
ATOM     62  C32 MOL d   1      18.554   0.734  16.824  0.00  0.00    -0.020 C 
ATOM     63  H31 MOL d   1      17.799  -0.020  16.555  0.00  0.00     0.043 H 
ATOM     64  H32 MOL d   1      18.482   1.588  16.134  0.00  0.00     0.043 H 
BRANCH  62  65
ATOM     65  C38 MOL d   1      18.275   1.225  18.245  0.00  0.00    -0.056 A 
ATOM     66  C33 MOL d   1      17.958   0.327  19.238  0.00  0.00    -0.077 A 
ATOM     67  C34 MOL d   1      17.697   0.782  20.538  0.00  0.00    -0.082 A 
ATOM     68  H33 MOL d   1      17.910  -0.733  19.015  0.00  0.00     0.084 H 
ATOM     69  C35 MOL d   1      17.755   2.152  20.832  0.00  0.00    -0.083 A 
ATOM     70  H34 MOL d   1      17.449   0.072  21.319  0.00  0.00     0.083 H 
ATOM     71  C36 MOL d   1      18.058   3.050  19.838  0.00  0.00    -0.082 A 
ATOM     72  H35 MOL d   1      17.561   2.501  21.840  0.00  0.00     0.083 H 
ATOM     73  C37 MOL d   1      18.327   2.602  18.540  0.00  0.00    -0.077 A 
ATOM     74  H36 MOL d   1      18.089   4.111  20.060  0.00  0.00     0.083 H 
ATOM     75  H37 MOL d   1      18.575   3.314  17.761  0.00  0.00     0.084 H 
ENDBRANCH  62  65
ENDBRANCH   1  62
TORSDOF 16
