REMARK  7 active torsions:
REMARK  status: ('A' for Active; 'I' for Inactive)
REMARK    1  A    between atoms: C24_10  and  C26_12 
REMARK    2  A    between atoms: N3_23  and  C24_10 
REMARK    3  A    between atoms: C27_13  and  C25_25 
REMARK    4  A    between atoms: C30_26  and  C32_16 
REMARK    5  A    between atoms: C9_18  and  O22_17 
REMARK    6  A    between atoms: C9_18  and  C10_19 
REMARK    7  A    between atoms: C2_22  and  C9_18 
ROOT
ATOM      1  C7  A6Y d   1     -14.548  -0.532  19.716  0.00  0.00    -0.055 A 
ATOM      2  C6  A6Y d   1     -15.910  -0.773  19.562  0.00  0.00    -0.081 A 
ATOM      3  C5  A6Y d   1     -16.546  -0.558  18.343  0.00  0.00    -0.081 A 
ATOM      4  C4  A6Y d   1     -15.832  -0.101  17.266  0.00  0.00    -0.053 A 
ATOM      5  C3  A6Y d   1     -14.478   0.149  17.391  0.00  0.00     0.085 A 
ATOM      6  N2  A6Y d   1     -13.522   0.604  16.440  0.00  0.00    -0.230 NA
ATOM      7  C2  A6Y d   1     -12.335   0.757  17.140  0.00  0.00     0.141 C 
ATOM      8  N3  A6Y d   1     -12.535   0.244  18.412  0.00  0.00    -0.326 N 
ATOM      9  C8  A6Y d   1     -13.839  -0.073  18.635  0.00  0.00     0.065 A 
ATOM     10  H1  A6Y d   1     -14.059  -0.703  20.668  0.00  0.00     0.087 H 
ATOM     11  H2  A6Y d   1     -16.486  -1.135  20.406  0.00  0.00     0.083 H 
ATOM     12  H4  A6Y d   1     -17.608  -0.752  18.245  0.00  0.00     0.083 H 
ATOM     13  H5  A6Y d   1     -16.329   0.064  16.317  0.00  0.00     0.087 H 
ENDROOT
BRANCH   8  14
ATOM     14  C24 A6Y d   1     -11.420   0.225  19.396  0.00  0.00     0.026 C 
ATOM     15  H8  A6Y d   1     -10.487   0.513  18.889  0.00  0.00     0.072 H 
ATOM     16  H9  A6Y d   1     -11.637   0.944  20.200  0.00  0.00     0.072 H 
BRANCH  14  17
ATOM     17  C26 A6Y d   1     -11.249  -1.176  20.007  0.00  0.00    -0.034 A 
ATOM     18  C27 A6Y d   1     -11.314  -1.425  21.388  0.00  0.00    -0.054 A 
ATOM     19  C28 A6Y d   1     -11.125  -2.723  21.880  0.00  0.00    -0.076 A 
ATOM     20  C29 A6Y d   1     -10.876  -3.780  21.016  0.00  0.00    -0.077 A 
ATOM     21  H10 A6Y d   1     -11.174  -2.904  22.948  0.00  0.00     0.084 H 
ATOM     22  C30 A6Y d   1     -10.810  -3.546  19.643  0.00  0.00    -0.061 A 
ATOM     23  H11 A6Y d   1     -10.734  -4.781  21.406  0.00  0.00     0.084 H 
ATOM     24  C31 A6Y d   1     -10.991  -2.245  19.148  0.00  0.00    -0.069 A 
ATOM     25  H12 A6Y d   1     -10.929  -2.068  18.080  0.00  0.00     0.085 H 
BRANCH  18  26
ATOM     26  C25 A6Y d   1     -11.564  -0.315  22.381  0.00  0.00    -0.051 C 
ATOM     27  H19 A6Y d   1     -11.575  -0.730  23.400  0.00  0.00     0.033 H 
ATOM     28  H20 A6Y d   1     -12.534   0.157  22.167  0.00  0.00     0.033 H 
ATOM     29  H21 A6Y d   1     -10.765   0.436  22.300  0.00  0.00     0.033 H 
ENDBRANCH  18  26
BRANCH  22  30
ATOM     30  C32 A6Y d   1     -10.548  -4.684  18.685  0.00  0.00    -0.051 C 
ATOM     31  H13 A6Y d   1     -10.433  -5.620  19.251  0.00  0.00     0.033 H 
ATOM     32  H14 A6Y d   1      -9.627  -4.482  18.119  0.00  0.00     0.033 H 
ATOM     33  H15 A6Y d   1     -11.393  -4.778  17.988  0.00  0.00     0.033 H 
ENDBRANCH  22  30
ENDBRANCH  14  17
ENDBRANCH   8  14
BRANCH   7  34
ATOM     34  C9  A6Y d   1     -11.030   1.131  16.386  0.00  0.00     0.118 C 
ATOM     35  H17 A6Y d   1     -11.302   1.556  15.409  0.00  0.00     0.103 H 
BRANCH  34  36
ATOM     36  O22 A6Y d   1     -10.261   2.106  17.088  0.00  0.00    -0.383 OA
ATOM     37  H16 A6Y d   1     -10.785   2.888  17.216  0.00  0.00     0.211 HD
ENDBRANCH  34  36
BRANCH  34  38
ATOM     38  C10 A6Y d   1     -10.239  -0.132  16.158  0.00  0.00    -0.020 A 
ATOM     39  C11 A6Y d   1      -9.016  -0.397  16.831  0.00  0.00    -0.057 A 
ATOM     40  C12 A6Y d   1      -8.332  -1.602  16.624  0.00  0.00     0.002 A 
ATOM     41  H3  A6Y d   1      -8.608   0.341  17.512  0.00  0.00     0.086 H 
ATOM     42  N19 A6Y d   1      -8.845  -2.552  15.758  0.00  0.00    -0.273 NA
ATOM     43  H6  A6Y d   1      -7.399  -1.791  17.143  0.00  0.00     0.114 H 
ATOM     44  C20 A6Y d   1     -10.047  -2.310  15.084  0.00  0.00     0.002 A 
ATOM     45  C21 A6Y d   1     -10.749  -1.111  15.292  0.00  0.00    -0.057 A 
ATOM     46  H7  A6Y d   1     -10.439  -3.052  14.398  0.00  0.00     0.114 H 
ATOM     47  H18 A6Y d   1     -11.690  -0.941  14.781  0.00  0.00     0.086 H 
ENDBRANCH  34  38
ENDBRANCH   7  34
TORSDOF 7
