REMARK  9 active torsions:
REMARK  status: ('A' for Active; 'I' for Inactive)
REMARK    1  A    between atoms: O_1  and  C19_2 
REMARK    2  A    between atoms: C19_2  and  C20_3 
REMARK    3  A    between atoms: C19_2  and  C8_9 
REMARK    4  A    between atoms: N_13  and  C7_14 
REMARK    5  A    between atoms: C7_14  and  C6_15 
REMARK    6  A    between atoms: C4_16  and  C5_17 
REMARK    7  A    between atoms: C1_21  and  C_22 
REMARK    8  A    between atoms: C12_24  and  C15_27 
REMARK    9  A    between atoms: N3_29  and  C17_30 
ROOT
ATOM      1  C8  A7A d   1     -12.120   0.482  17.572  0.00  0.00     0.141 A 
ATOM      2  N1  A7A d   1     -13.208   0.423  16.799  0.00  0.00    -0.230 NA
ATOM      3  C9  A7A d   1     -14.194  -0.153  17.532  0.00  0.00     0.086 A 
ATOM      4  C14 A7A d   1     -13.682  -0.477  18.793  0.00  0.00     0.066 A 
ATOM      5  N   A7A d   1     -12.405  -0.111  18.796  0.00  0.00    -0.326 N 
ATOM      6  C13 A7A d   1     -14.501  -1.075  19.755  0.00  0.00    -0.044 A 
ATOM      7  C12 A7A d   1     -15.845  -1.369  19.443  0.00  0.00    -0.021 A 
ATOM      8  C11 A7A d   1     -16.344  -1.034  18.195  0.00  0.00    -0.070 A 
ATOM      9  C10 A7A d   1     -15.523  -0.446  17.238  0.00  0.00    -0.052 A 
ATOM     10  H18 A7A d   1     -14.105  -1.312  20.736  0.00  0.00     0.088 H 
ATOM     11  H19 A7A d   1     -17.384  -1.232  17.962  0.00  0.00     0.084 H 
ATOM     12  H20 A7A d   1     -15.921  -0.214  16.257  0.00  0.00     0.087 H 
ENDROOT
BRANCH   5  13
ATOM     13  C7  A7A d   1     -11.494  -0.229  19.957  0.00  0.00     0.026 C 
ATOM     14  H7  A7A d   1     -11.958   0.276  20.817  0.00  0.00     0.072 H 
ATOM     15  H8  A7A d   1     -10.545   0.269  19.708  0.00  0.00     0.072 H 
BRANCH  13  16
ATOM     16  C6  A7A d   1     -11.195  -1.672  20.347  0.00  0.00    -0.034 A 
ATOM     17  C4  A7A d   1     -11.102  -1.971  21.679  0.00  0.00    -0.054 A 
ATOM     18  C3  A7A d   1     -10.834  -3.253  22.074  0.00  0.00    -0.076 A 
ATOM     19  C2  A7A d   1     -10.630  -4.250  21.139  0.00  0.00    -0.077 A 
ATOM     20  H12 A7A d   1     -10.781  -3.489  23.131  0.00  0.00     0.084 H 
ATOM     21  C1  A7A d   1     -10.666  -3.958  19.804  0.00  0.00    -0.061 A 
ATOM     22  H13 A7A d   1     -10.441  -5.266  21.465  0.00  0.00     0.084 H 
ATOM     23  C25 A7A d   1     -10.949  -2.667  19.392  0.00  0.00    -0.069 A 
ATOM     24  H14 A7A d   1     -10.980  -2.427  18.335  0.00  0.00     0.085 H 
BRANCH  17  25
ATOM     25  C5  A7A d   1     -11.353  -0.904  22.715  0.00  0.00    -0.051 C 
ATOM     26  H9  A7A d   1     -11.232  -1.333  23.720  0.00  0.00     0.033 H 
ATOM     27  H10 A7A d   1     -12.377  -0.517  22.602  0.00  0.00     0.033 H 
ATOM     28  H11 A7A d   1     -10.633  -0.083  22.578  0.00  0.00     0.033 H 
ENDBRANCH  17  25
BRANCH  21  29
ATOM     29  C   A7A d   1     -10.395  -5.077  18.812  0.00  0.00    -0.051 C 
ATOM     30  H15 A7A d   1     -10.195  -6.011  19.358  0.00  0.00     0.033 H 
ATOM     31  H16 A7A d   1      -9.521  -4.818  18.197  0.00  0.00     0.033 H 
ATOM     32  H17 A7A d   1     -11.273  -5.213  18.163  0.00  0.00     0.033 H 
ENDBRANCH  21  29
ENDBRANCH  13  16
ENDBRANCH   5  13
BRANCH   1  33
ATOM     33  C19 A7A d   1     -10.809   0.943  17.087  0.00  0.00     0.118 C 
ATOM     34  H2  A7A d   1     -10.230   1.425  17.888  0.00  0.00     0.103 H 
BRANCH  33  35
ATOM     35  O   A7A d   1     -10.999   1.815  16.015  0.00  0.00    -0.383 OA
ATOM     36  H1  A7A d   1     -11.433   2.602  16.322  0.00  0.00     0.211 HD
ENDBRANCH  33  35
BRANCH  33  37
ATOM     37  C20 A7A d   1     -10.123  -0.286  16.569  0.00  0.00    -0.020 A 
ATOM     38  C24 A7A d   1      -8.951  -0.749  17.143  0.00  0.00    -0.057 A 
ATOM     39  C23 A7A d   1      -8.381  -1.946  16.698  0.00  0.00     0.002 A 
ATOM     40  H3  A7A d   1      -8.476  -0.184  17.937  0.00  0.00     0.086 H 
ATOM     41  N4  A7A d   1      -8.976  -2.678  15.718  0.00  0.00    -0.273 NA
ATOM     42  H4  A7A d   1      -7.454  -2.295  17.139  0.00  0.00     0.114 H 
ATOM     43  C22 A7A d   1     -10.131  -2.270  15.162  0.00  0.00     0.002 A 
ATOM     44  C21 A7A d   1     -10.726  -1.067  15.580  0.00  0.00    -0.057 A 
ATOM     45  H5  A7A d   1     -10.603  -2.869  14.392  0.00  0.00     0.114 H 
ATOM     46  H6  A7A d   1     -11.659  -0.743  15.132  0.00  0.00     0.086 H 
ENDBRANCH  33  37
ENDBRANCH   1  33
BRANCH   7  47
ATOM     47  C15 A7A d   1     -16.676  -2.081  20.334  0.00  0.00     0.011 A 
ATOM     48  C18 A7A d   1     -16.306  -3.127  21.183  0.00  0.00     0.010 A 
ATOM     49  N3  A7A d   1     -17.401  -3.494  21.850  0.00  0.00    -0.285 N 
ATOM     50  H21 A7A d   1     -15.312  -3.561  21.282  0.00  0.00     0.115 H 
ATOM     51  N2  A7A d   1     -18.506  -2.725  21.496  0.00  0.00    -0.185 NA
ATOM     52  C16 A7A d   1     -18.057  -1.852  20.541  0.00  0.00     0.034 A 
ATOM     53  H25 A7A d   1     -18.662  -1.106  20.027  0.00  0.00     0.118 H 
BRANCH  49  54
ATOM     54  C17 A7A d   1     -17.665  -4.528  22.879  0.00  0.00     0.002 C 
ATOM     55  H22 A7A d   1     -18.726  -4.495  23.168  0.00  0.00     0.059 H 
ATOM     56  H23 A7A d   1     -17.038  -4.335  23.762  0.00  0.00     0.059 H 
ATOM     57  H24 A7A d   1     -17.427  -5.521  22.470  0.00  0.00     0.059 H 
ENDBRANCH  49  54
ENDBRANCH   7  47
TORSDOF 9
