REMARK  12 active torsions:
REMARK  status: ('A' for Active; 'I' for Inactive)
REMARK    1  A    between atoms: OAV_22  and  CAA_1 
REMARK    2  A    between atoms: CAX_24  and  O02_2 
REMARK    3  A    between atoms: O02_2  and  C01_36 
REMARK    4  A    between atoms: CAM_13  and  CAC_3 
REMARK    5  A    between atoms: CAC_3  and  NBH_34 
REMARK    6  A    between atoms: CAN_14  and  CAM_13 
REMARK    7  A    between atoms: OAW_23  and  CAN_14 
REMARK    8  A    between atoms: NBI_35  and  CAO_15 
REMARK    9  A    between atoms: NAU_21  and  CBB_28 
REMARK   10  A    between atoms: CBE_31  and  NAU_21 
REMARK   11  A    between atoms: CBC_29  and  OAV_22 
REMARK   12  A    between atoms: CBD_30  and  OAW_23 
ROOT
ATOM      1  NAD DB8 d   1     -45.217 -13.073  10.035  0.00  0.00    -0.191 NA
ATOM      2  CAG DB8 d   1     -46.244 -13.037  10.511  0.00  0.00     0.103 C 
ATOM      3  CAH DB8 d   1     -47.828 -11.770  11.284  0.00  0.00     0.025 A 
ATOM      4  CAK DB8 d   1     -51.203 -11.778  12.805  0.00  0.00    -0.019 A 
ATOM      5  CAL DB8 d   1     -50.699 -14.530  12.530  0.00  0.00    -0.034 A 
ATOM      6  NAT DB8 d   1     -49.002 -11.303  11.834  0.00  0.00    -0.259 NA
ATOM      7  CBA DB8 d   1     -47.624 -13.167  11.153  0.00  0.00     0.089 A 
ATOM      8  CBC DB8 d   1     -51.904 -14.106  13.080  0.00  0.00     0.102 A 
ATOM      9  CBD DB8 d   1     -52.147 -12.726  13.214  0.00  0.00     0.104 A 
ATOM     10  CBE DB8 d   1     -48.580 -14.023  11.577  0.00  0.00     0.068 A 
ATOM     11  CBF DB8 d   1     -49.975 -12.204  12.249  0.00  0.00     0.071 A 
ATOM     12  CBG DB8 d   1     -49.749 -13.565  12.123  0.00  0.00     0.024 A 
ATOM     13  H6  DB8 d   1     -47.066 -11.074  10.954  0.00  0.00     0.117 H 
ATOM     14  H9  DB8 d   1     -51.413 -10.720  12.914  0.00  0.00     0.091 H 
ATOM     15  H10 DB8 d   1     -50.491 -15.588  12.415  0.00  0.00     0.089 H 
ENDROOT
BRANCH  10  16
ATOM     16  NAU DB8 d   1     -48.177 -15.403  11.374  0.00  0.00    -0.353 N 
ATOM     17  H26 DB8 d   1     -48.914 -16.116  11.277  0.00  0.00     0.166 HD
BRANCH  16  18
ATOM     18  CBB DB8 d   1     -46.787 -15.836  11.300  0.00  0.00     0.057 A 
ATOM     19  CAJ DB8 d   1     -45.797 -15.508  12.204  0.00  0.00    -0.022 A 
ATOM     20  CAX DB8 d   1     -44.518 -15.973  12.016  0.00  0.00     0.092 A 
ATOM     21  H8  DB8 d   1     -46.028 -14.885  13.060  0.00  0.00     0.091 H 
ATOM     22  CAY DB8 d   1     -44.226 -16.787  10.935  0.00  0.00     0.069 A 
ATOM     23 CL1  DB8 d   1     -42.519 -17.327  10.812  0.00  0.00    -0.081 Cl
ATOM     24  CAI DB8 d   1     -45.227 -17.130  10.000  0.00  0.00    -0.036 A 
ATOM     25  CAZ DB8 d   1     -46.516 -16.638  10.210  0.00  0.00     0.062 A 
ATOM     26  H7  DB8 d   1     -45.001 -17.757   9.145  0.00  0.00     0.088 H 
ATOM     27 CL2  DB8 d   1     -47.629 -17.170   8.925  0.00  0.00    -0.082 Cl
BRANCH  20  28
ATOM     28  O02 DB8 d   1     -43.509 -15.633  12.932  0.00  0.00    -0.354 OA
BRANCH  28  29
ATOM     29  C01 DB8 d   1     -43.914 -14.790  13.979  0.00  0.00     0.010 C 
ATOM     30  H29 DB8 d   1     -43.057 -14.585  14.637  0.00  0.00     0.066 H 
ATOM     31  H30 DB8 d   1     -44.711 -15.280  14.557  0.00  0.00     0.066 H 
ATOM     32  H31 DB8 d   1     -44.292 -13.844  13.563  0.00  0.00     0.066 H 
ENDBRANCH  28  29
ENDBRANCH  20  28
ENDBRANCH  16  18
ENDBRANCH  10  16
BRANCH   8  33
ATOM     33  OAV DB8 d   1     -52.877 -15.032  13.520  0.00  0.00    -0.353 OA
BRANCH  33  34
ATOM     34  CAA DB8 d   1     -52.558 -16.393  13.349  0.00  0.00     0.010 C 
ATOM     35  H1  DB8 d   1     -53.385 -17.013  13.726  0.00  0.00     0.066 H 
ATOM     36  H2  DB8 d   1     -51.640 -16.627  13.908  0.00  0.00     0.066 H 
ATOM     37  H3  DB8 d   1     -52.401 -16.601  12.280  0.00  0.00     0.066 H 
ENDBRANCH  33  34
ENDBRANCH   8  33
BRANCH   9  38
ATOM     38  OAW DB8 d   1     -53.400 -12.450  13.780  0.00  0.00    -0.348 OA
BRANCH  38  39
ATOM     39  CAN DB8 d   1     -53.917 -11.207  13.377  0.00  0.00     0.028 C 
ATOM     40  H13 DB8 d   1     -53.593 -10.427  14.081  0.00  0.00     0.075 H 
ATOM     41  H14 DB8 d   1     -53.552 -10.965  12.368  0.00  0.00     0.075 H 
BRANCH  39  42
ATOM     42  CAM DB8 d   1     -55.449 -11.287  13.365  0.00  0.00    -0.022 C 
ATOM     43  H11 DB8 d   1     -55.871 -10.299  13.602  0.00  0.00     0.038 H 
ATOM     44  H12 DB8 d   1     -55.793 -11.603  12.369  0.00  0.00     0.038 H 
BRANCH  42  45
ATOM     45  CAC DB8 d   1     -55.911 -12.308  14.415  0.00  0.00     0.086 C 
ATOM     46  H4  DB8 d   1     -55.037 -12.851  14.803  0.00  0.00     0.076 H 
ATOM     47  H5  DB8 d   1     -56.608 -13.020  13.948  0.00  0.00     0.076 H 
BRANCH  45  48
ATOM     48  NBH DB8 d   1     -56.584 -11.626  15.517  0.00  0.00    -0.068 N 
ATOM     49  CAP DB8 d   1     -56.932 -12.605  16.537  0.00  0.00     0.106 C 
ATOM     50  CAR DB8 d   1     -57.736 -11.974  17.675  0.00  0.00     0.105 C 
ATOM     51  H18 DB8 d   1     -57.533 -13.403  16.076  0.00  0.00     0.078 H 
ATOM     52  H19 DB8 d   1     -56.007 -13.034  16.949  0.00  0.00     0.078 H 
ATOM     53  NBI DB8 d   1     -58.882 -11.200  17.218  0.00  0.00    -0.072 N 
ATOM     54  H22 DB8 d   1     -57.071 -11.308  18.244  0.00  0.00     0.078 H 
ATOM     55  H23 DB8 d   1     -58.099 -12.778  18.332  0.00  0.00     0.078 H 
ATOM     56  CAS DB8 d   1     -58.544 -10.249  16.167  0.00  0.00     0.105 C 
ATOM     57  H28 DB8 d   1     -59.562 -11.843  16.844  0.00  0.00     0.279 HD
ATOM     58  CAQ DB8 d   1     -57.759 -10.910  15.026  0.00  0.00     0.106 C 
ATOM     59  H24 DB8 d   1     -59.473  -9.825  15.760  0.00  0.00     0.078 H 
ATOM     60  H25 DB8 d   1     -57.932  -9.444  16.600  0.00  0.00     0.078 H 
ATOM     61  H20 DB8 d   1     -57.432 -10.131  14.321  0.00  0.00     0.078 H 
ATOM     62  H21 DB8 d   1     -58.418 -11.621  14.507  0.00  0.00     0.078 H 
ATOM     63  H27 DB8 d   1     -55.950 -10.954  15.921  0.00  0.00     0.280 HD
BRANCH  53  64
ATOM     64  CAO DB8 d   1     -59.478 -10.504  18.351  0.00  0.00     0.066 C 
ATOM     65  H15 DB8 d   1     -59.729 -11.231  19.137  0.00  0.00     0.068 H 
ATOM     66  H16 DB8 d   1     -60.392  -9.987  18.024  0.00  0.00     0.068 H 
ATOM     67  H17 DB8 d   1     -58.763  -9.768  18.747  0.00  0.00     0.068 H 
ENDBRANCH  53  64
ENDBRANCH  45  48
ENDBRANCH  42  45
ENDBRANCH  39  42
ENDBRANCH  38  39
ENDBRANCH   9  38
TORSDOF 12
