REMARK  0 active torsions:
REMARK  status: ('A' for Active; 'I' for Inactive)
ROOT
ATOM      1  C1  N0P d   1     -11.457  10.846 -16.009  0.00  0.00    -0.061 A 
ATOM      2  C2  N0P d   1     -10.142  10.890 -16.537  0.00  0.00     0.034 A 
ATOM      3  C3  N0P d   1      -9.818  10.439 -17.842  0.00  0.00    -0.055 A 
ATOM      4  O4  N0P d   1     -20.757   4.809 -22.378  0.00  0.00    -0.205 OA
ATOM      5  O5  N0P d   1     -17.969   2.271 -20.058  0.00  0.00    -0.390 OA
ATOM      6  C7  N0P d   1     -16.670   6.488 -19.987  0.00  0.00    -0.039 A 
ATOM      7  C8  N0P d   1     -18.021   6.752 -19.776  0.00  0.00     0.035 A 
ATOM      8  C9  N0P d   1     -18.459   7.851 -19.035  0.00  0.00    -0.065 A 
ATOM      9  C10 N0P d   1     -17.538   8.748 -18.498  0.00  0.00    -0.048 A 
ATOM     10  C11 N0P d   1     -14.476   9.986 -19.203  0.00  0.00     0.039 C 
ATOM     11  C12 N0P d   1     -13.326   7.756 -18.768  0.00  0.00     0.008 C 
ATOM     12  C13 N0P d   1     -15.702   7.366 -19.453  0.00  0.00     0.065 A 
ATOM     13  C14 N0P d   1     -16.161   8.509 -18.708  0.00  0.00     0.095 A 
ATOM     14  C15 N0P d   1     -13.102   9.230 -19.119  0.00  0.00     0.026 C 
ATOM     15  C16 N0P d   1     -18.999   5.873 -20.338  0.00  0.00     0.265 C 
ATOM     16  C19 N0P d   1     -13.916   4.608 -19.548  0.00  0.00    -0.050 C 
ATOM     17  C20 N0P d   1     -13.922   3.335 -20.372  0.00  0.00    -0.064 C 
ATOM     18  C21 N0P d   1     -10.746   9.388 -20.008  0.00  0.00    -0.039 C 
ATOM     19  C22 N0P d   1     -12.249   9.273 -20.423  0.00  0.00    -0.047 C 
ATOM     20  C24 N0P d   1     -15.241   2.577 -20.444  0.00  0.00    -0.063 C 
ATOM     21  N1  N0P d   1     -14.356   7.048 -19.563  0.00  0.00    -0.377 N 
ATOM     22  O1  N0P d   1     -15.338   9.498 -18.187  0.00  0.00    -0.348 OA
ATOM     23  O2  N0P d   1     -20.176   5.882 -19.943  0.00  0.00    -0.267 OA
ATOM     24  N2  N0P d   1     -18.562   5.052 -21.323  0.00  0.00    -0.250 N 
ATOM     25  C17 N0P d   1     -13.897   5.919 -20.403  0.00  0.00    -0.005 C 
ATOM     26  C4  N0P d   1     -10.859   9.914 -18.620  0.00  0.00    -0.049 A 
ATOM     27  C5  N0P d   1     -12.166   9.846 -18.124  0.00  0.00    -0.039 A 
ATOM     28  C6  N0P d   1     -12.474  10.310 -16.828  0.00  0.00    -0.074 A 
ATOM     29 CL1  N0P d   1      -8.871  11.447 -15.481  0.00  0.00    -0.084 Cl
ATOM     30  S1  N0P d   1     -19.693   3.927 -21.815  0.00  0.00     0.235 S 
ATOM     31  C23 N0P d   1     -20.263   3.185 -20.293  0.00  0.00     0.066 C 
ATOM     32  O3  N0P d   1     -18.974   2.953 -22.658  0.00  0.00    -0.205 OA
ATOM     33  C18 N0P d   1     -19.340   2.004 -20.073  0.00  0.00     0.033 C 
ATOM     34  C25 N0P d   1     -17.202   1.333 -19.410  0.00  0.00     0.019 C 
ATOM     35  C26 N0P d   1     -15.777   1.857 -19.244  0.00  0.00    -0.045 C 
ATOM     36  H1  N0P d   1     -11.674  11.211 -15.012  0.00  0.00     0.086 H 
ATOM     37  H2  N0P d   1      -8.805  10.498 -18.223  0.00  0.00     0.086 H 
ATOM     38  H3  N0P d   1     -16.365   5.617 -20.556  0.00  0.00     0.088 H 
ATOM     39  H4  N0P d   1     -19.520   8.007 -18.877  0.00  0.00     0.085 H 
ATOM     40  H5  N0P d   1     -17.870   9.610 -17.931  0.00  0.00     0.087 H 
ATOM     41  H6  N0P d   1     -14.933   9.812 -20.188  0.00  0.00     0.076 H 
ATOM     42  H7  N0P d   1     -14.312  11.064 -19.060  0.00  0.00     0.076 H 
ATOM     43  H8  N0P d   1     -13.623   7.703 -17.710  0.00  0.00     0.066 H 
ATOM     44  H9  N0P d   1     -12.371   7.228 -18.908  0.00  0.00     0.066 H 
ATOM     45  H10 N0P d   1     -13.023   4.601 -18.906  0.00  0.00     0.035 H 
ATOM     46  H11 N0P d   1     -14.819   4.618 -18.920  0.00  0.00     0.035 H 
ATOM     47  H12 N0P d   1     -13.170   2.656 -19.944  0.00  0.00     0.033 H 
ATOM     48  H13 N0P d   1     -13.633   3.601 -21.399  0.00  0.00     0.033 H 
ATOM     49  H14 N0P d   1     -10.202  10.088 -20.660  0.00  0.00     0.040 H 
ATOM     50  H15 N0P d   1     -10.248   8.407 -20.026  0.00  0.00     0.040 H 
ATOM     51  H16 N0P d   1     -12.537  10.144 -21.030  0.00  0.00     0.035 H 
ATOM     52  H17 N0P d   1     -12.407   8.352 -21.004  0.00  0.00     0.035 H 
ATOM     53  H18 N0P d   1     -15.127   1.824 -21.237  0.00  0.00     0.033 H 
ATOM     54  H19 N0P d   1     -16.008   3.308 -20.740  0.00  0.00     0.033 H 
ATOM     55  H20 N0P d   1     -17.646   5.114 -21.719  0.00  0.00     0.181 HD
ATOM     56  H21 N0P d   1     -14.568   5.806 -21.267  0.00  0.00     0.064 H 
ATOM     57  H22 N0P d   1     -12.874   6.114 -20.756  0.00  0.00     0.064 H 
ATOM     58  H23 N0P d   1     -13.492  10.255 -16.461  0.00  0.00     0.084 H 
ATOM     59  H24 N0P d   1     -21.306   2.849 -20.392  0.00  0.00     0.062 H 
ATOM     60  H25 N0P d   1     -20.185   3.899 -19.460  0.00  0.00     0.062 H 
ATOM     61  H26 N0P d   1     -19.602   1.553 -19.105  0.00  0.00     0.075 H 
ATOM     62  H27 N0P d   1     -19.529   1.279 -20.878  0.00  0.00     0.075 H 
ATOM     63  H28 N0P d   1     -17.184   0.405 -20.000  0.00  0.00     0.074 H 
ATOM     64  H29 N0P d   1     -17.634   1.129 -18.419  0.00  0.00     0.074 H 
ATOM     65  H30 N0P d   1     -15.762   2.551 -18.391  0.00  0.00     0.036 H 
ATOM     66  H31 N0P d   1     -15.118   1.002 -19.032  0.00  0.00     0.036 H 
ENDROOT
TORSDOF 0
