REMARK  12 active torsions:
REMARK  status: ('A' for Active; 'I' for Inactive)
REMARK    1  A    between atoms: P_32  and  O3_1 
REMARK    2  A    between atoms: O3_1  and  P1_33 
REMARK    3  A    between atoms: C5_3  and  N4_16 
REMARK    4  A    between atoms: C6_5  and  O_19 
REMARK    5  A    between atoms: C7_7  and  O1_23 
REMARK    6  A    between atoms: C9_10  and  C8_8 
REMARK    7  A    between atoms: O8_15  and  C9_10 
REMARK    8  A    between atoms: P2_34  and  O8_15 
REMARK    9  A    between atoms: C_18  and  N_17 
REMARK   10  A    between atoms: O1_23  and  P_32 
REMARK   11  A    between atoms: O9_31  and  P2_34 
REMARK   12  A    between atoms: O9_31  and  P3_35 
ROOT
ATOM      1  C5  N7Y d   1      57.126  27.788 -31.634  0.00  0.00     0.140 C 
ATOM      2  C6  N7Y d   1      56.431  28.534 -30.485  0.00  0.00     0.106 C 
ATOM      3  C7  N7Y d   1      57.614  28.834 -29.567  0.00  0.00     0.106 C 
ATOM      4  C8  N7Y d   1      58.484  27.599 -29.737  0.00  0.00     0.090 C 
ATOM      5  O15 N7Y d   1      58.368  27.308 -31.145  0.00  0.00    -0.353 OA
ATOM      6  H2  N7Y d   1      57.299  28.495 -32.459  0.00  0.00     0.122 H 
ATOM      7  H3  N7Y d   1      55.672  27.911 -29.988  0.00  0.00     0.093 H 
ATOM      8  H4  N7Y d   1      57.273  28.925 -28.525  0.00  0.00     0.092 H 
ATOM      9  H5  N7Y d   1      59.524  27.836 -29.468  0.00  0.00     0.090 H 
ENDROOT
BRANCH   1  10
ATOM     10  N4  N7Y d   1      56.364  26.651 -32.149  0.00  0.00    -0.294 N 
ATOM     11  C4  N7Y d   1      55.797  25.640 -31.417  0.00  0.00     0.071 A 
ATOM     12  N3  N7Y d   1      55.171  24.746 -32.144  0.00  0.00    -0.236 NA
ATOM     13  H1  N7Y d   1      55.861  25.584 -30.331  0.00  0.00     0.144 H 
ATOM     14  C3  N7Y d   1      55.339  25.197 -33.445  0.00  0.00     0.149 A 
ATOM     15  C   N7Y d   1      54.918  24.694 -34.687  0.00  0.00     0.155 A 
ATOM     16  C2  N7Y d   1      56.075  26.374 -33.459  0.00  0.00     0.167 A 
ATOM     17  N1  N7Y d   1      55.263  25.385 -35.795  0.00  0.00    -0.222 NA
ATOM     18  C1  N7Y d   1      55.976  26.505 -35.658  0.00  0.00     0.091 A 
ATOM     19  N2  N7Y d   1      56.426  27.079 -34.540  0.00  0.00    -0.222 NA
ATOM     20  H11 N7Y d   1      56.223  27.018 -36.580  0.00  0.00     0.146 H 
BRANCH  15  21
ATOM     21  N   N7Y d   1      54.196  23.585 -34.834  0.00  0.00    -0.382 N 
ATOM     22  H8  N7Y d   1      53.918  23.038 -34.007  0.00  0.00     0.157 HD
ATOM     23  H9  N7Y d   1      53.915  23.274 -35.775  0.00  0.00     0.157 HD
ENDBRANCH  15  21
ENDBRANCH   1  10
BRANCH   2  24
ATOM     24  O   N7Y d   1      55.841  29.741 -30.957  0.00  0.00    -0.388 OA
ATOM     25  H10 N7Y d   1      55.534  30.253 -30.218  0.00  0.00     0.210 HD
ENDBRANCH   2  24
BRANCH   3  26
ATOM     26  O1  N7Y d   1      58.323  30.041 -29.921  0.00  0.00    -0.279 OA
BRANCH  26  27
ATOM     27  P   N7Y d   1      59.063  31.277 -28.934  0.00  0.00     0.419 P 
ATOM     28  O7  N7Y d   1      59.445  30.704 -27.625  0.00  0.00    -0.624 OA
ATOM     29  O2  N7Y d   1      60.112  31.883 -29.786  0.00  0.00    -0.624 OA
BRANCH  27  30
ATOM     30  O3  N7Y d   1      57.869  32.330 -28.760  0.00  0.00    -0.173 OA
BRANCH  30  31
ATOM     31  P1  N7Y d   1      56.178  32.367 -27.989  0.00  0.00     0.431 P 
ATOM     32  O4  N7Y d   1      55.197  31.641 -28.885  0.00  0.00    -0.616 OA
ATOM     33  O5  N7Y d   1      55.905  33.854 -27.906  0.00  0.00    -0.616 OA
ATOM     34  O6  N7Y d   1      56.317  31.722 -26.628  0.00  0.00    -0.616 OA
ENDBRANCH  30  31
ENDBRANCH  27  30
ENDBRANCH  26  27
ENDBRANCH   3  26
BRANCH   4  35
ATOM     35  C9  N7Y d   1      58.043  26.397 -28.940  0.00  0.00     0.058 C 
ATOM     36  H6  N7Y d   1      58.475  25.487 -29.381  0.00  0.00     0.079 H 
ATOM     37  H7  N7Y d   1      56.945  26.328 -28.959  0.00  0.00     0.079 H 
BRANCH  35  38
ATOM     38  O8  N7Y d   1      58.493  26.529 -27.574  0.00  0.00    -0.287 OA
BRANCH  38  39
ATOM     39  P2  N7Y d   1      57.461  26.832 -26.392  0.00  0.00     0.418 P 
ATOM     40  O13 N7Y d   1      57.052  28.251 -26.461  0.00  0.00    -0.624 OA
ATOM     41  O14 N7Y d   1      56.408  25.788 -26.391  0.00  0.00    -0.624 OA
BRANCH  39  42
ATOM     42  O9  N7Y d   1      58.410  26.631 -25.118  0.00  0.00    -0.173 OA
BRANCH  42  43
ATOM     43  P3  N7Y d   1      59.875  27.505 -24.427  0.00  0.00     0.431 P 
ATOM     44  O10 N7Y d   1      60.962  26.975 -25.338  0.00  0.00    -0.616 OA
ATOM     45  O11 N7Y d   1      59.995  26.982 -23.010  0.00  0.00    -0.616 OA
ATOM     46  O12 N7Y d   1      59.742  29.011 -24.487  0.00  0.00    -0.616 OA
ENDBRANCH  42  43
ENDBRANCH  39  42
ENDBRANCH  38  39
ENDBRANCH  35  38
ENDBRANCH   4  35
TORSDOF 12
