REMARK  7 active torsions:
REMARK  status: ('A' for Active; 'I' for Inactive)
REMARK    1  A    between atoms: N1_1  and  C2_15 
REMARK    2  A    between atoms: C7_5  and  C6_4 
REMARK       I    between atoms: N29_29  and  C7_5 
REMARK    3  A    between atoms: C2_15  and  C14_21 
REMARK    4  A    between atoms: C11_18  and  C23_25 
REMARK    5  A    between atoms: S26_26  and  N29_29 
REMARK    6  A    between atoms: S26_26  and  C30_30 
REMARK    7  A    between atoms: C30_30  and  C31_31 
ROOT
ATOM      1  N1  N8J d   1     -11.794  16.294  13.318  0.00  0.00    -0.375 N 
ATOM      2  C4  N8J d   1     -11.054  16.763  12.187  0.00  0.00     0.065 A 
ATOM      3  C5  N8J d   1     -11.679  17.387  11.106  0.00  0.00    -0.039 A 
ATOM      4  C6  N8J d   1     -10.917  17.915  10.053  0.00  0.00     0.035 A 
ATOM      5  C8  N8J d   1      -9.517  17.812  10.088  0.00  0.00    -0.065 A 
ATOM      6  C10 N8J d   1      -9.654  16.602  12.159  0.00  0.00     0.096 A 
ATOM      7  O3  N8J d   1      -9.013  15.851  13.123  0.00  0.00    -0.337 OA
ATOM      8  C9  N8J d   1      -8.888  17.168  11.150  0.00  0.00    -0.048 A 
ATOM      9  C11 N8J d   1      -9.853  14.974  13.934  0.00  0.00     0.087 C 
ATOM     10  C12 N8J d   1     -10.988  15.865  14.488  0.00  0.00     0.024 C 
ATOM     11  H1  N8J d   1     -12.760  17.464  11.080  0.00  0.00     0.088 H 
ATOM     12  H2  N8J d   1      -8.924  18.235   9.285  0.00  0.00     0.085 H 
ATOM     13  H11 N8J d   1      -7.806  17.109  11.188  0.00  0.00     0.087 H 
ATOM     14  H12 N8J d   1     -10.268  14.163  13.317  0.00  0.00     0.094 H 
ATOM     15  H13 N8J d   1     -11.612  15.293  15.191  0.00  0.00     0.068 H 
ATOM     16  H14 N8J d   1     -10.567  16.742  15.002  0.00  0.00     0.068 H 
ENDROOT
BRANCH   4  17
ATOM     17  C7  N8J d   1     -11.598  18.598   8.959  0.00  0.00     0.265 C 
ATOM     18  O13 N8J d   1     -11.711  18.110   7.840  0.00  0.00    -0.267 OA
ATOM     19  N29 N8J d   1     -12.210  19.809   9.128  0.00  0.00    -0.250 N 
ATOM     20  H19 N8J d   1     -12.864  20.079   8.421  0.00  0.00     0.181 HD
BRANCH  19  21
ATOM     21  S26 N8J d   1     -11.987  20.891  10.387  0.00  0.00     0.237 S 
ATOM     22  O27 N8J d   1     -11.120  20.320  11.353  0.00  0.00    -0.205 OA
ATOM     23  O28 N8J d   1     -11.542  22.123   9.832  0.00  0.00    -0.205 OA
BRANCH  21  24
ATOM     24  C30 N8J d   1     -13.606  21.115  11.125  0.00  0.00     0.070 C 
ATOM     25  H20 N8J d   1     -13.945  20.129  11.475  0.00  0.00     0.066 H 
ATOM     26  H21 N8J d   1     -14.279  21.474  10.333  0.00  0.00     0.066 H 
BRANCH  24  27
ATOM     27  C31 N8J d   1     -13.733  22.083  12.302  0.00  0.00    -0.043 A 
ATOM     28  C32 N8J d   1     -14.828  22.946  12.364  0.00  0.00    -0.076 A 
ATOM     29  C33 N8J d   1     -14.991  23.807  13.445  0.00  0.00    -0.082 A 
ATOM     30  H22 N8J d   1     -15.558  22.946  11.563  0.00  0.00     0.084 H 
ATOM     31  C34 N8J d   1     -14.063  23.810  14.480  0.00  0.00    -0.083 A 
ATOM     32  H23 N8J d   1     -15.843  24.476  13.480  0.00  0.00     0.083 H 
ATOM     33  C35 N8J d   1     -12.967  22.955  14.428  0.00  0.00    -0.082 A 
ATOM     34  H24 N8J d   1     -14.193  24.477  15.325  0.00  0.00     0.083 H 
ATOM     35  C36 N8J d   1     -12.801  22.099  13.344  0.00  0.00    -0.076 A 
ATOM     36  H25 N8J d   1     -12.241  22.956  15.233  0.00  0.00     0.083 H 
ATOM     37  H26 N8J d   1     -11.942  21.439  13.307  0.00  0.00     0.084 H 
ENDBRANCH  24  27
ENDBRANCH  21  24
ENDBRANCH  19  21
ENDBRANCH   4  17
BRANCH   1  38
ATOM     38  C2  N8J d   1     -13.151  16.811  13.644  0.00  0.00    -0.001 C 
ATOM     39  H9  N8J d   1     -13.559  16.254  14.500  0.00  0.00     0.064 H 
ATOM     40  H10 N8J d   1     -13.811  16.681  12.774  0.00  0.00     0.064 H 
BRANCH  38  41
ATOM     41  C14 N8J d   1     -13.059  18.320  14.004  0.00  0.00    -0.039 C 
ATOM     42  C15 N8J d   1     -14.463  18.923  14.303  0.00  0.00    -0.060 C 
ATOM     43  C16 N8J d   1     -14.192  18.669  15.814  0.00  0.00    -0.064 C 
ATOM     44  H3  N8J d   1     -15.304  18.349  13.887  0.00  0.00     0.033 H 
ATOM     45  H4  N8J d   1     -14.572  19.983  14.031  0.00  0.00     0.033 H 
ATOM     46  C17 N8J d   1     -12.673  18.616  15.486  0.00  0.00    -0.060 C 
ATOM     47  H16 N8J d   1     -14.608  17.726  16.199  0.00  0.00     0.033 H 
ATOM     48  H17 N8J d   1     -14.487  19.497  16.475  0.00  0.00     0.033 H 
ATOM     49  H5  N8J d   1     -12.139  19.566  15.638  0.00  0.00     0.033 H 
ATOM     50  H6  N8J d   1     -12.126  17.804  15.986  0.00  0.00     0.033 H 
ATOM     51  H15 N8J d   1     -12.460  18.858  13.254  0.00  0.00     0.042 H 
ENDBRANCH  38  41
ENDBRANCH   1  38
BRANCH   9  52
ATOM     52  C23 N8J d   1      -9.040  14.377  15.085  0.00  0.00    -0.005 A 
ATOM     53  C22 N8J d   1      -7.729  14.789  15.360  0.00  0.00    -0.071 A 
ATOM     54  C21 N8J d   1      -7.016  14.238  16.422  0.00  0.00    -0.061 A 
ATOM     55  H8  N8J d   1      -7.264  15.546  14.739  0.00  0.00     0.084 H 
ATOM     56  C19 N8J d   1      -7.614  13.289  17.242  0.00  0.00     0.035 A 
ATOM     57  H7  N8J d   1      -5.995  14.550  16.609  0.00  0.00     0.086 H 
ATOM     58 CL20 N8J d   1      -6.738  12.636  18.580  0.00  0.00    -0.084 Cl
ATOM     59  C18 N8J d   1      -8.911  12.867  16.988  0.00  0.00    -0.040 A 
ATOM     60  C24 N8J d   1      -9.607  13.375  15.893  0.00  0.00     0.044 A 
ATOM     61  H18 N8J d   1      -9.383  12.142  17.641  0.00  0.00     0.088 H 
ATOM     62 CL25 N8J d   1     -11.176  12.704  15.558  0.00  0.00    -0.084 Cl
ENDBRANCH   9  52
TORSDOF 7
