REMARK  5 active torsions:
REMARK  status: ('A' for Active; 'I' for Inactive)
REMARK    1  A    between atoms: CAG_7  and  CAE_5 
REMARK    2  A    between atoms: OAH_11  and  CAG_7 
REMARK       I    between atoms: NAK_10  and  CAI_8 
REMARK    3  A    between atoms: CAI_8  and  OAH_11 
REMARK    4  A    between atoms: OAL_13  and  CAM_9 
REMARK    5  A    between atoms: NAK_10  and  OAL_13 
ROOT
ATOM      1  CAG N9M d   1       5.201 -11.924 -31.937  0.00  0.00     0.054 C 
ATOM      2  H6  N9M d   1       5.329 -11.622 -32.987  0.00  0.00     0.082 H 
ATOM      3  H7  N9M d   1       5.450 -12.990 -31.829  0.00  0.00     0.082 H 
ENDROOT
BRANCH   1   4
ATOM      4  CAE N9M d   1       3.883 -11.703 -31.539  0.00  0.00    -0.034 A 
ATOM      5  CAD N9M d   1       3.623 -11.272 -30.234  0.00  0.00    -0.075 A 
ATOM      6  CAC N9M d   1       2.318 -11.042 -29.811  0.00  0.00    -0.082 A 
ATOM      7  H4  N9M d   1       4.446 -11.116 -29.546  0.00  0.00     0.084 H 
ATOM      8  CAB N9M d   1       1.269 -11.254 -30.702  0.00  0.00    -0.083 A 
ATOM      9  H3  N9M d   1       2.120 -10.702 -28.801  0.00  0.00     0.083 H 
ATOM     10  CAA N9M d   1       1.525 -11.678 -32.006  0.00  0.00    -0.082 A 
ATOM     11  H2  N9M d   1       0.247 -11.088 -30.380  0.00  0.00     0.083 H 
ATOM     12  CAF N9M d   1       2.835 -11.907 -32.430  0.00  0.00    -0.075 A 
ATOM     13  H1  N9M d   1       0.702 -11.831 -32.694  0.00  0.00     0.083 H 
ATOM     14  H5  N9M d   1       3.033 -12.240 -33.442  0.00  0.00     0.084 H 
ENDBRANCH   1   4
BRANCH   1  15
ATOM     15  OAH N9M d   1       6.059 -11.135 -31.094  0.00  0.00    -0.298 OA
BRANCH  15  16
ATOM     16  CAI N9M d   1       7.378 -11.441 -31.256  0.00  0.00     0.385 C 
ATOM     17  NAK N9M d   1       8.267 -10.445 -31.390  0.00  0.00    -0.202 N 
ATOM     18  H9  N9M d   1       7.970  -9.491 -31.366  0.00  0.00     0.200 HD
ATOM     19  OAJ N9M d   1       7.748 -12.617 -31.253  0.00  0.00    -0.236 OA
BRANCH  17  20
ATOM     20  OAL N9M d   1       9.682 -10.782 -31.573  0.00  0.00    -0.205 OA
BRANCH  20  21
ATOM     21  CAM N9M d   1      10.365  -9.700 -31.129  0.00  0.00     0.230 C 
ATOM     22  OAN N9M d   1      11.599  -9.674 -31.161  0.00  0.00    -0.274 OA
ATOM     23  H8  N9M d   1       9.819  -8.842 -30.739  0.00  0.00     0.195 H 
ENDBRANCH  20  21
ENDBRANCH  17  20
ENDBRANCH  15  16
ENDBRANCH   1  15
TORSDOF 5
