REMARK  10 active torsions:
REMARK  status: ('A' for Active; 'I' for Inactive)
REMARK    1  A    between atoms: C11_1  and  C12_2 
REMARK    2  A    between atoms: C09_9  and  C11_1 
REMARK    3  A    between atoms: C02_6  and  C01_5 
REMARK    4  A    between atoms: N05_25  and  C04_7 
REMARK    5  A    between atoms: C07_8  and  C09_9 
REMARK       I    between atoms: N06_26  and  C07_8 
REMARK    6  A    between atoms: C09_9  and  C17_12 
REMARK    7  A    between atoms: C17_12  and  N18_27 
REMARK       I    between atoms: N18_27  and  C20_13 
REMARK    8  A    between atoms: C24_15  and  N26_29 
REMARK    9  A    between atoms: N05_25  and  N06_26 
REMARK   10  A    between atoms: N18_27  and  O19_32 
ROOT
ATOM      1  C02 NB4 d   1      22.773  -6.571   6.878  0.00  0.00     0.127 A 
ATOM      2  C04 NB4 d   1      24.035  -6.782   4.991  0.00  0.00     0.187 A 
ATOM      3  C22 NB4 d   1      22.895  -6.734   4.240  0.00  0.00     0.209 A 
ATOM      4  C24 NB4 d   1      21.654  -6.617   4.881  0.00  0.00     0.170 A 
ATOM      5  F23 NB4 d   1      23.004  -6.802   2.900  0.00  0.00    -0.198 F 
ATOM      6  N03 NB4 d   1      23.984  -6.696   6.331  0.00  0.00    -0.212 NA
ATOM      7  N25 NB4 d   1      21.616  -6.522   6.216  0.00  0.00    -0.213 NA
ENDROOT
BRANCH   2   8
ATOM      8  N05 NB4 d   1      25.236  -6.909   4.435  0.00  0.00    -0.279 N 
ATOM      9  H32 NB4 d   1      25.331  -7.489   3.589  0.00  0.00     0.189 HD
BRANCH   8  10
ATOM     10  N06 NB4 d   1      26.360  -6.295   4.947  0.00  0.00    -0.268 N 
ATOM     11  C07 NB4 d   1      26.525  -4.974   4.823  0.00  0.00     0.241 C 
ATOM     12  O08 NB4 d   1      25.683  -4.250   4.300  0.00  0.00    -0.271 OA
ATOM     13  H33 NB4 d   1      27.056  -6.841   5.414  0.00  0.00     0.190 HD
BRANCH  11  14
ATOM     14  C09 NB4 d   1      27.801  -4.424   5.389  0.00  0.00     0.043 C 
ATOM     15  H11 NB4 d   1      28.400  -5.245   5.809  0.00  0.00     0.057 H 
BRANCH  14  16
ATOM     16  C11 NB4 d   1      27.457  -3.448   6.519  0.00  0.00    -0.049 C 
ATOM     17  H1  NB4 d   1      28.398  -3.151   7.005  0.00  0.00     0.034 H 
ATOM     18  H2  NB4 d   1      26.983  -2.564   6.067  0.00  0.00     0.034 H 
BRANCH  16  19
ATOM     19  C12 NB4 d   1      26.519  -3.980   7.602  0.00  0.00    -0.053 C 
ATOM     20  C13 NB4 d   1      27.106  -5.174   8.368  0.00  0.00    -0.062 C 
ATOM     21  C14 NB4 d   1      26.455  -5.145   9.745  0.00  0.00    -0.065 C 
ATOM     22  H4  NB4 d   1      28.198  -5.072   8.458  0.00  0.00     0.033 H 
ATOM     23  H5  NB4 d   1      26.867  -6.115   7.851  0.00  0.00     0.033 H 
ATOM     24  C15 NB4 d   1      25.945  -3.758   9.982  0.00  0.00    -0.065 C 
ATOM     25  H6  NB4 d   1      27.196  -5.408  10.515  0.00  0.00     0.033 H 
ATOM     26  H7  NB4 d   1      25.621  -5.861   9.780  0.00  0.00     0.033 H 
ATOM     27  C16 NB4 d   1      26.254  -2.944   8.701  0.00  0.00    -0.062 C 
ATOM     28  H12 NB4 d   1      26.454  -3.310  10.848  0.00  0.00     0.033 H 
ATOM     29  H13 NB4 d   1      24.861  -3.779  10.165  0.00  0.00     0.033 H 
ATOM     30  H14 NB4 d   1      25.395  -2.312   8.432  0.00  0.00     0.033 H 
ATOM     31  H15 NB4 d   1      27.141  -2.312   8.854  0.00  0.00     0.033 H 
ATOM     32  H3  NB4 d   1      25.573  -4.271   7.123  0.00  0.00     0.040 H 
ENDBRANCH  16  19
ENDBRANCH  14  16
BRANCH  14  33
ATOM     33  C17 NB4 d   1      28.587  -3.783   4.252  0.00  0.00     0.034 C 
ATOM     34  H16 NB4 d   1      27.991  -2.962   3.827  0.00  0.00     0.069 H 
ATOM     35  H17 NB4 d   1      28.772  -4.541   3.477  0.00  0.00     0.069 H 
BRANCH  33  36
ATOM     36  N18 NB4 d   1      29.847  -3.258   4.697  0.00  0.00    -0.235 N 
ATOM     37  C20 NB4 d   1      29.973  -1.963   4.987  0.00  0.00     0.193 C 
ATOM     38  O21 NB4 d   1      30.993  -1.443   5.382  0.00  0.00    -0.281 OA
ATOM     39  H18 NB4 d   1      29.097  -1.328   4.860  0.00  0.00     0.183 H 
BRANCH  36  40
ATOM     40  O19 NB4 d   1      30.956  -4.087   4.853  0.00  0.00    -0.285 OA
ATOM     41  H35 NB4 d   1      31.239  -4.068   5.760  0.00  0.00     0.245 HD
ENDBRANCH  36  40
ENDBRANCH  33  36
ENDBRANCH  14  33
ENDBRANCH  11  14
ENDBRANCH   8  10
ENDBRANCH   2   8
BRANCH   4  42
ATOM     42  N26 NB4 d   1      20.458  -6.557   4.210  0.00  0.00    -0.359 N 
ATOM     43  C27 NB4 d   1      19.229  -6.162   4.891  0.00  0.00     0.019 C 
ATOM     44  C28 NB4 d   1      18.361  -5.349   3.955  0.00  0.00     0.099 C 
ATOM     45  H19 NB4 d   1      18.681  -7.062   5.207  0.00  0.00     0.066 H 
ATOM     46  H20 NB4 d   1      19.480  -5.556   5.774  0.00  0.00     0.066 H 
ATOM     47  N29 NB4 d   1      18.083  -6.129   2.742  0.00  0.00    -0.060 N 
ATOM     48  H21 NB4 d   1      18.885  -4.421   3.682  0.00  0.00     0.078 H 
ATOM     49  H22 NB4 d   1      17.414  -5.101   4.456  0.00  0.00     0.078 H 
ATOM     50  C30 NB4 d   1      17.198  -5.371   1.848  0.00  0.00     0.103 C 
ATOM     51  C34 NB4 d   1      19.347  -6.439   2.046  0.00  0.00     0.139 C 
ATOM     52  H34 NB4 d   1      17.629  -6.991   3.002  0.00  0.00     0.280 HD
ATOM     53  C31 NB4 d   1      16.979  -6.152   0.582  0.00  0.00     0.042 C 
ATOM     54  H23 NB4 d   1      16.232  -5.201   2.346  0.00  0.00     0.079 H 
ATOM     55  H24 NB4 d   1      17.662  -4.403   1.607  0.00  0.00     0.079 H 
ATOM     56  O32 NB4 d   1      18.207  -6.402  -0.089  0.00  0.00    -0.387 OA
ATOM     57  H25 NB4 d   1      16.317  -5.578  -0.083  0.00  0.00     0.076 H 
ATOM     58  H26 NB4 d   1      16.505  -7.113   0.831  0.00  0.00     0.076 H 
ATOM     59  C33 NB4 d   1      19.052  -7.176   0.755  0.00  0.00     0.048 C 
ATOM     60  H27 NB4 d   1      18.553  -8.128   0.989  0.00  0.00     0.077 H 
ATOM     61  H28 NB4 d   1      19.998  -7.377   0.231  0.00  0.00     0.077 H 
ATOM     62  C36 NB4 d   1      20.211  -7.283   2.959  0.00  0.00     0.025 C 
ATOM     63  H29 NB4 d   1      19.875  -5.503   1.812  0.00  0.00     0.090 H 
ATOM     64  H30 NB4 d   1      21.170  -7.495   2.463  0.00  0.00     0.067 H 
ATOM     65  H31 NB4 d   1      19.695  -8.229   3.180  0.00  0.00     0.067 H 
ENDBRANCH   4  42
BRANCH   1  66
ATOM     66  C01 NB4 d   1      22.705  -6.496   8.361  0.00  0.00    -0.019 C 
ATOM     67  H8  NB4 d   1      23.722  -6.547   8.778  0.00  0.00     0.037 H 
ATOM     68  H9  NB4 d   1      22.109  -7.338   8.744  0.00  0.00     0.037 H 
ATOM     69  H10 NB4 d   1      22.234  -5.548   8.659  0.00  0.00     0.037 H 
ENDBRANCH   1  66
TORSDOF 10
