REMARK  8 active torsions:
REMARK  status: ('A' for Active; 'I' for Inactive)
REMARK    1  A    between atoms: C04_2  and  C03_1 
REMARK    2  A    between atoms: C03_1  and  N02_21 
REMARK    3  A    between atoms: C04_2  and  C06_3 
REMARK    4  A    between atoms: C12_9  and  C04_2 
REMARK    5  A    between atoms: C06_3  and  C07_4 
REMARK       I    between atoms: N14_22  and  C12_9 
REMARK    6  A    between atoms: C21_14  and  C19_13 
REMARK       I    between atoms: N23_24  and  C21_14 
REMARK    7  A    between atoms: C24_15  and  N23_24 
REMARK       I    between atoms: N02_21  and  C30_20 
REMARK    8  A    between atoms: N02_21  and  O01_26 
ROOT
ATOM      1  C12 N9Y d   1      12.996  13.286 -24.963  0.00  0.00     0.250 C 
ATOM      2  C16 N9Y d   1      12.009  10.139 -25.769  0.00  0.00     0.103 C 
ATOM      3  C17 N9Y d   1      10.722  10.362 -26.521  0.00  0.00    -0.038 C 
ATOM      4  C18 N9Y d   1       9.894  11.506 -25.892  0.00  0.00    -0.034 C 
ATOM      5  C19 N9Y d   1      10.729  12.768 -25.719  0.00  0.00     0.119 C 
ATOM      6  N14 N9Y d   1      11.993  12.396 -25.067  0.00  0.00    -0.166 N 
ATOM      7  N15 N9Y d   1      12.178  11.060 -24.637  0.00  0.00     0.009 N 
ATOM      8  O13 N9Y d   1      12.864  14.426 -25.351  0.00  0.00    -0.271 OA
ATOM      9  H15 N9Y d   1      12.850  10.279 -26.464  0.00  0.00     0.079 H 
ATOM     10  H16 N9Y d   1      12.018   9.108 -25.386  0.00  0.00     0.079 H 
ATOM     11  H17 N9Y d   1      10.129   9.436 -26.498  0.00  0.00     0.035 H 
ATOM     12  H18 N9Y d   1      10.957  10.621 -27.564  0.00  0.00     0.035 H 
ATOM     13  H19 N9Y d   1       9.527  11.182 -24.907  0.00  0.00     0.036 H 
ATOM     14  H20 N9Y d   1       9.039  11.730 -26.546  0.00  0.00     0.036 H 
ATOM     15  H21 N9Y d   1      10.981  13.134 -26.726  0.00  0.00     0.091 H 
ATOM     16  H27 N9Y d   1      13.107  10.957 -24.259  0.00  0.00     0.306 HD
ATOM     17  H28 N9Y d   1      11.499  10.842 -23.925  0.00  0.00     0.306 HD
ENDROOT
BRANCH   1  18
ATOM     18  C04 N9Y d   1      14.307  12.833 -24.348  0.00  0.00     0.043 C 
ATOM     19  H3  N9Y d   1      14.193  11.839 -23.891  0.00  0.00     0.057 H 
BRANCH  18  20
ATOM     20  C03 N9Y d   1      15.299  12.753 -25.512  0.00  0.00     0.034 C 
ATOM     21  H1  N9Y d   1      15.386  13.752 -25.965  0.00  0.00     0.069 H 
ATOM     22  H2  N9Y d   1      14.905  12.046 -26.257  0.00  0.00     0.069 H 
BRANCH  20  23
ATOM     23  N02 N9Y d   1      16.609  12.316 -25.118  0.00  0.00    -0.235 N 
ATOM     24  C30 N9Y d   1      17.683  13.061 -24.857  0.00  0.00     0.193 C 
ATOM     25  O31 N9Y d   1      18.742  12.623 -24.465  0.00  0.00    -0.281 OA
ATOM     26  H26 N9Y d   1      17.603  14.137 -25.006  0.00  0.00     0.183 H 
BRANCH  23  27
ATOM     27  O01 N9Y d   1      16.707  10.948 -24.942  0.00  0.00    -0.285 OA
ATOM     28  H30 N9Y d   1      16.923  10.761 -24.036  0.00  0.00     0.245 HD
ENDBRANCH  23  27
ENDBRANCH  20  23
ENDBRANCH  18  20
BRANCH  18  29
ATOM     29  C06 N9Y d   1      14.733  13.833 -23.261  0.00  0.00    -0.049 C 
ATOM     30  H4  N9Y d   1      14.937  14.795 -23.755  0.00  0.00     0.034 H 
ATOM     31  H5  N9Y d   1      15.658  13.453 -22.803  0.00  0.00     0.034 H 
BRANCH  29  32
ATOM     32  C07 N9Y d   1      13.731  14.094 -22.134  0.00  0.00    -0.053 C 
ATOM     33  C08 N9Y d   1      13.071  12.829 -21.595  0.00  0.00    -0.062 C 
ATOM     34  C09 N9Y d   1      12.607  13.197 -20.198  0.00  0.00    -0.065 C 
ATOM     35  H7  N9Y d   1      13.794  12.001 -21.557  0.00  0.00     0.033 H 
ATOM     36  H8  N9Y d   1      12.216  12.540 -22.224  0.00  0.00     0.033 H 
ATOM     37  C10 N9Y d   1      13.564  14.230 -19.693  0.00  0.00    -0.065 C 
ATOM     38  H9  N9Y d   1      12.624  12.311 -19.546  0.00  0.00     0.033 H 
ATOM     39  H10 N9Y d   1      11.587  13.608 -20.232  0.00  0.00     0.033 H 
ATOM     40  C11 N9Y d   1      14.386  14.713 -20.893  0.00  0.00    -0.062 C 
ATOM     41  H11 N9Y d   1      14.228  13.790 -18.934  0.00  0.00     0.033 H 
ATOM     42  H12 N9Y d   1      13.011  15.072 -19.252  0.00  0.00     0.033 H 
ATOM     43  H13 N9Y d   1      14.361  15.811 -20.956  0.00  0.00     0.033 H 
ATOM     44  H14 N9Y d   1      15.429  14.374 -20.803  0.00  0.00     0.033 H 
ATOM     45  H6  N9Y d   1      12.959  14.773 -22.524  0.00  0.00     0.040 H 
ENDBRANCH  29  32
ENDBRANCH  18  29
ENDBRANCH   1  18
BRANCH   5  46
ATOM     46  C21 N9Y d   1       9.983  13.892 -25.041  0.00  0.00     0.248 C 
ATOM     47  N23 N9Y d   1       9.368  14.725 -25.910  0.00  0.00    -0.310 N 
ATOM     48  H29 N9Y d   1       9.456  14.482 -26.876  0.00  0.00     0.170 HD
ATOM     49  O22 N9Y d   1       9.972  14.012 -23.820  0.00  0.00    -0.271 OA
BRANCH  47  50
ATOM     50  C24 N9Y d   1       8.626  15.880 -25.643  0.00  0.00     0.129 A 
ATOM     51  C25 N9Y d   1       8.175  16.239 -24.373  0.00  0.00    -0.038 A 
ATOM     52  C26 N9Y d   1       7.460  17.417 -24.251  0.00  0.00    -0.078 A 
ATOM     53  H22 N9Y d   1       8.378  15.615 -23.510  0.00  0.00     0.089 H 
ATOM     54  C27 N9Y d   1       7.226  18.199 -25.363  0.00  0.00    -0.066 A 
ATOM     55  H23 N9Y d   1       7.084  17.725 -23.282  0.00  0.00     0.083 H 
ATOM     56  C28 N9Y d   1       7.722  17.768 -26.573  0.00  0.00     0.004 A 
ATOM     57  H24 N9Y d   1       6.668  19.125 -25.287  0.00  0.00     0.085 H 
ATOM     58  N29 N9Y d   1       8.418  16.634 -26.729  0.00  0.00    -0.243 NA
ATOM     59  H25 N9Y d   1       7.539  18.381 -27.448  0.00  0.00     0.114 H 
ENDBRANCH  47  50
ENDBRANCH   5  46
TORSDOF 8
