REMARK  12 active torsions:
REMARK  status: ('A' for Active; 'I' for Inactive)
REMARK    1  A    between atoms: N_1  and  CA_2 
REMARK    2  A    between atoms: CA_2  and  C_3 
REMARK    3  A    between atoms: CA_2  and  CB_6 
REMARK    4  A    between atoms: CB_6  and  CG_7 
REMARK    5  A    between atoms: CG_7  and  CD_8 
REMARK    6  A    between atoms: CD_8  and  NE_9 
REMARK    7  A    between atoms: CD_8  and  C5'_10 
REMARK    8  A    between atoms: C5'_10  and  C4'_11 
REMARK    9  A    between atoms: C3'_13  and  O3'_14 
REMARK   10  A    between atoms: C2'_15  and  O2'_16 
REMARK   11  A    between atoms: C1'_17  and  N9_18 
REMARK   12  A    between atoms: C6_22  and  N6_23 
ROOT
ATOM      1  C4' SFG d   1       5.415   5.363  16.984  0.00  0.00     0.070 C 
ATOM      2  O4' SFG d   1       5.260   6.475  17.894  0.00  0.00    -0.355 OA
ATOM      3  C3' SFG d   1       6.409   4.488  17.704  0.00  0.00     0.089 C 
ATOM      4  C2' SFG d   1       7.221   5.575  18.466  0.00  0.00     0.105 C 
ATOM      5  C1' SFG d   1       6.376   6.516  18.763  0.00  0.00     0.139 C 
ATOM      6  H15 SFG d   1       5.814   5.688  16.012  0.00  0.00     0.087 H 
ATOM      7  H16 SFG d   1       5.925   3.778  18.391  0.00  0.00     0.091 H 
ATOM      8  H18 SFG d   1       7.686   5.159  19.372  0.00  0.00     0.093 H 
ATOM      9  H20 SFG d   1       6.886   7.482  18.636  0.00  0.00     0.122 H 
ENDROOT
BRANCH   1  10
ATOM     10  C5' SFG d   1       4.068   4.694  16.779  0.00  0.00    -0.012 C 
ATOM     11  H13 SFG d   1       4.233   3.710  16.316  0.00  0.00     0.040 H 
ATOM     12  H14 SFG d   1       3.590   4.562  17.761  0.00  0.00     0.040 H 
BRANCH  10  13
ATOM     13  CD  SFG d   1       3.127   5.502  15.884  0.00  0.00     0.102 C 
ATOM     14  H9  SFG d   1       3.731   6.007  15.116  0.00  0.00     0.084 H 
BRANCH  13  15
ATOM     15  CG  SFG d   1       2.374   6.568  16.692  0.00  0.00    -0.036 C 
ATOM     16  H7  SFG d   1       1.325   6.262  16.816  0.00  0.00     0.036 H 
ATOM     17  H8  SFG d   1       2.843   6.678  17.681  0.00  0.00     0.036 H 
BRANCH  15  18
ATOM     18  CB  SFG d   1       2.432   7.896  15.951  0.00  0.00    -0.027 C 
ATOM     19  H5  SFG d   1       1.922   7.788  14.982  0.00  0.00     0.036 H 
ATOM     20  H6  SFG d   1       1.921   8.663  16.551  0.00  0.00     0.036 H 
BRANCH  18  21
ATOM     21  CA  SFG d   1       3.904   8.343  15.703  0.00  0.00     0.182 C 
ATOM     22  H4  SFG d   1       4.522   7.443  15.569  0.00  0.00     0.101 H 
BRANCH  21  23
ATOM     23  N   SFG d   1       4.413   9.090  16.813  0.00  0.00    -0.065 N 
ATOM     24  H1  SFG d   1       4.353   8.531  17.650  0.00  0.00     0.275 HD
ATOM     25  H2  SFG d   1       3.869   9.931  16.930  0.00  0.00     0.275 HD
ATOM     26  H3  SFG d   1       5.376   9.334  16.641  0.00  0.00     0.275 HD
ENDBRANCH  21  23
BRANCH  21  27
ATOM     27  C   SFG d   1       4.000   9.190  14.457  0.00  0.00     0.204 C 
ATOM     28  O   SFG d   1       3.486   8.783  13.359  0.00  0.00    -0.646 OA
ATOM     29  OXT SFG d   1       4.595  10.302  14.497  0.00  0.00    -0.646 OA
ENDBRANCH  21  27
ENDBRANCH  18  21
ENDBRANCH  15  18
ENDBRANCH  13  15
BRANCH  13  30
ATOM     30  NE  SFG d   1       2.174   4.641  15.228  0.00  0.00    -0.075 N 
ATOM     31  H10 SFG d   1       2.665   3.940  14.696  0.00  0.00     0.274 HD
ATOM     32  H11 SFG d   1       1.597   5.189  14.609  0.00  0.00     0.274 HD
ATOM     33  H12 SFG d   1       1.594   4.193  15.920  0.00  0.00     0.274 HD
ENDBRANCH  13  30
ENDBRANCH  10  13
ENDBRANCH   1  10
BRANCH   3  34
ATOM     34  O3' SFG d   1       7.212   3.784  16.759  0.00  0.00    -0.390 OA
ATOM     35  H17 SFG d   1       7.835   3.236  17.221  0.00  0.00     0.210 HD
ENDBRANCH   3  34
BRANCH   5  36
ATOM     36  N9  SFG d   1       5.887   6.424  20.178  0.00  0.00    -0.294 N 
ATOM     37  C8  SFG d   1       4.690   5.982  20.567  0.00  0.00     0.071 A 
ATOM     38  N7  SFG d   1       4.574   6.055  21.916  0.00  0.00    -0.236 NA
ATOM     39  H21 SFG d   1       3.915   5.614  19.896  0.00  0.00     0.144 H 
ATOM     40  C5  SFG d   1       5.720   6.558  22.367  0.00  0.00     0.149 A 
ATOM     41  C6  SFG d   1       6.166   6.852  23.659  0.00  0.00     0.155 A 
ATOM     42  C4  SFG d   1       6.561   6.803  21.281  0.00  0.00     0.167 A 
ATOM     43  N1  SFG d   1       7.363   7.353  23.857  0.00  0.00    -0.222 NA
ATOM     44  C2  SFG d   1       8.118   7.561  22.750  0.00  0.00     0.091 A 
ATOM     45  N3  SFG d   1       7.794   7.317  21.474  0.00  0.00    -0.222 NA
ATOM     46  H24 SFG d   1       9.105   7.976  22.919  0.00  0.00     0.146 H 
BRANCH  41  47
ATOM     47  N6  SFG d   1       5.378   6.631  24.719  0.00  0.00    -0.382 N 
ATOM     48  H22 SFG d   1       5.716   6.851  25.667  0.00  0.00     0.157 HD
ATOM     49  H23 SFG d   1       4.434   6.241  24.587  0.00  0.00     0.157 HD
ENDBRANCH  41  47
ENDBRANCH   5  36
BRANCH   4  50
ATOM     50  O2' SFG d   1       8.219   6.110  17.588  0.00  0.00    -0.388 OA
ATOM     51  H19 SFG d   1       8.719   6.775  18.047  0.00  0.00     0.210 HD
ENDBRANCH   4  50
TORSDOF 12
