REMARK  21 active torsions:
REMARK  status: ('A' for Active; 'I' for Inactive)
REMARK    1  A    between atoms: N_1  and  CA_2 
REMARK    2  A    between atoms: CA_2  and  C_3 
REMARK    3  A    between atoms: CA_2  and  CB_5 
REMARK       I    between atoms: C_3  and  N_6 
REMARK    4  A    between atoms: N_6  and  CA_7 
REMARK    5  A    between atoms: CA_7  and  C_8 
REMARK    6  A    between atoms: CA_7  and  CB_10 
REMARK       I    between atoms: C_8  and  N_11 
REMARK    7  A    between atoms: N_11  and  CA_12 
REMARK    8  A    between atoms: CA_12  and  C_13 
REMARK    9  A    between atoms: CA_12  and  CB_15 
REMARK       I    between atoms: C_13  and  N_16 
REMARK   10  A    between atoms: N_16  and  CA_17 
REMARK   11  A    between atoms: CA_17  and  C_18 
REMARK   12  A    between atoms: CA_17  and  CB_20 
REMARK       I    between atoms: C_18  and  N_21 
REMARK   13  A    between atoms: N_21  and  CA_22 
REMARK   14  A    between atoms: CA_22  and  C_23 
REMARK   15  A    between atoms: CA_22  and  CB_25 
REMARK       I    between atoms: C_23  and  N_26 
REMARK   16  A    between atoms: N_26  and  CA_27 
REMARK   17  A    between atoms: CA_27  and  C_28 
REMARK   18  A    between atoms: CA_27  and  CB_30 
REMARK       I    between atoms: C_28  and  N_31 
REMARK   19  A    between atoms: N_31  and  CA_32 
REMARK   20  A    between atoms: CA_32  and  C_33 
REMARK   21  A    between atoms: CA_32  and  CB_35 
ROOT
ATOM      1  CA  UNK d   1     150.382 196.047 135.122  0.00  0.00     0.086 C 
ATOM      2  H19 UNK d   1     151.222 196.734 135.300  0.00  0.00     0.086 H 
ENDROOT
BRANCH   1   3
ATOM      3  N   UNK d   1     150.763 195.128 134.055  0.00  0.00    -0.346 N 
ATOM      4  C   UNK d   1     151.918 194.475 134.078  0.00  0.00     0.240 C 
ATOM      5  O   UNK d   1     152.732 194.583 134.987  0.00  0.00    -0.271 OA
ATOM      6  H18 UNK d   1     150.138 194.987 133.287  0.00  0.00     0.163 HD
BRANCH   4   7
ATOM      7  CA  UNK d   1     152.211 193.550 132.913  0.00  0.00     0.086 C 
ATOM      8  H14 UNK d   1     151.272 193.068 132.602  0.00  0.00     0.086 H 
BRANCH   7   9
ATOM      9  N   UNK d   1     152.740 194.297 131.787  0.00  0.00    -0.346 N 
ATOM     10  C   UNK d   1     151.957 195.053 131.030  0.00  0.00     0.240 C 
ATOM     11  O   UNK d   1     150.751 195.167 131.229  0.00  0.00    -0.271 OA
ATOM     12  H13 UNK d   1     153.716 194.240 131.577  0.00  0.00     0.163 HD
BRANCH  10  13
ATOM     13  CA  UNK d   1     152.637 195.798 129.887  0.00  0.00     0.086 C 
ATOM     14  H9  UNK d   1     153.708 195.887 130.123  0.00  0.00     0.086 H 
BRANCH  13  15
ATOM     15  N   UNK d   1     152.512 195.080 128.625  0.00  0.00    -0.346 N 
ATOM     16  C   UNK d   1     153.355 195.282 127.619  0.00  0.00     0.248 C 
ATOM     17  O   UNK d   1     154.312 196.046 127.684  0.00  0.00    -0.271 OA
ATOM     18  H8  UNK d   1     151.771 194.417 128.514  0.00  0.00     0.163 HD
BRANCH  16  19
ATOM     19  CA  UNK d   1     153.095 194.501 126.348  0.00  0.00     0.172 C 
ATOM     20  H4  UNK d   1     152.119 194.805 125.941  0.00  0.00     0.098 H 
BRANCH  19  21
ATOM     21  N   UNK d   1     154.122 194.800 125.359  0.00  0.00    -0.067 N 
ATOM     22  H1  UNK d   1     153.941 194.276 124.517  0.00  0.00     0.275 HD
ATOM     23  H2  UNK d   1     155.026 194.545 125.725  0.00  0.00     0.275 HD
ATOM     24  H3  UNK d   1     154.110 195.786 125.150  0.00  0.00     0.275 HD
ENDBRANCH  19  21
BRANCH  19  25
ATOM     25  CB  UNK d   1     153.049 193.005 126.649  0.00  0.00    -0.042 C 
ATOM     26  H5  UNK d   1     152.267 192.805 127.397  0.00  0.00     0.030 H 
ATOM     27  H6  UNK d   1     154.024 192.680 127.042  0.00  0.00     0.030 H 
ATOM     28  H7  UNK d   1     152.823 192.452 125.725  0.00  0.00     0.030 H 
ENDBRANCH  19  25
ENDBRANCH  16  19
ENDBRANCH  13  15
BRANCH  13  29
ATOM     29  CB  UNK d   1     152.050 197.206 129.768  0.00  0.00    -0.049 C 
ATOM     30  H10 UNK d   1     152.155 197.729 130.730  0.00  0.00     0.030 H 
ATOM     31  H11 UNK d   1     150.985 197.138 129.502  0.00  0.00     0.030 H 
ATOM     32  H12 UNK d   1     152.589 197.763 128.987  0.00  0.00     0.030 H 
ENDBRANCH  13  29
ENDBRANCH  10  13
ENDBRANCH   7   9
BRANCH   7  33
ATOM     33  CB  UNK d   1     153.197 192.467 133.345  0.00  0.00    -0.049 C 
ATOM     34  H15 UNK d   1     152.781 191.911 134.198  0.00  0.00     0.030 H 
ATOM     35  H16 UNK d   1     154.148 192.934 133.641  0.00  0.00     0.030 H 
ATOM     36  H17 UNK d   1     153.372 191.776 132.508  0.00  0.00     0.030 H 
ENDBRANCH   7  33
ENDBRANCH   4   7
ENDBRANCH   1   3
BRANCH   1  37
ATOM     37  C   UNK d   1     150.090 195.303 136.417  0.00  0.00     0.240 C 
ATOM     38  O   UNK d   1     148.935 195.018 136.720  0.00  0.00    -0.271 OA
ATOM     39  N   UNK d   1     151.145 194.998 137.168  0.00  0.00    -0.346 N 
ATOM     40  H23 UNK d   1     152.052 195.277 136.853  0.00  0.00     0.163 HD
BRANCH  39  41
ATOM     41  CA  UNK d   1     151.037 194.275 138.431  0.00  0.00     0.086 C 
ATOM     42  H24 UNK d   1     150.453 193.359 138.256  0.00  0.00     0.086 H 
BRANCH  41  43
ATOM     43  C   UNK d   1     150.323 195.106 139.479  0.00  0.00     0.240 C 
ATOM     44  O   UNK d   1     150.313 196.327 139.400  0.00  0.00    -0.271 OA
ATOM     45  N   UNK d   1     149.723 194.444 140.458  0.00  0.00    -0.346 N 
ATOM     46  H28 UNK d   1     149.809 193.449 140.502  0.00  0.00     0.163 HD
BRANCH  45  47
ATOM     47  CA  UNK d   1     148.944 195.137 141.468  0.00  0.00     0.086 C 
ATOM     48  H29 UNK d   1     148.934 196.209 141.220  0.00  0.00     0.086 H 
BRANCH  47  49
ATOM     49  C   UNK d   1     149.565 194.971 142.844  0.00  0.00     0.240 C 
ATOM     50  O   UNK d   1     150.339 194.044 143.082  0.00  0.00    -0.271 OA
ATOM     51  N   UNK d   1     149.219 195.880 143.748  0.00  0.00    -0.345 N 
ATOM     52  H33 UNK d   1     148.576 196.601 143.490  0.00  0.00     0.163 HD
BRANCH  51  53
ATOM     53  CA  UNK d   1     149.748 195.857 145.103  0.00  0.00     0.093 C 
ATOM     54  H34 UNK d   1     150.322 194.928 145.235  0.00  0.00     0.089 H 
BRANCH  53  55
ATOM     55  C   UNK d   1     148.622 195.878 146.129  0.00  0.00     0.196 C 
ATOM     56  O   UNK d   1     147.498 196.275 145.821  0.00  0.00    -0.646 OA
ATOM     57  OXT UNK d   1     148.840 195.496 147.278  0.00  0.00    -0.646 OA
ENDBRANCH  53  55
BRANCH  53  58
ATOM     58  CB  UNK d   1     150.684 197.043 145.329  0.00  0.00    -0.048 C 
ATOM     59  H35 UNK d   1     151.075 197.011 146.357  0.00  0.00     0.030 H 
ATOM     60  H36 UNK d   1     150.131 197.981 145.176  0.00  0.00     0.030 H 
ATOM     61  H37 UNK d   1     151.521 196.991 144.617  0.00  0.00     0.030 H 
ENDBRANCH  53  58
ENDBRANCH  51  53
ENDBRANCH  47  49
BRANCH  47  62
ATOM     62  CB  UNK d   1     147.503 194.630 141.474  0.00  0.00    -0.049 C 
ATOM     63  H30 UNK d   1     146.929 195.166 142.244  0.00  0.00     0.030 H 
ATOM     64  H31 UNK d   1     147.494 193.552 141.694  0.00  0.00     0.030 H 
ATOM     65  H32 UNK d   1     147.048 194.807 140.488  0.00  0.00     0.030 H 
ENDBRANCH  47  62
ENDBRANCH  45  47
ENDBRANCH  41  43
BRANCH  41  66
ATOM     66  CB  UNK d   1     152.421 193.879 138.942  0.00  0.00    -0.049 C 
ATOM     67  H25 UNK d   1     152.319 193.336 139.893  0.00  0.00     0.030 H 
ATOM     68  H26 UNK d   1     153.026 194.784 139.099  0.00  0.00     0.030 H 
ATOM     69  H27 UNK d   1     152.914 193.232 138.202  0.00  0.00     0.030 H 
ENDBRANCH  41  66
ENDBRANCH  39  41
ENDBRANCH   1  37
BRANCH   1  70
ATOM     70  CB  UNK d   1     149.163 196.870 134.710  0.00  0.00    -0.049 C 
ATOM     71  H20 UNK d   1     148.891 197.556 135.526  0.00  0.00     0.030 H 
ATOM     72  H21 UNK d   1     148.319 196.196 134.501  0.00  0.00     0.030 H 
ATOM     73  H22 UNK d   1     149.401 197.451 133.807  0.00  0.00     0.030 H 
ENDBRANCH   1  70
TORSDOF 21
