REMARK  18 active torsions:
REMARK  status: ('A' for Active; 'I' for Inactive)
REMARK    1  A    between atoms: C1_1  and  O1_2 
REMARK    2  A    between atoms: C2_3  and  C1_1 
REMARK    3  A    between atoms: S8_9  and  C5_6 
REMARK    4  A    between atoms: N11_12  and  S8_9 
REMARK    5  A    between atoms: N11_12  and  C12_13 
REMARK    6  A    between atoms: C16_17  and  N11_12 
REMARK    7  A    between atoms: C12_13  and  C13_14 
REMARK    8  A    between atoms: C13_14  and  C14_15 
REMARK    9  A    between atoms: C13_14  and  C15_16 
REMARK   10  A    between atoms: C15_16  and  C18_19 
REMARK   11  A    between atoms: C17_18  and  C16_17 
REMARK   12  A    between atoms: C17_18  and  O18_20 
REMARK   13  A    between atoms: C19_21  and  C17_18 
REMARK   14  A    between atoms: C19_21  and  N20_22 
REMARK   15  A    between atoms: C32_34  and  C19_21 
REMARK       I    between atoms: N20_22  and  C21_23 
REMARK   16  A    between atoms: C21_23  and  O23_25 
REMARK   17  A    between atoms: O23_25  and  C24_26 
REMARK   18  A    between atoms: C38_40  and  C32_34 
ROOT
ATOM      1  C17 K2A d   1      71.096  57.658  15.068  0.00  0.00     0.071 C 
ATOM      2  H18 K2A d   1      72.141  57.316  15.062  0.00  0.00     0.088 H 
ENDROOT
BRANCH   1   3
ATOM      3  C16 K2A d   1      70.206  56.538  14.532  0.00  0.00     0.031 C 
ATOM      4  H16 K2A d   1      69.151  56.790  14.718  0.00  0.00     0.069 H 
ATOM      5  H17 K2A d   1      70.371  56.428  13.450  0.00  0.00     0.069 H 
BRANCH   3   6
ATOM      6  N11 K2A d   1      70.527  55.290  15.197  0.00  0.00    -0.304 N 
BRANCH   6   7
ATOM      7  S8  K2A d   1      69.332  54.679  16.246  0.00  0.00     0.260 S 
ATOM      8  O9  K2A d   1      68.552  55.743  16.873  0.00  0.00    -0.200 OA
ATOM      9  O10 K2A d   1      69.916  53.916  17.352  0.00  0.00    -0.200 OA
BRANCH   7  10
ATOM     10  C5  K2A d   1      68.257  53.632  15.271  0.00  0.00     0.079 A 
ATOM     11  C4  K2A d   1      68.494  52.136  15.318  0.00  0.00    -0.060 A 
ATOM     12  C3  K2A d   1      67.596  51.235  14.497  0.00  0.00    -0.073 A 
ATOM     13  H5  K2A d   1      69.289  51.720  15.926  0.00  0.00     0.085 H 
ATOM     14  C2  K2A d   1      66.483  51.852  13.666  0.00  0.00    -0.035 A 
ATOM     15  H4  K2A d   1      67.745  50.161  14.502  0.00  0.00     0.084 H 
ATOM     16  C7  K2A d   1      66.259  53.358  13.619  0.00  0.00    -0.073 A 
ATOM     17  C6  K2A d   1      67.153  54.265  14.441  0.00  0.00    -0.060 A 
ATOM     18  H7  K2A d   1      65.470  53.776  13.005  0.00  0.00     0.084 H 
ATOM     19  H6  K2A d   1      67.008  55.339  14.437  0.00  0.00     0.085 H 
BRANCH  14  20
ATOM     20  C1  K2A d   1      65.593  50.948  12.838  0.00  0.00     0.040 C 
ATOM     21  H1  K2A d   1      65.634  49.917  13.220  0.00  0.00     0.081 H 
ATOM     22  H2  K2A d   1      64.554  51.307  12.863  0.00  0.00     0.081 H 
BRANCH  20  23
ATOM     23  O1  K2A d   1      66.094  51.004  11.539  0.00  0.00    -0.396 OA
ATOM     24  H3  K2A d   1      65.568  50.450  10.974  0.00  0.00     0.209 HD
ENDBRANCH  20  23
ENDBRANCH  14  20
ENDBRANCH   7  10
ENDBRANCH   6   7
BRANCH   6  25
ATOM     25  C12 K2A d   1      71.247  54.260  14.462  0.00  0.00     0.008 C 
ATOM     26  H8  K2A d   1      70.899  54.249  13.419  0.00  0.00     0.066 H 
ATOM     27  H9  K2A d   1      71.051  53.281  14.924  0.00  0.00     0.066 H 
BRANCH  25  28
ATOM     28  C13 K2A d   1      72.746  54.537  14.488  0.00  0.00    -0.042 C 
ATOM     29  H10 K2A d   1      72.938  55.536  14.070  0.00  0.00     0.042 H 
BRANCH  28  30
ATOM     30  C14 K2A d   1      73.266  54.497  15.924  0.00  0.00    -0.071 C 
ATOM     31  H11 K2A d   1      74.347  54.698  15.928  0.00  0.00     0.028 H 
ATOM     32  H12 K2A d   1      73.076  53.503  16.355  0.00  0.00     0.028 H 
ATOM     33  H13 K2A d   1      72.749  55.261  16.523  0.00  0.00     0.028 H 
ENDBRANCH  28  30
BRANCH  28  34
ATOM     34  C15 K2A d   1      73.450  53.488  13.623  0.00  0.00    -0.064 C 
ATOM     35  H14 K2A d   1      74.509  53.767  13.520  0.00  0.00     0.033 H 
ATOM     36  H15 K2A d   1      72.977  53.471  12.630  0.00  0.00     0.033 H 
BRANCH  34  37
ATOM     37  C18 K2A d   1      73.366  52.090  14.232  0.00  0.00    -0.076 C 
ATOM     38  H19 K2A d   1      73.884  51.373  13.578  0.00  0.00     0.027 H 
ATOM     39  H20 K2A d   1      72.311  51.797  14.334  0.00  0.00     0.027 H 
ATOM     40  H21 K2A d   1      73.843  52.093  15.223  0.00  0.00     0.027 H 
ENDBRANCH  34  37
ENDBRANCH  28  34
ENDBRANCH  25  28
ENDBRANCH   6  25
ENDBRANCH   3   6
ENDBRANCH   1   3
BRANCH   1  41
ATOM     41  O18 K2A d   1      70.973  58.780  14.242  0.00  0.00    -0.392 OA
ATOM     42  H22 K2A d   1      71.242  58.553  13.360  0.00  0.00     0.210 HD
ENDBRANCH   1  41
BRANCH   1  43
ATOM     43  C19 K2A d   1      70.709  58.039  16.498  0.00  0.00     0.044 C 
ATOM     44  H23 K2A d   1      70.711  57.139  17.131  0.00  0.00     0.077 H 
BRANCH  43  45
ATOM     45  N20 K2A d   1      71.674  59.000  16.979  0.00  0.00    -0.329 N 
ATOM     46  C21 K2A d   1      72.674  58.660  17.956  0.00  0.00     0.361 C 
ATOM     47  O22 K2A d   1      72.697  57.597  18.502  0.00  0.00    -0.238 OA
ATOM     48  H24 K2A d   1      71.646  59.933  16.621  0.00  0.00     0.165 HD
BRANCH  46  49
ATOM     49  O23 K2A d   1      73.607  59.676  18.192  0.00  0.00    -0.296 OA
BRANCH  49  50
ATOM     50  C24 K2A d   1      74.541  59.553  19.348  0.00  0.00     0.078 C 
ATOM     51  C25 K2A d   1      75.644  59.919  18.982  0.00  0.00     0.048 C 
ATOM     52  O26 K2A d   1      75.511  61.437  18.937  0.00  0.00    -0.358 OA
ATOM     53  H26 K2A d   1      75.884  59.515  17.988  0.00  0.00     0.078 H 
ATOM     54  H27 K2A d   1      76.419  59.612  19.699  0.00  0.00     0.078 H 
ATOM     55  C27 K2A d   1      74.570  61.737  20.074  0.00  0.00     0.137 C 
ATOM     56  O28 K2A d   1      73.305  62.650  19.536  0.00  0.00    -0.361 OA
ATOM     57  C31 K2A d   1      74.115  60.644  20.475  0.00  0.00     0.023 C 
ATOM     58  H28 K2A d   1      75.100  62.260  20.883  0.00  0.00     0.129 H 
ATOM     59  C29 K2A d   1      72.239  61.920  19.573  0.00  0.00     0.023 C 
ATOM     60  C30 K2A d   1      72.540  60.809  20.548  0.00  0.00    -0.035 C 
ATOM     61  H29 K2A d   1      72.022  61.508  18.577  0.00  0.00     0.074 H 
ATOM     62  H30 K2A d   1      71.380  62.513  19.920  0.00  0.00     0.074 H 
ATOM     63  H31 K2A d   1      72.036  59.879  20.247  0.00  0.00     0.037 H 
ATOM     64  H32 K2A d   1      72.223  61.086  21.564  0.00  0.00     0.037 H 
ATOM     65  H33 K2A d   1      74.522  60.369  21.459  0.00  0.00     0.051 H 
ATOM     66  H25 K2A d   1      74.553  58.528  19.747  0.00  0.00     0.088 H 
ENDBRANCH  49  50
ENDBRANCH  46  49
ENDBRANCH  43  45
BRANCH  43  67
ATOM     67  C32 K2A d   1      69.342  58.714  16.567  0.00  0.00    -0.020 C 
ATOM     68  H34 K2A d   1      68.557  57.995  16.289  0.00  0.00     0.043 H 
ATOM     69  H35 K2A d   1      69.315  59.571  15.878  0.00  0.00     0.043 H 
BRANCH  67  70
ATOM     70  C38 K2A d   1      69.119  59.195  18.001  0.00  0.00    -0.056 A 
ATOM     71  C33 K2A d   1      68.786  58.190  19.097  0.00  0.00    -0.077 A 
ATOM     72  C34 K2A d   1      68.569  58.665  20.531  0.00  0.00    -0.082 A 
ATOM     73  H36 K2A d   1      68.703  57.136  18.858  0.00  0.00     0.084 H 
ATOM     74  C35 K2A d   1      68.691  60.148  20.866  0.00  0.00    -0.083 A 
ATOM     75  H37 K2A d   1      68.329  57.950  21.310  0.00  0.00     0.083 H 
ATOM     76  C36 K2A d   1      69.028  61.151  19.768  0.00  0.00    -0.082 A 
ATOM     77  H38 K2A d   1      68.538  60.489  21.884  0.00  0.00     0.083 H 
ATOM     78  C37 K2A d   1      69.245  60.674  18.335  0.00  0.00    -0.077 A 
ATOM     79  H39 K2A d   1      69.114  62.205  20.006  0.00  0.00     0.083 H 
ATOM     80  H40 K2A d   1      69.489  61.388  17.556  0.00  0.00     0.084 H 
ENDBRANCH  67  70
ENDBRANCH  43  67
ENDBRANCH   1  43
TORSDOF 18
