REMARK  19 active torsions:
REMARK  status: ('A' for Active; 'I' for Inactive)
REMARK    1  A    between atoms: C1_1  and  O1_2 
REMARK    2  A    between atoms: C2_3  and  C1_1 
REMARK    3  A    between atoms: S8_10  and  C5_6 
REMARK    4  A    between atoms: N11_13  and  S8_10 
REMARK    5  A    between atoms: N11_13  and  C12_14 
REMARK    6  A    between atoms: C16_18  and  N11_13 
REMARK    7  A    between atoms: C12_14  and  C13_15 
REMARK    8  A    between atoms: C13_15  and  C14_16 
REMARK    9  A    between atoms: C13_15  and  C15_17 
REMARK   10  A    between atoms: C14_16  and  C20_23 
REMARK   11  A    between atoms: C15_17  and  C18_20 
REMARK   12  A    between atoms: C17_19  and  C16_18 
REMARK   13  A    between atoms: C17_19  and  O18_21 
REMARK   14  A    between atoms: C19_22  and  C17_19 
REMARK   15  A    between atoms: C19_22  and  N20_24 
REMARK   16  A    between atoms: C32_35  and  C19_22 
REMARK       I    between atoms: N20_24  and  C21_25 
REMARK   17  A    between atoms: C21_25  and  O23_27 
REMARK   18  A    between atoms: O23_27  and  C24_28 
REMARK   19  A    between atoms: C38_41  and  C32_35 
ROOT
ATOM      1  C17 F53 d   1      70.890  57.845  15.121  0.00  0.00     0.071 C 
ATOM      2  H17 F53 d   1      71.925  57.475  15.082  0.00  0.00     0.088 H 
ENDROOT
BRANCH   1   3
ATOM      3  C16 F53 d   1      69.948  56.748  14.582  0.00  0.00     0.031 C 
ATOM      4  H15 F53 d   1      68.905  57.005  14.819  0.00  0.00     0.069 H 
ATOM      5  H16 F53 d   1      70.066  56.660  13.492  0.00  0.00     0.069 H 
BRANCH   3   6
ATOM      6  N11 F53 d   1      70.309  55.460  15.233  0.00  0.00    -0.304 N 
BRANCH   6   7
ATOM      7  S8  F53 d   1      69.118  54.840  16.343  0.00  0.00     0.260 S 
ATOM      8  O9  F53 d   1      68.407  55.915  17.024  0.00  0.00    -0.200 OA
ATOM      9  O10 F53 d   1      69.732  54.009  17.388  0.00  0.00    -0.200 OA
BRANCH   7  10
ATOM     10  C5  F53 d   1      67.975  53.829  15.347  0.00  0.00     0.079 A 
ATOM     11  C4  F53 d   1      68.223  52.322  15.271  0.00  0.00    -0.060 A 
ATOM     12  C3  F53 d   1      67.276  51.463  14.427  0.00  0.00    -0.073 A 
ATOM     13  H5  F53 d   1      69.052  51.871  15.804  0.00  0.00     0.085 H 
ATOM     14  C2  F53 d   1      66.105  52.134  13.693  0.00  0.00    -0.035 A 
ATOM     15  H4  F53 d   1      67.431  50.393  14.348  0.00  0.00     0.084 H 
ATOM     16  C7  F53 d   1      65.873  53.650  13.767  0.00  0.00    -0.073 A 
ATOM     17  C6  F53 d   1      66.822  54.512  14.608  0.00  0.00    -0.060 A 
ATOM     18  H7  F53 d   1      65.048  54.105  13.231  0.00  0.00     0.084 H 
ATOM     19  H6  F53 d   1      66.679  55.584  14.678  0.00  0.00     0.085 H 
BRANCH  14  20
ATOM     20  C1  F53 d   1      65.172  51.271  12.840  0.00  0.00     0.040 C 
ATOM     21  H1  F53 d   1      65.130  50.245  13.235  0.00  0.00     0.081 H 
ATOM     22  H2  F53 d   1      64.159  51.700  12.824  0.00  0.00     0.081 H 
BRANCH  20  23
ATOM     23  O1  F53 d   1      65.725  51.278  11.557  0.00  0.00    -0.396 OA
ATOM     24  H3  F53 d   1      65.184  50.754  10.977  0.00  0.00     0.209 HD
ENDBRANCH  20  23
ENDBRANCH  14  20
ENDBRANCH   7  10
ENDBRANCH   6   7
BRANCH   6  25
ATOM     25  C12 F53 d   1      70.962  54.405  14.391  0.00  0.00     0.009 C 
ATOM     26  H8  F53 d   1      70.676  54.551  13.339  0.00  0.00     0.066 H 
ATOM     27  H9  F53 d   1      70.627  53.413  14.728  0.00  0.00     0.066 H 
BRANCH  25  28
ATOM     28  C13 F53 d   1      72.531  54.497  14.521  0.00  0.00    -0.039 C 
ATOM     29  H10 F53 d   1      72.860  55.496  14.200  0.00  0.00     0.042 H 
BRANCH  28  30
ATOM     30  C14 F53 d   1      73.195  53.445  13.597  0.00  0.00    -0.064 C 
ATOM     31  H11 F53 d   1      74.286  53.577  13.639  0.00  0.00     0.033 H 
ATOM     32  H12 F53 d   1      72.845  53.608  12.567  0.00  0.00     0.033 H 
BRANCH  30  33
ATOM     33  C20 F53 d   1      72.855  51.996  14.012  0.00  0.00    -0.076 C 
ATOM     34  H23 F53 d   1      73.350  51.292  13.326  0.00  0.00     0.027 H 
ATOM     35  H24 F53 d   1      71.766  51.848  13.967  0.00  0.00     0.027 H 
ATOM     36  H25 F53 d   1      73.207  51.816  15.038  0.00  0.00     0.027 H 
ENDBRANCH  30  33
ENDBRANCH  28  30
BRANCH  28  37
ATOM     37  C15 F53 d   1      72.921  54.306  16.007  0.00  0.00    -0.064 C 
ATOM     38  H13 F53 d   1      72.580  53.317  16.346  0.00  0.00     0.033 H 
ATOM     39  H14 F53 d   1      72.437  55.087  16.611  0.00  0.00     0.033 H 
BRANCH  37  40
ATOM     40  C18 F53 d   1      74.434  54.402  16.182  0.00  0.00    -0.076 C 
ATOM     41  H18 F53 d   1      74.690  54.264  17.243  0.00  0.00     0.027 H 
ATOM     42  H19 F53 d   1      74.780  55.391  15.847  0.00  0.00     0.027 H 
ATOM     43  H20 F53 d   1      74.923  53.620  15.582  0.00  0.00     0.027 H 
ENDBRANCH  37  40
ENDBRANCH  28  37
ENDBRANCH  25  28
ENDBRANCH   6  25
ENDBRANCH   3   6
ENDBRANCH   1   3
BRANCH   1  44
ATOM     44  O18 F53 d   1      70.790  58.980  14.344  0.00  0.00    -0.392 OA
ATOM     45  H21 F53 d   1      71.032  58.772  13.449  0.00  0.00     0.210 HD
ENDBRANCH   1  44
BRANCH   1  46
ATOM     46  C19 F53 d   1      70.533  58.183  16.583  0.00  0.00     0.044 C 
ATOM     47  H22 F53 d   1      70.511  57.264  17.188  0.00  0.00     0.077 H 
BRANCH  46  48
ATOM     48  N20 F53 d   1      71.533  59.099  17.066  0.00  0.00    -0.329 N 
ATOM     49  C21 F53 d   1      72.518  58.707  18.084  0.00  0.00     0.361 C 
ATOM     50  O22 F53 d   1      72.509  57.645  18.625  0.00  0.00    -0.238 OA
ATOM     51  H26 F53 d   1      71.558  60.029  16.698  0.00  0.00     0.165 HD
BRANCH  49  52
ATOM     52  O23 F53 d   1      73.482  59.707  18.379  0.00  0.00    -0.296 OA
BRANCH  52  53
ATOM     53  C24 F53 d   1      74.252  59.556  19.579  0.00  0.00     0.078 C 
ATOM     54  C25 F53 d   1      75.702  60.091  19.200  0.00  0.00     0.048 C 
ATOM     55  O26 F53 d   1      75.410  61.656  19.124  0.00  0.00    -0.358 OA
ATOM     56  H28 F53 d   1      76.044  59.693  18.234  0.00  0.00     0.078 H 
ATOM     57  H29 F53 d   1      76.442  59.851  19.978  0.00  0.00     0.078 H 
ATOM     58  C27 F53 d   1      74.529  61.903  20.121  0.00  0.00     0.137 C 
ATOM     59  O8  F53 d   1      73.578  62.703  19.715  0.00  0.00    -0.361 OA
ATOM     60  C31 F53 d   1      73.850  60.417  20.552  0.00  0.00     0.023 C 
ATOM     61  H30 F53 d   1      75.048  62.352  20.981  0.00  0.00     0.129 H 
ATOM     62  C29 F53 d   1      72.198  61.853  19.732  0.00  0.00     0.023 C 
ATOM     63  C30 F53 d   1      72.510  60.620  20.627  0.00  0.00    -0.035 C 
ATOM     64  H31 F53 d   1      71.924  61.536  18.715  0.00  0.00     0.074 H 
ATOM     65  H32 F53 d   1      71.380  62.449  20.163  0.00  0.00     0.074 H 
ATOM     66  H33 F53 d   1      71.971  59.736  20.257  0.00  0.00     0.037 H 
ATOM     67  H34 F53 d   1      72.214  60.821  21.667  0.00  0.00     0.037 H 
ATOM     68  H35 F53 d   1      74.222  60.072  21.528  0.00  0.00     0.051 H 
ATOM     69  H27 F53 d   1      74.251  58.514  19.930  0.00  0.00     0.088 H 
ENDBRANCH  52  53
ENDBRANCH  49  52
ENDBRANCH  46  48
BRANCH  46  70
ATOM     70  C32 F53 d   1      69.196  58.914  16.686  0.00  0.00    -0.020 C 
ATOM     71  H36 F53 d   1      68.380  58.245  16.375  0.00  0.00     0.043 H 
ATOM     72  H37 F53 d   1      69.207  59.804  16.040  0.00  0.00     0.043 H 
BRANCH  70  73
ATOM     73  C38 F53 d   1      68.992  59.343  18.175  0.00  0.00    -0.056 A 
ATOM     74  C33 F53 d   1      68.639  58.288  19.218  0.00  0.00    -0.077 A 
ATOM     75  C34 F53 d   1      68.434  58.693  20.685  0.00  0.00    -0.082 A 
ATOM     76  H38 F53 d   1      68.533  57.250  18.923  0.00  0.00     0.084 H 
ATOM     77  C35 F53 d   1      68.590  60.160  21.101  0.00  0.00    -0.083 A 
ATOM     78  H39 F53 d   1      68.179  57.943  21.425  0.00  0.00     0.083 H 
ATOM     79  C36 F53 d   1      68.948  61.220  20.056  0.00  0.00    -0.082 A 
ATOM     80  H40 F53 d   1      68.447  60.447  22.136  0.00  0.00     0.083 H 
ATOM     81  C37 F53 d   1      69.150  60.818  18.596  0.00  0.00    -0.077 A 
ATOM     82  H41 F53 d   1      69.058  62.257  20.352  0.00  0.00     0.083 H 
ATOM     83  H42 F53 d   1      69.404  61.569  17.857  0.00  0.00     0.084 H 
ENDBRANCH  70  73
ENDBRANCH  46  70
ENDBRANCH   1  46
TORSDOF 19
