REMARK  18 active torsions:
REMARK  status: ('A' for Active; 'I' for Inactive)
REMARK    1  A    between atoms: C13_1  and  C14_14 
REMARK    2  A    between atoms: N10_30  and  C13_1 
REMARK    3  A    between atoms: O20_36  and  C21_2 
REMARK    4  A    between atoms: C01_6  and  C37_27 
REMARK    5  A    between atoms: S07_40  and  C04_9 
REMARK    6  A    between atoms: C11_12  and  C12_13 
REMARK    7  A    between atoms: N10_30  and  C11_12 
REMARK    8  A    between atoms: C12_13  and  C39_28 
REMARK    9  A    between atoms: C12_13  and  C40_29 
REMARK   10  A    between atoms: C14_14  and  C16_15 
REMARK   11  A    between atoms: C14_14  and  O15_34 
REMARK   12  A    between atoms: C16_15  and  C29_19 
REMARK   13  A    between atoms: C16_15  and  N17_31 
REMARK       I    between atoms: N17_31  and  C18_16 
REMARK   14  A    between atoms: C18_16  and  O20_36 
REMARK   15  A    between atoms: C29_19  and  C30_20 
REMARK   16  A    between atoms: C37_27  and  C36_26 
REMARK   17  A    between atoms: C37_27  and  O38_39 
REMARK   18  A    between atoms: N10_30  and  S07_40 
ROOT
ATOM      1  C14 NJA d   1      70.964  58.003  14.673  0.00  0.00     0.071 C 
ATOM      2  H16 NJA d   1      72.015  57.678  14.656  0.00  0.00     0.088 H 
ENDROOT
BRANCH   1   3
ATOM      3  C13 NJA d   1      70.090  56.889  14.063  0.00  0.00     0.031 C 
ATOM      4  H1  NJA d   1      70.292  56.814  12.984  0.00  0.00     0.069 H 
ATOM      5  H2  NJA d   1      69.028  57.129  14.221  0.00  0.00     0.069 H 
BRANCH   3   6
ATOM      6  N10 NJA d   1      70.413  55.570  14.729  0.00  0.00    -0.304 N 
BRANCH   6   7
ATOM      7  C11 NJA d   1      71.168  54.598  13.948  0.00  0.00     0.008 C 
ATOM      8  H13 NJA d   1      71.014  53.595  14.372  0.00  0.00     0.066 H 
ATOM      9  H14 NJA d   1      70.812  54.615  12.907  0.00  0.00     0.066 H 
BRANCH   7  10
ATOM     10  C12 NJA d   1      72.703  54.942  13.976  0.00  0.00    -0.045 C 
ATOM     11  H15 NJA d   1      72.858  55.963  13.598  0.00  0.00     0.041 H 
BRANCH  10  12
ATOM     12  C39 NJA d   1      73.471  53.936  13.080  0.00  0.00    -0.072 C 
ATOM     13  H32 NJA d   1      74.545  54.175  13.098  0.00  0.00     0.028 H 
ATOM     14  H33 NJA d   1      73.097  54.005  12.048  0.00  0.00     0.028 H 
ATOM     15  H34 NJA d   1      73.316  52.915  13.459  0.00  0.00     0.028 H 
ENDBRANCH  10  12
BRANCH  10  16
ATOM     16  C40 NJA d   1      73.223  54.846  15.415  0.00  0.00    -0.072 C 
ATOM     17  H35 NJA d   1      72.678  55.560  16.050  0.00  0.00     0.028 H 
ATOM     18  H36 NJA d   1      74.297  55.084  15.434  0.00  0.00     0.028 H 
ATOM     19  H37 NJA d   1      73.067  53.825  15.794  0.00  0.00     0.028 H 
ENDBRANCH  10  16
ENDBRANCH   7  10
ENDBRANCH   6   7
BRANCH   6  20
ATOM     20  S07 NJA d   1      69.178  54.915  15.791  0.00  0.00     0.260 S 
ATOM     21  O08 NJA d   1      68.436  55.971  16.489  0.00  0.00    -0.200 OA
ATOM     22  O09 NJA d   1      69.765  54.113  16.875  0.00  0.00    -0.200 OA
BRANCH  20  23
ATOM     23  C04 NJA d   1      68.037  53.927  14.715  0.00  0.00     0.079 A 
ATOM     24  C03 NJA d   1      66.938  54.661  13.945  0.00  0.00    -0.060 A 
ATOM     25  C02 NJA d   1      65.989  53.868  13.039  0.00  0.00    -0.073 A 
ATOM     26  H10 NJA d   1      66.831  55.736  14.039  0.00  0.00     0.085 H 
ATOM     27  C01 NJA d   1      66.152  52.350  12.907  0.00  0.00    -0.030 A 
ATOM     28  H9  NJA d   1      65.205  54.380  12.493  0.00  0.00     0.084 H 
ATOM     29  C06 NJA d   1      67.257  51.619  13.664  0.00  0.00    -0.073 A 
ATOM     30  C05 NJA d   1      68.213  52.416  14.581  0.00  0.00    -0.060 A 
ATOM     31  H12 NJA d   1      67.371  50.546  13.559  0.00  0.00     0.084 H 
ATOM     32  H11 NJA d   1      69.001  51.907  15.124  0.00  0.00     0.085 H 
BRANCH  27  33
ATOM     33  C37 NJA d   1      65.223  51.602  12.007  0.00  0.00     0.057 C 
ATOM     34  H31 NJA d   1      64.297  52.178  11.865  0.00  0.00     0.089 H 
BRANCH  33  35
ATOM     35  C36 NJA d   1      64.885  50.233  12.618  0.00  0.00    -0.049 C 
ATOM     36  H28 NJA d   1      64.201  49.691  11.948  0.00  0.00     0.031 H 
ATOM     37  H29 NJA d   1      64.403  50.377  13.596  0.00  0.00     0.031 H 
ATOM     38  H30 NJA d   1      65.809  49.651  12.747  0.00  0.00     0.031 H 
ENDBRANCH  33  35
BRANCH  33  39
ATOM     39  O38 NJA d   1      65.873  51.425  10.765  0.00  0.00    -0.391 OA
ATOM     40  H40 NJA d   1      65.301  50.950  10.174  0.00  0.00     0.210 HD
ENDBRANCH  33  39
ENDBRANCH  27  33
ENDBRANCH  20  23
ENDBRANCH   6  20
ENDBRANCH   3   6
ENDBRANCH   1   3
BRANCH   1  41
ATOM     41  C16 NJA d   1      70.554  58.301  16.136  0.00  0.00     0.044 C 
ATOM     42  H17 NJA d   1      70.600  57.378  16.733  0.00  0.00     0.077 H 
BRANCH  41  43
ATOM     43  C29 NJA d   1      69.156  58.905  16.216  0.00  0.00    -0.020 C 
ATOM     44  H21 NJA d   1      68.410  58.152  15.922  0.00  0.00     0.043 H 
ATOM     45  H22 NJA d   1      69.088  59.771  15.542  0.00  0.00     0.043 H 
BRANCH  43  46
ATOM     46  C30 NJA d   1      68.887  59.369  17.712  0.00  0.00    -0.056 A 
ATOM     47  C31 NJA d   1      68.517  58.332  18.782  0.00  0.00    -0.077 A 
ATOM     48  C32 NJA d   1      68.260  58.781  20.231  0.00  0.00    -0.082 A 
ATOM     49  H23 NJA d   1      68.437  57.284  18.517  0.00  0.00     0.084 H 
ATOM     50  C33 NJA d   1      68.373  60.260  20.605  0.00  0.00    -0.083 A 
ATOM     51  H24 NJA d   1      67.999  58.049  20.987  0.00  0.00     0.083 H 
ATOM     52  C34 NJA d   1      68.744  61.303  19.530  0.00  0.00    -0.082 A 
ATOM     53  H25 NJA d   1      68.192  60.576  21.626  0.00  0.00     0.083 H 
ATOM     54  C35 NJA d   1      69.000  60.855  18.087  0.00  0.00    -0.077 A 
ATOM     55  H26 NJA d   1      68.823  62.351  19.795  0.00  0.00     0.083 H 
ATOM     56  H27 NJA d   1      69.261  61.586  17.331  0.00  0.00     0.084 H 
ENDBRANCH  43  46
ENDBRANCH  41  43
BRANCH  41  57
ATOM     57  N17 NJA d   1      71.466  59.286  16.646  0.00  0.00    -0.329 N 
ATOM     58  C18 NJA d   1      72.476  58.965  17.693  0.00  0.00     0.361 C 
ATOM     59  O19 NJA d   1      72.519  57.871  18.215  0.00  0.00    -0.238 OA
ATOM     60  H38 NJA d   1      71.422  60.218  16.287  0.00  0.00     0.165 HD
BRANCH  58  61
ATOM     61  O20 NJA d   1      73.375  60.013  18.057  0.00  0.00    -0.296 OA
BRANCH  61  62
ATOM     62  C21 NJA d   1      74.191  59.826  19.218  0.00  0.00     0.078 C 
ATOM     63  C22 NJA d   1      75.684  60.429  18.864  0.00  0.00     0.048 C 
ATOM     64  O23 NJA d   1      75.535  61.751  18.916  0.00  0.00    -0.358 OA
ATOM     65  H4  NJA d   1      76.002  60.114  17.859  0.00  0.00     0.078 H 
ATOM     66  H5  NJA d   1      76.424  60.093  19.605  0.00  0.00     0.078 H 
ATOM     67  C25 NJA d   1      74.385  61.994  19.953  0.00  0.00     0.137 C 
ATOM     68  C24 NJA d   1      73.785  60.567  20.243  0.00  0.00     0.023 C 
ATOM     69  O28 NJA d   1      73.454  62.682  19.442  0.00  0.00    -0.361 OA
ATOM     70  H18 NJA d   1      74.769  62.473  20.866  0.00  0.00     0.129 H 
ATOM     71  C26 NJA d   1      72.296  60.784  20.319  0.00  0.00    -0.035 C 
ATOM     72  H6  NJA d   1      74.154  60.143  21.188  0.00  0.00     0.051 H 
ATOM     73  C27 NJA d   1      72.044  61.908  19.676  0.00  0.00     0.023 C 
ATOM     74  H7  NJA d   1      71.978  60.868  21.369  0.00  0.00     0.037 H 
ATOM     75  H8  NJA d   1      71.766  59.947  19.841  0.00  0.00     0.037 H 
ATOM     76  H19 NJA d   1      71.368  62.537  20.274  0.00  0.00     0.074 H 
ATOM     77  H20 NJA d   1      71.575  61.686  18.706  0.00  0.00     0.074 H 
ATOM     78  H3  NJA d   1      74.229  58.761  19.492  0.00  0.00     0.088 H 
ENDBRANCH  61  62
ENDBRANCH  58  61
ENDBRANCH  41  57
ENDBRANCH   1  41
BRANCH   1  79
ATOM     79  O15 NJA d   1      70.833  59.147  13.933  0.00  0.00    -0.392 OA
ATOM     80  H39 NJA d   1      71.083  58.971  13.034  0.00  0.00     0.210 HD
ENDBRANCH   1  79
TORSDOF 18
