REMARK  18 active torsions:
REMARK  status: ('A' for Active; 'I' for Inactive)
REMARK    1  A    between atoms: C12_14  and  C13_1 
REMARK    2  A    between atoms: C15_2  and  C16_16 
REMARK    3  A    between atoms: N10_30  and  C15_2 
REMARK       I    between atoms: N19_31  and  C20_3 
REMARK    4  A    between atoms: C20_3  and  O22_36 
REMARK    5  A    between atoms: C01_7  and  C40_29 
REMARK    6  A    between atoms: S07_40  and  C04_10 
REMARK    7  A    between atoms: C11_13  and  C12_14 
REMARK    8  A    between atoms: N10_30  and  C11_13 
REMARK    9  A    between atoms: C12_14  and  C14_15 
REMARK   10  A    between atoms: C16_16  and  C18_17 
REMARK   11  A    between atoms: C16_16  and  O17_34 
REMARK   12  A    between atoms: C18_17  and  C31_21 
REMARK   13  A    between atoms: C18_17  and  N19_31 
REMARK   14  A    between atoms: O22_36  and  C23_18 
REMARK   15  A    between atoms: C31_21  and  C32_22 
REMARK   16  A    between atoms: C40_29  and  C38_28 
REMARK   17  A    between atoms: C40_29  and  O39_39 
REMARK   18  A    between atoms: N10_30  and  S07_40 
ROOT
ATOM      1  C18 NJ4 d   1      70.762  58.585  16.070  0.00  0.00     0.041 C 
ATOM      2  H22 NJ4 d   1      70.794  57.645  16.640  0.00  0.00     0.076 H 
ENDROOT
BRANCH   1   3
ATOM      3  C16 NJ4 d   1      71.161  58.321  14.612  0.00  0.00     0.071 C 
ATOM      4  H21 NJ4 d   1      72.206  57.979  14.591  0.00  0.00     0.088 H 
BRANCH   3   5
ATOM      5  C15 NJ4 d   1      70.274  57.224  14.007  0.00  0.00     0.031 C 
ATOM      6  H4  NJ4 d   1      70.438  57.172  12.921  0.00  0.00     0.069 H 
ATOM      7  H5  NJ4 d   1      69.216  57.450  14.208  0.00  0.00     0.069 H 
BRANCH   5   8
ATOM      8  N10 NJ4 d   1      70.638  55.913  14.635  0.00  0.00    -0.304 N 
BRANCH   8   9
ATOM      9  C11 NJ4 d   1      71.399  54.936  13.805  0.00  0.00     0.008 C 
ATOM     10  H15 NJ4 d   1      71.242  53.923  14.205  0.00  0.00     0.066 H 
ATOM     11  H16 NJ4 d   1      71.033  54.981  12.768  0.00  0.00     0.066 H 
BRANCH   9  12
ATOM     12  C12 NJ4 d   1      72.907  55.259  13.824  0.00  0.00    -0.045 C 
ATOM     13  H17 NJ4 d   1      73.070  56.271  13.425  0.00  0.00     0.041 H 
BRANCH  12  14
ATOM     14  C13 NJ4 d   1      73.462  55.183  15.277  0.00  0.00    -0.072 C 
ATOM     15  H1  NJ4 d   1      74.537  55.416  15.271  0.00  0.00     0.028 H 
ATOM     16  H2  NJ4 d   1      73.308  54.169  15.676  0.00  0.00     0.028 H 
ATOM     17  H3  NJ4 d   1      72.933  55.910  15.910  0.00  0.00     0.028 H 
ENDBRANCH  12  14
BRANCH  12  18
ATOM     18  C14 NJ4 d   1      73.635  54.234  12.948  0.00  0.00    -0.072 C 
ATOM     19  H18 NJ4 d   1      74.714  54.450  12.950  0.00  0.00     0.028 H 
ATOM     20  H19 NJ4 d   1      73.251  54.293  11.919  0.00  0.00     0.028 H 
ATOM     21  H20 NJ4 d   1      73.463  53.223  13.346  0.00  0.00     0.028 H 
ENDBRANCH  12  18
ENDBRANCH   9  12
ENDBRANCH   8   9
BRANCH   8  22
ATOM     22  S07 NJ4 d   1      69.451  55.242  15.702  0.00  0.00     0.260 S 
ATOM     23  O08 NJ4 d   1      68.680  56.288  16.366  0.00  0.00    -0.200 OA
ATOM     24  O09 NJ4 d   1      70.060  54.454  16.770  0.00  0.00    -0.200 OA
BRANCH  22  25
ATOM     25  C04 NJ4 d   1      68.360  54.163  14.666  0.00  0.00     0.079 A 
ATOM     26  C03 NJ4 d   1      67.331  54.797  13.722  0.00  0.00    -0.060 A 
ATOM     27  C02 NJ4 d   1      66.454  53.876  12.875  0.00  0.00    -0.073 A 
ATOM     28  H12 NJ4 d   1      67.228  55.874  13.657  0.00  0.00     0.085 H 
ATOM     29  C01 NJ4 d   1      66.630  52.341  12.989  0.00  0.00    -0.030 A 
ATOM     30  H11 NJ4 d   1      65.715  54.293  12.200  0.00  0.00     0.084 H 
ATOM     31  C06 NJ4 d   1      67.667  51.723  13.922  0.00  0.00    -0.073 A 
ATOM     32  C05 NJ4 d   1      68.544  52.641  14.772  0.00  0.00    -0.060 A 
ATOM     33  H14 NJ4 d   1      67.780  50.647  13.981  0.00  0.00     0.084 H 
ATOM     34  H13 NJ4 d   1      69.287  52.224  15.442  0.00  0.00     0.085 H 
BRANCH  29  35
ATOM     35  C40 NJ4 d   1      65.740  51.411  12.115  0.00  0.00     0.057 C 
ATOM     36  H43 NJ4 d   1      65.935  50.355  12.351  0.00  0.00     0.089 H 
BRANCH  35  37
ATOM     37  C38 NJ4 d   1      64.271  51.738  12.393  0.00  0.00    -0.049 C 
ATOM     38  H40 NJ4 d   1      63.629  51.087  11.781  0.00  0.00     0.031 H 
ATOM     39  H41 NJ4 d   1      64.075  52.790  12.139  0.00  0.00     0.031 H 
ATOM     40  H42 NJ4 d   1      64.053  51.571  13.458  0.00  0.00     0.031 H 
ENDBRANCH  35  37
BRANCH  35  41
ATOM     41  O39 NJ4 d   1      66.072  51.673  10.796  0.00  0.00    -0.391 OA
ATOM     42  H46 NJ4 d   1      65.530  51.144  10.223  0.00  0.00     0.210 HD
ENDBRANCH  35  41
ENDBRANCH  29  35
ENDBRANCH  22  25
ENDBRANCH   8  22
ENDBRANCH   5   8
ENDBRANCH   3   5
BRANCH   3  43
ATOM     43  O17 NJ4 d   1      71.061  59.481  13.866  0.00  0.00    -0.392 OA
ATOM     44  H45 NJ4 d   1      71.311  59.301  12.967  0.00  0.00     0.210 HD
ENDBRANCH   3  43
ENDBRANCH   1   3
BRANCH   1  45
ATOM     45  C31 NJ4 d   1      69.380  59.216  16.181  0.00  0.00    -0.040 C 
ATOM     46  H27 NJ4 d   1      68.615  58.490  15.868  0.00  0.00     0.036 H 
ATOM     47  H28 NJ4 d   1      69.326  60.106  15.537  0.00  0.00     0.036 H 
BRANCH  45  48
ATOM     48  C32 NJ4 d   1      69.139  59.625  17.658  0.00  0.00    -0.052 A 
ATOM     49  C33 NJ4 d   1      69.156  61.131  18.041  0.00  0.00    -0.062 A 
ATOM     50  C34 NJ4 d   1      68.919  61.552  19.499  0.00  0.00    -0.065 A 
ATOM     51  H30 NJ4 d   1      68.378  61.622  17.438  0.00  0.00     0.033 H 
ATOM     52  H31 NJ4 d   1      70.143  61.521  17.754  0.00  0.00     0.033 H 
ATOM     53  C35 NJ4 d   1      68.664  60.475  20.578  0.00  0.00    -0.065 A 
ATOM     54  H32 NJ4 d   1      68.043  62.217  19.500  0.00  0.00     0.033 H 
ATOM     55  H33 NJ4 d   1      69.808  62.116  19.816  0.00  0.00     0.033 H 
ATOM     56  C36 NJ4 d   1      68.647  58.971  20.191  0.00  0.00    -0.065 A 
ATOM     57  H34 NJ4 d   1      67.683  60.699  21.023  0.00  0.00     0.033 H 
ATOM     58  H35 NJ4 d   1      69.449  60.597  21.339  0.00  0.00     0.033 H 
ATOM     59  C37 NJ4 d   1      68.884  58.549  18.729  0.00  0.00    -0.062 A 
ATOM     60  H36 NJ4 d   1      67.659  58.581  20.478  0.00  0.00     0.033 H 
ATOM     61  H37 NJ4 d   1      69.425  58.479  20.793  0.00  0.00     0.033 H 
ATOM     62  H38 NJ4 d   1      69.759  57.883  18.727  0.00  0.00     0.033 H 
ATOM     63  H39 NJ4 d   1      67.994  57.986  18.411  0.00  0.00     0.033 H 
ATOM     64  H29 NJ4 d   1      70.219  59.561  17.855  0.00  0.00     0.040 H 
ENDBRANCH  45  48
ENDBRANCH   1  45
BRANCH   1  65
ATOM     65  N19 NJ4 d   1      71.694  59.552  16.614  0.00  0.00    -0.330 N 
ATOM     66  C20 NJ4 d   1      72.719  59.189  17.619  0.00  0.00     0.361 C 
ATOM     67  O21 NJ4 d   1      72.775  58.113  18.113  0.00  0.00    -0.238 OA
ATOM     68  H44 NJ4 d   1      71.643  60.500  16.299  0.00  0.00     0.165 HD
BRANCH  66  69
ATOM     69  O22 NJ4 d   1      73.625  60.239  17.954  0.00  0.00    -0.296 OA
BRANCH  69  70
ATOM     70  C23 NJ4 d   1      74.390  60.134  19.158  0.00  0.00     0.078 C 
ATOM     71  C24 NJ4 d   1      75.873  60.783  18.819  0.00  0.00     0.048 C 
ATOM     72  O25 NJ4 d   1      75.644  62.104  18.779  0.00  0.00    -0.358 OA
ATOM     73  H6  NJ4 d   1      76.247  60.421  17.850  0.00  0.00     0.078 H 
ATOM     74  H7  NJ4 d   1      76.599  60.535  19.608  0.00  0.00     0.078 H 
ATOM     75  C27 NJ4 d   1      74.536  62.342  19.857  0.00  0.00     0.137 C 
ATOM     76  C26 NJ4 d   1      73.914  60.903  20.132  0.00  0.00     0.023 C 
ATOM     77  O30 NJ4 d   1      73.615  63.072  19.408  0.00  0.00    -0.361 OA
ATOM     78  H24 NJ4 d   1      74.964  62.781  20.770  0.00  0.00     0.129 H 
ATOM     79  C28 NJ4 d   1      72.424  61.125  20.105  0.00  0.00    -0.035 C 
ATOM     80  H8  NJ4 d   1      74.217  60.500  21.110  0.00  0.00     0.051 H 
ATOM     81  C29 NJ4 d   1      72.226  62.207  19.374  0.00  0.00     0.023 C 
ATOM     82  H9  NJ4 d   1      72.043  61.279  21.125  0.00  0.00     0.037 H 
ATOM     83  H10 NJ4 d   1      71.918  60.260  19.651  0.00  0.00     0.037 H 
ATOM     84  H25 NJ4 d   1      71.401  62.801  19.795  0.00  0.00     0.074 H 
ATOM     85  H26 NJ4 d   1      71.983  61.924  18.339  0.00  0.00     0.074 H 
ATOM     86  H23 NJ4 d   1      74.458  59.085  19.482  0.00  0.00     0.088 H 
ENDBRANCH  69  70
ENDBRANCH  66  69
ENDBRANCH   1  65
TORSDOF 18
