REMARK  19 active torsions:
REMARK  status: ('A' for Active; 'I' for Inactive)
REMARK    1  A    between atoms: C13_1  and  C15_2 
REMARK    2  A    between atoms: C12_16  and  C13_1 
REMARK    3  A    between atoms: C13_1  and  O14_35 
REMARK    4  A    between atoms: C15_2  and  C28_8 
REMARK    5  A    between atoms: C15_2  and  N16_32 
REMARK       I    between atoms: N16_32  and  C17_3 
REMARK    6  A    between atoms: C17_3  and  O19_37 
REMARK    7  A    between atoms: O19_37  and  C20_4 
REMARK    8  A    between atoms: C28_8  and  C29_19 
REMARK    9  A    between atoms: C01_9  and  C40_30 
REMARK   10  A    between atoms: S07_41  and  C04_12 
REMARK   11  A    between atoms: C11_15  and  C37_27 
REMARK   12  A    between atoms: N10_31  and  C11_15 
REMARK   13  A    between atoms: N10_31  and  C12_16 
REMARK   14  A    between atoms: C40_30  and  C35_25 
REMARK   15  A    between atoms: C38_28  and  C36_26 
REMARK   16  A    between atoms: C37_27  and  C38_28 
REMARK   17  A    between atoms: C37_27  and  C39_29 
REMARK   18  A    between atoms: C40_30  and  O41_40 
REMARK   19  A    between atoms: N10_31  and  S07_41 
ROOT
ATOM      1  C12 NEJ d   1      70.368  56.535  14.358  0.00  0.00     0.031 C 
ATOM      2  H23 NEJ d   1      70.568  56.422  13.282  0.00  0.00     0.069 H 
ATOM      3  H24 NEJ d   1      69.308  56.787  14.509  0.00  0.00     0.069 H 
ENDROOT
BRANCH   1   4
ATOM      4  C13 NEJ d   1      71.251  57.654  14.932  0.00  0.00     0.071 C 
ATOM      5  H1  NEJ d   1      72.303  57.333  14.903  0.00  0.00     0.088 H 
BRANCH   4   6
ATOM      6  C15 NEJ d   1      70.858  57.958  16.378  0.00  0.00     0.044 C 
ATOM      7  H2  NEJ d   1      70.861  57.033  16.973  0.00  0.00     0.077 H 
BRANCH   6   8
ATOM      8  C28 NEJ d   1      69.486  58.628  16.445  0.00  0.00    -0.020 C 
ATOM      9  H9  NEJ d   1      68.703  57.908  16.164  0.00  0.00     0.043 H 
ATOM     10  H10 NEJ d   1      69.455  59.489  15.761  0.00  0.00     0.043 H 
BRANCH   8  11
ATOM     11  C29 NEJ d   1      69.270  59.102  17.901  0.00  0.00    -0.056 A 
ATOM     12  C30 NEJ d   1      68.973  58.063  18.987  0.00  0.00    -0.077 A 
ATOM     13  C31 NEJ d   1      68.762  58.514  20.437  0.00  0.00    -0.082 A 
ATOM     14  H28 NEJ d   1      68.912  57.011  18.731  0.00  0.00     0.084 H 
ATOM     15  C32 NEJ d   1      68.849  59.982  20.788  0.00  0.00    -0.083 A 
ATOM     16  H29 NEJ d   1      68.551  57.782  21.209  0.00  0.00     0.083 H 
ATOM     17  C33 NEJ d   1      69.150  61.014  19.702  0.00  0.00    -0.082 A 
ATOM     18  H30 NEJ d   1      68.698  60.303  21.812  0.00  0.00     0.083 H 
ATOM     19  C34 NEJ d   1      69.363  60.560  18.247  0.00  0.00    -0.077 A 
ATOM     20  H31 NEJ d   1      69.213  62.066  19.956  0.00  0.00     0.083 H 
ATOM     21  H32 NEJ d   1      69.579  61.290  17.475  0.00  0.00     0.084 H 
ENDBRANCH   8  11
ENDBRANCH   6   8
BRANCH   6  22
ATOM     22  N16 NEJ d   1      71.820  58.922  16.904  0.00  0.00    -0.329 N 
ATOM     23  C17 NEJ d   1      72.808  58.572  17.943  0.00  0.00     0.361 C 
ATOM     24  O18 NEJ d   1      72.835  57.517  18.483  0.00  0.00    -0.238 OA
ATOM     25  H46 NEJ d   1      71.809  59.856  16.546  0.00  0.00     0.165 HD
BRANCH  23  26
ATOM     26  O19 NEJ d   1      73.711  59.614  18.238  0.00  0.00    -0.296 OA
BRANCH  26  27
ATOM     27  C20 NEJ d   1      74.480  59.563  19.445  0.00  0.00     0.078 C 
ATOM     28  C21 NEJ d   1      75.945  60.190  19.033  0.00  0.00     0.048 C 
ATOM     29  O22 NEJ d   1      75.690  61.490  18.863  0.00  0.00    -0.358 OA
ATOM     30  H4  NEJ d   1      76.319  59.738  18.103  0.00  0.00     0.078 H 
ATOM     31  H5  NEJ d   1      76.679  60.035  19.837  0.00  0.00     0.078 H 
ATOM     32  C24 NEJ d   1      74.633  61.816  19.958  0.00  0.00     0.137 C 
ATOM     33  C23 NEJ d   1      74.042  60.402  20.372  0.00  0.00     0.023 C 
ATOM     34  O27 NEJ d   1      73.694  62.501  19.487  0.00  0.00    -0.361 OA
ATOM     35  H6  NEJ d   1      75.094  62.332  20.813  0.00  0.00     0.129 H 
ATOM     36  C25 NEJ d   1      72.556  60.610  20.397  0.00  0.00    -0.035 C 
ATOM     37  H25 NEJ d   1      74.393  60.081  21.364  0.00  0.00     0.051 H 
ATOM     38  C26 NEJ d   1      72.304  61.666  19.655  0.00  0.00     0.023 C 
ATOM     39  H26 NEJ d   1      72.044  59.728  19.985  0.00  0.00     0.037 H 
ATOM     40  H27 NEJ d   1      72.216  60.783  21.429  0.00  0.00     0.037 H 
ATOM     41  H7  NEJ d   1      71.546  62.295  20.145  0.00  0.00     0.074 H 
ATOM     42  H8  NEJ d   1      71.936  61.350  18.668  0.00  0.00     0.074 H 
ATOM     43  H3  NEJ d   1      74.543  58.535  19.831  0.00  0.00     0.088 H 
ENDBRANCH  26  27
ENDBRANCH  23  26
ENDBRANCH   6  22
ENDBRANCH   4   6
BRANCH   4  44
ATOM     44  O14 NEJ d   1      71.101  58.798  14.176  0.00  0.00    -0.392 OA
ATOM     45  H47 NEJ d   1      71.360  58.620  13.280  0.00  0.00     0.210 HD
ENDBRANCH   4  44
ENDBRANCH   1   4
BRANCH   1  46
ATOM     46  N10 NEJ d   1      70.698  55.207  15.092  0.00  0.00    -0.308 N 
BRANCH  46  47
ATOM     47  C11 NEJ d   1      71.522  54.157  14.390  0.00  0.00     0.008 C 
ATOM     48  H21 NEJ d   1      71.413  53.197  14.916  0.00  0.00     0.066 H 
ATOM     49  H22 NEJ d   1      71.169  54.050  13.354  0.00  0.00     0.066 H 
BRANCH  47  50
ATOM     50  C37 NEJ d   1      72.987  54.563  14.383  0.00  0.00    -0.042 C 
ATOM     51  H39 NEJ d   1      73.069  55.602  14.031  0.00  0.00     0.042 H 
BRANCH  50  52
ATOM     52  C38 NEJ d   1      73.761  53.635  13.399  0.00  0.00    -0.064 C 
ATOM     53  H40 NEJ d   1      73.478  53.889  12.367  0.00  0.00     0.033 H 
ATOM     54  H41 NEJ d   1      74.842  53.792  13.532  0.00  0.00     0.033 H 
BRANCH  52  55
ATOM     55  C36 NEJ d   1      73.435  52.170  13.658  0.00  0.00    -0.076 C 
ATOM     56  H36 NEJ d   1      73.994  51.539  12.951  0.00  0.00     0.027 H 
ATOM     57  H37 NEJ d   1      72.356  52.005  13.523  0.00  0.00     0.027 H 
ATOM     58  H38 NEJ d   1      73.720  51.907  14.688  0.00  0.00     0.027 H 
ENDBRANCH  52  55
ENDBRANCH  50  52
BRANCH  50  59
ATOM     59  C39 NEJ d   1      73.564  54.481  15.778  0.00  0.00    -0.071 C 
ATOM     60  H42 NEJ d   1      72.999  55.145  16.448  0.00  0.00     0.028 H 
ATOM     61  H43 NEJ d   1      74.619  54.793  15.758  0.00  0.00     0.028 H 
ATOM     62  H44 NEJ d   1      73.495  53.446  16.143  0.00  0.00     0.028 H 
ENDBRANCH  50  59
ENDBRANCH  47  50
ENDBRANCH  46  47
BRANCH  46  63
ATOM     63  S07 NEJ d   1      69.485  54.574  16.145  0.00  0.00     0.232 S 
ATOM     64  O08 NEJ d   1      70.071  53.868  17.267  0.00  0.00    -0.205 OA
ATOM     65  O09 NEJ d   1      68.655  55.637  16.744  0.00  0.00    -0.205 OA
BRANCH  63  66
ATOM     66  C04 NEJ d   1      68.488  53.473  15.133  0.00  0.00     0.063 A 
ATOM     67  C03 NEJ d   1      68.799  51.955  15.161  0.00  0.00    -0.047 A 
ATOM     68  C02 NEJ d   1      67.974  51.020  14.305  0.00  0.00    -0.058 A 
ATOM     69  H14 NEJ d   1      69.847  51.835  14.850  0.00  0.00     0.035 H 
ATOM     70  H15 NEJ d   1      68.685  51.622  16.203  0.00  0.00     0.035 H 
ATOM     71  C01 NEJ d   1      66.849  51.595  13.445  0.00  0.00    -0.029 A 
ATOM     72  H12 NEJ d   1      68.670  50.509  13.624  0.00  0.00     0.033 H 
ATOM     73  H13 NEJ d   1      67.517  50.283  14.982  0.00  0.00     0.033 H 
ATOM     74  C06 NEJ d   1      66.552  53.114  13.409  0.00  0.00    -0.058 A 
ATOM     75  H11 NEJ d   1      66.140  51.464  14.276  0.00  0.00     0.043 H 
ATOM     76  C05 NEJ d   1      67.379  54.059  14.265  0.00  0.00    -0.047 A 
ATOM     77  H19 NEJ d   1      65.503  53.242  13.713  0.00  0.00     0.033 H 
ATOM     78  H20 NEJ d   1      66.673  53.439  12.365  0.00  0.00     0.033 H 
ATOM     79  H17 NEJ d   1      67.848  54.786  13.586  0.00  0.00     0.035 H 
ATOM     80  H18 NEJ d   1      66.683  54.582  14.937  0.00  0.00     0.035 H 
ATOM     81  H16 NEJ d   1      67.772  53.343  15.958  0.00  0.00     0.066 H 
BRANCH  71  82
ATOM     82  C40 NEJ d   1      66.024  50.679  12.565  0.00  0.00     0.035 C 
ATOM     83  H45 NEJ d   1      64.949  50.837  12.738  0.00  0.00     0.082 H 
BRANCH  82  84
ATOM     84  C35 NEJ d   1      66.377  49.208  12.803  0.00  0.00    -0.052 C 
ATOM     85  H33 NEJ d   1      65.761  48.573  12.149  0.00  0.00     0.030 H 
ATOM     86  H34 NEJ d   1      66.183  48.950  13.854  0.00  0.00     0.030 H 
ATOM     87  H35 NEJ d   1      67.441  49.045  12.576  0.00  0.00     0.030 H 
ENDBRANCH  82  84
BRANCH  82  88
ATOM     88  O41 NEJ d   1      66.379  51.029  11.273  0.00  0.00    -0.396 OA
ATOM     89  H48 NEJ d   1      65.905  50.483  10.657  0.00  0.00     0.210 HD
ENDBRANCH  82  88
ENDBRANCH  71  82
ENDBRANCH  63  66
ENDBRANCH  46  63
ENDBRANCH   1  46
TORSDOF 19
