REMARK  19 active torsions:
REMARK  status: ('A' for Active; 'I' for Inactive)
REMARK    1  A    between atoms: C13_1  and  C15_2 
REMARK    2  A    between atoms: C12_16  and  C13_1 
REMARK    3  A    between atoms: C13_1  and  O14_35 
REMARK    4  A    between atoms: C15_2  and  C28_8 
REMARK    5  A    between atoms: C15_2  and  N16_32 
REMARK       I    between atoms: N16_32  and  C17_3 
REMARK    6  A    between atoms: C17_3  and  O19_37 
REMARK    7  A    between atoms: O19_37  and  C20_4 
REMARK    8  A    between atoms: C28_8  and  C29_19 
REMARK    9  A    between atoms: C01_9  and  C40_30 
REMARK   10  A    between atoms: S07_41  and  C04_12 
REMARK   11  A    between atoms: C11_15  and  C37_27 
REMARK   12  A    between atoms: N10_31  and  C11_15 
REMARK   13  A    between atoms: N10_31  and  C12_16 
REMARK   14  A    between atoms: C40_30  and  C35_25 
REMARK   15  A    between atoms: C38_28  and  C36_26 
REMARK   16  A    between atoms: C37_27  and  C38_28 
REMARK   17  A    between atoms: C37_27  and  C39_29 
REMARK   18  A    between atoms: C40_30  and  O41_40 
REMARK   19  A    between atoms: N10_31  and  S07_41 
ROOT
ATOM      1  C13 NE7 d   1      71.104  57.561  14.901  0.00  0.00     0.071 C 
ATOM      2  H1  NE7 d   1      72.151  57.227  14.858  0.00  0.00     0.088 H 
ENDROOT
BRANCH   1   3
ATOM      3  C15 NE7 d   1      70.716  57.860  16.342  0.00  0.00     0.044 C 
ATOM      4  H2  NE7 d   1      70.675  56.931  16.929  0.00  0.00     0.077 H 
BRANCH   3   5
ATOM      5  C28 NE7 d   1      69.368  58.583  16.374  0.00  0.00    -0.020 C 
ATOM      6  H9  NE7 d   1      68.564  57.902  16.057  0.00  0.00     0.043 H 
ATOM      7  H10 NE7 d   1      69.390  59.459  15.709  0.00  0.00     0.043 H 
BRANCH   5   8
ATOM      8  C29 NE7 d   1      69.145  59.029  17.836  0.00  0.00    -0.056 A 
ATOM      9  C30 NE7 d   1      68.790  57.975  18.869  0.00  0.00    -0.077 A 
ATOM     10  C31 NE7 d   1      68.574  58.378  20.328  0.00  0.00    -0.082 A 
ATOM     11  H22 NE7 d   1      68.690  56.937  18.573  0.00  0.00     0.084 H 
ATOM     12  C32 NE7 d   1      68.713  59.837  20.733  0.00  0.00    -0.083 A 
ATOM     13  H23 NE7 d   1      68.323  57.628  21.069  0.00  0.00     0.083 H 
ATOM     14  C33 NE7 d   1      69.082  60.894  19.688  0.00  0.00    -0.082 A 
ATOM     15  H24 NE7 d   1      68.550  60.130  21.764  0.00  0.00     0.083 H 
ATOM     16  C34 NE7 d   1      69.282  60.493  18.232  0.00  0.00    -0.077 A 
ATOM     17  H25 NE7 d   1      69.201  61.930  19.985  0.00  0.00     0.083 H 
ATOM     18  H26 NE7 d   1      69.519  61.242  17.485  0.00  0.00     0.084 H 
ENDBRANCH   5   8
ENDBRANCH   3   5
BRANCH   3  19
ATOM     19  N16 NE7 d   1      71.693  58.788  16.896  0.00  0.00    -0.329 N 
ATOM     20  C17 NE7 d   1      72.674  58.400  17.920  0.00  0.00     0.361 C 
ATOM     21  O18 NE7 d   1      72.684  57.326  18.466  0.00  0.00    -0.238 OA
ATOM     22  H40 NE7 d   1      71.697  59.731  16.565  0.00  0.00     0.165 HD
BRANCH  20  23
ATOM     23  O19 NE7 d   1      73.610  59.445  18.172  0.00  0.00    -0.296 OA
BRANCH  23  24
ATOM     24  C20 NE7 d   1      74.511  59.343  19.356  0.00  0.00     0.078 C 
ATOM     25  C21 NE7 d   1      75.653  59.778  18.981  0.00  0.00     0.048 C 
ATOM     26  O22 NE7 d   1      75.425  61.397  18.908  0.00  0.00    -0.358 OA
ATOM     27  H4  NE7 d   1      75.926  59.373  17.996  0.00  0.00     0.078 H 
ATOM     28  H5  NE7 d   1      76.433  59.521  19.712  0.00  0.00     0.078 H 
ATOM     29  C24 NE7 d   1      74.646  61.677  19.913  0.00  0.00     0.137 C 
ATOM     30  C23 NE7 d   1      74.022  60.361  20.419  0.00  0.00     0.023 C 
ATOM     31  O27 NE7 d   1      73.416  62.563  19.505  0.00  0.00    -0.361 OA
ATOM     32  H6  NE7 d   1      75.228  62.173  20.704  0.00  0.00     0.129 H 
ATOM     33  C25 NE7 d   1      72.665  60.530  20.447  0.00  0.00    -0.035 C 
ATOM     34  H19 NE7 d   1      74.384  60.086  21.421  0.00  0.00     0.051 H 
ATOM     35  C26 NE7 d   1      72.354  61.779  19.460  0.00  0.00     0.023 C 
ATOM     36  H20 NE7 d   1      72.159  59.622  20.087  0.00  0.00     0.037 H 
ATOM     37  H21 NE7 d   1      72.328  60.757  21.469  0.00  0.00     0.037 H 
ATOM     38  H7  NE7 d   1      71.463  62.325  19.806  0.00  0.00     0.074 H 
ATOM     39  H8  NE7 d   1      72.189  61.421  18.433  0.00  0.00     0.074 H 
ATOM     40  H3  NE7 d   1      74.558  58.317  19.751  0.00  0.00     0.088 H 
ENDBRANCH  23  24
ENDBRANCH  20  23
ENDBRANCH   3  19
ENDBRANCH   1   3
BRANCH   1  41
ATOM     41  C12 NE7 d   1      70.189  56.446  14.335  0.00  0.00     0.031 C 
ATOM     42  H17 NE7 d   1      70.342  56.350  13.250  0.00  0.00     0.069 H 
ATOM     43  H18 NE7 d   1      69.135  56.688  14.537  0.00  0.00     0.069 H 
BRANCH  41  44
ATOM     44  N10 NE7 d   1      70.556  55.170  15.014  0.00  0.00    -0.304 N 
BRANCH  44  45
ATOM     45  C11 NE7 d   1      71.345  54.122  14.304  0.00  0.00     0.008 C 
ATOM     46  H15 NE7 d   1      71.197  53.156  14.808  0.00  0.00     0.066 H 
ATOM     47  H16 NE7 d   1      70.996  54.050  13.263  0.00  0.00     0.066 H 
BRANCH  45  48
ATOM     48  C37 NE7 d   1      72.840  54.471  14.311  0.00  0.00    -0.042 C 
ATOM     49  H33 NE7 d   1      72.974  55.479  13.891  0.00  0.00     0.042 H 
BRANCH  48  50
ATOM     50  C38 NE7 d   1      73.536  53.455  13.391  0.00  0.00    -0.064 C 
ATOM     51  H34 NE7 d   1      72.957  53.358  12.460  0.00  0.00     0.033 H 
ATOM     52  H35 NE7 d   1      74.548  53.817  13.158  0.00  0.00     0.033 H 
BRANCH  50  53
ATOM     53  C36 NE7 d   1      73.640  52.070  14.065  0.00  0.00    -0.076 C 
ATOM     54  H30 NE7 d   1      74.141  51.367  13.383  0.00  0.00     0.027 H 
ATOM     55  H31 NE7 d   1      72.631  51.699  14.297  0.00  0.00     0.027 H 
ATOM     56  H32 NE7 d   1      74.222  52.157  14.994  0.00  0.00     0.027 H 
ENDBRANCH  50  53
ENDBRANCH  48  50
BRANCH  48  57
ATOM     57  C39 NE7 d   1      73.418  54.474  15.730  0.00  0.00    -0.071 C 
ATOM     58  H36 NE7 d   1      72.885  55.217  16.342  0.00  0.00     0.028 H 
ATOM     59  H37 NE7 d   1      74.487  54.732  15.690  0.00  0.00     0.028 H 
ATOM     60  H38 NE7 d   1      73.298  53.476  16.177  0.00  0.00     0.028 H 
ENDBRANCH  48  57
ENDBRANCH  45  48
ENDBRANCH  44  45
BRANCH  44  61
ATOM     61  S07 NE7 d   1      69.348  54.544  16.069  0.00  0.00     0.260 S 
ATOM     62  O08 NE7 d   1      68.528  55.619  16.593  0.00  0.00    -0.200 OA
ATOM     63  O09 NE7 d   1      69.921  53.788  17.166  0.00  0.00    -0.200 OA
BRANCH  61  64
ATOM     64  C04 NE7 d   1      68.364  53.427  15.072  0.00  0.00     0.079 A 
ATOM     65  C03 NE7 d   1      68.617  51.933  15.206  0.00  0.00    -0.060 A 
ATOM     66  C02 NE7 d   1      67.821  50.974  14.352  0.00  0.00    -0.073 A 
ATOM     67  H12 NE7 d   1      69.358  51.562  15.905  0.00  0.00     0.085 H 
ATOM     68  C01 NE7 d   1      66.768  51.569  13.431  0.00  0.00    -0.030 A 
ATOM     69  H11 NE7 d   1      67.994  49.905  14.394  0.00  0.00     0.084 H 
ATOM     70  C06 NE7 d   1      66.525  53.072  13.302  0.00  0.00    -0.073 A 
ATOM     71  C05 NE7 d   1      67.327  54.044  14.146  0.00  0.00    -0.060 A 
ATOM     72  H14 NE7 d   1      65.780  53.443  12.608  0.00  0.00     0.084 H 
ATOM     73  H13 NE7 d   1      67.170  55.115  14.092  0.00  0.00     0.085 H 
BRANCH  68  74
ATOM     74  C40 NE7 d   1      65.955  50.656  12.546  0.00  0.00     0.057 C 
ATOM     75  H39 NE7 d   1      66.132  49.599  12.793  0.00  0.00     0.089 H 
BRANCH  74  76
ATOM     76  C35 NE7 d   1      64.475  50.994  12.686  0.00  0.00    -0.049 C 
ATOM     77  H27 NE7 d   1      63.884  50.328  12.040  0.00  0.00     0.031 H 
ATOM     78  H28 NE7 d   1      64.308  52.039  12.386  0.00  0.00     0.031 H 
ATOM     79  H29 NE7 d   1      64.165  50.859  13.733  0.00  0.00     0.031 H 
ENDBRANCH  74  76
BRANCH  74  80
ATOM     80  O41 NE7 d   1      66.374  50.950  11.254  0.00  0.00    -0.391 OA
ATOM     81  H42 NE7 d   1      65.870  50.436  10.634  0.00  0.00     0.210 HD
ENDBRANCH  74  80
ENDBRANCH  68  74
ENDBRANCH  61  64
ENDBRANCH  44  61
ENDBRANCH  41  44
ENDBRANCH   1  41
BRANCH   1  82
ATOM     82  O14 NE7 d   1      70.958  58.735  14.171  0.00  0.00    -0.392 OA
ATOM     83  H41 NE7 d   1      71.194  58.575  13.265  0.00  0.00     0.210 HD
ENDBRANCH   1  82
TORSDOF 19
