REMARK  20 active torsions:
REMARK  status: ('A' for Active; 'I' for Inactive)
REMARK    1  A    between atoms: C12_14  and  C13_1 
REMARK    2  A    between atoms: C13_1  and  C42_31 
REMARK    3  A    between atoms: C15_2  and  C16_16 
REMARK    4  A    between atoms: N10_32  and  C15_2 
REMARK       I    between atoms: N19_33  and  C20_3 
REMARK    5  A    between atoms: C20_3  and  O22_38 
REMARK    6  A    between atoms: C01_7  and  C38_28 
REMARK    7  A    between atoms: S07_42  and  C04_10 
REMARK    8  A    between atoms: C11_13  and  C12_14 
REMARK    9  A    between atoms: N10_32  and  C11_13 
REMARK   10  A    between atoms: C12_14  and  C14_15 
REMARK   11  A    between atoms: C14_15  and  C41_30 
REMARK   12  A    between atoms: C16_16  and  C18_17 
REMARK   13  A    between atoms: C16_16  and  O17_36 
REMARK   14  A    between atoms: C18_17  and  C31_21 
REMARK   15  A    between atoms: C18_17  and  N19_33 
REMARK   16  A    between atoms: O22_38  and  C23_18 
REMARK   17  A    between atoms: C31_21  and  C32_22 
REMARK   18  A    between atoms: C38_28  and  C39_29 
REMARK   19  A    between atoms: C38_28  and  O40_41 
REMARK   20  A    between atoms: N10_32  and  S07_42 
ROOT
ATOM      1  C15 NF4 d   1      70.045  56.989  14.183  0.00  0.00     0.031 C 
ATOM      2  H3  NF4 d   1      70.127  56.944  13.087  0.00  0.00     0.069 H 
ATOM      3  H4  NF4 d   1      69.010  57.232  14.464  0.00  0.00     0.069 H 
ENDROOT
BRANCH   1   4
ATOM      4  C16 NF4 d   1      70.993  58.061  14.728  0.00  0.00     0.071 C 
ATOM      5  H19 NF4 d   1      72.024  57.679  14.687  0.00  0.00     0.088 H 
BRANCH   4   6
ATOM      6  C18 NF4 d   1      70.639  58.388  16.187  0.00  0.00     0.044 C 
ATOM      7  H20 NF4 d   1      70.586  57.463  16.780  0.00  0.00     0.077 H 
BRANCH   6   8
ATOM      8  C31 NF4 d   1      69.321  59.163  16.270  0.00  0.00    -0.020 C 
ATOM      9  H25 NF4 d   1      68.497  58.534  15.902  0.00  0.00     0.043 H 
ATOM     10  H26 NF4 d   1      69.388  60.074  15.658  0.00  0.00     0.043 H 
BRANCH   8  11
ATOM     11  C32 NF4 d   1      69.065  59.544  17.741  0.00  0.00    -0.056 A 
ATOM     12  C33 NF4 d   1      68.713  58.474  18.753  0.00  0.00    -0.077 A 
ATOM     13  C34 NF4 d   1      68.471  58.829  20.206  0.00  0.00    -0.082 A 
ATOM     14  H27 NF4 d   1      68.633  57.441  18.434  0.00  0.00     0.084 H 
ATOM     15  C35 NF4 d   1      68.554  60.271  20.647  0.00  0.00    -0.083 A 
ATOM     16  H28 NF4 d   1      68.240  58.052  20.925  0.00  0.00     0.083 H 
ATOM     17  C36 NF4 d   1      68.889  61.344  19.640  0.00  0.00    -0.082 A 
ATOM     18  H29 NF4 d   1      68.374  60.534  21.683  0.00  0.00     0.083 H 
ATOM     19  C37 NF4 d   1      69.143  60.987  18.180  0.00  0.00    -0.077 A 
ATOM     20  H30 NF4 d   1      68.950  62.379  19.958  0.00  0.00     0.083 H 
ATOM     21  H31 NF4 d   1      69.378  61.764  17.461  0.00  0.00     0.084 H 
ENDBRANCH   8  11
ENDBRANCH   6   8
BRANCH   6  22
ATOM     22  N19 NF4 d   1      71.637  59.285  16.707  0.00  0.00    -0.329 N 
ATOM     23  C20 NF4 d   1      72.628  58.918  17.697  0.00  0.00     0.361 C 
ATOM     24  O21 NF4 d   1      72.643  57.866  18.273  0.00  0.00    -0.238 OA
ATOM     25  H42 NF4 d   1      71.647  60.224  16.362  0.00  0.00     0.165 HD
BRANCH  23  26
ATOM     26  O22 NF4 d   1      73.571  59.929  17.913  0.00  0.00    -0.296 OA
BRANCH  26  27
ATOM     27  C23 NF4 d   1      74.550  59.820  19.039  0.00  0.00     0.078 C 
ATOM     28  C24 NF4 d   1      75.640  60.282  18.656  0.00  0.00     0.048 C 
ATOM     29  O25 NF4 d   1      75.531  61.791  18.862  0.00  0.00    -0.358 OA
ATOM     30  H5  NF4 d   1      75.806  60.049  17.594  0.00  0.00     0.078 H 
ATOM     31  H6  NF4 d   1      76.465  59.870  19.255  0.00  0.00     0.078 H 
ATOM     32  C27 NF4 d   1      74.540  61.936  20.000  0.00  0.00     0.137 C 
ATOM     33  C26 NF4 d   1      74.058  60.805  20.243  0.00  0.00     0.023 C 
ATOM     34  O30 NF4 d   1      73.370  62.855  19.490  0.00  0.00    -0.361 OA
ATOM     35  H22 NF4 d   1      75.021  62.362  20.893  0.00  0.00     0.129 H 
ATOM     36  C28 NF4 d   1      72.439  60.951  20.241  0.00  0.00    -0.035 C 
ATOM     37  H7  NF4 d   1      74.406  60.427  21.216  0.00  0.00     0.051 H 
ATOM     38  C29 NF4 d   1      72.148  62.026  19.515  0.00  0.00     0.023 C 
ATOM     39  H8  NF4 d   1      72.070  61.078  21.269  0.00  0.00     0.037 H 
ATOM     40  H9  NF4 d   1      71.979  60.057  19.794  0.00  0.00     0.037 H 
ATOM     41  H23 NF4 d   1      71.319  62.584  19.976  0.00  0.00     0.074 H 
ATOM     42  H24 NF4 d   1      71.868  61.731  18.493  0.00  0.00     0.074 H 
ATOM     43  H21 NF4 d   1      74.647  58.779  19.380  0.00  0.00     0.088 H 
ENDBRANCH  26  27
ENDBRANCH  23  26
ENDBRANCH   6  22
ENDBRANCH   4   6
BRANCH   4  44
ATOM     44  O17 NF4 d   1      70.906  59.216  13.955  0.00  0.00    -0.392 OA
ATOM     45  H43 NF4 d   1      71.126  59.010  13.054  0.00  0.00     0.210 HD
ENDBRANCH   4  44
ENDBRANCH   1   4
BRANCH   1  46
ATOM     46  N10 NF4 d   1      70.426  55.686  14.765  0.00  0.00    -0.304 N 
BRANCH  46  47
ATOM     47  C11 NF4 d   1      71.127  54.710  13.913  0.00  0.00     0.009 C 
ATOM     48  H14 NF4 d   1      70.849  53.696  14.235  0.00  0.00     0.066 H 
ATOM     49  H15 NF4 d   1      70.813  54.862  12.870  0.00  0.00     0.066 H 
BRANCH  47  50
ATOM     50  C12 NF4 d   1      72.657  54.853  13.995  0.00  0.00    -0.039 C 
ATOM     51  H16 NF4 d   1      72.940  55.855  13.641  0.00  0.00     0.042 H 
BRANCH  50  52
ATOM     52  C13 NF4 d   1      73.330  53.822  13.058  0.00  0.00    -0.064 C 
ATOM     53  H1  NF4 d   1      74.422  53.943  13.119  0.00  0.00     0.033 H 
ATOM     54  H2  NF4 d   1      72.998  54.007  12.026  0.00  0.00     0.033 H 
BRANCH  52  55
ATOM     55  C42 NF4 d   1      72.969  52.395  13.445  0.00  0.00    -0.076 C 
ATOM     56  H39 NF4 d   1      73.464  51.693  12.759  0.00  0.00     0.027 H 
ATOM     57  H40 NF4 d   1      71.879  52.262  13.382  0.00  0.00     0.027 H 
ATOM     58  H41 NF4 d   1      73.303  52.199  14.475  0.00  0.00     0.027 H 
ENDBRANCH  52  55
ENDBRANCH  50  52
BRANCH  50  59
ATOM     59  C14 NF4 d   1      73.060  54.744  15.466  0.00  0.00    -0.064 C 
ATOM     60  H17 NF4 d   1      72.666  53.796  15.860  0.00  0.00     0.033 H 
ATOM     61  H18 NF4 d   1      72.604  55.585  16.009  0.00  0.00     0.033 H 
BRANCH  59  62
ATOM     62  C41 NF4 d   1      74.573  54.775  15.720  0.00  0.00    -0.076 C 
ATOM     63  H36 NF4 d   1      74.765  54.691  16.800  0.00  0.00     0.027 H 
ATOM     64  H37 NF4 d   1      74.988  55.722  15.346  0.00  0.00     0.027 H 
ATOM     65  H38 NF4 d   1      75.050  53.933  15.196  0.00  0.00     0.027 H 
ENDBRANCH  59  62
ENDBRANCH  50  59
ENDBRANCH  47  50
ENDBRANCH  46  47
BRANCH  46  66
ATOM     66  S07 NF4 d   1      69.228  55.042  15.817  0.00  0.00     0.260 S 
ATOM     67  O08 NF4 d   1      69.876  54.182  16.816  0.00  0.00    -0.200 OA
ATOM     68  O09 NF4 d   1      68.449  56.109  16.423  0.00  0.00    -0.200 OA
BRANCH  66  69
ATOM     69  C04 NF4 d   1      68.149  54.057  14.785  0.00  0.00     0.079 A 
ATOM     70  C03 NF4 d   1      67.093  54.797  13.983  0.00  0.00    -0.060 A 
ATOM     71  C02 NF4 d   1      66.175  53.975  13.095  0.00  0.00    -0.073 A 
ATOM     72  H11 NF4 d   1      66.998  55.875  14.042  0.00  0.00     0.085 H 
ATOM     73  C01 NF4 d   1      66.364  52.488  13.022  0.00  0.00    -0.030 A 
ATOM     74  H10 NF4 d   1      65.392  54.457  12.521  0.00  0.00     0.084 H 
ATOM     75  C06 NF4 d   1      67.434  51.765  13.805  0.00  0.00    -0.073 A 
ATOM     76  C05 NF4 d   1      68.344  52.564  14.718  0.00  0.00    -0.060 A 
ATOM     77  H13 NF4 d   1      67.550  50.691  13.716  0.00  0.00     0.084 H 
ATOM     78  H12 NF4 d   1      69.113  52.075  15.306  0.00  0.00     0.085 H 
BRANCH  73  79
ATOM     79  C38 NF4 d   1      65.441  51.719  12.087  0.00  0.00     0.057 C 
ATOM     80  H32 NF4 d   1      64.466  52.220  11.992  0.00  0.00     0.089 H 
BRANCH  79  81
ATOM     81  C39 NF4 d   1      65.235  50.310  12.607  0.00  0.00    -0.049 C 
ATOM     82  H33 NF4 d   1      64.567  49.762  11.926  0.00  0.00     0.031 H 
ATOM     83  H34 NF4 d   1      64.783  50.351  13.609  0.00  0.00     0.031 H 
ATOM     84  H35 NF4 d   1      66.205  49.794  12.663  0.00  0.00     0.031 H 
ENDBRANCH  79  81
BRANCH  79  85
ATOM     85  O40 NF4 d   1      66.118  51.735  10.878  0.00  0.00    -0.391 OA
ATOM     86  H44 NF4 d   1      65.620  51.250  10.231  0.00  0.00     0.210 HD
ENDBRANCH  79  85
ENDBRANCH  73  79
ENDBRANCH  66  69
ENDBRANCH  46  66
ENDBRANCH   1  46
TORSDOF 20
