REMARK  20 active torsions:
REMARK  status: ('A' for Active; 'I' for Inactive)
REMARK    1  A    between atoms: C12_14  and  C13_1 
REMARK    2  A    between atoms: C13_1  and  C40_30 
REMARK    3  A    between atoms: C15_2  and  C16_16 
REMARK    4  A    between atoms: N10_32  and  C15_2 
REMARK       I    between atoms: N19_33  and  C20_3 
REMARK    5  A    between atoms: C20_3  and  O22_38 
REMARK    6  A    between atoms: C01_7  and  C41_31 
REMARK    7  A    between atoms: S07_42  and  C04_10 
REMARK    8  A    between atoms: C11_13  and  C12_14 
REMARK    9  A    between atoms: N10_32  and  C11_13 
REMARK   10  A    between atoms: C12_14  and  C14_15 
REMARK   11  A    between atoms: C14_15  and  C39_29 
REMARK   12  A    between atoms: C16_16  and  C18_17 
REMARK   13  A    between atoms: C16_16  and  O17_36 
REMARK   14  A    between atoms: C18_17  and  C31_21 
REMARK   15  A    between atoms: C18_17  and  N19_33 
REMARK   16  A    between atoms: O22_38  and  C23_18 
REMARK   17  A    between atoms: C31_21  and  C32_22 
REMARK   18  A    between atoms: C41_31  and  C38_28 
REMARK   19  A    between atoms: C41_31  and  O42_41 
REMARK   20  A    between atoms: N10_32  and  S07_42 
ROOT
ATOM      1  C15 NFJ d   1      70.112  57.120  14.046  0.00  0.00     0.031 C 
ATOM      2  H3  NFJ d   1      70.267  57.052  12.959  0.00  0.00     0.069 H 
ATOM      3  H4  NFJ d   1      69.062  57.375  14.251  0.00  0.00     0.069 H 
ENDROOT
BRANCH   1   4
ATOM      4  C16 NFJ d   1      71.024  58.191  14.629  0.00  0.00     0.071 C 
ATOM      5  H25 NFJ d   1      72.064  57.837  14.581  0.00  0.00     0.088 H 
BRANCH   4   6
ATOM      6  C18 NFJ d   1      70.662  58.472  16.085  0.00  0.00     0.041 C 
ATOM      7  H26 NFJ d   1      70.666  57.536  16.663  0.00  0.00     0.076 H 
BRANCH   6   8
ATOM      8  C31 NFJ d   1      69.305  59.160  16.208  0.00  0.00    -0.040 C 
ATOM      9  H31 NFJ d   1      68.508  58.467  15.901  0.00  0.00     0.036 H 
ATOM     10  H32 NFJ d   1      69.282  60.052  15.565  0.00  0.00     0.036 H 
BRANCH   8  11
ATOM     11  C32 NFJ d   1      69.091  59.586  17.726  0.00  0.00    -0.052 A 
ATOM     12  C33 NFJ d   1      69.166  61.065  18.130  0.00  0.00    -0.062 A 
ATOM     13  C34 NFJ d   1      68.956  61.473  19.605  0.00  0.00    -0.065 A 
ATOM     14  H34 NFJ d   1      68.402  61.594  17.542  0.00  0.00     0.033 H 
ATOM     15  H35 NFJ d   1      70.165  61.423  17.840  0.00  0.00     0.033 H 
ATOM     16  C35 NFJ d   1      68.670  60.399  20.665  0.00  0.00    -0.065 A 
ATOM     17  H36 NFJ d   1      68.107  62.172  19.623  0.00  0.00     0.033 H 
ATOM     18  H37 NFJ d   1      69.869  61.998  19.923  0.00  0.00     0.033 H 
ATOM     19  C36 NFJ d   1      68.594  58.919  20.259  0.00  0.00    -0.065 A 
ATOM     20  H38 NFJ d   1      67.702  60.653  21.121  0.00  0.00     0.033 H 
ATOM     21  H39 NFJ d   1      69.464  60.480  21.422  0.00  0.00     0.033 H 
ATOM     22  C37 NFJ d   1      68.804  58.512  18.787  0.00  0.00    -0.062 A 
ATOM     23  H40 NFJ d   1      67.595  58.561  20.548  0.00  0.00     0.033 H 
ATOM     24  H41 NFJ d   1      69.358  58.389  20.847  0.00  0.00     0.033 H 
ATOM     25  H42 NFJ d   1      69.653  57.813  18.769  0.00  0.00     0.033 H 
ATOM     26  H43 NFJ d   1      67.891  57.988  18.469  0.00  0.00     0.033 H 
ATOM     27  H33 NFJ d   1      70.171  59.481  17.909  0.00  0.00     0.040 H 
ENDBRANCH   8  11
ENDBRANCH   6   8
BRANCH   6  28
ATOM     28  N19 NFJ d   1      71.669  59.424  16.602  0.00  0.00    -0.330 N 
ATOM     29  C20 NFJ d   1      72.709  59.033  17.599  0.00  0.00     0.361 C 
ATOM     30  O21 NFJ d   1      72.730  57.948  18.105  0.00  0.00    -0.238 OA
ATOM     31  H54 NFJ d   1      71.653  60.367  16.270  0.00  0.00     0.165 HD
BRANCH  29  32
ATOM     32  O22 NFJ d   1      73.658  60.031  17.915  0.00  0.00    -0.296 OA
BRANCH  32  33
ATOM     33  C23 NFJ d   1      74.467  59.889  19.170  0.00  0.00     0.078 C 
ATOM     34  C24 NFJ d   1      75.884  60.467  18.840  0.00  0.00     0.048 C 
ATOM     35  O25 NFJ d   1      75.690  61.830  18.829  0.00  0.00    -0.358 OA
ATOM     36  H5  NFJ d   1      76.232  60.113  17.858  0.00  0.00     0.078 H 
ATOM     37  H6  NFJ d   1      76.613  60.181  19.613  0.00  0.00     0.078 H 
ATOM     38  C27 NFJ d   1      74.669  62.066  19.900  0.00  0.00     0.137 C 
ATOM     39  C26 NFJ d   1      74.031  60.663  20.175  0.00  0.00     0.023 C 
ATOM     40  O30 NFJ d   1      73.555  62.948  19.435  0.00  0.00    -0.361 OA
ATOM     41  H28 NFJ d   1      75.141  62.486  20.801  0.00  0.00     0.129 H 
ATOM     42  C28 NFJ d   1      72.701  60.885  20.201  0.00  0.00    -0.035 C 
ATOM     43  H7  NFJ d   1      74.357  60.243  21.138  0.00  0.00     0.051 H 
ATOM     44  C29 NFJ d   1      72.431  62.148  19.321  0.00  0.00     0.023 C 
ATOM     45  H8  NFJ d   1      72.368  61.066  21.234  0.00  0.00     0.037 H 
ATOM     46  H9  NFJ d   1      72.165  60.017  19.790  0.00  0.00     0.037 H 
ATOM     47  H29 NFJ d   1      71.543  62.684  19.687  0.00  0.00     0.074 H 
ATOM     48  H30 NFJ d   1      72.276  61.855  18.272  0.00  0.00     0.074 H 
ATOM     49  H27 NFJ d   1      74.509  58.834  19.480  0.00  0.00     0.088 H 
ENDBRANCH  32  33
ENDBRANCH  29  32
ENDBRANCH   6  28
ENDBRANCH   4   6
BRANCH   4  50
ATOM     50  O17 NFJ d   1      70.905  59.385  13.878  0.00  0.00    -0.392 OA
ATOM     51  H55 NFJ d   1      71.130  59.211  12.972  0.00  0.00     0.210 HD
ENDBRANCH   4  50
ENDBRANCH   1   4
BRANCH   1  52
ATOM     52  N10 NFJ d   1      70.448  55.808  14.687  0.00  0.00    -0.308 N 
BRANCH  52  53
ATOM     53  C11 NFJ d   1      71.155  54.810  13.859  0.00  0.00     0.008 C 
ATOM     54  H20 NFJ d   1      70.834  53.801  14.158  0.00  0.00     0.066 H 
ATOM     55  H21 NFJ d   1      70.903  54.976  12.801  0.00  0.00     0.066 H 
BRANCH  53  56
ATOM     56  C12 NFJ d   1      72.719  54.932  14.044  0.00  0.00    -0.039 C 
ATOM     57  H22 NFJ d   1      73.026  55.956  13.785  0.00  0.00     0.042 H 
BRANCH  56  58
ATOM     58  C13 NFJ d   1      73.446  53.941  13.087  0.00  0.00    -0.064 C 
ATOM     59  H1  NFJ d   1      74.530  54.122  13.142  0.00  0.00     0.033 H 
ATOM     60  H2  NFJ d   1      73.097  54.117  12.059  0.00  0.00     0.033 H 
BRANCH  58  61
ATOM     61  C40 NFJ d   1      73.165  52.477  13.465  0.00  0.00    -0.076 C 
ATOM     62  H50 NFJ d   1      73.694  51.810  12.768  0.00  0.00     0.027 H 
ATOM     63  H51 NFJ d   1      72.084  52.284  13.407  0.00  0.00     0.027 H 
ATOM     64  H52 NFJ d   1      73.516  52.289  14.490  0.00  0.00     0.027 H 
ENDBRANCH  58  61
ENDBRANCH  56  58
BRANCH  56  65
ATOM     65  C14 NFJ d   1      73.109  54.659  15.555  0.00  0.00    -0.064 C 
ATOM     66  H23 NFJ d   1      72.867  53.618  15.815  0.00  0.00     0.033 H 
ATOM     67  H24 NFJ d   1      72.546  55.341  16.209  0.00  0.00     0.033 H 
BRANCH  65  68
ATOM     68  C39 NFJ d   1      74.653  54.903  15.744  0.00  0.00    -0.076 C 
ATOM     69  H47 NFJ d   1      74.928  54.715  16.792  0.00  0.00     0.027 H 
ATOM     70  H48 NFJ d   1      74.894  55.944  15.483  0.00  0.00     0.027 H 
ATOM     71  H49 NFJ d   1      75.215  54.221  15.089  0.00  0.00     0.027 H 
ENDBRANCH  65  68
ENDBRANCH  56  65
ENDBRANCH  53  56
ENDBRANCH  52  53
BRANCH  52  72
ATOM     72  S07 NFJ d   1      69.241  55.159  15.788  0.00  0.00     0.232 S 
ATOM     73  O08 NFJ d   1      69.860  54.410  16.921  0.00  0.00    -0.205 OA
ATOM     74  O09 NFJ d   1      68.459  56.215  16.448  0.00  0.00    -0.205 OA
BRANCH  72  75
ATOM     75  C04 NFJ d   1      68.180  54.043  14.729  0.00  0.00     0.063 A 
ATOM     76  C03 NFJ d   1      68.386  52.534  14.800  0.00  0.00    -0.047 A 
ATOM     77  C02 NFJ d   1      67.529  51.615  13.920  0.00  0.00    -0.058 A 
ATOM     78  H13 NFJ d   1      69.436  52.341  14.537  0.00  0.00     0.035 H 
ATOM     79  H14 NFJ d   1      68.209  52.235  15.844  0.00  0.00     0.035 H 
ATOM     80  C01 NFJ d   1      66.480  52.232  12.974  0.00  0.00    -0.029 A 
ATOM     81  H11 NFJ d   1      68.222  51.034  13.294  0.00  0.00     0.033 H 
ATOM     82  H12 NFJ d   1      66.990  50.936  14.597  0.00  0.00     0.033 H 
ATOM     83  C06 NFJ d   1      66.284  53.765  12.899  0.00  0.00    -0.058 A 
ATOM     84  H10 NFJ d   1      65.728  52.172  13.774  0.00  0.00     0.043 H 
ATOM     85  C05 NFJ d   1      67.129  54.673  13.765  0.00  0.00    -0.047 A 
ATOM     86  H18 NFJ d   1      65.234  53.965  13.157  0.00  0.00     0.033 H 
ATOM     87  H19 NFJ d   1      66.467  54.059  11.855  0.00  0.00     0.033 H 
ATOM     88  H16 NFJ d   1      67.676  55.345  13.088  0.00  0.00     0.035 H 
ATOM     89  H17 NFJ d   1      66.437  55.261  14.385  0.00  0.00     0.035 H 
ATOM     90  H15 NFJ d   1      67.423  53.984  15.525  0.00  0.00     0.066 H 
BRANCH  80  91
ATOM     91  C41 NFJ d   1      65.623  51.338  12.093  0.00  0.00     0.035 C 
ATOM     92  H53 NFJ d   1      65.817  50.280  12.323  0.00  0.00     0.082 H 
BRANCH  91  93
ATOM     93  C38 NFJ d   1      64.134  51.667  12.356  0.00  0.00    -0.052 C 
ATOM     94  H44 NFJ d   1      63.500  51.027  11.725  0.00  0.00     0.030 H 
ATOM     95  H45 NFJ d   1      63.944  52.723  12.115  0.00  0.00     0.030 H 
ATOM     96  H46 NFJ d   1      63.900  51.484  13.415  0.00  0.00     0.030 H 
ENDBRANCH  91  93
BRANCH  91  97
ATOM     97  O42 NFJ d   1      65.944  51.597  10.777  0.00  0.00    -0.396 OA
ATOM     98  H56 NFJ d   1      65.402  51.062  10.209  0.00  0.00     0.210 HD
ENDBRANCH  91  97
ENDBRANCH  80  91
ENDBRANCH  72  75
ENDBRANCH  52  72
ENDBRANCH   1  52
TORSDOF 20
