REMARK  19 active torsions:
REMARK  status: ('A' for Active; 'I' for Inactive)
REMARK    1  A    between atoms: C12_14  and  C13_1 
REMARK    2  A    between atoms: C15_2  and  C16_16 
REMARK    3  A    between atoms: N10_30  and  C15_2 
REMARK       I    between atoms: N19_31  and  C20_3 
REMARK    4  A    between atoms: C20_3  and  O22_36 
REMARK    5  A    between atoms: C01_7  and  C39_28 
REMARK    6  A    between atoms: S07_41  and  C04_10 
REMARK    7  A    between atoms: C11_13  and  C12_14 
REMARK    8  A    between atoms: N10_30  and  C11_13 
REMARK    9  A    between atoms: C12_14  and  C14_15 
REMARK   10  A    between atoms: C16_16  and  C18_17 
REMARK   11  A    between atoms: C16_16  and  O17_34 
REMARK   12  A    between atoms: C18_17  and  C31_21 
REMARK   13  A    between atoms: C18_17  and  N19_31 
REMARK   14  A    between atoms: O22_36  and  C23_18 
REMARK   15  A    between atoms: C31_21  and  C32_22 
REMARK   16  A    between atoms: C39_28  and  C40_29 
REMARK   17  A    between atoms: C39_28  and  O38_39 
REMARK   18  A    between atoms: C40_29  and  O41_40 
REMARK   19  A    between atoms: N10_30  and  S07_41 
ROOT
ATOM      1  C16 NG4 d   1      71.052  57.713  14.940  0.00  0.00     0.071 C 
ATOM      2  H21 NG4 d   1      72.107  57.402  14.913  0.00  0.00     0.088 H 
ENDROOT
BRANCH   1   3
ATOM      3  C15 NG4 d   1      70.188  56.574  14.396  0.00  0.00     0.031 C 
ATOM      4  H4  NG4 d   1      70.367  56.464  13.316  0.00  0.00     0.069 H 
ATOM      5  H5  NG4 d   1      69.127  56.806  14.570  0.00  0.00     0.069 H 
BRANCH   3   6
ATOM      6  N10 NG4 d   1      70.528  55.330  15.072  0.00  0.00    -0.304 N 
BRANCH   6   7
ATOM      7  C11 NG4 d   1      71.356  54.354  14.374  0.00  0.00     0.008 C 
ATOM      8  H15 NG4 d   1      71.225  53.371  14.849  0.00  0.00     0.066 H 
ATOM      9  H16 NG4 d   1      71.034  54.300  13.324  0.00  0.00     0.066 H 
BRANCH   7  10
ATOM     10  C12 NG4 d   1      72.834  54.732  14.419  0.00  0.00    -0.045 C 
ATOM     11  H17 NG4 d   1      72.956  55.750  14.021  0.00  0.00     0.041 H 
BRANCH  10  12
ATOM     12  C13 NG4 d   1      73.373  54.692  15.849  0.00  0.00    -0.072 C 
ATOM     13  H1  NG4 d   1      74.438  54.969  15.847  0.00  0.00     0.028 H 
ATOM     14  H2  NG4 d   1      73.259  53.676  16.256  0.00  0.00     0.028 H 
ATOM     15  H3  NG4 d   1      72.811  55.402  16.473  0.00  0.00     0.028 H 
ENDBRANCH  10  12
BRANCH  10  16
ATOM     16  C14 NG4 d   1      73.621  53.748  13.549  0.00  0.00    -0.072 C 
ATOM     17  H18 NG4 d   1      74.689  54.010  13.573  0.00  0.00     0.028 H 
ATOM     18  H19 NG4 d   1      73.254  53.800  12.513  0.00  0.00     0.028 H 
ATOM     19  H20 NG4 d   1      73.485  52.727  13.935  0.00  0.00     0.028 H 
ENDBRANCH  10  16
ENDBRANCH   7  10
ENDBRANCH   6   7
BRANCH   6  20
ATOM     20  S07 NG4 d   1      69.347  54.662  16.106  0.00  0.00     0.260 S 
ATOM     21  O08 NG4 d   1      69.991  53.971  17.216  0.00  0.00    -0.200 OA
ATOM     22  O09 NG4 d   1      68.451  55.669  16.659  0.00  0.00    -0.200 OA
BRANCH  20  23
ATOM     23  C04 NG4 d   1      68.482  53.471  15.088  0.00  0.00     0.079 A 
ATOM     24  C03 NG4 d   1      67.469  53.952  14.063  0.00  0.00    -0.060 A 
ATOM     25  C02 NG4 d   1      66.788  52.912  13.200  0.00  0.00    -0.073 A 
ATOM     26  H12 NG4 d   1      67.241  55.006  13.953  0.00  0.00     0.085 H 
ATOM     27  C01 NG4 d   1      67.137  51.441  13.380  0.00  0.00    -0.028 A 
ATOM     28  H11 NG4 d   1      66.056  53.212  12.459  0.00  0.00     0.084 H 
ATOM     29  C06 NG4 d   1      68.162  50.977  14.392  0.00  0.00    -0.073 A 
ATOM     30  C05 NG4 d   1      68.843  52.011  15.258  0.00  0.00    -0.060 A 
ATOM     31  H14 NG4 d   1      68.403  49.925  14.493  0.00  0.00     0.084 H 
ATOM     32  H13 NG4 d   1      69.582  51.711  15.992  0.00  0.00     0.085 H 
BRANCH  27  33
ATOM     33  C39 NG4 d   1      66.467  50.410  12.494  0.00  0.00     0.081 C 
ATOM     34  H34 NG4 d   1      66.989  49.445  12.577  0.00  0.00     0.093 H 
BRANCH  33  35
ATOM     35  C40 NG4 d   1      65.012  50.229  12.870  0.00  0.00     0.044 C 
ATOM     36  H35 NG4 d   1      64.454  51.153  12.659  0.00  0.00     0.078 H 
ATOM     37  H36 NG4 d   1      64.930  49.988  13.940  0.00  0.00     0.078 H 
BRANCH  35  38
ATOM     38  O41 NG4 d   1      64.495  49.172  12.101  0.00  0.00    -0.398 OA
ATOM     39  H40 NG4 d   1      64.573  49.386  11.179  0.00  0.00     0.209 HD
ENDBRANCH  35  38
ENDBRANCH  33  35
BRANCH  33  40
ATOM     40  O38 NG4 d   1      66.553  50.901  11.186  0.00  0.00    -0.389 OA
ATOM     41  H39 NG4 d   1      66.146  50.284  10.590  0.00  0.00     0.210 HD
ENDBRANCH  33  40
ENDBRANCH  27  33
ENDBRANCH  20  23
ENDBRANCH   6  20
ENDBRANCH   3   6
ENDBRANCH   1   3
BRANCH   1  42
ATOM     42  C18 NG4 d   1      70.673  58.062  16.375  0.00  0.00     0.044 C 
ATOM     43  H22 NG4 d   1      70.677  57.153  16.995  0.00  0.00     0.077 H 
BRANCH  42  44
ATOM     44  C31 NG4 d   1      69.302  58.734  16.436  0.00  0.00    -0.020 C 
ATOM     45  H27 NG4 d   1      68.525  58.030  16.105  0.00  0.00     0.043 H 
ATOM     46  H28 NG4 d   1      69.291  59.623  15.789  0.00  0.00     0.043 H 
BRANCH  44  47
ATOM     47  C32 NG4 d   1      69.050  59.142  17.883  0.00  0.00    -0.056 A 
ATOM     48  C33 NG4 d   1      68.663  58.098  18.924  0.00  0.00    -0.077 A 
ATOM     49  C34 NG4 d   1      68.435  58.530  20.367  0.00  0.00    -0.082 A 
ATOM     50  H29 NG4 d   1      68.551  57.058  18.640  0.00  0.00     0.084 H 
ATOM     51  C35 NG4 d   1      68.587  59.992  20.761  0.00  0.00    -0.083 A 
ATOM     52  H30 NG4 d   1      68.164  57.794  21.115  0.00  0.00     0.083 H 
ATOM     53  C36 NG4 d   1      68.979  61.027  19.722  0.00  0.00    -0.082 A 
ATOM     54  H31 NG4 d   1      68.415  60.295  21.787  0.00  0.00     0.083 H 
ATOM     55  C37 NG4 d   1      69.213  60.600  18.281  0.00  0.00    -0.077 A 
ATOM     56  H32 NG4 d   1      69.092  62.067  20.006  0.00  0.00     0.083 H 
ATOM     57  H33 NG4 d   1      69.496  61.336  17.537  0.00  0.00     0.084 H 
ENDBRANCH  44  47
ENDBRANCH  42  44
BRANCH  42  58
ATOM     58  N19 NG4 d   1      71.633  59.024  16.870  0.00  0.00    -0.329 N 
ATOM     59  C20 NG4 d   1      72.605  58.712  17.888  0.00  0.00     0.361 C 
ATOM     60  O21 NG4 d   1      72.638  57.660  18.460  0.00  0.00    -0.238 OA
ATOM     61  H37 NG4 d   1      71.622  59.948  16.488  0.00  0.00     0.165 HD
BRANCH  59  62
ATOM     62  O22 NG4 d   1      73.515  59.743  18.131  0.00  0.00    -0.296 OA
BRANCH  62  63
ATOM     63  C23 NG4 d   1      74.471  59.632  19.275  0.00  0.00     0.078 C 
ATOM     64  C24 NG4 d   1      75.572  60.008  18.891  0.00  0.00     0.048 C 
ATOM     65  O25 NG4 d   1      75.486  61.533  18.967  0.00  0.00    -0.358 OA
ATOM     66  H6  NG4 d   1      75.761  59.678  17.859  0.00  0.00     0.078 H 
ATOM     67  H7  NG4 d   1      76.367  59.627  19.549  0.00  0.00     0.078 H 
ATOM     68  C27 NG4 d   1      74.500  61.803  20.076  0.00  0.00     0.137 C 
ATOM     69  C26 NG4 d   1      74.041  60.693  20.428  0.00  0.00     0.023 C 
ATOM     70  O30 NG4 d   1      73.253  62.709  19.497  0.00  0.00    -0.361 OA
ATOM     71  H24 NG4 d   1      74.990  62.314  20.918  0.00  0.00     0.129 H 
ATOM     72  C28 NG4 d   1      72.466  60.848  20.466  0.00  0.00    -0.035 C 
ATOM     73  H8  NG4 d   1      74.429  60.386  21.410  0.00  0.00     0.051 H 
ATOM     74  C29 NG4 d   1      72.191  61.974  19.493  0.00  0.00     0.023 C 
ATOM     75  H9  NG4 d   1      72.122  61.111  21.477  0.00  0.00     0.037 H 
ATOM     76  H10 NG4 d   1      71.973  59.920  20.141  0.00  0.00     0.037 H 
ATOM     77  H25 NG4 d   1      71.319  62.559  19.820  0.00  0.00     0.074 H 
ATOM     78  H26 NG4 d   1      72.006  61.573  18.485  0.00  0.00     0.074 H 
ATOM     79  H23 NG4 d   1      74.503  58.603  19.663  0.00  0.00     0.088 H 
ENDBRANCH  62  63
ENDBRANCH  59  62
ENDBRANCH  42  58
ENDBRANCH   1  42
BRANCH   1  80
ATOM     80  O17 NG4 d   1      70.885  58.850  14.148  0.00  0.00    -0.392 OA
ATOM     81  H38 NG4 d   1      71.118  58.646  13.250  0.00  0.00     0.210 HD
ENDBRANCH   1  80
TORSDOF 19
