REMARK  20 active torsions:
REMARK  status: ('A' for Active; 'I' for Inactive)
REMARK    1  A    between atoms: C13_1  and  C15_2 
REMARK    2  A    between atoms: C12_16  and  C13_1 
REMARK    3  A    between atoms: C13_1  and  O14_35 
REMARK    4  A    between atoms: C15_2  and  C28_8 
REMARK    5  A    between atoms: C15_2  and  N16_32 
REMARK       I    between atoms: N16_32  and  C17_3 
REMARK    6  A    between atoms: C17_3  and  O19_37 
REMARK    7  A    between atoms: O19_37  and  C20_4 
REMARK    8  A    between atoms: C28_8  and  C29_19 
REMARK    9  A    between atoms: C01_9  and  C40_30 
REMARK   10  A    between atoms: S07_42  and  C04_12 
REMARK   11  A    between atoms: C11_15  and  C37_27 
REMARK   12  A    between atoms: N10_31  and  C11_15 
REMARK   13  A    between atoms: N10_31  and  C12_16 
REMARK   14  A    between atoms: C40_30  and  C35_25 
REMARK   15  A    between atoms: C35_25  and  O42_41 
REMARK   16  A    between atoms: C38_28  and  C36_26 
REMARK   17  A    between atoms: C37_27  and  C38_28 
REMARK   18  A    between atoms: C37_27  and  C39_29 
REMARK   19  A    between atoms: C40_30  and  O41_40 
REMARK   20  A    between atoms: N10_31  and  S07_42 
ROOT
ATOM      1  C13 NJG d   1      70.898  57.488  15.141  0.00  0.00     0.071 C 
ATOM      2  H1  NJG d   1      71.962  57.214  15.101  0.00  0.00     0.088 H 
ENDROOT
BRANCH   1   3
ATOM      3  C15 NJG d   1      70.526  57.832  16.580  0.00  0.00     0.044 C 
ATOM      4  H2  NJG d   1      70.587  56.931  17.208  0.00  0.00     0.077 H 
BRANCH   3   5
ATOM      5  C28 NJG d   1      69.116  58.437  16.672  0.00  0.00    -0.020 C 
ATOM      6  H9  NJG d   1      68.368  57.679  16.397  0.00  0.00     0.043 H 
ATOM      7  H10 NJG d   1      69.035  59.297  15.990  0.00  0.00     0.043 H 
BRANCH   5   8
ATOM      8  C29 NJG d   1      68.878  58.903  18.135  0.00  0.00    -0.056 A 
ATOM      9  C30 NJG d   1      68.495  57.883  19.211  0.00  0.00    -0.077 A 
ATOM     10  C31 NJG d   1      68.265  58.344  20.656  0.00  0.00    -0.082 A 
ATOM     11  H22 NJG d   1      68.386  56.836  18.952  0.00  0.00     0.084 H 
ATOM     12  C32 NJG d   1      68.418  59.819  21.022  0.00  0.00    -0.083 A 
ATOM     13  H23 NJG d   1      67.994  57.622  21.418  0.00  0.00     0.083 H 
ATOM     14  C33 NJG d   1      68.803  60.843  19.943  0.00  0.00    -0.082 A 
ATOM     15  H24 NJG d   1      68.255  60.144  22.043  0.00  0.00     0.083 H 
ATOM     16  C34 NJG d   1      69.034  60.385  18.505  0.00  0.00    -0.077 A 
ATOM     17  H25 NJG d   1      68.910  61.890  20.203  0.00  0.00     0.083 H 
ATOM     18  H26 NJG d   1      69.308  61.107  17.744  0.00  0.00     0.084 H 
ENDBRANCH   5   8
ENDBRANCH   3   5
BRANCH   3  19
ATOM     19  N16 NJG d   1      71.468  58.844  17.036  0.00  0.00    -0.329 N 
ATOM     20  C17 NJG d   1      72.460  58.564  18.102  0.00  0.00     0.361 C 
ATOM     21  O18 NJG d   1      72.472  57.533  18.685  0.00  0.00    -0.238 OA
ATOM     22  H39 NJG d   1      71.445  59.753  16.619  0.00  0.00     0.165 HD
BRANCH  20  23
ATOM     23  O19 NJG d   1      73.380  59.617  18.381  0.00  0.00    -0.296 OA
BRANCH  23  24
ATOM     24  C20 NJG d   1      74.152  59.564  19.593  0.00  0.00     0.078 C 
ATOM     25  C21 NJG d   1      75.631  60.162  19.205  0.00  0.00     0.048 C 
ATOM     26  O22 NJG d   1      75.412  61.484  19.073  0.00  0.00    -0.358 OA
ATOM     27  H4  NJG d   1      75.995  59.728  18.262  0.00  0.00     0.078 H 
ATOM     28  H5  NJG d   1      76.358  59.962  20.006  0.00  0.00     0.078 H 
ATOM     29  C24 NJG d   1      74.310  61.813  20.123  0.00  0.00     0.137 C 
ATOM     30  C23 NJG d   1      73.703  60.402  20.527  0.00  0.00     0.023 C 
ATOM     31  O27 NJG d   1      73.387  62.487  19.611  0.00  0.00    -0.361 OA
ATOM     32  H6  NJG d   1      74.735  62.338  20.991  0.00  0.00     0.129 H 
ATOM     33  C25 NJG d   1      72.216  60.618  20.531  0.00  0.00    -0.035 C 
ATOM     34  H19 NJG d   1      74.039  60.073  21.521  0.00  0.00     0.051 H 
ATOM     35  C26 NJG d   1      71.989  61.643  19.745  0.00  0.00     0.023 C 
ATOM     36  H20 NJG d   1      71.701  59.724  20.149  0.00  0.00     0.037 H 
ATOM     37  H21 NJG d   1      71.866  60.836  21.551  0.00  0.00     0.037 H 
ATOM     38  H7  NJG d   1      71.206  62.282  20.179  0.00  0.00     0.074 H 
ATOM     39  H8  NJG d   1      71.667  61.291  18.754  0.00  0.00     0.074 H 
ATOM     40  H3  NJG d   1      74.202  58.535  19.977  0.00  0.00     0.088 H 
ENDBRANCH  23  24
ENDBRANCH  20  23
ENDBRANCH   3  19
ENDBRANCH   1   3
BRANCH   1  41
ATOM     41  C12 NJG d   1      70.047  56.291  14.653  0.00  0.00     0.031 C 
ATOM     42  H17 NJG d   1      70.268  56.082  13.596  0.00  0.00     0.069 H 
ATOM     43  H18 NJG d   1      68.978  56.522  14.765  0.00  0.00     0.069 H 
BRANCH  41  44
ATOM     44  N10 NJG d   1      70.403  55.095  15.497  0.00  0.00    -0.304 N 
BRANCH  44  45
ATOM     45  C11 NJG d   1      71.284  54.059  14.875  0.00  0.00     0.008 C 
ATOM     46  H15 NJG d   1      71.140  53.105  15.403  0.00  0.00     0.066 H 
ATOM     47  H16 NJG d   1      71.002  53.939  13.819  0.00  0.00     0.066 H 
BRANCH  45  48
ATOM     48  C37 NJG d   1      72.777  54.454  14.953  0.00  0.00    -0.042 C 
ATOM     49  H32 NJG d   1      72.921  55.432  14.470  0.00  0.00     0.042 H 
BRANCH  48  50
ATOM     50  C38 NJG d   1      73.616  53.391  14.215  0.00  0.00    -0.064 C 
ATOM     51  H33 NJG d   1      73.371  53.417  13.143  0.00  0.00     0.033 H 
ATOM     52  H34 NJG d   1      74.684  53.614  14.353  0.00  0.00     0.033 H 
BRANCH  50  53
ATOM     53  C36 NJG d   1      73.316  51.984  14.769  0.00  0.00    -0.076 C 
ATOM     54  H29 NJG d   1      73.923  51.241  14.231  0.00  0.00     0.027 H 
ATOM     55  H30 NJG d   1      72.249  51.755  14.631  0.00  0.00     0.027 H 
ATOM     56  H31 NJG d   1      73.562  51.952  15.841  0.00  0.00     0.027 H 
ENDBRANCH  50  53
ENDBRANCH  48  50
BRANCH  48  57
ATOM     57  C39 NJG d   1      73.213  54.546  16.393  0.00  0.00    -0.071 C 
ATOM     58  H35 NJG d   1      72.610  55.306  16.911  0.00  0.00     0.028 H 
ATOM     59  H36 NJG d   1      74.275  54.829  16.437  0.00  0.00     0.028 H 
ATOM     60  H37 NJG d   1      73.072  53.571  16.882  0.00  0.00     0.028 H 
ENDBRANCH  48  57
ENDBRANCH  45  48
ENDBRANCH  44  45
BRANCH  44  61
ATOM     61  S07 NJG d   1      69.133  54.454  16.494  0.00  0.00     0.260 S 
ATOM     62  O08 NJG d   1      68.189  55.478  16.955  0.00  0.00    -0.200 OA
ATOM     63  O09 NJG d   1      69.661  53.842  17.729  0.00  0.00    -0.200 OA
BRANCH  61  64
ATOM     64  C04 NJG d   1      68.352  53.212  15.386  0.00  0.00     0.079 A 
ATOM     65  C03 NJG d   1      67.304  53.664  14.385  0.00  0.00    -0.060 A 
ATOM     66  C02 NJG d   1      66.680  52.625  13.449  0.00  0.00    -0.073 A 
ATOM     67  H12 NJG d   1      67.003  54.704  14.334  0.00  0.00     0.085 H 
ATOM     68  C01 NJG d   1      67.134  51.166  13.546  0.00  0.00    -0.028 A 
ATOM     69  H11 NJG d   1      65.927  52.919  12.727  0.00  0.00     0.084 H 
ATOM     70  C06 NJG d   1      68.201  50.726  14.537  0.00  0.00    -0.073 A 
ATOM     71  C05 NJG d   1      68.824  51.758  15.471  0.00  0.00    -0.060 A 
ATOM     72  H14 NJG d   1      68.515  49.689  14.579  0.00  0.00     0.084 H 
ATOM     73  H13 NJG d   1      69.588  51.467  16.183  0.00  0.00     0.085 H 
BRANCH  68  74
ATOM     74  C40 NJG d   1      66.537  50.143  12.610  0.00  0.00     0.081 C 
ATOM     75  H38 NJG d   1      66.036  49.338  13.167  0.00  0.00     0.093 H 
BRANCH  74  76
ATOM     76  C35 NJG d   1      67.718  49.592  11.794  0.00  0.00     0.044 C 
ATOM     77  H27 NJG d   1      67.339  49.023  10.932  0.00  0.00     0.078 H 
ATOM     78  H28 NJG d   1      68.331  48.934  12.428  0.00  0.00     0.078 H 
BRANCH  76  79
ATOM     79  O42 NJG d   1      68.503  50.681  11.338  0.00  0.00    -0.398 OA
ATOM     80  H42 NJG d   1      68.827  51.171  12.085  0.00  0.00     0.209 HD
ENDBRANCH  76  79
ENDBRANCH  74  76
BRANCH  74  81
ATOM     81  O41 NJG d   1      65.628  50.788  11.770  0.00  0.00    -0.389 OA
ATOM     82  H41 NJG d   1      65.300  50.171  11.126  0.00  0.00     0.210 HD
ENDBRANCH  74  81
ENDBRANCH  68  74
ENDBRANCH  61  64
ENDBRANCH  44  61
ENDBRANCH  41  44
ENDBRANCH   1  41
BRANCH   1  83
ATOM     83  O14 NJG d   1      70.680  58.591  14.314  0.00  0.00    -0.392 OA
ATOM     84  H40 NJG d   1      70.927  58.371  13.423  0.00  0.00     0.210 HD
ENDBRANCH   1  83
TORSDOF 20
