REMARK  20 active torsions:
REMARK  status: ('A' for Active; 'I' for Inactive)
REMARK    1  A    between atoms: C13_1  and  C15_2 
REMARK    2  A    between atoms: C12_16  and  C13_1 
REMARK    3  A    between atoms: C13_1  and  O14_35 
REMARK    4  A    between atoms: C15_2  and  C28_8 
REMARK    5  A    between atoms: C15_2  and  N16_32 
REMARK       I    between atoms: N16_32  and  C17_3 
REMARK    6  A    between atoms: C17_3  and  O19_37 
REMARK    7  A    between atoms: O19_37  and  C20_4 
REMARK    8  A    between atoms: C28_8  and  C29_19 
REMARK    9  A    between atoms: C01_9  and  C40_30 
REMARK   10  A    between atoms: S07_42  and  C04_12 
REMARK   11  A    between atoms: C11_15  and  C37_27 
REMARK   12  A    between atoms: N10_31  and  C11_15 
REMARK   13  A    between atoms: N10_31  and  C12_16 
REMARK   14  A    between atoms: C40_30  and  C35_25 
REMARK   15  A    between atoms: C35_25  and  O42_41 
REMARK   16  A    between atoms: C38_28  and  C36_26 
REMARK   17  A    between atoms: C37_27  and  C38_28 
REMARK   18  A    between atoms: C37_27  and  C39_29 
REMARK   19  A    between atoms: C40_30  and  O41_40 
REMARK   20  A    between atoms: N10_31  and  S07_42 
ROOT
ATOM      1  C13 NJ7 d   1      71.231  57.690  14.960  0.00  0.00     0.071 C 
ATOM      2  H1  NJ7 d   1      72.279  57.356  14.935  0.00  0.00     0.088 H 
ENDROOT
BRANCH   1   3
ATOM      3  C15 NJ7 d   1      70.849  58.046  16.415  0.00  0.00     0.041 C 
ATOM      4  H2  NJ7 d   1      70.874  57.142  17.040  0.00  0.00     0.076 H 
BRANCH   3   5
ATOM      5  C28 NJ7 d   1      69.457  58.683  16.472  0.00  0.00    -0.040 C 
ATOM      6  H9  NJ7 d   1      68.693  57.945  16.186  0.00  0.00     0.036 H 
ATOM      7  H10 NJ7 d   1      69.409  59.544  15.789  0.00  0.00     0.036 H 
BRANCH   5   8
ATOM      8  C29 NJ7 d   1      69.226  59.146  17.922  0.00  0.00    -0.052 A 
ATOM      9  C30 NJ7 d   1      68.879  58.091  19.033  0.00  0.00    -0.062 A 
ATOM     10  C31 NJ7 d   1      68.661  58.548  20.472  0.00  0.00    -0.065 A 
ATOM     11  H29 NJ7 d   1      69.705  57.365  19.051  0.00  0.00     0.033 H 
ATOM     12  H30 NJ7 d   1      67.954  57.587  18.716  0.00  0.00     0.033 H 
ATOM     13  C32 NJ7 d   1      68.780  60.050  20.832  0.00  0.00    -0.065 A 
ATOM     14  H31 NJ7 d   1      69.397  58.014  21.090  0.00  0.00     0.033 H 
ATOM     15  H32 NJ7 d   1      67.646  58.233  20.756  0.00  0.00     0.033 H 
ATOM     16  C33 NJ7 d   1      69.126  61.096  19.723  0.00  0.00    -0.065 A 
ATOM     17  H33 NJ7 d   1      69.563  60.131  21.600  0.00  0.00     0.033 H 
ATOM     18  H34 NJ7 d   1      67.813  60.351  21.261  0.00  0.00     0.033 H 
ATOM     19  C34 NJ7 d   1      69.353  60.636  18.276  0.00  0.00    -0.062 A 
ATOM     20  H35 NJ7 d   1      70.048  61.604  20.043  0.00  0.00     0.033 H 
ATOM     21  H36 NJ7 d   1      68.298  61.819  19.700  0.00  0.00     0.033 H 
ATOM     22  H37 NJ7 d   1      68.625  61.175  17.652  0.00  0.00     0.033 H 
ATOM     23  H38 NJ7 d   1      70.372  60.944  18.000  0.00  0.00     0.033 H 
ATOM     24  H28 NJ7 d   1      68.155  59.283  17.714  0.00  0.00     0.040 H 
ENDBRANCH   5   8
ENDBRANCH   3   5
BRANCH   3  25
ATOM     25  N16 NJ7 d   1      71.783  59.009  16.892  0.00  0.00    -0.330 N 
ATOM     26  C17 NJ7 d   1      72.768  58.693  17.953  0.00  0.00     0.361 C 
ATOM     27  O18 NJ7 d   1      72.794  57.646  18.517  0.00  0.00    -0.238 OA
ATOM     28  H51 NJ7 d   1      71.774  59.928  16.498  0.00  0.00     0.165 HD
BRANCH  26  29
ATOM     29  O19 NJ7 d   1      73.705  59.782  18.253  0.00  0.00    -0.296 OA
BRANCH  29  30
ATOM     30  C20 NJ7 d   1      74.484  59.691  19.457  0.00  0.00     0.078 C 
ATOM     31  C21 NJ7 d   1      75.949  60.319  19.067  0.00  0.00     0.048 C 
ATOM     32  O22 NJ7 d   1      75.683  61.613  18.912  0.00  0.00    -0.358 OA
ATOM     33  H4  NJ7 d   1      76.333  59.879  18.135  0.00  0.00     0.078 H 
ATOM     34  H5  NJ7 d   1      76.677  60.158  19.876  0.00  0.00     0.078 H 
ATOM     35  C24 NJ7 d   1      74.646  61.909  20.014  0.00  0.00     0.137 C 
ATOM     36  C23 NJ7 d   1      74.050  60.489  20.401  0.00  0.00     0.023 C 
ATOM     37  O27 NJ7 d   1      73.701  62.611  19.573  0.00  0.00    -0.361 OA
ATOM     38  H6  NJ7 d   1      75.118  62.401  20.877  0.00  0.00     0.129 H 
ATOM     39  C25 NJ7 d   1      72.553  60.698  20.438  0.00  0.00    -0.035 C 
ATOM     40  H25 NJ7 d   1      74.405  60.141  21.382  0.00  0.00     0.051 H 
ATOM     41  C26 NJ7 d   1      72.303  61.761  19.714  0.00  0.00     0.023 C 
ATOM     42  H26 NJ7 d   1      72.038  59.822  20.017  0.00  0.00     0.037 H 
ATOM     43  H27 NJ7 d   1      72.218  60.857  21.474  0.00  0.00     0.037 H 
ATOM     44  H7  NJ7 d   1      71.538  62.378  20.207  0.00  0.00     0.074 H 
ATOM     45  H8  NJ7 d   1      71.946  61.460  18.718  0.00  0.00     0.074 H 
ATOM     46  H3  NJ7 d   1      74.544  58.651  19.809  0.00  0.00     0.088 H 
ENDBRANCH  29  30
ENDBRANCH  26  29
ENDBRANCH   3  25
ENDBRANCH   1   3
BRANCH   1  47
ATOM     47  C12 NJ7 d   1      70.337  56.558  14.441  0.00  0.00     0.031 C 
ATOM     48  H23 NJ7 d   1      70.507  56.410  13.364  0.00  0.00     0.069 H 
ATOM     49  H24 NJ7 d   1      69.280  56.807  14.614  0.00  0.00     0.069 H 
BRANCH  47  50
ATOM     50  N10 NJ7 d   1      70.694  55.318  15.185  0.00  0.00    -0.308 N 
BRANCH  50  51
ATOM     51  C11 NJ7 d   1      71.566  54.302  14.493  0.00  0.00     0.008 C 
ATOM     52  H21 NJ7 d   1      71.418  53.320  14.965  0.00  0.00     0.066 H 
ATOM     53  H22 NJ7 d   1      71.281  54.246  13.432  0.00  0.00     0.066 H 
BRANCH  51  54
ATOM     54  C37 NJ7 d   1      73.043  54.688  14.594  0.00  0.00    -0.042 C 
ATOM     55  H44 NJ7 d   1      73.180  55.680  14.138  0.00  0.00     0.042 H 
BRANCH  54  56
ATOM     56  C38 NJ7 d   1      73.888  53.676  13.824  0.00  0.00    -0.064 C 
ATOM     57  H45 NJ7 d   1      73.553  53.656  12.776  0.00  0.00     0.033 H 
ATOM     58  H46 NJ7 d   1      74.942  53.987  13.866  0.00  0.00     0.033 H 
BRANCH  56  59
ATOM     59  C36 NJ7 d   1      73.765  52.285  14.403  0.00  0.00    -0.076 C 
ATOM     60  H41 NJ7 d   1      74.387  51.589  13.821  0.00  0.00     0.027 H 
ATOM     61  H42 NJ7 d   1      72.715  51.961  14.360  0.00  0.00     0.027 H 
ATOM     62  H43 NJ7 d   1      74.104  52.292  15.450  0.00  0.00     0.027 H 
ENDBRANCH  56  59
ENDBRANCH  54  56
BRANCH  54  63
ATOM     63  C39 NJ7 d   1      73.487  54.764  16.065  0.00  0.00    -0.071 C 
ATOM     64  H47 NJ7 d   1      72.865  55.498  16.598  0.00  0.00     0.028 H 
ATOM     65  H48 NJ7 d   1      74.542  55.072  16.114  0.00  0.00     0.028 H 
ATOM     66  H49 NJ7 d   1      73.372  53.776  16.534  0.00  0.00     0.028 H 
ENDBRANCH  54  63
ENDBRANCH  51  54
ENDBRANCH  50  51
BRANCH  50  67
ATOM     67  S07 NJ7 d   1      69.455  54.649  16.211  0.00  0.00     0.232 S 
ATOM     68  O08 NJ7 d   1      68.542  55.679  16.714  0.00  0.00    -0.205 OA
ATOM     69  O09 NJ7 d   1      70.025  54.013  17.417  0.00  0.00    -0.205 OA
BRANCH  67  70
ATOM     70  C04 NJ7 d   1      68.627  53.428  15.135  0.00  0.00     0.063 A 
ATOM     71  C03 NJ7 d   1      69.060  51.976  15.230  0.00  0.00    -0.047 A 
ATOM     72  C02 NJ7 d   1      68.397  50.934  14.315  0.00  0.00    -0.058 A 
ATOM     73  H14 NJ7 d   1      70.139  51.948  15.019  0.00  0.00     0.035 H 
ATOM     74  H15 NJ7 d   1      68.880  51.654  16.266  0.00  0.00     0.035 H 
ATOM     75  C01 NJ7 d   1      67.306  51.397  13.316  0.00  0.00    -0.027 A 
ATOM     76  H12 NJ7 d   1      69.199  50.468  13.723  0.00  0.00     0.033 H 
ATOM     77  H13 NJ7 d   1      67.936  50.178  14.968  0.00  0.00     0.033 H 
ATOM     78  C06 NJ7 d   1      66.882  52.851  13.212  0.00  0.00    -0.058 A 
ATOM     79  H11 NJ7 d   1      66.531  51.227  14.077  0.00  0.00     0.044 H 
ATOM     80  C05 NJ7 d   1      67.552  53.900  14.126  0.00  0.00    -0.047 A 
ATOM     81  H19 NJ7 d   1      65.802  52.886  13.420  0.00  0.00     0.033 H 
ATOM     82  H20 NJ7 d   1      67.066  53.166  12.174  0.00  0.00     0.033 H 
ATOM     83  H17 NJ7 d   1      68.028  54.644  13.470  0.00  0.00     0.035 H 
ATOM     84  H18 NJ7 d   1      66.752  54.382  14.707  0.00  0.00     0.035 H 
ATOM     85  H16 NJ7 d   1      67.849  53.257  15.893  0.00  0.00     0.066 H 
BRANCH  75  86
ATOM     86  C40 NJ7 d   1      66.666  50.351  12.407  0.00  0.00     0.059 C 
ATOM     87  H50 NJ7 d   1      67.327  49.475  12.327  0.00  0.00     0.086 H 
BRANCH  86  88
ATOM     88  C35 NJ7 d   1      65.348  49.919  12.973  0.00  0.00     0.041 C 
ATOM     89  H39 NJ7 d   1      64.691  50.793  13.090  0.00  0.00     0.077 H 
ATOM     90  H40 NJ7 d   1      65.504  49.444  13.953  0.00  0.00     0.077 H 
BRANCH  88  91
ATOM     91  O42 NJ7 d   1      64.762  49.005  12.096  0.00  0.00    -0.398 OA
ATOM     92  H54 NJ7 d   1      64.631  49.418  11.251  0.00  0.00     0.209 HD
ENDBRANCH  88  91
ENDBRANCH  86  88
BRANCH  86  93
ATOM     93  O41 NJ7 d   1      66.499  50.929  11.140  0.00  0.00    -0.393 OA
ATOM     94  H53 NJ7 d   1      66.106  50.294  10.553  0.00  0.00     0.210 HD
ENDBRANCH  86  93
ENDBRANCH  75  86
ENDBRANCH  67  70
ENDBRANCH  50  67
ENDBRANCH  47  50
ENDBRANCH   1  47
BRANCH   1  95
ATOM     95  O14 NJ7 d   1      71.095  58.824  14.153  0.00  0.00    -0.392 OA
ATOM     96  H52 NJ7 d   1      71.349  58.610  13.263  0.00  0.00     0.210 HD
ENDBRANCH   1  95
TORSDOF 20
