REMARK  21 active torsions:
REMARK  status: ('A' for Active; 'I' for Inactive)
REMARK    1  A    between atoms: C13_1  and  C15_2 
REMARK    2  A    between atoms: C12_16  and  C13_1 
REMARK    3  A    between atoms: C13_1  and  O14_36 
REMARK    4  A    between atoms: C15_2  and  C28_8 
REMARK    5  A    between atoms: C15_2  and  N16_33 
REMARK       I    between atoms: N16_33  and  C17_3 
REMARK    6  A    between atoms: C17_3  and  O19_38 
REMARK    7  A    between atoms: O19_38  and  C20_4 
REMARK    8  A    between atoms: C28_8  and  C29_19 
REMARK    9  A    between atoms: C01_9  and  C40_30 
REMARK   10  A    between atoms: S07_43  and  C04_12 
REMARK   11  A    between atoms: C11_15  and  C37_27 
REMARK   12  A    between atoms: N10_32  and  C11_15 
REMARK   13  A    between atoms: N10_32  and  C12_16 
REMARK   14  A    between atoms: C40_30  and  C35_25 
REMARK   15  A    between atoms: C35_25  and  O42_41 
REMARK   16  A    between atoms: C38_28  and  C36_26 
REMARK   17  A    between atoms: C37_27  and  C38_28 
REMARK   18  A    between atoms: C37_27  and  C39_29 
REMARK   19  A    between atoms: C39_29  and  C41_31 
REMARK   20  A    between atoms: C40_30  and  O43_42 
REMARK   21  A    between atoms: N10_32  and  S07_43 
ROOT
ATOM      1  C12 NJ1 d   1      69.822  56.463  14.622  0.00  0.00     0.031 C 
ATOM      2  H17 NJ1 d   1      69.912  56.355  13.531  0.00  0.00     0.069 H 
ATOM      3  H18 NJ1 d   1      68.786  56.729  14.880  0.00  0.00     0.069 H 
ENDROOT
BRANCH   1   4
ATOM      4  C13 NJ1 d   1      70.789  57.562  15.124  0.00  0.00     0.071 C 
ATOM      5  H1  NJ1 d   1      71.829  57.215  15.039  0.00  0.00     0.088 H 
BRANCH   4   6
ATOM      6  C15 NJ1 d   1      70.484  57.897  16.589  0.00  0.00     0.044 C 
ATOM      7  H2  NJ1 d   1      70.508  56.984  17.203  0.00  0.00     0.077 H 
BRANCH   6   8
ATOM      8  C28 NJ1 d   1      69.112  58.572  16.705  0.00  0.00    -0.020 C 
ATOM      9  H9  NJ1 d   1      68.327  57.857  16.418  0.00  0.00     0.043 H 
ATOM     10  H10 NJ1 d   1      69.076  59.445  16.037  0.00  0.00     0.043 H 
BRANCH   8  11
ATOM     11  C29 NJ1 d   1      68.882  59.030  18.163  0.00  0.00    -0.056 A 
ATOM     12  C30 NJ1 d   1      68.500  58.003  19.221  0.00  0.00    -0.077 A 
ATOM     13  C31 NJ1 d   1      68.283  58.447  20.666  0.00  0.00    -0.082 A 
ATOM     14  H22 NJ1 d   1      68.382  56.960  18.949  0.00  0.00     0.084 H 
ATOM     15  C32 NJ1 d   1      68.428  59.918  21.039  0.00  0.00    -0.083 A 
ATOM     16  H23 NJ1 d   1      68.026  57.717  21.425  0.00  0.00     0.083 H 
ATOM     17  C33 NJ1 d   1      68.802  60.942  19.977  0.00  0.00    -0.082 A 
ATOM     18  H24 NJ1 d   1      68.264  60.235  22.063  0.00  0.00     0.083 H 
ATOM     19  C34 NJ1 d   1      69.025  60.504  18.531  0.00  0.00    -0.077 A 
ATOM     20  H25 NJ1 d   1      68.910  61.986  20.248  0.00  0.00     0.083 H 
ATOM     21  H26 NJ1 d   1      69.283  61.234  17.772  0.00  0.00     0.084 H 
ENDBRANCH   8  11
ENDBRANCH   6   8
BRANCH   6  22
ATOM     22  N16 NJ1 d   1      71.492  58.833  17.027  0.00  0.00    -0.329 N 
ATOM     23  C17 NJ1 d   1      72.447  58.492  18.082  0.00  0.00     0.361 C 
ATOM     24  O18 NJ1 d   1      72.431  57.440  18.655  0.00  0.00    -0.238 OA
ATOM     25  H41 NJ1 d   1      71.539  59.736  16.599  0.00  0.00     0.165 HD
BRANCH  23  26
ATOM     26  O19 NJ1 d   1      73.358  59.555  18.328  0.00  0.00    -0.296 OA
BRANCH  26  27
ATOM     27  C20 NJ1 d   1      74.328  59.434  19.464  0.00  0.00     0.078 C 
ATOM     28  C21 NJ1 d   1      75.412  59.786  19.037  0.00  0.00     0.048 C 
ATOM     29  O22 NJ1 d   1      75.277  61.311  18.961  0.00  0.00    -0.358 OA
ATOM     30  H4  NJ1 d   1      75.603  59.356  18.043  0.00  0.00     0.078 H 
ATOM     31  H5  NJ1 d   1      76.221  59.495  19.724  0.00  0.00     0.078 H 
ATOM     32  C24 NJ1 d   1      74.381  61.633  20.114  0.00  0.00     0.137 C 
ATOM     33  C23 NJ1 d   1      73.894  60.559  20.553  0.00  0.00     0.023 C 
ATOM     34  O27 NJ1 d   1      73.145  62.562  19.577  0.00  0.00    -0.361 OA
ATOM     35  H6  NJ1 d   1      74.942  62.155  20.903  0.00  0.00     0.129 H 
ATOM     36  C25 NJ1 d   1      72.316  60.740  20.623  0.00  0.00    -0.035 C 
ATOM     37  H19 NJ1 d   1      74.291  60.311  21.548  0.00  0.00     0.051 H 
ATOM     38  C26 NJ1 d   1      72.053  61.863  19.644  0.00  0.00     0.023 C 
ATOM     39  H20 NJ1 d   1      71.799  59.819  20.315  0.00  0.00     0.037 H 
ATOM     40  H21 NJ1 d   1      71.996  61.018  21.638  0.00  0.00     0.037 H 
ATOM     41  H7  NJ1 d   1      71.223  62.490  20.000  0.00  0.00     0.074 H 
ATOM     42  H8  NJ1 d   1      71.804  61.453  18.654  0.00  0.00     0.074 H 
ATOM     43  H3  NJ1 d   1      74.352  58.420  19.890  0.00  0.00     0.088 H 
ENDBRANCH  26  27
ENDBRANCH  23  26
ENDBRANCH   6  22
ENDBRANCH   4   6
BRANCH   4  44
ATOM     44  O14 NJ1 d   1      70.599  58.664  14.328  0.00  0.00    -0.392 OA
ATOM     45  H42 NJ1 d   1      70.789  58.438  13.425  0.00  0.00     0.210 HD
ENDBRANCH   4  44
ENDBRANCH   1   4
BRANCH   1  46
ATOM     46  N10 NJ1 d   1      70.206  55.165  15.303  0.00  0.00    -0.304 N 
BRANCH  46  47
ATOM     47  C11 NJ1 d   1      71.080  54.222  14.505  0.00  0.00     0.009 C 
ATOM     48  H15 NJ1 d   1      70.456  53.392  14.141  0.00  0.00     0.066 H 
ATOM     49  H16 NJ1 d   1      71.495  54.772  13.648  0.00  0.00     0.066 H 
BRANCH  47  50
ATOM     50  C37 NJ1 d   1      72.276  53.620  15.339  0.00  0.00    -0.039 C 
ATOM     51  H32 NJ1 d   1      71.864  53.056  16.189  0.00  0.00     0.042 H 
BRANCH  50  52
ATOM     52  C38 NJ1 d   1      73.159  54.759  15.911  0.00  0.00    -0.064 C 
ATOM     53  H33 NJ1 d   1      73.486  55.407  15.084  0.00  0.00     0.033 H 
ATOM     54  H34 NJ1 d   1      72.564  55.348  16.625  0.00  0.00     0.033 H 
BRANCH  52  55
ATOM     55  C36 NJ1 d   1      74.396  54.206  16.630  0.00  0.00    -0.076 C 
ATOM     56  H29 NJ1 d   1      74.996  55.041  17.021  0.00  0.00     0.027 H 
ATOM     57  H30 NJ1 d   1      75.000  53.620  15.922  0.00  0.00     0.027 H 
ATOM     58  H31 NJ1 d   1      74.079  53.561  17.462  0.00  0.00     0.027 H 
ENDBRANCH  52  55
ENDBRANCH  50  52
BRANCH  50  59
ATOM     59  C39 NJ1 d   1      73.068  52.624  14.436  0.00  0.00    -0.064 C 
ATOM     60  H35 NJ1 d   1      72.415  51.778  14.176  0.00  0.00     0.033 H 
ATOM     61  H36 NJ1 d   1      73.943  52.255  14.991  0.00  0.00     0.033 H 
BRANCH  59  62
ATOM     62  C41 NJ1 d   1      73.547  53.307  13.138  0.00  0.00    -0.076 C 
ATOM     63  H38 NJ1 d   1      74.100  52.581  12.524  0.00  0.00     0.027 H 
ATOM     64  H39 NJ1 d   1      74.205  54.152  13.389  0.00  0.00     0.027 H 
ATOM     65  H40 NJ1 d   1      72.677  53.675  12.575  0.00  0.00     0.027 H 
ENDBRANCH  59  62
ENDBRANCH  50  59
ENDBRANCH  47  50
ENDBRANCH  46  47
BRANCH  46  66
ATOM     66  S07 NJ1 d   1      68.973  54.513  16.378  0.00  0.00     0.260 S 
ATOM     67  O08 NJ1 d   1      69.603  53.835  17.521  0.00  0.00    -0.200 OA
ATOM     68  O09 NJ1 d   1      68.080  55.583  16.846  0.00  0.00    -0.200 OA
BRANCH  66  69
ATOM     69  C04 NJ1 d   1      68.145  53.311  15.294  0.00  0.00     0.079 A 
ATOM     70  C03 NJ1 d   1      67.089  53.788  14.335  0.00  0.00    -0.060 A 
ATOM     71  C02 NJ1 d   1      66.480  52.739  13.417  0.00  0.00    -0.073 A 
ATOM     72  H12 NJ1 d   1      66.778  54.826  14.300  0.00  0.00     0.085 H 
ATOM     73  C01 NJ1 d   1      66.972  51.299  13.518  0.00  0.00    -0.028 A 
ATOM     74  H11 NJ1 d   1      65.710  53.010  12.704  0.00  0.00     0.084 H 
ATOM     75  C06 NJ1 d   1      68.063  50.852  14.470  0.00  0.00    -0.073 A 
ATOM     76  C05 NJ1 d   1      68.659  51.892  15.393  0.00  0.00    -0.060 A 
ATOM     77  H14 NJ1 d   1      68.404  49.823  14.489  0.00  0.00     0.084 H 
ATOM     78  H13 NJ1 d   1      69.432  51.628  16.105  0.00  0.00     0.085 H 
BRANCH  73  79
ATOM     79  C40 NJ1 d   1      66.378  50.289  12.559  0.00  0.00     0.081 C 
ATOM     80  H37 NJ1 d   1      65.806  49.502  13.072  0.00  0.00     0.093 H 
BRANCH  79  81
ATOM     81  C35 NJ1 d   1      67.577  49.748  11.773  0.00  0.00     0.044 C 
ATOM     82  H27 NJ1 d   1      67.217  49.232  10.871  0.00  0.00     0.078 H 
ATOM     83  H28 NJ1 d   1      68.135  49.039  12.403  0.00  0.00     0.078 H 
BRANCH  81  84
ATOM     84  O42 NJ1 d   1      68.436  50.813  11.392  0.00  0.00    -0.398 OA
ATOM     85  H43 NJ1 d   1      69.174  50.465  10.906  0.00  0.00     0.209 HD
ENDBRANCH  81  84
ENDBRANCH  79  81
BRANCH  79  86
ATOM     86  O43 NJ1 d   1      65.623  50.978  11.645  0.00  0.00    -0.389 OA
ATOM     87  H44 NJ1 d   1      66.142  51.682  11.274  0.00  0.00     0.210 HD
ENDBRANCH  79  86
ENDBRANCH  73  79
ENDBRANCH  66  69
ENDBRANCH  46  66
ENDBRANCH   1  46
TORSDOF 21
