REMARK  21 active torsions:
REMARK  status: ('A' for Active; 'I' for Inactive)
REMARK    1  A    between atoms: C12_14  and  C13_1 
REMARK    2  A    between atoms: C13_1  and  C40_30 
REMARK    3  A    between atoms: C15_2  and  C16_16 
REMARK    4  A    between atoms: N10_32  and  C15_2 
REMARK       I    between atoms: N19_33  and  C20_3 
REMARK    5  A    between atoms: C20_3  and  O22_38 
REMARK    6  A    between atoms: C01_7  and  C41_31 
REMARK    7  A    between atoms: S07_43  and  C04_10 
REMARK    8  A    between atoms: C11_13  and  C12_14 
REMARK    9  A    between atoms: N10_32  and  C11_13 
REMARK   10  A    between atoms: C12_14  and  C14_15 
REMARK   11  A    between atoms: C14_15  and  C39_29 
REMARK   12  A    between atoms: C16_16  and  C18_17 
REMARK   13  A    between atoms: C16_16  and  O17_36 
REMARK   14  A    between atoms: C18_17  and  C31_21 
REMARK   15  A    between atoms: C18_17  and  N19_33 
REMARK   16  A    between atoms: O22_38  and  C23_18 
REMARK   17  A    between atoms: C31_21  and  C32_22 
REMARK   18  A    between atoms: C41_31  and  C38_28 
REMARK   19  A    between atoms: C38_28  and  O43_42 
REMARK   20  A    between atoms: C41_31  and  O42_41 
REMARK   21  A    between atoms: N10_32  and  S07_43 
ROOT
ATOM      1  C15 NJJ d   1      70.197  56.632  14.351  0.00  0.00     0.031 C 
ATOM      2  H3  NJJ d   1      70.333  56.514  13.266  0.00  0.00     0.069 H 
ATOM      3  H4  NJJ d   1      69.146  56.878  14.565  0.00  0.00     0.069 H 
ENDROOT
BRANCH   1   4
ATOM      4  C16 NJJ d   1      71.114  57.773  14.869  0.00  0.00     0.071 C 
ATOM      5  H19 NJJ d   1      72.161  57.436  14.839  0.00  0.00     0.088 H 
BRANCH   4   6
ATOM      6  C18 NJJ d   1      70.745  58.119  16.307  0.00  0.00     0.044 C 
ATOM      7  H20 NJJ d   1      70.749  57.204  16.917  0.00  0.00     0.077 H 
BRANCH   6   8
ATOM      8  C31 NJJ d   1      69.382  58.794  16.400  0.00  0.00    -0.020 C 
ATOM      9  H25 NJJ d   1      68.596  58.099  16.071  0.00  0.00     0.043 H 
ATOM     10  H26 NJJ d   1      69.365  59.694  15.767  0.00  0.00     0.043 H 
BRANCH   8  11
ATOM     11  C32 NJJ d   1      69.152  59.190  17.899  0.00  0.00    -0.056 A 
ATOM     12  C33 NJJ d   1      69.351  60.628  18.354  0.00  0.00    -0.077 A 
ATOM     13  C34 NJJ d   1      69.129  61.000  19.825  0.00  0.00    -0.082 A 
ATOM     14  H27 NJJ d   1      69.649  61.388  17.640  0.00  0.00     0.084 H 
ATOM     15  C35 NJJ d   1      68.716  59.930  20.827  0.00  0.00    -0.083 A 
ATOM     16  H28 NJJ d   1      69.266  62.025  20.152  0.00  0.00     0.083 H 
ATOM     17  C36 NJJ d   1      68.524  58.498  20.373  0.00  0.00    -0.082 A 
ATOM     18  H29 NJJ d   1      68.559  60.194  21.867  0.00  0.00     0.083 H 
ATOM     19  C37 NJJ d   1      68.745  58.124  18.898  0.00  0.00    -0.077 A 
ATOM     20  H30 NJJ d   1      68.231  57.737  21.087  0.00  0.00     0.083 H 
ATOM     21  H31 NJJ d   1      68.610  57.099  18.572  0.00  0.00     0.084 H 
ENDBRANCH   8  11
ENDBRANCH   6   8
BRANCH   6  22
ATOM     22  N19 NJJ d   1      71.735  59.083  16.816  0.00  0.00    -0.329 N 
ATOM     23  C20 NJJ d   1      72.769  58.695  17.779  0.00  0.00     0.361 C 
ATOM     24  O21 NJJ d   1      72.748  57.646  18.340  0.00  0.00    -0.238 OA
ATOM     25  H41 NJJ d   1      71.701  60.029  16.495  0.00  0.00     0.165 HD
BRANCH  23  26
ATOM     26  O22 NJJ d   1      73.813  59.659  18.008  0.00  0.00    -0.296 OA
BRANCH  26  27
ATOM     27  C23 NJJ d   1      74.689  59.479  19.238  0.00  0.00     0.078 C 
ATOM     28  C24 NJJ d   1      75.833  59.898  18.941  0.00  0.00     0.048 C 
ATOM     29  O25 NJJ d   1      75.648  61.534  18.974  0.00  0.00    -0.358 OA
ATOM     30  H5  NJJ d   1      76.132  59.554  17.940  0.00  0.00     0.078 H 
ATOM     31  H6  NJJ d   1      76.579  59.569  19.680  0.00  0.00     0.078 H 
ATOM     32  C27 NJJ d   1      74.861  61.792  19.976  0.00  0.00     0.137 C 
ATOM     33  C26 NJJ d   1      74.254  60.458  20.392  0.00  0.00     0.023 C 
ATOM     34  O30 NJJ d   1      73.643  62.703  19.562  0.00  0.00    -0.361 OA
ATOM     35  H22 NJJ d   1      75.427  62.256  20.797  0.00  0.00     0.129 H 
ATOM     36  C28 NJJ d   1      72.924  60.653  20.447  0.00  0.00    -0.035 C 
ATOM     37  H7  NJJ d   1      74.632  60.111  21.365  0.00  0.00     0.051 H 
ATOM     38  C29 NJJ d   1      72.606  61.909  19.481  0.00  0.00     0.023 C 
ATOM     39  H8  NJJ d   1      72.615  60.879  21.478  0.00  0.00     0.037 H 
ATOM     40  H9  NJJ d   1      72.393  59.757  20.093  0.00  0.00     0.037 H 
ATOM     41  H23 NJJ d   1      71.699  62.431  19.820  0.00  0.00     0.074 H 
ATOM     42  H24 NJJ d   1      72.467  61.568  18.445  0.00  0.00     0.074 H 
ATOM     43  H21 NJJ d   1      74.693  58.430  19.569  0.00  0.00     0.088 H 
ENDBRANCH  26  27
ENDBRANCH  23  26
ENDBRANCH   6  22
ENDBRANCH   4   6
BRANCH   4  44
ATOM     44  O17 NJJ d   1      70.974  58.887  14.054  0.00  0.00    -0.392 OA
ATOM     45  H42 NJJ d   1      71.207  58.657  13.162  0.00  0.00     0.210 HD
ENDBRANCH   4  44
ENDBRANCH   1   4
BRANCH   1  46
ATOM     46  N10 NJJ d   1      70.561  55.366  15.038  0.00  0.00    -0.304 N 
BRANCH  46  47
ATOM     47  C11 NJJ d   1      71.343  54.353  14.218  0.00  0.00     0.009 C 
ATOM     48  H14 NJJ d   1      71.066  53.339  14.541  0.00  0.00     0.066 H 
ATOM     49  H15 NJJ d   1      71.092  54.481  13.155  0.00  0.00     0.066 H 
BRANCH  47  50
ATOM     50  C12 NJJ d   1      72.921  54.552  14.412  0.00  0.00    -0.039 C 
ATOM     51  H16 NJJ d   1      73.208  55.563  14.088  0.00  0.00     0.042 H 
BRANCH  50  52
ATOM     52  C13 NJJ d   1      73.257  54.400  15.910  0.00  0.00    -0.064 C 
ATOM     53  H1  NJJ d   1      72.794  53.477  16.290  0.00  0.00     0.033 H 
ATOM     54  H2  NJJ d   1      72.855  55.265  16.458  0.00  0.00     0.033 H 
BRANCH  52  55
ATOM     55  C40 NJJ d   1      74.754  54.329  16.129  0.00  0.00    -0.076 C 
ATOM     56  H37 NJJ d   1      74.963  54.221  17.204  0.00  0.00     0.027 H 
ATOM     57  H38 NJJ d   1      75.223  55.251  15.755  0.00  0.00     0.027 H 
ATOM     58  H39 NJJ d   1      75.163  53.464  15.587  0.00  0.00     0.027 H 
ENDBRANCH  52  55
ENDBRANCH  50  52
BRANCH  50  59
ATOM     59  C14 NJJ d   1      73.661  53.506  13.509  0.00  0.00    -0.064 C 
ATOM     60  H17 NJJ d   1      74.746  53.662  13.599  0.00  0.00     0.033 H 
ATOM     61  H18 NJJ d   1      73.354  53.658  12.464  0.00  0.00     0.033 H 
BRANCH  59  62
ATOM     62  C39 NJJ d   1      73.321  52.020  13.932  0.00  0.00    -0.076 C 
ATOM     63  H34 NJJ d   1      73.859  51.320  13.276  0.00  0.00     0.027 H 
ATOM     64  H35 NJJ d   1      72.238  51.851  13.839  0.00  0.00     0.027 H 
ATOM     65  H36 NJJ d   1      73.630  51.856  14.975  0.00  0.00     0.027 H 
ENDBRANCH  59  62
ENDBRANCH  50  59
ENDBRANCH  47  50
ENDBRANCH  46  47
BRANCH  46  66
ATOM     66  S07 NJJ d   1      69.335  54.688  16.072  0.00  0.00     0.260 S 
ATOM     67  O08 NJJ d   1      68.414  55.708  16.591  0.00  0.00    -0.200 OA
ATOM     68  O09 NJJ d   1      69.892  54.080  17.273  0.00  0.00    -0.200 OA
BRANCH  66  69
ATOM     69  C04 NJJ d   1      68.483  53.452  14.967  0.00  0.00     0.079 A 
ATOM     70  C03 NJJ d   1      68.861  51.986  15.062  0.00  0.00    -0.060 A 
ATOM     71  C02 NJJ d   1      68.184  50.974  14.139  0.00  0.00    -0.073 A 
ATOM     72  H11 NJJ d   1      69.605  51.659  15.779  0.00  0.00     0.085 H 
ATOM     73  C01 NJJ d   1      67.151  51.450  13.133  0.00  0.00    -0.028 A 
ATOM     74  H10 NJJ d   1      68.440  49.922  14.202  0.00  0.00     0.084 H 
ATOM     75  C06 NJJ d   1      66.785  52.925  13.025  0.00  0.00    -0.073 A 
ATOM     76  C05 NJJ d   1      67.459  53.939  13.945  0.00  0.00    -0.060 A 
ATOM     77  H13 NJJ d   1      66.050  53.252  12.299  0.00  0.00     0.084 H 
ATOM     78  H12 NJJ d   1      67.213  54.992  13.874  0.00  0.00     0.085 H 
BRANCH  73  79
ATOM     79  C41 NJJ d   1      66.484  50.451  12.210  0.00  0.00     0.081 C 
ATOM     80  H40 NJJ d   1      67.090  49.534  12.155  0.00  0.00     0.093 H 
BRANCH  79  81
ATOM     81  C38 NJJ d   1      65.081  50.103  12.727  0.00  0.00     0.044 C 
ATOM     82  H32 NJJ d   1      64.362  50.861  12.382  0.00  0.00     0.078 H 
ATOM     83  H33 NJJ d   1      65.088  50.078  13.827  0.00  0.00     0.078 H 
BRANCH  81  84
ATOM     84  O43 NJJ d   1      64.712  48.842  12.229  0.00  0.00    -0.398 OA
ATOM     85  H44 NJJ d   1      64.708  48.867  11.279  0.00  0.00     0.209 HD
ENDBRANCH  81  84
ENDBRANCH  79  81
BRANCH  79  86
ATOM     86  O42 NJJ d   1      66.392  51.028  10.954  0.00  0.00    -0.389 OA
ATOM     87  H43 NJJ d   1      65.979  50.417  10.355  0.00  0.00     0.210 HD
ENDBRANCH  79  86
ENDBRANCH  73  79
ENDBRANCH  66  69
ENDBRANCH  46  66
ENDBRANCH   1  46
TORSDOF 21
