REMARK  2 active torsions:
REMARK  status: ('A' for Active; 'I' for Inactive)
REMARK    1  A    between atoms: C18_14  and  C19_15 
REMARK    2  A    between atoms: C18_14  and  N17_23 
ROOT
ATOM      1  C10 NQ1 d   1     -40.565 -10.739  45.184  0.00  0.00     0.059 A 
ATOM      2  C11 NQ1 d   1     -40.996 -12.040  45.558  0.00  0.00    -0.065 A 
ATOM      3  C12 NQ1 d   1     -40.125 -13.118  45.385  0.00  0.00    -0.082 A 
ATOM      4  C13 NQ1 d   1     -38.849 -12.919  44.838  0.00  0.00    -0.081 A 
ATOM      5  C14 NQ1 d   1     -38.445 -11.644  44.451  0.00  0.00    -0.056 A 
ATOM      6  C15 NQ1 d   1     -41.556  -9.562  45.343  0.00  0.00     0.261 C 
ATOM      7  C01 NQ1 d   1     -39.633  -6.680  46.916  0.00  0.00    -0.018 A 
ATOM      8  C02 NQ1 d   1     -38.362  -6.174  47.174  0.00  0.00     0.118 A 
ATOM      9  C04 NQ1 d   1     -37.250  -6.660  46.467  0.00  0.00    -0.043 A 
ATOM     10  C05 NQ1 d   1     -37.399  -7.654  45.501  0.00  0.00    -0.052 A 
ATOM     11  C06 NQ1 d   1     -38.704  -8.153  45.239  0.00  0.00     0.060 A 
ATOM     12  C07 NQ1 d   1     -39.787  -7.697  45.935  0.00  0.00     0.067 A 
ATOM     13  C09 NQ1 d   1     -39.334 -10.556  44.622  0.00  0.00     0.048 A 
ATOM     14  F03 NQ1 d   1     -38.203  -5.202  48.118  0.00  0.00    -0.206 F 
ATOM     15  N08 NQ1 d   1     -38.841  -9.222  44.228  0.00  0.00    -0.354 N 
ATOM     16  N17 NQ1 d   1     -41.138  -8.214  45.678  0.00  0.00    -0.307 N 
ATOM     17  O16 NQ1 d   1     -42.697  -9.780  45.138  0.00  0.00    -0.267 OA
ATOM     18  H1  NQ1 d   1     -41.986 -12.194  45.971  0.00  0.00     0.085 H 
ATOM     19  H2  NQ1 d   1     -40.437 -14.115  45.675  0.00  0.00     0.083 H 
ATOM     20  H3  NQ1 d   1     -38.176 -13.760  44.716  0.00  0.00     0.083 H 
ATOM     21  H4  NQ1 d   1     -37.461 -11.486  44.024  0.00  0.00     0.086 H 
ATOM     22  H5  NQ1 d   1     -40.494  -6.303  47.456  0.00  0.00     0.091 H 
ATOM     23  H6  NQ1 d   1     -36.265  -6.258  46.675  0.00  0.00     0.088 H 
ATOM     24  H7  NQ1 d   1     -36.540  -8.037  44.962  0.00  0.00     0.087 H 
ATOM     25  H15 NQ1 d   1     -38.592  -9.036  43.246  0.00  0.00     0.166 HD
ENDROOT
BRANCH  16  26
ATOM     26  C18 NQ1 d   1     -42.185  -7.202  45.718  0.00  0.00     0.027 C 
ATOM     27  H8  NQ1 d   1     -41.699  -6.235  45.523  0.00  0.00     0.072 H 
ATOM     28  H9  NQ1 d   1     -42.882  -7.434  44.899  0.00  0.00     0.072 H 
BRANCH  26  29
ATOM     29  C19 NQ1 d   1     -43.028  -7.024  46.974  0.00  0.00    -0.040 A 
ATOM     30  C20 NQ1 d   1     -42.810  -7.747  48.134  0.00  0.00    -0.075 A 
ATOM     31  C21 NQ1 d   1     -43.624  -7.519  49.235  0.00  0.00    -0.082 A 
ATOM     32  H10 NQ1 d   1     -42.014  -8.482  48.182  0.00  0.00     0.084 H 
ATOM     33  C22 NQ1 d   1     -44.642  -6.579  49.176  0.00  0.00    -0.083 A 
ATOM     34  H11 NQ1 d   1     -43.463  -8.080  50.148  0.00  0.00     0.083 H 
ATOM     35  C23 NQ1 d   1     -44.852  -5.854  48.015  0.00  0.00    -0.082 A 
ATOM     36  H12 NQ1 d   1     -45.275  -6.412  50.040  0.00  0.00     0.083 H 
ATOM     37  C24 NQ1 d   1     -44.043  -6.082  46.915  0.00  0.00    -0.075 A 
ATOM     38  H13 NQ1 d   1     -45.643  -5.114  47.968  0.00  0.00     0.083 H 
ATOM     39  H14 NQ1 d   1     -44.204  -5.520  46.002  0.00  0.00     0.084 H 
ENDBRANCH  26  29
ENDBRANCH  16  26
TORSDOF 2
