REMARK  5 active torsions:
REMARK  status: ('A' for Active; 'I' for Inactive)
REMARK    1  A    between atoms: C10_1  and  C09_14 
REMARK       I    between atoms: N11_21  and  C10_1 
REMARK    2  A    between atoms: C02_8  and  O01_24 
REMARK    3  A    between atoms: C09_14  and  C08_13 
REMARK    4  A    between atoms: C09_14  and  N18_23 
REMARK    5  A    between atoms: C12_15  and  N11_21 
ROOT
ATOM      1  C09 MOL d   1       3.393  31.489  30.145  0.00  0.00     0.121 C 
ATOM      2  H13 MOL d   1       3.119  31.257  31.185  0.00  0.00     0.096 H 
ENDROOT
BRANCH   1   3
ATOM      3  C10 MOL d   1       2.336  30.970  29.181  0.00  0.00     0.251 C 
ATOM      4  N11 MOL d   1       1.669  29.714  29.463  0.00  0.00    -0.304 N 
ATOM      5  H17 MOL d   1       1.912  29.222  30.299  0.00  0.00     0.171 HD
ATOM      6  O17 MOL d   1       2.087  31.606  28.213  0.00  0.00    -0.270 OA
BRANCH   4   7
ATOM      7  C12 MOL d   1       0.665  29.138  28.587  0.00  0.00     0.172 A 
ATOM      8  N13 MOL d   1      -0.199  28.064  28.936  0.00  0.00    -0.236 NA
ATOM      9  C14 MOL d   1      -1.107  27.738  27.700  0.00  0.00     0.011 A 
ATOM     10  C15 MOL d   1      -0.752  28.640  26.636  0.00  0.00    -0.025 A 
ATOM     11  H14 MOL d   1      -1.872  26.965  27.654  0.00  0.00     0.115 H 
ATOM     12  S16 MOL d   1       0.360  29.537  27.130  0.00  0.00    -0.062 SA
ATOM     13  H1  MOL d   1      -1.206  28.671  25.647  0.00  0.00     0.097 H 
ENDBRANCH   4   7
ENDBRANCH   1   3
BRANCH   1  14
ATOM     14  C08 MOL d   1       4.701  30.787  29.792  0.00  0.00     0.010 A 
ATOM     15  C02 MOL d   1       5.965  30.993  30.613  0.00  0.00     0.074 A 
ATOM     16  C03 MOL d   1       7.239  30.251  30.234  0.00  0.00    -0.048 A 
ATOM     17  C04 MOL d   1       7.264  29.309  29.036  0.00  0.00    -0.043 A 
ATOM     18  H10 MOL d   1       8.138  30.394  30.822  0.00  0.00     0.087 H 
ATOM     19  C05 MOL d   1       5.999  29.102  28.219  0.00  0.00     0.117 A 
ATOM     20  H11 MOL d   1       8.178  28.790  28.768  0.00  0.00     0.088 H 
ATOM     21  C07 MOL d   1       4.721  29.836  28.599  0.00  0.00    -0.034 A 
ATOM     22  F06 MOL d   1       6.012  28.264  27.149  0.00  0.00    -0.206 F 
ATOM     23  H12 MOL d   1       3.819  29.682  28.018  0.00  0.00     0.089 H 
BRANCH  15  24
ATOM     24  O01 MOL d   1       5.963  31.853  31.714  0.00  0.00    -0.360 OA
ATOM     25  H18 MOL d   1       6.827  31.863  32.108  0.00  0.00     0.217 HD
ENDBRANCH  15  24
ENDBRANCH   1  14
BRANCH   1  26
ATOM     26  N18 MOL d   1       3.459  32.923  29.971  0.00  0.00    -0.327 N 
ATOM     27  C26 MOL d   1       4.385  33.694  29.106  0.00  0.00     0.020 A 
ATOM     28  C25 MOL d   1       4.037  35.170  29.268  0.00  0.00    -0.050 A 
ATOM     29  H8  MOL d   1       5.425  33.517  29.417  0.00  0.00     0.071 H 
ATOM     30  H9  MOL d   1       4.259  33.391  28.056  0.00  0.00     0.071 H 
ATOM     31  C20 MOL d   1       2.922  35.276  30.202  0.00  0.00     0.014 A 
ATOM     32  C24 MOL d   1       4.645  36.446  28.634  0.00  0.00    -0.042 A 
ATOM     33  C21 MOL d   1       2.327  36.652  30.582  0.00  0.00    -0.035 A 
ATOM     34  C19 MOL d   1       2.549  33.872  30.648  0.00  0.00     0.251 A 
ATOM     35  C22 MOL d   1       2.913  37.912  29.970  0.00  0.00    -0.061 A 
ATOM     36  H2  MOL d   1       2.422  36.752  31.673  0.00  0.00     0.040 H 
ATOM     37  H3  MOL d   1       1.262  36.628  30.307  0.00  0.00     0.040 H 
ATOM     38  C23 MOL d   1       4.072  37.808  28.996  0.00  0.00    -0.061 A 
ATOM     39  H4  MOL d   1       3.254  38.543  30.804  0.00  0.00     0.033 H 
ATOM     40  H5  MOL d   1       2.094  38.418  29.438  0.00  0.00     0.033 H 
ATOM     41  H15 MOL d   1       4.898  38.396  29.422  0.00  0.00     0.033 H 
ATOM     42  H16 MOL d   1       3.739  38.272  28.056  0.00  0.00     0.033 H 
ATOM     43  O27 MOL d   1       1.687  33.581  31.405  0.00  0.00    -0.268 OA
ATOM     44  H6  MOL d   1       5.710  36.464  28.909  0.00  0.00     0.039 H 
ATOM     45  H7  MOL d   1       4.549  36.338  27.544  0.00  0.00     0.039 H 
ENDBRANCH   1  26
TORSDOF 5
