REMARK  12 active torsions:
REMARK  status: ('A' for Active; 'I' for Inactive)
REMARK    1  A    between atoms: O1_35  and  C1_1 
REMARK    2  A    between atoms: C3_3  and  C2_2 
REMARK    3  A    between atoms: C2_2  and  O1_35 
REMARK    4  A    between atoms: N1_33  and  C3_3 
REMARK    5  A    between atoms: C3_3  and  C4_36 
REMARK    6  A    between atoms: C4_36  and  C5_4 
REMARK    7  A    between atoms: C12_31  and  C11_10 
REMARK       I    between atoms: C11_10  and  N1_33 
REMARK    8  A    between atoms: C14_11  and  C15_28 
REMARK    9  A    between atoms: C16_12  and  S2_25 
REMARK   10  A    between atoms: N2_24  and  C17_13 
REMARK   11  A    between atoms: C19_15  and  C23_19 
REMARK   12  A    between atoms: S2_25  and  N2_24 
ROOT
ATOM      1  C14 NQJ d   1     -16.165  17.933 -19.923  0.00  0.00    -0.030 A 
ATOM      2  C16 NQJ d   1     -15.344  17.004 -20.532  0.00  0.00     0.127 A 
ATOM      3  C13 NQJ d   1     -15.519  19.151 -19.694  0.00  0.00    -0.053 A 
ATOM      4  S1  NQJ d   1     -13.819  17.674 -20.783  0.00  0.00    -0.071 SA
ATOM      5  C12 NQJ d   1     -14.196  19.166 -20.137  0.00  0.00     0.074 A 
ATOM      6  H17 NQJ d   1     -16.000  20.004 -19.217  0.00  0.00     0.086 H 
ENDROOT
BRANCH   5   7
ATOM      7  C11 NQJ d   1     -13.123  20.217 -20.101  0.00  0.00     0.259 C 
ATOM      8  O3  NQJ d   1     -12.002  19.971 -20.523  0.00  0.00    -0.267 OA
ATOM      9  N1  NQJ d   1     -13.417  21.404 -19.573  0.00  0.00    -0.342 N 
ATOM     10  H18 NQJ d   1     -14.359  21.567 -19.278  0.00  0.00     0.163 HD
BRANCH   9  11
ATOM     11  C3  NQJ d   1     -12.454  22.474 -19.400  0.00  0.00     0.100 C 
ATOM     12  H4  NQJ d   1     -11.588  22.076 -18.851  0.00  0.00     0.088 H 
BRANCH  11  13
ATOM     13  C2  NQJ d   1     -11.983  22.980 -20.722  0.00  0.00     0.281 C 
ATOM     14  O2  NQJ d   1     -12.749  23.188 -21.650  0.00  0.00    -0.263 OA
BRANCH  13  15
ATOM     15  O1  NQJ d   1     -10.571  23.192 -20.869  0.00  0.00    -0.325 OA
BRANCH  15  16
ATOM     16  C1  NQJ d   1      -9.967  23.304 -22.149  0.00  0.00     0.013 C 
ATOM     17  H1  NQJ d   1      -8.885  23.462 -22.031  0.00  0.00     0.067 H 
ATOM     18  H2  NQJ d   1     -10.406  24.157 -22.688  0.00  0.00     0.067 H 
ATOM     19  H3  NQJ d   1     -10.142  22.380 -22.719  0.00  0.00     0.067 H 
ENDBRANCH  15  16
ENDBRANCH  13  15
ENDBRANCH  11  13
BRANCH  11  20
ATOM     20  C4  NQJ d   1     -13.028  23.554 -18.630  0.00  0.00    -0.013 C 
ATOM     21  H19 NQJ d   1     -13.451  23.133 -17.706  0.00  0.00     0.043 H 
ATOM     22  H20 NQJ d   1     -13.831  24.014 -19.225  0.00  0.00     0.043 H 
BRANCH  20  23
ATOM     23  C5  NQJ d   1     -12.052  24.622 -18.254  0.00  0.00    -0.056 A 
ATOM     24  C6  NQJ d   1     -11.046  24.360 -17.322  0.00  0.00    -0.077 A 
ATOM     25  C7  NQJ d   1     -10.150  25.363 -16.960  0.00  0.00    -0.082 A 
ATOM     26  H5  NQJ d   1     -10.962  23.374 -16.879  0.00  0.00     0.084 H 
ATOM     27  C8  NQJ d   1     -10.244  26.636 -17.522  0.00  0.00    -0.083 A 
ATOM     28  H6  NQJ d   1      -9.372  25.152 -16.235  0.00  0.00     0.083 H 
ATOM     29  C9  NQJ d   1     -11.249  26.903 -18.448  0.00  0.00    -0.082 A 
ATOM     30  H7  NQJ d   1      -9.540  27.411 -17.240  0.00  0.00     0.083 H 
ATOM     31  C10 NQJ d   1     -12.141  25.896 -18.819  0.00  0.00    -0.077 A 
ATOM     32  H8  NQJ d   1     -11.338  27.893 -18.881  0.00  0.00     0.083 H 
ATOM     33  H9  NQJ d   1     -12.911  26.105 -19.553  0.00  0.00     0.084 H 
ENDBRANCH  20  23
ENDBRANCH  11  20
ENDBRANCH   9  11
ENDBRANCH   5   7
BRANCH   1  34
ATOM     34  C15 NQJ d   1     -17.609  17.882 -19.469  0.00  0.00    -0.049 C 
ATOM     35  H14 NQJ d   1     -17.888  18.849 -19.024  0.00  0.00     0.033 H 
ATOM     36  H15 NQJ d   1     -17.730  17.085 -18.721  0.00  0.00     0.033 H 
ATOM     37  H16 NQJ d   1     -18.258  17.675 -20.333  0.00  0.00     0.033 H 
ENDBRANCH   1  34
BRANCH   2  38
ATOM     38  S2  NQJ d   1     -15.881  15.481 -20.916  0.00  0.00     0.270 S 
ATOM     39  O4  NQJ d   1     -14.816  14.763 -21.534  0.00  0.00    -0.200 OA
ATOM     40  O5  NQJ d   1     -17.043  15.631 -21.758  0.00  0.00    -0.200 OA
BRANCH  38  41
ATOM     41  N2  NQJ d   1     -16.462  14.760 -19.453  0.00  0.00    -0.278 N 
ATOM     42  H13 NQJ d   1     -17.432  14.536 -19.359  0.00  0.00     0.179 HD
BRANCH  41  43
ATOM     43  C17 NQJ d   1     -15.539  14.477 -18.353  0.00  0.00     0.065 A 
ATOM     44  C18 NQJ d   1     -14.152  14.479 -18.542  0.00  0.00    -0.040 A 
ATOM     45  C19 NQJ d   1     -13.294  14.266 -17.462  0.00  0.00     0.050 A 
ATOM     46  H10 NQJ d   1     -13.742  14.647 -19.532  0.00  0.00     0.088 H 
ATOM     47  C20 NQJ d   1     -13.833  14.050 -16.194  0.00  0.00    -0.067 A 
ATOM     48  C21 NQJ d   1     -15.211  14.055 -16.012  0.00  0.00    -0.059 A 
ATOM     49  H11 NQJ d   1     -13.176  13.878 -15.349  0.00  0.00     0.084 H 
ATOM     50  C22 NQJ d   1     -16.056  14.276 -17.097  0.00  0.00     0.061 A 
ATOM     51  H12 NQJ d   1     -15.628  13.887 -15.026  0.00  0.00     0.086 H 
ATOM     52 CL   NQJ d   1     -17.731  14.280 -16.848  0.00  0.00    -0.082 Cl
BRANCH  45  53
ATOM     53  C23 NQJ d   1     -11.824  14.253 -17.659  0.00  0.00     0.417 C 
ATOM     54  F3  NQJ d   1     -11.286  15.379 -17.250  0.00  0.00    -0.166 F 
ATOM     55  F1  NQJ d   1     -11.505  14.077 -18.924  0.00  0.00    -0.166 F 
ATOM     56  F2  NQJ d   1     -11.298  13.261 -16.971  0.00  0.00    -0.166 F 
ENDBRANCH  45  53
ENDBRANCH  41  43
ENDBRANCH  38  41
ENDBRANCH   2  38
TORSDOF 12
