REMARK  4 active torsions:
REMARK  status: ('A' for Active; 'I' for Inactive)
REMARK    1  A    between atoms: C12_8  and  C13_7 
REMARK    2  A    between atoms: C02_12  and  C03_13 
REMARK    3  A    between atoms: C10_19  and  C02_12 
REMARK    4  A    between atoms: C10_19  and  N11_20 
ROOT
ATOM      1  C26 NRY d   1      18.184 -11.785  35.055  0.00  0.00    -0.004 A 
ATOM      2  C25 NRY d   1      17.134 -11.143  34.414  0.00  0.00    -0.000 A 
ATOM      3  C22 NRY d   1      15.622  -8.085  35.368  0.00  0.00    -0.065 A 
ATOM      4  C23 NRY d   1      15.690  -9.145  34.494  0.00  0.00    -0.015 A 
ATOM      5  C12 NRY d   1      18.257 -10.067  36.687  0.00  0.00     0.072 A 
ATOM      6  N11 NRY d   1      18.730 -11.222  36.156  0.00  0.00    -0.346 N 
ATOM      7  C20 NRY d   1      17.203  -9.437  36.025  0.00  0.00     0.066 A 
ATOM      8  C21 NRY d   1      16.552  -8.232  36.325  0.00  0.00    -0.053 A 
ATOM      9  N24 NRY d   1      16.684  -9.972  34.937  0.00  0.00    -0.329 N 
ATOM     10  H1  NRY d   1      18.564 -12.732  34.675  0.00  0.00     0.113 H 
ATOM     11  H2  NRY d   1      16.683 -11.566  33.517  0.00  0.00     0.114 H 
ATOM     12  H3  NRY d   1      14.922  -7.254  35.295  0.00  0.00     0.085 H 
ATOM     13  H4  NRY d   1      15.068  -9.297  33.613  0.00  0.00     0.112 H 
ATOM     14  H15 NRY d   1      16.757  -7.559  37.156  0.00  0.00     0.087 H 
ENDROOT
BRANCH   6  15
ATOM     15  C10 NRY d   1      19.777 -11.937  36.809  0.00  0.00     0.059 C 
ATOM     16  H11 NRY d   1      19.855 -11.565  37.841  0.00  0.00     0.077 H 
ATOM     17  H12 NRY d   1      19.508 -13.004  36.823  0.00  0.00     0.077 H 
BRANCH  15  18
ATOM     18  C02 NRY d   1      21.105 -11.802  36.166  0.00  0.00     0.177 C 
ATOM     19  O01 NRY d   1      21.860 -11.079  36.712  0.00  0.00    -0.291 OA
BRANCH  18  20
ATOM     20  C03 NRY d   1      21.411 -12.680  34.955  0.00  0.00     0.012 A 
ATOM     21  C04 NRY d   1      20.406 -12.983  34.032  0.00  0.00    -0.067 A 
ATOM     22  C05 NRY d   1      20.689 -13.796  32.942  0.00  0.00    -0.045 A 
ATOM     23  H8  NRY d   1      19.407 -12.584  34.167  0.00  0.00     0.085 H 
ATOM     24  C06 NRY d   1      21.981 -14.304  32.812  0.00  0.00     0.116 A 
ATOM     25  H7  NRY d   1      19.924 -14.030  32.210  0.00  0.00     0.088 H 
ATOM     26  F07 NRY d   1      22.295 -15.103  31.766  0.00  0.00    -0.206 F 
ATOM     27  C08 NRY d   1      22.977 -14.016  33.732  0.00  0.00    -0.045 A 
ATOM     28  C09 NRY d   1      22.696 -13.202  34.813  0.00  0.00    -0.067 A 
ATOM     29  H9  NRY d   1      23.972 -14.427  33.604  0.00  0.00     0.088 H 
ATOM     30  H10 NRY d   1      23.465 -12.972  35.541  0.00  0.00     0.085 H 
ENDBRANCH  18  20
ENDBRANCH  15  18
ENDBRANCH   6  15
BRANCH   5  31
ATOM     31  C13 NRY d   1      18.777  -9.294  37.923  0.00  0.00    -0.007 A 
ATOM     32  C14 NRY d   1      20.058  -9.494  38.438  0.00  0.00    -0.068 A 
ATOM     33  C15 NRY d   1      20.487  -8.767  39.534  0.00  0.00    -0.045 A 
ATOM     34  H6  NRY d   1      20.718 -10.220  37.978  0.00  0.00     0.085 H 
ATOM     35  C16 NRY d   1      19.646  -7.818  40.090  0.00  0.00     0.116 A 
ATOM     36  H5  NRY d   1      21.472  -8.939  39.953  0.00  0.00     0.088 H 
ATOM     37  F17 NRY d   1      20.065  -7.102  41.156  0.00  0.00    -0.206 F 
ATOM     38  C18 NRY d   1      18.386  -7.576  39.579  0.00  0.00    -0.045 A 
ATOM     39  C19 NRY d   1      17.957  -8.315  38.493  0.00  0.00    -0.068 A 
ATOM     40  H13 NRY d   1      17.746  -6.821  40.021  0.00  0.00     0.088 H 
ATOM     41  H14 NRY d   1      16.972  -8.133  38.078  0.00  0.00     0.085 H 
ENDBRANCH   5  31
TORSDOF 4
