REMARK WARNING: 32 MAX_TORS EXCEEDED!!!
REMARK  39 active torsions:
REMARK  status: ('A' for Active; 'I' for Inactive)
REMARK    1  A    between atoms: N_1  and  CA_2 
REMARK    2  A    between atoms: CA_2  and  C_3 
REMARK    3  A    between atoms: CA_2  and  CB_5 
REMARK       I    between atoms: C_3  and  N_6 
REMARK    4  A    between atoms: N_6  and  CA_7 
REMARK    5  A    between atoms: CA_7  and  C_8 
REMARK    6  A    between atoms: CA_7  and  CB_10 
REMARK       I    between atoms: C_8  and  N_17 
REMARK    7  A    between atoms: CB_10  and  CG_11 
REMARK    8  A    between atoms: CG_11  and  CD_12 
REMARK    9  A    between atoms: CD_12  and  NE_13 
REMARK       I    between atoms: NE_13  and  CZ_14 
REMARK       I    between atoms: CZ_14  and  NH1_15 
REMARK       I    between atoms: CZ_14  and  NH2_16 
REMARK   10  A    between atoms: N_17  and  CA_18 
REMARK   11  A    between atoms: CA_18  and  C_19 
REMARK   12  A    between atoms: CA_18  and  CB_21 
REMARK       I    between atoms: C_19  and  N_26 
REMARK   13  A    between atoms: CB_21  and  CG_22 
REMARK   14  A    between atoms: CG_22  and  CD_23 
REMARK   15  A    between atoms: CD_23  and  CE_24 
REMARK   16  A    between atoms: CE_24  and  NZ_25 
REMARK   17  A    between atoms: N_26  and  CA_27 
REMARK   18  A    between atoms: CA_27  and  C_28 
REMARK   19  A    between atoms: CA_27  and  CB_30 
REMARK       I    between atoms: C_28  and  N_37 
REMARK   20  A    between atoms: CB_30  and  CG_31 
REMARK   21  A    between atoms: CG_31  and  CD_32 
REMARK   22  A    between atoms: CD_32  and  NE_33 
REMARK       I    between atoms: NE_33  and  CZ_34 
REMARK       I    between atoms: CZ_34  and  NH1_35 
REMARK   23  A    between atoms: N_37  and  CA_38 
REMARK   24  A    between atoms: CA_38  and  C_39 
REMARK   25  A    between atoms: CA_38  and  CB_41 
REMARK       I    between atoms: C_39  and  N_45 
REMARK   26  A    between atoms: CB_41  and  CG_42 
REMARK   27  A    between atoms: CG_42  and  CD1_43 
REMARK   28  A    between atoms: CG_42  and  CD2_44 
REMARK   29  A    between atoms: N_45  and  CA_46 
REMARK   30  A    between atoms: CA_46  and  C_47 
REMARK   31  A    between atoms: CA_46  and  CB_49 
REMARK       I    between atoms: C_47  and  N_54 
REMARK   32  A    between atoms: CB_49  and  CG_50 
REMARK   33  A    between atoms: CG_50  and  CD_51 
REMARK   34  A    between atoms: N_54  and  CA_55 
REMARK   35  A    between atoms: CA_55  and  C_56 
REMARK   36  A    between atoms: CA_55  and  CB_58 
REMARK   37  A    between atoms: CB_58  and  CG_59 
REMARK   38  A    between atoms: CG_59  and  CD1_60 
REMARK   39  A    between atoms: CG_59  and  CD2_61 
ROOT
ATOM      1  CA  ALA d   1      -6.812  49.002  23.950  0.00  0.00     0.089 C 
ATOM      2  H35 ALA d   1      -6.628  50.060  24.187  0.00  0.00     0.087 H 
ENDROOT
BRANCH   1   3
ATOM      3  N   ALA d   1      -6.408  48.753  22.576  0.00  0.00    -0.346 N 
ATOM      4  C   ALA d   1      -5.694  49.633  21.886  0.00  0.00     0.241 C 
ATOM      5  O   ALA d   1      -5.430  50.761  22.301  0.00  0.00    -0.271 OA
ATOM      6  H34 ALA d   1      -6.676  47.895  22.139  0.00  0.00     0.163 HD
BRANCH   4   7
ATOM      7  CA  ALA d   1      -5.214  49.168  20.522  0.00  0.00     0.089 C 
ATOM      8  H22 ALA d   1      -6.055  48.690  19.998  0.00  0.00     0.087 H 
BRANCH   7   9
ATOM      9  N   ALA d   1      -4.761  50.300  19.727  0.00  0.00    -0.346 N 
ATOM     10  C   ALA d   1      -4.600  50.217  18.411  0.00  0.00     0.241 C 
ATOM     11  O   ALA d   1      -4.822  49.189  17.768  0.00  0.00    -0.271 OA
ATOM     12  H21 ALA d   1      -4.565  51.167  20.186  0.00  0.00     0.163 HD
BRANCH  10  13
ATOM     13  CA  ALA d   1      -4.104  51.486  17.728  0.00  0.00     0.089 C 
ATOM     14  H9  ALA d   1      -4.145  52.309  18.456  0.00  0.00     0.087 H 
BRANCH  13  15
ATOM     15  N   ALA d   1      -2.722  51.329  17.293  0.00  0.00    -0.346 N 
ATOM     16  C   ALA d   1      -1.729  51.231  18.171  0.00  0.00     0.248 C 
ATOM     17  O   ALA d   1      -1.899  51.297  19.389  0.00  0.00    -0.271 OA
ATOM     18  H8  ALA d   1      -2.517  51.294  16.315  0.00  0.00     0.163 HD
BRANCH  16  19
ATOM     19  CA  ALA d   1      -0.335  51.033  17.588  0.00  0.00     0.172 C 
ATOM     20  H4  ALA d   1       0.395  51.473  18.283  0.00  0.00     0.098 H 
BRANCH  19  21
ATOM     21  N   ALA d   1      -0.028  49.615  17.438  0.00  0.00    -0.067 N 
ATOM     22  H1  ALA d   1       0.897  49.511  17.052  0.00  0.00     0.275 HD
ATOM     23  H2  ALA d   1      -0.701  49.189  16.820  0.00  0.00     0.275 HD
ATOM     24  H3  ALA d   1      -0.068  49.165  18.339  0.00  0.00     0.275 HD
ENDBRANCH  19  21
BRANCH  19  25
ATOM     25  CB  ALA d   1      -0.214  51.744  16.253  0.00  0.00    -0.042 C 
ATOM     26  H5  ALA d   1      -0.448  52.811  16.383  0.00  0.00     0.030 H 
ATOM     27  H6  ALA d   1      -0.919  51.299  15.535  0.00  0.00     0.030 H 
ATOM     28  H7  ALA d   1       0.813  51.638  15.873  0.00  0.00     0.030 H 
ENDBRANCH  19  25
ENDBRANCH  16  19
ENDBRANCH  13  15
BRANCH  13  29
ATOM     29  CB  ALA d   1      -5.006  51.845  16.547  0.00  0.00    -0.036 C 
ATOM     30  H10 ALA d   1      -4.792  51.145  15.725  0.00  0.00     0.036 H 
ATOM     31  H11 ALA d   1      -4.764  52.870  16.228  0.00  0.00     0.036 H 
BRANCH  29  32
ATOM     32  CG  ALA d   1      -6.494  51.780  16.852  0.00  0.00    -0.048 C 
ATOM     33  H12 ALA d   1      -6.705  52.371  17.755  0.00  0.00     0.035 H 
ATOM     34  H13 ALA d   1      -6.784  50.733  17.023  0.00  0.00     0.035 H 
BRANCH  32  35
ATOM     35  CD  ALA d   1      -7.296  52.337  15.692  0.00  0.00     0.009 C 
ATOM     36  H14 ALA d   1      -6.756  52.124  14.758  0.00  0.00     0.064 H 
ATOM     37  H15 ALA d   1      -7.390  53.425  15.821  0.00  0.00     0.064 H 
BRANCH  35  38
ATOM     38  NE  ALA d   1      -8.635  51.763  15.596  0.00  0.00    -0.227 N 
ATOM     39  CZ  ALA d   1      -9.737  52.346  16.056  0.00  0.00     0.665 C 
ATOM     40  NH1 ALA d   1      -9.667  53.526  16.655  0.00  0.00    -0.235 N 
ATOM     41  NH2 ALA d   1     -10.912  51.747  15.916  0.00  0.00    -0.235 N 
ATOM     42  H17 ALA d   1     -10.523  53.975  17.010  0.00  0.00     0.174 HD
ATOM     43  H18 ALA d   1      -8.756  53.994  16.765  0.00  0.00     0.174 HD
ATOM     44  H19 ALA d   1     -10.970  50.830  15.451  0.00  0.00     0.174 HD
ATOM     45  H20 ALA d   1     -11.766  52.199  16.272  0.00  0.00     0.174 HD
ATOM     46  H16 ALA d   1      -8.732  50.844  15.141  0.00  0.00     0.177 HD
ENDBRANCH  35  38
ENDBRANCH  32  35
ENDBRANCH  29  32
ENDBRANCH  13  29
ENDBRANCH  10  13
ENDBRANCH   7   9
BRANCH   7  47
ATOM     47  CB  ALA d   1      -4.094  48.138  20.688  0.00  0.00    -0.038 C 
ATOM     48  H23 ALA d   1      -3.659  47.937  19.698  0.00  0.00     0.036 H 
ATOM     49  H24 ALA d   1      -4.532  47.213  21.091  0.00  0.00     0.036 H 
BRANCH  47  50
ATOM     50  CG  ALA d   1      -2.977  48.585  21.620  0.00  0.00    -0.061 C 
ATOM     51  H25 ALA d   1      -3.359  48.606  22.651  0.00  0.00     0.033 H 
ATOM     52  H26 ALA d   1      -2.652  49.595  21.329  0.00  0.00     0.033 H 
BRANCH  50  53
ATOM     53  CD  ALA d   1      -1.784  47.644  21.555  0.00  0.00    -0.043 C 
ATOM     54  H27 ALA d   1      -0.900  48.160  21.958  0.00  0.00     0.035 H 
ATOM     55  H28 ALA d   1      -1.602  47.369  20.506  0.00  0.00     0.035 H 
BRANCH  53  56
ATOM     56  CE  ALA d   1      -2.028  46.378  22.362  0.00  0.00     0.080 C 
ATOM     57  H29 ALA d   1      -2.783  45.767  21.846  0.00  0.00     0.075 H 
ATOM     58  H30 ALA d   1      -2.401  46.657  23.358  0.00  0.00     0.075 H 
BRANCH  56  59
ATOM     59  NZ  ALA d   1      -0.783  45.575  22.521  0.00  0.00    -0.079 N 
ATOM     60  H31 ALA d   1      -0.984  44.747  23.059  0.00  0.00     0.274 HD
ATOM     61  H32 ALA d   1      -0.087  46.126  22.999  0.00  0.00     0.274 HD
ATOM     62  H33 ALA d   1      -0.436  45.309  21.613  0.00  0.00     0.274 HD
ENDBRANCH  56  59
ENDBRANCH  53  56
ENDBRANCH  50  53
ENDBRANCH  47  50
ENDBRANCH   7  47
ENDBRANCH   4   7
ENDBRANCH   1   3
BRANCH   1  63
ATOM     63  C   ALA d   1      -5.979  48.139  24.877  0.00  0.00     0.241 C 
ATOM     64  O   ALA d   1      -5.995  46.911  24.777  0.00  0.00    -0.271 OA
ATOM     65  N   ALA d   1      -5.242  48.790  25.769  0.00  0.00    -0.346 N 
ATOM     66  H47 ALA d   1      -5.296  49.788  25.814  0.00  0.00     0.163 HD
BRANCH  65  67
ATOM     67  CA  ALA d   1      -4.359  48.085  26.681  0.00  0.00     0.089 C 
ATOM     68  H48 ALA d   1      -3.638  47.510  26.082  0.00  0.00     0.087 H 
BRANCH  67  69
ATOM     69  C   ALA d   1      -5.139  47.111  27.545  0.00  0.00     0.241 C 
ATOM     70  O   ALA d   1      -6.005  47.495  28.335  0.00  0.00    -0.271 OA
ATOM     71  N   ALA d   1      -4.825  45.837  27.364  0.00  0.00    -0.346 N 
ATOM     72  H58 ALA d   1      -4.091  45.609  26.724  0.00  0.00     0.163 HD
BRANCH  71  73
ATOM     73  CA  ALA d   1      -5.504  44.758  28.058  0.00  0.00     0.090 C 
ATOM     74  H59 ALA d   1      -6.361  45.166  28.614  0.00  0.00     0.087 H 
BRANCH  73  75
ATOM     75  C   ALA d   1      -4.519  44.158  29.046  0.00  0.00     0.241 C 
ATOM     76  O   ALA d   1      -3.558  43.489  28.673  0.00  0.00    -0.271 OA
ATOM     77  N   ALA d   1      -4.766  44.422  30.319  0.00  0.00    -0.345 N 
ATOM     78  H64 ALA d   1      -5.679  44.732  30.586  0.00  0.00     0.163 HD
BRANCH  77  79
ATOM     79  CA  ALA d   1      -3.742  44.272  31.336  0.00  0.00     0.096 C 
ATOM     80  H65 ALA d   1      -2.767  44.196  30.833  0.00  0.00     0.089 H 
BRANCH  79  81
ATOM     81  C   ALA d   1      -3.928  43.015  32.180  0.00  0.00     0.196 C 
ATOM     82  O   ALA d   1      -2.952  42.387  32.597  0.00  0.00    -0.646 OA
ATOM     83  OXT ALA d   1      -5.057  42.606  32.459  0.00  0.00    -0.646 OA
ENDBRANCH  79  81
BRANCH  79  84
ATOM     84  CB  ALA d   1      -3.740  45.524  32.212  0.00  0.00    -0.034 C 
ATOM     85  H66 ALA d   1      -2.864  45.492  32.876  0.00  0.00     0.037 H 
ATOM     86  H67 ALA d   1      -4.659  45.536  32.817  0.00  0.00     0.037 H 
BRANCH  84  87
ATOM     87  CG  ALA d   1      -3.681  46.807  31.375  0.00  0.00    -0.059 C 
ATOM     88  H68 ALA d   1      -4.342  46.678  30.506  0.00  0.00     0.038 H 
BRANCH  87  89
ATOM     89  CD1 ALA d   1      -4.171  48.010  32.160  0.00  0.00    -0.073 C 
ATOM     90  H69 ALA d   1      -4.114  48.908  31.528  0.00  0.00     0.028 H 
ATOM     91  H70 ALA d   1      -3.541  48.148  33.051  0.00  0.00     0.028 H 
ATOM     92  H71 ALA d   1      -5.213  47.846  32.470  0.00  0.00     0.028 H 
ENDBRANCH  87  89
BRANCH  87  93
ATOM     93  CD2 ALA d   1      -2.265  47.036  30.866  0.00  0.00    -0.073 C 
ATOM     94  H72 ALA d   1      -1.931  46.153  30.301  0.00  0.00     0.028 H 
ATOM     95  H73 ALA d   1      -1.591  47.202  31.719  0.00  0.00     0.028 H 
ATOM     96  H74 ALA d   1      -2.249  47.919  30.210  0.00  0.00     0.028 H 
ENDBRANCH  87  93
ENDBRANCH  84  87
ENDBRANCH  79  84
ENDBRANCH  77  79
ENDBRANCH  73  75
BRANCH  73  97
ATOM     97  CB  ALA d   1      -6.028  43.732  27.053  0.00  0.00    -0.029 C 
ATOM     98  H60 ALA d   1      -5.160  43.288  26.543  0.00  0.00     0.037 H 
ATOM     99  H61 ALA d   1      -6.650  44.267  26.320  0.00  0.00     0.037 H 
BRANCH  97 100
ATOM    100  CG  ALA d   1      -6.860  42.596  27.626  0.00  0.00     0.018 C 
ATOM    101  H62 ALA d   1      -7.541  42.230  26.844  0.00  0.00     0.049 H 
ATOM    102  H63 ALA d   1      -7.447  42.982  28.472  0.00  0.00     0.049 H 
BRANCH 100 103
ATOM    103  CD  ALA d   1      -6.013  41.437  28.113  0.00  0.00     0.172 C 
ATOM    104  OE1 ALA d   1      -4.894  41.262  27.589  0.00  0.00    -0.648 OA
ATOM    105  OE2 ALA d   1      -6.471  40.686  28.999  0.00  0.00    -0.648 OA
ENDBRANCH 100 103
ENDBRANCH  97 100
ENDBRANCH  73  97
ENDBRANCH  71  73
ENDBRANCH  67  69
BRANCH  67 106
ATOM    106  CB  ALA d   1      -3.580  49.068  27.548  0.00  0.00    -0.035 C 
ATOM    107  H49 ALA d   1      -3.191  48.525  28.422  0.00  0.00     0.037 H 
ATOM    108  H50 ALA d   1      -4.271  49.856  27.884  0.00  0.00     0.037 H 
BRANCH 106 109
ATOM    109  CG  ALA d   1      -2.404  49.733  26.832  0.00  0.00    -0.059 C 
ATOM    110  H51 ALA d   1      -2.790  50.578  26.242  0.00  0.00     0.038 H 
BRANCH 109 111
ATOM    111  CD1 ALA d   1      -1.423  50.266  27.848  0.00  0.00    -0.073 C 
ATOM    112  H52 ALA d   1      -0.579  50.743  27.328  0.00  0.00     0.028 H 
ATOM    113  H53 ALA d   1      -1.050  49.437  28.468  0.00  0.00     0.028 H 
ATOM    114  H54 ALA d   1      -1.925  51.006  28.489  0.00  0.00     0.028 H 
ENDBRANCH 109 111
BRANCH 109 115
ATOM    115  CD2 ALA d   1      -1.712  48.763  25.879  0.00  0.00    -0.073 C 
ATOM    116  H55 ALA d   1      -2.441  48.385  25.147  0.00  0.00     0.028 H 
ATOM    117  H56 ALA d   1      -1.297  47.920  26.451  0.00  0.00     0.028 H 
ATOM    118  H57 ALA d   1      -0.899  49.284  25.352  0.00  0.00     0.028 H 
ENDBRANCH 109 115
ENDBRANCH 106 109
ENDBRANCH  67 106
ENDBRANCH  65  67
ENDBRANCH   1  63
BRANCH   1 119
ATOM    119  CB  ALA d   1      -8.298  48.713  24.143  0.00  0.00    -0.036 C 
ATOM    120  H36 ALA d   1      -8.551  47.809  23.570  0.00  0.00     0.036 H 
ATOM    121  H37 ALA d   1      -8.869  49.567  23.751  0.00  0.00     0.036 H 
BRANCH 119 122
ATOM    122  CG  ALA d   1      -8.707  48.490  25.587  0.00  0.00    -0.048 C 
ATOM    123  H38 ALA d   1      -8.421  49.368  26.185  0.00  0.00     0.035 H 
ATOM    124  H39 ALA d   1      -8.194  47.598  25.976  0.00  0.00     0.035 H 
BRANCH 122 125
ATOM    125  CD  ALA d   1     -10.207  48.286  25.681  0.00  0.00     0.009 C 
ATOM    126  H40 ALA d   1     -10.543  47.724  24.797  0.00  0.00     0.064 H 
ATOM    127  H41 ALA d   1     -10.697  49.270  25.698  0.00  0.00     0.064 H 
BRANCH 125 128
ATOM    128  NE  ALA d   1     -10.592  47.550  26.879  0.00  0.00    -0.227 N 
ATOM    129  CZ  ALA d   1     -11.848  47.389  27.280  0.00  0.00     0.665 C 
ATOM    130  NH1 ALA d   1     -12.843  47.914  26.578  0.00  0.00    -0.235 N 
ATOM    131  NH2 ALA d   1     -12.110  46.704  28.385  0.00  0.00    -0.235 N 
ATOM    132  H43 ALA d   1     -13.816  47.788  26.891  0.00  0.00     0.174 HD
ATOM    133  H44 ALA d   1     -12.643  48.448  25.720  0.00  0.00     0.174 HD
ATOM    134  H45 ALA d   1     -11.339  46.295  28.932  0.00  0.00     0.174 HD
ATOM    135  H46 ALA d   1     -13.084  46.581  28.696  0.00  0.00     0.174 HD
ATOM    136  H42 ALA d   1      -9.845  47.129  27.449  0.00  0.00     0.177 HD
ENDBRANCH 125 128
ENDBRANCH 122 125
ENDBRANCH 119 122
ENDBRANCH   1 119
TORSDOF 39
