REMARK  8 active torsions:
REMARK  status: ('A' for Active; 'I' for Inactive)
REMARK    1  A    between atoms: CA_2  and  N_1 
REMARK       I    between atoms: N_1  and  CAH_14 
REMARK    2  A    between atoms: CB_5  and  CG_6 
REMARK    3  A    between atoms: CAB_13  and  CAA_12 
REMARK    4  A    between atoms: NAC_33  and  CAB_13 
REMARK    5  A    between atoms: CAH_14  and  CAJ_15 
REMARK    6  A    between atoms: CAL_17  and  CAP_21 
REMARK    7  A    between atoms: CBC_24  and  CBD_25 
REMARK    8  A    between atoms: CBE_26  and  NBA_34 
ROOT
ATOM      1  CA  O37 d   1      14.998  -9.636  -8.760  0.00  0.00     0.101 C 
ATOM      2  C   O37 d   1      13.709  -9.177  -8.972  0.00  0.00     0.249 C 
ATOM      3  O   O37 d   1      12.928  -9.083  -8.016  0.00  0.00    -0.271 OA
ATOM      4  CB  O37 d   1      15.755 -10.350  -9.908  0.00  0.00     0.030 C 
ATOM      5  CAY O37 d   1      15.278  -9.719 -11.143  0.00  0.00     0.019 C 
ATOM      6  CAZ O37 d   1      14.030  -9.271 -11.315  0.00  0.00     0.118 C 
ATOM      7  CBC O37 d   1      15.723  -9.655 -12.373  0.00  0.00     0.056 C 
ATOM      8  NAC O37 d   1      13.260  -9.005 -10.228  0.00  0.00    -0.305 N 
ATOM      9  NBA O37 d   1      13.874  -8.471 -12.349  0.00  0.00    -0.137 NA
ATOM     10  NBB O37 d   1      14.849  -8.987 -13.121  0.00  0.00    -0.196 NA
ATOM     11  H2  O37 d   1      15.537  -8.677  -8.750  0.00  0.00     0.089 H 
ATOM     12  H3  O37 d   1      16.839 -10.198  -9.797  0.00  0.00     0.059 H 
ENDROOT
BRANCH   1  13
ATOM     13  N   O37 d   1      15.297 -10.129  -7.384  0.00  0.00    -0.343 N 
ATOM     14  CAH O37 d   1      16.490 -10.160  -6.782  0.00  0.00     0.252 C 
ATOM     15  OAI O37 d   1      17.530  -9.974  -7.400  0.00  0.00    -0.268 OA
ATOM     16  H1  O37 d   1      14.521 -10.473  -6.855  0.00  0.00     0.163 HD
BRANCH  14  17
ATOM     17  CAJ O37 d   1      16.507 -10.672  -5.479  0.00  0.00     0.032 C 
ATOM     18  CAK O37 d   1      15.447 -11.358  -4.889  0.00  0.00    -0.062 C 
ATOM     19  CAL O37 d   1      15.492 -11.747  -3.553  0.00  0.00    -0.061 C 
ATOM     20  H13 O37 d   1      14.570 -11.593  -5.482  0.00  0.00     0.085 H 
ATOM     21  CAM O37 d   1      16.528 -11.322  -2.729  0.00  0.00    -0.077 C 
ATOM     22  CAN O37 d   1      17.538 -10.553  -3.285  0.00  0.00    -0.082 C 
ATOM     23  H14 O37 d   1      16.545 -11.586  -1.678  0.00  0.00     0.084 H 
ATOM     24  CAO O37 d   1      17.511 -10.193  -4.631  0.00  0.00    -0.068 C 
ATOM     25  H15 O37 d   1      18.363 -10.226  -2.662  0.00  0.00     0.083 H 
ATOM     26  H16 O37 d   1      18.276  -9.534  -5.025  0.00  0.00     0.085 H 
BRANCH  19  27
ATOM     27  CAP O37 d   1      14.466 -12.524  -3.020  0.00  0.00    -0.051 C 
ATOM     28  H17 O37 d   1      13.740 -12.765  -3.811  0.00  0.00     0.033 H 
ATOM     29  H18 O37 d   1      13.962 -11.965  -2.218  0.00  0.00     0.033 H 
ATOM     30  H19 O37 d   1      14.886 -13.455  -2.611  0.00  0.00     0.033 H 
ENDBRANCH  19  27
ENDBRANCH  14  17
ENDBRANCH   1  13
BRANCH   4  31
ATOM     31  CG  O37 d   1      15.483 -11.730  -9.924  0.00  0.00    -0.047 A 
ATOM     32  CD1 O37 d   1      16.617 -12.557  -9.812  0.00  0.00    -0.073 A 
ATOM     33  CE1 O37 d   1      16.484 -13.943  -9.767  0.00  0.00    -0.045 A 
ATOM     34  H4  O37 d   1      17.604 -12.111  -9.760  0.00  0.00     0.084 H 
ATOM     35  CZ  O37 d   1      15.223 -14.514  -9.770  0.00  0.00     0.116 A 
ATOM     36  H6  O37 d   1      17.366 -14.573  -9.730  0.00  0.00     0.088 H 
ATOM     37  CE2 O37 d   1      14.101 -13.702  -9.835  0.00  0.00    -0.045 A 
ATOM     38  FAV O37 d   1      15.079 -15.837  -9.731  0.00  0.00    -0.206 F 
ATOM     39  CD2 O37 d   1      14.236 -12.320  -9.886  0.00  0.00    -0.073 A 
ATOM     40  H7  O37 d   1      13.113 -14.148  -9.846  0.00  0.00     0.088 H 
ATOM     41  H5  O37 d   1      13.349 -11.697  -9.896  0.00  0.00     0.084 H 
ENDBRANCH   4  31
BRANCH   8  42
ATOM     42  CAB O37 d   1      11.829  -8.617 -10.333  0.00  0.00     0.001 C 
ATOM     43  H11 O37 d   1      11.525  -8.086  -9.419  0.00  0.00     0.064 H 
ATOM     44  H12 O37 d   1      11.690  -7.958 -11.203  0.00  0.00     0.064 H 
BRANCH  42  45
ATOM     45  CAA O37 d   1      10.984  -9.856 -10.500  0.00  0.00    -0.061 C 
ATOM     46  H8  O37 d   1       9.925  -9.570 -10.578  0.00  0.00     0.029 H 
ATOM     47  H9  O37 d   1      11.123 -10.514  -9.630  0.00  0.00     0.029 H 
ATOM     48  H10 O37 d   1      11.288 -10.387 -11.414  0.00  0.00     0.029 H 
ENDBRANCH  42  45
ENDBRANCH   8  42
BRANCH   7  49
ATOM     49  CBD O37 d   1      17.043 -10.225 -12.870  0.00  0.00    -0.034 C 
ATOM     50  H20 O37 d   1      17.149 -10.021 -13.946  0.00  0.00     0.035 H 
ATOM     51  H21 O37 d   1      17.061 -11.312 -12.700  0.00  0.00     0.035 H 
ATOM     52  H22 O37 d   1      17.874  -9.755 -12.324  0.00  0.00     0.035 H 
ENDBRANCH   7  49
BRANCH   9  53
ATOM     53  CBE O37 d   1      13.002  -8.113 -13.185  0.00  0.00     0.107 C 
ATOM     54  CBF O37 d   1      13.020  -6.694 -13.076  0.00  0.00    -0.073 C 
ATOM     55  CBG O37 d   1      11.994  -5.871 -13.550  0.00  0.00    -0.084 C 
ATOM     56  H23 O37 d   1      13.874  -6.227 -12.600  0.00  0.00     0.080 H 
ATOM     57  CBH O37 d   1      10.815  -6.443 -13.968  0.00  0.00    -0.083 C 
ATOM     58  H24 O37 d   1      12.126  -4.796 -13.588  0.00  0.00     0.083 H 
ATOM     59  CBI O37 d   1      10.692  -7.812 -13.902  0.00  0.00    -0.084 C 
ATOM     60  H25 O37 d   1      10.002  -5.830 -14.341  0.00  0.00     0.083 H 
ATOM     61  CBJ O37 d   1      11.716  -8.531 -13.311  0.00  0.00    -0.073 C 
ATOM     62  H26 O37 d   1       9.818  -8.313 -14.302  0.00  0.00     0.083 H 
ATOM     63  H27 O37 d   1      11.471  -9.510 -12.915  0.00  0.00     0.080 H 
ENDBRANCH   9  53
TORSDOF 8
