REMARK  8 active torsions:
REMARK  status: ('A' for Active; 'I' for Inactive)
REMARK    1  A    between atoms: C8_7  and  C5_3 
REMARK    2  A    between atoms: C10_9  and  C11_5 
REMARK    3  A    between atoms: C9_8  and  N1_12 
REMARK       I    between atoms: N1_12  and  C10_9 
REMARK    4  A    between atoms: C2_22  and  C1_16 
REMARK    5  A    between atoms: C15_17  and  C16_18 
REMARK    6  A    between atoms: C18_20  and  O2_34 
REMARK    7  A    between atoms: C21_24  and  C22_25 
REMARK    8  A    between atoms: C23_26  and  N4_32 
ROOT
ATOM      1  C8  O0A d   1      15.335  -9.275  -9.567  0.00  0.00     0.026 C 
ATOM      2  C9  O0A d   1      14.521  -8.709  -8.407  0.00  0.00     0.066 C 
ATOM      3  N2  O0A d   1      12.526  -8.356  -9.885  0.00  0.00    -0.346 N 
ATOM      4  N3  O0A d   1      14.359  -8.008 -12.995  0.00  0.00    -0.170 NA
ATOM      5  C18 O0A d   1      13.079  -8.243  -8.560  0.00  0.00     0.122 C 
ATOM      6  C19 O0A d   1      13.433  -8.293 -11.029  0.00  0.00     0.136 A 
ATOM      7  C20 O0A d   1      14.797  -8.727 -10.926  0.00  0.00     0.024 A 
ATOM      8  C21 O0A d   1      15.346  -8.516 -12.222  0.00  0.00     0.062 A 
ATOM      9  N4  O0A d   1      13.232  -7.881 -12.277  0.00  0.00    -0.217 N 
ATOM     10  H5  O0A d   1      16.372  -8.931  -9.439  0.00  0.00     0.058 H 
ATOM     11  H6  O0A d   1      15.023  -7.735  -8.307  0.00  0.00     0.081 H 
ATOM     12  H10 O0A d   1      11.513  -8.479 -10.023  0.00  0.00     0.163 HD
ATOM     13  H19 O0A d   1      13.074  -7.172  -8.309  0.00  0.00     0.120 H 
ENDROOT
BRANCH   2  14
ATOM     14  N1  O0A d   1      14.767  -9.284  -7.094  0.00  0.00    -0.347 N 
ATOM     15  C10 O0A d   1      16.121  -9.429  -6.656  0.00  0.00     0.252 C 
ATOM     16  O1  O0A d   1      17.048  -9.106  -7.328  0.00  0.00    -0.268 OA
ATOM     17  H9  O0A d   1      14.007  -9.571  -6.511  0.00  0.00     0.163 HD
BRANCH  15  18
ATOM     18  C11 O0A d   1      16.223  -9.965  -5.237  0.00  0.00     0.032 A 
ATOM     19  C12 O0A d   1      17.200  -9.489  -4.373  0.00  0.00    -0.068 A 
ATOM     20  C13 O0A d   1      17.220  -9.975  -3.069  0.00  0.00    -0.082 A 
ATOM     21  H7  O0A d   1      17.928  -8.758  -4.705  0.00  0.00     0.085 H 
ATOM     22  C14 O0A d   1      16.278 -10.891  -2.602  0.00  0.00    -0.077 A 
ATOM     23  H8  O0A d   1      17.994  -9.630  -2.393  0.00  0.00     0.083 H 
ATOM     24  C15 O0A d   1      15.279 -11.322  -3.483  0.00  0.00    -0.061 A 
ATOM     25  H2  O0A d   1      16.318 -11.260  -1.583  0.00  0.00     0.084 H 
ATOM     26  C17 O0A d   1      15.247 -10.839  -4.793  0.00  0.00    -0.062 A 
ATOM     27  H18 O0A d   1      14.455 -11.150  -5.464  0.00  0.00     0.085 H 
BRANCH  24  28
ATOM     28  C16 O0A d   1      14.212 -12.327  -3.028  0.00  0.00    -0.051 C 
ATOM     29  H15 O0A d   1      13.525 -12.535  -3.861  0.00  0.00     0.033 H 
ATOM     30  H16 O0A d   1      13.647 -11.905  -2.184  0.00  0.00     0.033 H 
ATOM     31  H17 O0A d   1      14.699 -13.261  -2.713  0.00  0.00     0.033 H 
ENDBRANCH  24  28
ENDBRANCH  15  18
ENDBRANCH   2  14
BRANCH   1  32
ATOM     32  C5  O0A d   1      15.358 -10.797  -9.630  0.00  0.00    -0.047 A 
ATOM     33  C4  O0A d   1      16.571 -11.433  -9.825  0.00  0.00    -0.076 A 
ATOM     34  C3  O0A d   1      16.612 -12.813  -9.919  0.00  0.00    -0.077 A 
ATOM     35  H1  O0A d   1      17.484 -10.854  -9.904  0.00  0.00     0.084 H 
ATOM     36  C2  O0A d   1      15.445 -13.554  -9.814  0.00  0.00    -0.062 A 
ATOM     37  H11 O0A d   1      17.559 -13.316 -10.075  0.00  0.00     0.084 H 
ATOM     38  C7  O0A d   1      14.230 -12.913  -9.635  0.00  0.00    -0.077 A 
ATOM     39  C6  O0A d   1      14.190 -11.531  -9.549  0.00  0.00    -0.076 A 
ATOM     40  H4  O0A d   1      13.315 -13.490  -9.563  0.00  0.00     0.084 H 
ATOM     41  H3  O0A d   1      13.241 -11.024  -9.418  0.00  0.00     0.084 H 
BRANCH  36  42
ATOM     42  C1  O0A d   1      15.514 -15.086  -9.912  0.00  0.00    -0.051 C 
ATOM     43  H12 O0A d   1      14.503 -15.506  -9.808  0.00  0.00     0.033 H 
ATOM     44  H13 O0A d   1      16.157 -15.476  -9.110  0.00  0.00     0.033 H 
ATOM     45  H14 O0A d   1      15.931 -15.373 -10.889  0.00  0.00     0.033 H 
ENDBRANCH  36  42
ENDBRANCH   1  32
BRANCH   5  46
ATOM     46  O2  O0A d   1      12.229  -8.899  -7.635  0.00  0.00    -0.375 OA
ATOM     47  H28 O0A d   1      12.595  -8.824  -6.762  0.00  0.00     0.212 HD
ENDBRANCH   5  46
BRANCH   8  48
ATOM     48  C22 O0A d   1      16.790  -8.812 -12.634  0.00  0.00    -0.033 C 
ATOM     49  H20 O0A d   1      17.340  -9.220 -11.773  0.00  0.00     0.035 H 
ATOM     50  H21 O0A d   1      17.273  -7.883 -12.971  0.00  0.00     0.035 H 
ATOM     51  H22 O0A d   1      16.794  -9.546 -13.453  0.00  0.00     0.035 H 
ENDBRANCH   8  48
BRANCH   9  52
ATOM     52  C23 O0A d   1      11.972  -7.383 -12.780  0.00  0.00     0.060 A 
ATOM     53  C24 O0A d   1      10.897  -8.255 -12.887  0.00  0.00    -0.055 A 
ATOM     54  C25 O0A d   1       9.692  -7.797 -13.376  0.00  0.00    -0.081 A 
ATOM     55  H23 O0A d   1      11.005  -9.291 -12.587  0.00  0.00     0.087 H 
ATOM     56  C26 O0A d   1       9.580  -6.468 -13.748  0.00  0.00    -0.083 A 
ATOM     57  H24 O0A d   1       8.845  -8.467 -13.468  0.00  0.00     0.083 H 
ATOM     58  C27 O0A d   1      10.657  -5.600 -13.635  0.00  0.00    -0.081 A 
ATOM     59  H25 O0A d   1       8.636  -6.100 -14.134  0.00  0.00     0.083 H 
ATOM     60  C28 O0A d   1      11.867  -6.053 -13.156  0.00  0.00    -0.055 A 
ATOM     61  H26 O0A d   1      10.546  -4.561 -13.925  0.00  0.00     0.083 H 
ATOM     62  H27 O0A d   1      12.717  -5.385 -13.075  0.00  0.00     0.087 H 
ENDBRANCH   9  52
TORSDOF 8
