REMARK  9 active torsions:
REMARK  status: ('A' for Active; 'I' for Inactive)
REMARK    1  A    between atoms: C2'_10  and  O2'_11 
REMARK    2  A    between atoms: C1'_12  and  N9_13 
REMARK    3  A    between atoms: C6_17  and  N6_18 
REMARK    4  A    between atoms: C2'_32  and  O2'_33 
REMARK    5  A    between atoms: C1'_34  and  N9_35 
REMARK    6  A    between atoms: C6_39  and  N6_40 
REMARK    7  A    between atoms: C2'_54  and  O2'_55 
REMARK    8  A    between atoms: C1'_56  and  N9_57 
REMARK    9  A    between atoms: C6_61  and  N6_62 
ROOT
ATOM      1  P     A d   1      -1.203   3.840  16.432  0.00  0.00     0.408 P 
ATOM      2  OP1   A d   1      -1.399   4.128  17.879  0.00  0.00    -0.624 OA
ATOM      3  OP2   A d   1      -1.237   4.924  15.408  0.00  0.00    -0.624 OA
ATOM      4  O5'   A d   1       0.135   2.978  16.331  0.00  0.00    -0.287 OA
ATOM      5  C5'   A d   1       0.588   2.486  15.058  0.00  0.00     0.058 C 
ATOM      6  C4'   A d   1       2.066   2.231  15.106  0.00  0.00     0.090 C 
ATOM      7  O4'   A d   1       2.748   3.506  15.249  0.00  0.00    -0.353 OA
ATOM      8  C3'   A d   1       2.540   1.361  16.266  0.00  0.00     0.106 C 
ATOM      9  O3'   A d   1       3.676   0.614  15.884  0.00  0.00    -0.279 OA
ATOM     10  C2'   A d   1       2.909   2.399  17.323  0.00  0.00     0.106 C 
ATOM     11  C1'   A d   1       3.477   3.528  16.456  0.00  0.00     0.140 C 
ATOM     12  P     A d   1       3.909  -0.875  16.410  0.00  0.00     0.408 P 
ATOM     13  OP1   A d   1       4.238  -0.842  17.865  0.00  0.00    -0.624 OA
ATOM     14  OP2   A d   1       4.853  -1.527  15.449  0.00  0.00    -0.624 OA
ATOM     15  O5'   A d   1       2.469  -1.567  16.321  0.00  0.00    -0.287 OA
ATOM     16  C5'   A d   1       1.819  -1.744  15.046  0.00  0.00     0.058 C 
ATOM     17  C4'   A d   1       0.884  -2.914  15.091  0.00  0.00     0.090 C 
ATOM     18  O4'   A d   1       1.666  -4.127  15.247  0.00  0.00    -0.353 OA
ATOM     19  C3'   A d   1      -0.114  -2.899  16.247  0.00  0.00     0.106 C 
ATOM     20  O3'   A d   1      -1.331  -3.524  15.877  0.00  0.00    -0.279 OA
ATOM     21  C2'   A d   1       0.605  -3.726  17.309  0.00  0.00     0.106 C 
ATOM     22  C1'   A d   1       1.314  -4.775  16.449  0.00  0.00     0.140 C 
ATOM     23  P     A d   1      -2.733  -2.977  16.383  0.00  0.00     0.408 P 
ATOM     24  OP1   A d   1      -2.864  -3.279  17.837  0.00  0.00    -0.624 OA
ATOM     25  OP2   A d   1      -3.792  -3.463  15.437  0.00  0.00    -0.624 OA
ATOM     26  O5'   A d   1      -2.602  -1.385  16.305  0.00  0.00    -0.287 OA
ATOM     27  C5'   A d   1      -2.455  -0.729  15.031  0.00  0.00     0.058 C 
ATOM     28  C4'   A d   1      -2.972   0.667  15.119  0.00  0.00     0.090 C 
ATOM     29  O4'   A d   1      -4.415   0.612  15.260  0.00  0.00    -0.353 OA
ATOM     30  C3'   A d   1      -2.455   1.486  16.293  0.00  0.00     0.106 C 
ATOM     31  O3'   A d   1      -2.347   2.831  15.914  0.00  0.00    -0.279 OA
ATOM     32  C2'   A d   1      -3.554   1.316  17.343  0.00  0.00     0.106 C 
ATOM     33  C1'   A d   1      -4.807   1.242  16.458  0.00  0.00     0.140 C 
ATOM     34  H1    A d   1       0.372   3.233  14.280  0.00  0.00     0.079 H 
ATOM     35  H2    A d   1       0.064   1.548  14.822  0.00  0.00     0.079 H 
ATOM     36  H3    A d   1       2.362   1.750  14.162  0.00  0.00     0.090 H 
ATOM     37  H4    A d   1       1.746   0.687  16.620  0.00  0.00     0.092 H 
ATOM     38  H5    A d   1       2.006   2.735  17.855  0.00  0.00     0.093 H 
ATOM     39  H7    A d   1       4.546   3.352  16.268  0.00  0.00     0.122 H 
ATOM     40  H12   A d   1       2.581  -1.919  14.273  0.00  0.00     0.079 H 
ATOM     41  H13   A d   1       1.250  -0.835  14.801  0.00  0.00     0.079 H 
ATOM     42  H14   A d   1       0.326  -2.945  14.144  0.00  0.00     0.090 H 
ATOM     43  H15   A d   1      -0.310  -1.874  16.596  0.00  0.00     0.092 H 
ATOM     44  H16   A d   1       1.336  -3.103  17.844  0.00  0.00     0.093 H 
ATOM     45  H18   A d   1       0.632  -5.615  16.252  0.00  0.00     0.122 H 
ATOM     46  H23   A d   1      -3.023  -1.281  14.268  0.00  0.00     0.079 H 
ATOM     47  H24   A d   1      -1.391  -0.708  14.752  0.00  0.00     0.079 H 
ATOM     48  H25   A d   1      -2.706   1.188  14.188  0.00  0.00     0.090 H 
ATOM     49  H26   A d   1      -1.486   1.112  16.656  0.00  0.00     0.092 H 
ATOM     50  H27   A d   1      -3.407   0.371  17.887  0.00  0.00     0.093 H 
ATOM     51  H29   A d   1      -5.185   2.256  16.260  0.00  0.00     0.122 H 
ENDROOT
BRANCH  11  52
ATOM     52  N9    A d   1       3.299   4.847  17.070  0.00  0.00    -0.294 N 
ATOM     53  C8    A d   1       2.164   5.616  17.055  0.00  0.00     0.071 A 
ATOM     54  N7    A d   1       2.281   6.765  17.674  0.00  0.00    -0.236 NA
ATOM     55  H8    A d   1       1.242   5.298  16.569  0.00  0.00     0.144 H 
ATOM     56  C5    A d   1       3.576   6.746  18.150  0.00  0.00     0.149 A 
ATOM     57  C6    A d   1       4.306   7.667  18.914  0.00  0.00     0.155 A 
ATOM     58  C4    A d   1       4.217   5.580  17.780  0.00  0.00     0.167 A 
ATOM     59  N1    A d   1       5.588   7.355  19.212  0.00  0.00    -0.222 NA
ATOM     60  C2    A d   1       6.071   6.183  18.781  0.00  0.00     0.091 A 
ATOM     61  N3    A d   1       5.477   5.228  18.069  0.00  0.00    -0.222 NA
ATOM     62  H11   A d   1       7.101   5.981  19.053  0.00  0.00     0.146 H 
BRANCH  57  63
ATOM     63  N6    A d   1       3.812   8.826  19.347  0.00  0.00    -0.382 N 
ATOM     64  H9    A d   1       4.401   9.460  19.905  0.00  0.00     0.157 HD
ATOM     65  H10   A d   1       2.841   9.088  19.123  0.00  0.00     0.157 HD
ENDBRANCH  57  63
ENDBRANCH  11  52
BRANCH  10  66
ATOM     66  O2'   A d   1       3.846   1.947  18.288  0.00  0.00    -0.388 OA
ATOM     67  H6    A d   1       4.652   1.697  17.852  0.00  0.00     0.210 HD
ENDBRANCH  10  66
BRANCH  32  68
ATOM     68  O2'   A d   1      -3.655   2.364  18.306  0.00  0.00    -0.388 OA
ATOM     69  H28   A d   1      -3.834   3.184  17.862  0.00  0.00     0.210 HD
ENDBRANCH  32  68
BRANCH  33  70
ATOM     70  N9    A d   1      -5.866   0.432  17.066  0.00  0.00    -0.294 N 
ATOM     71  C8    A d   1      -5.968  -0.936  17.041  0.00  0.00     0.071 A 
ATOM     72  N7    A d   1      -7.018  -1.414  17.661  0.00  0.00    -0.236 NA
ATOM     73  H30   A d   1      -5.236  -1.572  16.546  0.00  0.00     0.144 H 
ATOM     74  C5    A d   1      -7.642  -0.283  18.148  0.00  0.00     0.149 A 
ATOM     75  C6    A d   1      -8.802  -0.111  18.914  0.00  0.00     0.155 A 
ATOM     76  C4    A d   1      -6.960   0.857  17.775  0.00  0.00     0.167 A 
ATOM     77  N1    A d   1      -9.177   1.154  19.216  0.00  0.00    -0.222 NA
ATOM     78  C2    A d   1      -8.402   2.159  18.788  0.00  0.00     0.091 A 
ATOM     79  N3    A d   1      -7.280   2.120  18.074  0.00  0.00    -0.222 NA
ATOM     80  H33   A d   1      -8.739   3.152  19.064  0.00  0.00     0.146 H 
BRANCH  75  81
ATOM     81  N6    A d   1      -9.557  -1.122  19.339  0.00  0.00    -0.382 N 
ATOM     82  H31   A d   1     -10.400  -0.935  19.900  0.00  0.00     0.157 HD
ATOM     83  H32   A d   1      -9.298  -2.091  19.107  0.00  0.00     0.157 HD
ENDBRANCH  75  81
ENDBRANCH  33  70
BRANCH  22  84
ATOM     84  N9    A d   1       2.543  -5.282  17.069  0.00  0.00    -0.294 N 
ATOM     85  C8    A d   1       3.780  -4.688  17.046  0.00  0.00     0.071 A 
ATOM     86  N7    A d   1       4.715  -5.364  17.667  0.00  0.00    -0.236 NA
ATOM     87  H19   A d   1       3.969  -3.735  16.553  0.00  0.00     0.144 H 
ATOM     88  C5    A d   1       4.046  -6.473  18.149  0.00  0.00     0.149 A 
ATOM     89  C6    A d   1       4.476  -7.567  18.911  0.00  0.00     0.155 A 
ATOM     90  C4    A d   1       2.716  -6.448  17.775  0.00  0.00     0.167 A 
ATOM     91  N1    A d   1       3.560  -8.513  19.213  0.00  0.00    -0.222 NA
ATOM     92  C2    A d   1       2.305  -8.348  18.781  0.00  0.00     0.091 A 
ATOM     93  N3    A d   1       1.776  -7.355  18.071  0.00  0.00    -0.222 NA
ATOM     94  H22   A d   1       1.617  -9.141  19.049  0.00  0.00     0.146 H 
BRANCH  89  95
ATOM     95  N6    A d   1       5.726  -7.730  19.339  0.00  0.00    -0.382 N 
ATOM     96  H20   A d   1       5.976  -8.559  19.896  0.00  0.00     0.157 HD
ATOM     97  H21   A d   1       6.444  -7.027  19.113  0.00  0.00     0.157 HD
ENDBRANCH  89  95
ENDBRANCH  22  84
BRANCH  21  98
ATOM     98  O2'   A d   1      -0.255  -4.325  18.271  0.00  0.00    -0.388 OA
ATOM     99  H17   A d   1      -0.863  -4.907  17.831  0.00  0.00     0.210 HD
ENDBRANCH  21  98
TORSDOF 9
