REMARK  15 active torsions:
REMARK  status: ('A' for Active; 'I' for Inactive)
REMARK    1  A    between atoms: P_2  and  O5'_5 
REMARK    2  A    between atoms: O5'_5  and  C5'_6 
REMARK    3  A    between atoms: C5'_6  and  C4'_7 
REMARK    4  A    between atoms: C3'_9  and  O3'_10 
REMARK    5  A    between atoms: O3'_10  and  P_24 
REMARK    6  A    between atoms: C2'_11  and  O2'_12 
REMARK    7  A    between atoms: C1'_13  and  N9_14 
REMARK    8  A    between atoms: C6_18  and  N6_19 
REMARK    9  A    between atoms: P_24  and  O5'_27 
REMARK   10  A    between atoms: O5'_27  and  C5'_28 
REMARK   11  A    between atoms: C5'_28  and  C4'_29 
REMARK   12  A    between atoms: C3'_31  and  O3'_32 
REMARK   13  A    between atoms: C2'_33  and  O2'_34 
REMARK   14  A    between atoms: C1'_35  and  N9_36 
REMARK   15  A    between atoms: C6_40  and  N6_41 
ROOT
ATOM      1  O3'   A d   1       3.746   0.614  16.001  0.00  0.00    -0.279 OA
ENDROOT
BRANCH   1   2
ATOM      2  C3'   A d   1       2.678   1.437  16.463  0.00  0.00     0.106 C 
ATOM      3  C4'   A d   1       2.090   2.288  15.333  0.00  0.00     0.090 C 
ATOM      4  O4'   A d   1       2.639   3.624  15.491  0.00  0.00    -0.353 OA
ATOM      5  H3    A d   1       2.397   1.863  14.366  0.00  0.00     0.090 H 
ATOM      6  C1'   A d   1       3.517   3.668  16.600  0.00  0.00     0.140 C 
ATOM      7  C2'   A d   1       3.163   2.482  17.488  0.00  0.00     0.106 C 
ATOM      8  H7    A d   1       4.559   3.568  16.261  0.00  0.00     0.122 H 
ATOM      9  H5    A d   1       2.341   2.740  18.172  0.00  0.00     0.093 H 
ATOM     10  H4    A d   1       1.901   0.796  16.906  0.00  0.00     0.092 H 
BRANCH   3  11
ATOM     11  C5'   A d   1       0.571   2.385  15.364  0.00  0.00     0.059 C 
ATOM     12  H1    A d   1       0.235   2.972  14.496  0.00  0.00     0.079 H 
ATOM     13  H2    A d   1       0.149   1.371  15.307  0.00  0.00     0.079 H 
BRANCH  11  14
ATOM     14  O5'   A d   1       0.098   3.017  16.563  0.00  0.00    -0.280 OA
BRANCH  14  15
ATOM     15  P     A d   1      -1.249   3.857  16.561  0.00  0.00     0.422 P 
ATOM     16  OP3   A d   1      -2.333   2.900  16.038  0.00  0.00    -0.617 OA
ATOM     17  OP1   A d   1      -1.505   4.138  17.993  0.00  0.00    -0.617 OA
ATOM     18  OP2   A d   1      -1.259   4.926  15.580  0.00  0.00    -0.617 OA
ENDBRANCH  14  15
ENDBRANCH  11  14
ENDBRANCH   3  11
BRANCH   6  19
ATOM     19  N9    A d   1       3.361   4.970  17.280  0.00  0.00    -0.294 N 
ATOM     20  C8    A d   1       2.219   5.733  17.290  0.00  0.00     0.071 A 
ATOM     21  N7    A d   1       2.313   6.844  17.939  0.00  0.00    -0.236 NA
ATOM     22  H8    A d   1       1.303   5.424  16.788  0.00  0.00     0.144 H 
ATOM     23  C5    A d   1       3.613   6.861  18.395  0.00  0.00     0.149 A 
ATOM     24  C6    A d   1       4.316   7.768  19.160  0.00  0.00     0.155 A 
ATOM     25  C4    A d   1       4.278   5.692  17.980  0.00  0.00     0.167 A 
ATOM     26  N1    A d   1       5.605   7.472  19.446  0.00  0.00    -0.222 NA
ATOM     27  C2    A d   1       6.123   6.337  18.974  0.00  0.00     0.091 A 
ATOM     28  N3    A d   1       5.556   5.363  18.235  0.00  0.00    -0.222 NA
ATOM     29  H11   A d   1       7.165   6.172  19.224  0.00  0.00     0.146 H 
BRANCH  24  30
ATOM     30  N6    A d   1       3.796   8.900  19.597  0.00  0.00    -0.382 N 
ATOM     31  H9    A d   1       4.366   9.543  20.166  0.00  0.00     0.157 HD
ATOM     32  H10   A d   1       2.821   9.140  19.369  0.00  0.00     0.157 HD
ENDBRANCH  24  30
ENDBRANCH   6  19
BRANCH   7  33
ATOM     33  O2'   A d   1       4.279   2.094  18.267  0.00  0.00    -0.388 OA
ATOM     34  H6    A d   1       5.016   1.915  17.695  0.00  0.00     0.210 HD
ENDBRANCH   7  33
ENDBRANCH   1   2
BRANCH   1  35
ATOM     35  P     A d   1       3.912  -0.920  16.576  0.00  0.00     0.408 P 
ATOM     36  OP1   A d   1       4.120  -0.841  18.049  0.00  0.00    -0.624 OA
ATOM     37  OP2   A d   1       4.818  -1.619  15.686  0.00  0.00    -0.624 OA
BRANCH  35  38
ATOM     38  O5'   A d   1       2.447  -1.516  16.470  0.00  0.00    -0.287 OA
BRANCH  38  39
ATOM     39  C5'   A d   1       1.877  -1.897  15.221  0.00  0.00     0.058 C 
ATOM     40  H12   A d   1       2.677  -2.270  14.565  0.00  0.00     0.079 H 
ATOM     41  H13   A d   1       1.407  -1.015  14.761  0.00  0.00     0.079 H 
BRANCH  39  42
ATOM     42  C4'   A d   1       0.832  -2.980  15.382  0.00  0.00     0.089 C 
ATOM     43  O4'   A d   1       1.520  -4.253  15.490  0.00  0.00    -0.353 OA
ATOM     44  C1'   A d   1       1.220  -4.882  16.724  0.00  0.00     0.139 C 
ATOM     45  C2'   A d   1       0.567  -3.832  17.630  0.00  0.00     0.105 C 
ATOM     46  H19   A d   1       0.536  -5.731  16.575  0.00  0.00     0.122 H 
ATOM     47  C3'   A d   1      -0.040  -2.845  16.632  0.00  0.00     0.091 C 
ATOM     48  H17   A d   1       1.342  -3.315  18.215  0.00  0.00     0.093 H 
ATOM     49  H15   A d   1       0.005  -1.820  17.029  0.00  0.00     0.091 H 
ATOM     50  H14   A d   1       0.182  -2.974  14.494  0.00  0.00     0.090 H 
BRANCH  44  51
ATOM     51  N9    A d   1       2.491  -5.350  17.293  0.00  0.00    -0.294 N 
ATOM     52  C8    A d   1       3.705  -4.708  17.242  0.00  0.00     0.071 A 
ATOM     53  N7    A d   1       4.662  -5.353  17.846  0.00  0.00    -0.236 NA
ATOM     54  H20   A d   1       3.853  -3.751  16.744  0.00  0.00     0.144 H 
ATOM     55  C5    A d   1       4.032  -6.480  18.324  0.00  0.00     0.149 A 
ATOM     56  C6    A d   1       4.473  -7.560  19.062  0.00  0.00     0.155 A 
ATOM     57  C4    A d   1       2.678  -6.480  17.977  0.00  0.00     0.167 A 
ATOM     58  N1    A d   1       3.581  -8.508  19.373  0.00  0.00    -0.222 NA
ATOM     59  C2    A d   1       2.316  -8.392  18.957  0.00  0.00     0.091 A 
ATOM     60  N3    A d   1       1.746  -7.402  18.256  0.00  0.00    -0.222 NA
ATOM     61  H23   A d   1       1.660  -9.213  19.224  0.00  0.00     0.146 H 
BRANCH  56  62
ATOM     62  N6    A d   1       5.729  -7.708  19.463  0.00  0.00    -0.382 N 
ATOM     63  H21   A d   1       6.000  -8.536  20.012  0.00  0.00     0.157 HD
ATOM     64  H22   A d   1       6.433  -6.995  19.225  0.00  0.00     0.157 HD
ENDBRANCH  56  62
ENDBRANCH  44  51
BRANCH  45  65
ATOM     65  O2'   A d   1      -0.338  -4.413  18.557  0.00  0.00    -0.388 OA
ATOM     66  H18   A d   1      -1.009  -4.892  18.085  0.00  0.00     0.210 HD
ENDBRANCH  45  65
BRANCH  47  67
ATOM     67  O3'   A d   1      -1.383  -3.172  16.335  0.00  0.00    -0.390 OA
ATOM     68  H16   A d   1      -1.910  -3.083  17.120  0.00  0.00     0.210 HD
ENDBRANCH  47  67
ENDBRANCH  39  42
ENDBRANCH  38  39
ENDBRANCH  35  38
ENDBRANCH   1  35
TORSDOF 15
