REMARK  8 active torsions:
REMARK  status: ('A' for Active; 'I' for Inactive)
REMARK    1  A    between atoms: C01_1  and  C02_2 
REMARK    2  A    between atoms: C02_2  and  C03_3 
REMARK       I    between atoms: C03_3  and  N05_5 
REMARK    3  A    between atoms: C07_7  and  N09_9 
REMARK       I    between atoms: N09_9  and  C10_10 
REMARK    4  A    between atoms: C10_10  and  C12_12 
REMARK    5  A    between atoms: C12_12  and  O13_13 
REMARK    6  A    between atoms: O13_13  and  C14_14 
REMARK    7  A    between atoms: C20_20  and  C21_21 
REMARK       I    between atoms: C21_21  and  N23_23 
REMARK    8  A    between atoms: C26_26  and  C28_28 
ROOT
ATOM      1  C14 O5V d   1      -2.277  77.696 -35.766  0.00  0.00     0.085 A 
ATOM      2  C15 O5V d   1      -2.966  76.519 -35.516  0.00  0.00    -0.048 A 
ATOM      3  C16 O5V d   1      -4.240  76.341 -36.018  0.00  0.00    -0.064 A 
ATOM      4  C17 O5V d   1      -4.823  77.352 -36.767  0.00  0.00     0.012 A 
ATOM      5 BR18 O5V d   1      -6.613  77.148 -37.477  0.00  0.00    -0.051 Br
ATOM      6  C19 O5V d   1      -4.134  78.527 -36.999  0.00  0.00    -0.048 A 
ATOM      7  C20 O5V d   1      -2.862  78.691 -36.517  0.00  0.00     0.066 A 
ATOM      8  H14 O5V d   1      -2.503  75.737 -34.925  0.00  0.00     0.087 H 
ATOM      9  H15 O5V d   1      -4.779  75.420 -35.828  0.00  0.00     0.085 H 
ATOM     10  H16 O5V d   1      -4.603  79.324 -37.566  0.00  0.00     0.087 H 
ENDROOT
BRANCH   1  11
ATOM     11  O13 O5V d   1      -0.995  77.885 -35.260  0.00  0.00    -0.341 OA
BRANCH  11  12
ATOM     12  C12 O5V d   1      -0.479  76.750 -34.645  0.00  0.00     0.099 C 
ATOM     13  H12 O5V d   1      -0.852  75.859 -35.171  0.00  0.00     0.089 H 
ATOM     14  H13 O5V d   1       0.619  76.779 -34.706  0.00  0.00     0.089 H 
BRANCH  12  15
ATOM     15  C10 O5V d   1      -0.888  76.667 -33.186  0.00  0.00     0.242 C 
ATOM     16  N09 O5V d   1      -0.040  75.883 -32.355  0.00  0.00    -0.351 N 
ATOM     17  H11 O5V d   1       0.751  75.441 -32.777  0.00  0.00     0.163 HD
ATOM     18  O11 O5V d   1      -1.842  77.178 -32.746  0.00  0.00    -0.271 OA
BRANCH  16  19
ATOM     19  C07 O5V d   1      -0.249  75.687 -30.946  0.00  0.00     0.043 A 
ATOM     20  C06 O5V d   1      -1.051  74.524 -30.483  0.00  0.00     0.018 A 
ATOM     21  N05 O5V d   1       0.197  73.781 -30.171  0.00  0.00    -0.348 N 
ATOM     22  H6  O5V d   1      -1.679  74.734 -29.605  0.00  0.00     0.067 H 
ATOM     23  H7  O5V d   1      -1.664  74.060 -31.270  0.00  0.00     0.067 H 
ATOM     24  C03 O5V d   1       0.537  72.470 -29.696  0.00  0.00     0.219 C 
ATOM     25  C08 O5V d   1       0.966  74.980 -30.529  0.00  0.00     0.018 A 
ATOM     26  O04 O5V d   1      -0.342  71.751 -29.453  0.00  0.00    -0.273 OA
ATOM     27  H9  O5V d   1       1.685  74.817 -31.345  0.00  0.00     0.067 H 
ATOM     28  H10 O5V d   1       1.479  75.448 -29.676  0.00  0.00     0.067 H 
ATOM     29  H8  O5V d   1      -0.496  76.632 -30.439  0.00  0.00     0.077 H 
BRANCH  24  30
ATOM     30  C02 O5V d   1       2.003  72.042 -29.535  0.00  0.00     0.006 C 
ATOM     31  H4  O5V d   1       2.150  71.031 -29.944  0.00  0.00     0.046 H 
ATOM     32  H5  O5V d   1       2.664  72.749 -30.059  0.00  0.00     0.046 H 
BRANCH  30  33
ATOM     33  C01 O5V d   1       2.315  72.053 -27.975  0.00  0.00    -0.068 C 
ATOM     34  H1  O5V d   1       3.360  71.751 -27.808  0.00  0.00     0.028 H 
ATOM     35  H2  O5V d   1       1.644  71.349 -27.462  0.00  0.00     0.028 H 
ATOM     36  H3  O5V d   1       2.158  73.066 -27.577  0.00  0.00     0.028 H 
ENDBRANCH  30  33
ENDBRANCH  24  30
ENDBRANCH  16  19
ENDBRANCH  12  15
ENDBRANCH  11  12
ENDBRANCH   1  11
BRANCH   7  37
ATOM     37  C21 O5V d   1      -2.115  79.992 -36.764  0.00  0.00     0.257 C 
ATOM     38  O22 O5V d   1      -1.621  80.225 -37.800  0.00  0.00    -0.267 OA
ATOM     39  N23 O5V d   1      -2.044  80.929 -35.671  0.00  0.00    -0.340 N 
ATOM     40  C24 O5V d   1      -1.403  82.229 -35.634  0.00  0.00     0.014 C 
ATOM     41  C27 O5V d   1      -2.630  80.711 -34.358  0.00  0.00     0.022 C 
ATOM     42  C25 O5V d   1      -2.073  82.940 -34.437  0.00  0.00    -0.077 C 
ATOM     43  H17 O5V d   1      -1.584  82.781 -36.568  0.00  0.00     0.070 H 
ATOM     44  H18 O5V d   1      -0.320  82.127 -35.472  0.00  0.00     0.070 H 
ATOM     45  C26 O5V d   1      -2.503  81.997 -33.610  0.00  0.00    -0.032 C 
ATOM     46  H19 O5V d   1      -2.173  84.016 -34.298  0.00  0.00     0.080 H 
ATOM     47  H20 O5V d   1      -2.090  79.911 -33.830  0.00  0.00     0.071 H 
ATOM     48  H21 O5V d   1      -3.690  80.434 -34.458  0.00  0.00     0.071 H 
BRANCH  45  49
ATOM     49  C28 O5V d   1      -2.997  82.218 -32.184  0.00  0.00    -0.029 A 
ATOM     50  C29 O5V d   1      -3.567  81.176 -31.484  0.00  0.00    -0.072 A 
ATOM     51  C30 O5V d   1      -4.010  81.373 -30.195  0.00  0.00    -0.082 A 
ATOM     52  H22 O5V d   1      -3.667  80.201 -31.948  0.00  0.00     0.084 H 
ATOM     53  C31 O5V d   1      -3.883  82.604 -29.603  0.00  0.00    -0.083 A 
ATOM     54  H23 O5V d   1      -4.460  80.553 -29.647  0.00  0.00     0.083 H 
ATOM     55  C32 O5V d   1      -3.316  83.645 -30.302  0.00  0.00    -0.082 A 
ATOM     56  H24 O5V d   1      -4.229  82.756 -28.587  0.00  0.00     0.083 H 
ATOM     57  C33 O5V d   1      -2.875  83.449 -31.592  0.00  0.00    -0.072 A 
ATOM     58  H25 O5V d   1      -3.216  84.619 -29.837  0.00  0.00     0.083 H 
ATOM     59  H26 O5V d   1      -2.430  84.271 -32.141  0.00  0.00     0.084 H 
ENDBRANCH  45  49
ENDBRANCH   7  37
TORSDOF 8
