REMARK  8 active torsions:
REMARK  status: ('A' for Active; 'I' for Inactive)
REMARK    1  A    between atoms: C01_1  and  C02_2 
REMARK    2  A    between atoms: C02_2  and  C03_3 
REMARK       I    between atoms: C03_3  and  N05_5 
REMARK    3  A    between atoms: C07_7  and  N09_9 
REMARK       I    between atoms: N09_9  and  C10_10 
REMARK    4  A    between atoms: C10_10  and  C12_12 
REMARK    5  A    between atoms: C12_12  and  N13_13 
REMARK    6  A    between atoms: C15_15  and  C16_16 
REMARK       I    between atoms: C16_16  and  N18_18 
REMARK    7  A    between atoms: C22_22  and  O23_23 
REMARK    8  A    between atoms: O23_23  and  C24_24 
ROOT
ATOM      1  N13 O5Y d   1      -9.612  -7.484  -3.350  0.00  0.00    -0.346 N 
ATOM      2  C14 O5Y d   1     -10.412  -6.434  -3.255  0.00  0.00    -0.003 A 
ATOM      3  C15 O5Y d   1     -10.330  -5.922  -1.958  0.00  0.00     0.060 A 
ATOM      4  C30 O5Y d   1      -9.416  -6.765  -1.255  0.00  0.00     0.009 A 
ATOM      5  C31 O5Y d   1      -8.909  -6.790   0.067  0.00  0.00    -0.053 A 
ATOM      6  C32 O5Y d   1      -7.989  -7.777   0.450  0.00  0.00     0.011 A 
ATOM      7 BR33 O5Y d   1      -7.304  -7.807   2.265  0.00  0.00    -0.051 Br
ATOM      8  C34 O5Y d   1      -7.559  -8.745  -0.470  0.00  0.00    -0.064 A 
ATOM      9  C35 O5Y d   1      -8.053  -8.723  -1.772  0.00  0.00    -0.055 A 
ATOM     10  C36 O5Y d   1      -8.990  -7.720  -2.162  0.00  0.00     0.046 A 
ATOM     11  H14 O5Y d   1     -11.032  -6.035  -4.056  0.00  0.00     0.113 H 
ATOM     12  H27 O5Y d   1      -9.233  -6.045   0.784  0.00  0.00     0.087 H 
ATOM     13  H28 O5Y d   1      -6.847  -9.505  -0.169  0.00  0.00     0.085 H 
ATOM     14  H29 O5Y d   1      -7.726  -9.467  -2.489  0.00  0.00     0.087 H 
ENDROOT
BRANCH   3  15
ATOM     15  C16 O5Y d   1     -11.117  -4.698  -1.414  0.00  0.00     0.256 C 
ATOM     16  O17 O5Y d   1     -11.323  -4.618  -0.247  0.00  0.00    -0.267 OA
ATOM     17  N18 O5Y d   1     -11.630  -3.659  -2.309  0.00  0.00    -0.343 N 
ATOM     18  C19 O5Y d   1     -11.402  -3.723  -3.773  0.00  0.00     0.002 C 
ATOM     19  C29 O5Y d   1     -12.402  -2.504  -1.775  0.00  0.00     0.022 C 
ATOM     20  C20 O5Y d   1     -11.637  -2.455  -4.570  0.00  0.00    -0.023 C 
ATOM     21  H15 O5Y d   1     -12.071  -4.496  -4.178  0.00  0.00     0.064 H 
ATOM     22  H16 O5Y d   1     -10.356  -4.024  -3.932  0.00  0.00     0.064 H 
ATOM     23  C21 O5Y d   1     -12.912  -1.748  -4.141  0.00  0.00    -0.015 A 
ATOM     24  H17 O5Y d   1     -11.715  -2.714  -5.636  0.00  0.00     0.042 H 
ATOM     25  H18 O5Y d   1     -10.785  -1.776  -4.418  0.00  0.00     0.042 H 
ATOM     26  C22 O5Y d   1     -13.705  -1.064  -5.114  0.00  0.00     0.075 A 
ATOM     27  C28 O5Y d   1     -13.280  -1.766  -2.833  0.00  0.00    -0.031 A 
ATOM     28  C25 O5Y d   1     -14.871  -0.418  -4.697  0.00  0.00    -0.050 A 
ATOM     29  C26 O5Y d   1     -15.253  -0.432  -3.352  0.00  0.00    -0.080 A 
ATOM     30  H22 O5Y d   1     -15.486   0.100  -5.424  0.00  0.00     0.087 H 
ATOM     31  C27 O5Y d   1     -14.473  -1.101  -2.406  0.00  0.00    -0.075 A 
ATOM     32  H23 O5Y d   1     -16.158   0.078  -3.042  0.00  0.00     0.083 H 
ATOM     33  H24 O5Y d   1     -14.767  -1.116  -1.363  0.00  0.00     0.084 H 
ATOM     34  H25 O5Y d   1     -11.689  -1.779  -1.355  0.00  0.00     0.071 H 
ATOM     35  H26 O5Y d   1     -13.063  -2.873  -0.977  0.00  0.00     0.071 H 
BRANCH  26  36
ATOM     36  O23 O5Y d   1     -13.288  -1.075  -6.461  0.00  0.00    -0.355 OA
BRANCH  36  37
ATOM     37  C24 O5Y d   1     -13.819  -0.098  -7.317  0.00  0.00     0.010 C 
ATOM     38  H19 O5Y d   1     -13.405  -0.232  -8.327  0.00  0.00     0.066 H 
ATOM     39  H20 O5Y d   1     -13.555   0.901  -6.941  0.00  0.00     0.066 H 
ATOM     40  H21 O5Y d   1     -14.914  -0.198  -7.353  0.00  0.00     0.066 H 
ENDBRANCH  36  37
ENDBRANCH  26  36
ENDBRANCH   3  15
BRANCH   1  41
ATOM     41  C12 O5Y d   1      -9.439  -8.272  -4.567  0.00  0.00     0.073 C 
ATOM     42  H12 O5Y d   1      -9.275  -9.325  -4.293  0.00  0.00     0.079 H 
ATOM     43  H13 O5Y d   1     -10.349  -8.190  -5.180  0.00  0.00     0.079 H 
BRANCH  41  44
ATOM     44  C10 O5Y d   1      -8.239  -7.774  -5.383  0.00  0.00     0.236 C 
ATOM     45  N09 O5Y d   1      -8.051  -8.332  -6.728  0.00  0.00    -0.352 N 
ATOM     46  H11 O5Y d   1      -8.705  -9.011  -7.062  0.00  0.00     0.163 HD
ATOM     47  O11 O5Y d   1      -7.495  -6.966  -4.935  0.00  0.00    -0.272 OA
BRANCH  45  48
ATOM     48  C07 O5Y d   1      -6.944  -7.934  -7.598  0.00  0.00     0.043 C 
ATOM     49  C06 O5Y d   1      -5.619  -8.095  -6.948  0.00  0.00     0.018 C 
ATOM     50  N05 O5Y d   1      -5.224  -9.067  -8.007  0.00  0.00    -0.348 N 
ATOM     51  H6  O5Y d   1      -5.012  -7.178  -6.930  0.00  0.00     0.067 H 
ATOM     52  H7  O5Y d   1      -5.663  -8.525  -5.936  0.00  0.00     0.067 H 
ATOM     53  C03 O5Y d   1      -3.993  -9.755  -8.352  0.00  0.00     0.219 C 
ATOM     54  C08 O5Y d   1      -6.612  -9.023  -8.554  0.00  0.00     0.018 C 
ATOM     55  O04 O5Y d   1      -3.027  -9.563  -7.689  0.00  0.00    -0.273 OA
ATOM     56  H9  O5Y d   1      -7.186  -9.948  -8.400  0.00  0.00     0.067 H 
ATOM     57  H10 O5Y d   1      -6.670  -8.727  -9.612  0.00  0.00     0.067 H 
ATOM     58  H8  O5Y d   1      -7.127  -6.947  -8.047  0.00  0.00     0.077 H 
BRANCH  53  59
ATOM     59  C02 O5Y d   1      -3.966 -10.717  -9.555  0.00  0.00     0.006 C 
ATOM     60  H4  O5Y d   1      -3.537 -11.675  -9.226  0.00  0.00     0.046 H 
ATOM     61  H5  O5Y d   1      -4.999 -10.877  -9.898  0.00  0.00     0.046 H 
BRANCH  59  62
ATOM     62  C01 O5Y d   1      -3.141 -10.193 -10.729  0.00  0.00    -0.068 C 
ATOM     63  H1  O5Y d   1      -3.164 -10.925 -11.549  0.00  0.00     0.028 H 
ATOM     64  H2  O5Y d   1      -2.101 -10.037 -10.406  0.00  0.00     0.028 H 
ATOM     65  H3  O5Y d   1      -3.563  -9.239 -11.077  0.00  0.00     0.028 H 
ENDBRANCH  59  62
ENDBRANCH  53  59
ENDBRANCH  45  48
ENDBRANCH  41  44
ENDBRANCH   1  41
TORSDOF 8
