REMARK  10 active torsions:
REMARK  status: ('A' for Active; 'I' for Inactive)
REMARK    1  A    between atoms: C01_1  and  C02_2 
REMARK    2  A    between atoms: C02_2  and  C03_3 
REMARK       I    between atoms: C03_3  and  N05_5 
REMARK    3  A    between atoms: C07_7  and  N09_9 
REMARK       I    between atoms: N09_9  and  C10_10 
REMARK    4  A    between atoms: C10_10  and  C12_12 
REMARK    5  A    between atoms: C12_12  and  N13_13 
REMARK    6  A    between atoms: C14_14  and  C15_15 
REMARK    7  A    between atoms: C18_18  and  C19_19 
REMARK       I    between atoms: C19_19  and  N21_21 
REMARK    8  A    between atoms: C25_25  and  O26_26 
REMARK    9  A    between atoms: O26_26  and  C27_27 
REMARK   10  A    between atoms: C38_38  and  C39_39 
ROOT
ATOM      1  N13 O5S d   1       3.047 -15.415  33.875  0.00  0.00    -0.339 N 
ATOM      2  C14 O5S d   1       2.413 -15.475  35.063  0.00  0.00     0.033 A 
ATOM      3  C18 O5S d   1       3.153 -14.703  35.967  0.00  0.00     0.067 A 
ATOM      4  C33 O5S d   1       4.278 -14.157  35.249  0.00  0.00     0.011 A 
ATOM      5  C34 O5S d   1       5.350 -13.311  35.669  0.00  0.00    -0.049 A 
ATOM      6  C35 O5S d   1       6.315 -12.950  34.711  0.00  0.00     0.035 A 
ATOM      7 CL36 O5S d   1       7.644 -11.880  35.191  0.00  0.00    -0.084 Cl
ATOM      8  C37 O5S d   1       6.237 -13.404  33.380  0.00  0.00    -0.054 A 
ATOM      9  C38 O5S d   1       5.183 -14.238  32.979  0.00  0.00    -0.033 A 
ATOM     10  C40 O5S d   1       4.186 -14.619  33.958  0.00  0.00     0.052 A 
ATOM     11  H31 O5S d   1       5.418 -12.959  36.692  0.00  0.00     0.087 H 
ATOM     12  H32 O5S d   1       6.994 -13.108  32.663  0.00  0.00     0.087 H 
ENDROOT
BRANCH   3  13
ATOM     13  C19 O5S d   1       2.857 -14.449  37.487  0.00  0.00     0.257 C 
ATOM     14  O20 O5S d   1       3.045 -15.316  38.278  0.00  0.00    -0.267 OA
ATOM     15  N21 O5S d   1       2.395 -13.107  37.916  0.00  0.00    -0.343 N 
ATOM     16  C22 O5S d   1       2.082 -12.809  39.314  0.00  0.00     0.002 C 
ATOM     17  C32 O5S d   1       2.134 -12.030  36.990  0.00  0.00     0.022 C 
ATOM     18  C23 O5S d   1       0.534 -12.712  39.431  0.00  0.00    -0.023 C 
ATOM     19  H19 O5S d   1       2.542 -11.854  39.608  0.00  0.00     0.064 H 
ATOM     20  H20 O5S d   1       2.459 -13.613  39.964  0.00  0.00     0.064 H 
ATOM     21  C24 O5S d   1      -0.071 -11.911  38.229  0.00  0.00    -0.015 A 
ATOM     22  H21 O5S d   1       0.276 -12.201  40.370  0.00  0.00     0.042 H 
ATOM     23  H22 O5S d   1       0.110 -13.727  39.437  0.00  0.00     0.042 H 
ATOM     24  C25 O5S d   1      -1.442 -11.486  38.339  0.00  0.00     0.075 A 
ATOM     25  C31 O5S d   1       0.667 -11.590  37.106  0.00  0.00    -0.031 A 
ATOM     26  C28 O5S d   1      -2.026 -10.763  37.286  0.00  0.00    -0.050 A 
ATOM     27  C29 O5S d   1      -1.277 -10.438  36.141  0.00  0.00    -0.080 A 
ATOM     28  H26 O5S d   1      -3.062 -10.453  37.356  0.00  0.00     0.087 H 
ATOM     29  C30 O5S d   1       0.062 -10.844  36.037  0.00  0.00    -0.075 A 
ATOM     30  H27 O5S d   1      -1.735  -9.873  35.337  0.00  0.00     0.083 H 
ATOM     31  H28 O5S d   1       0.638 -10.596  35.153  0.00  0.00     0.084 H 
ATOM     32  H29 O5S d   1       2.332 -12.374  35.964  0.00  0.00     0.071 H 
ATOM     33  H30 O5S d   1       2.790 -11.179  37.225  0.00  0.00     0.071 H 
BRANCH  24  34
ATOM     34  O26 O5S d   1      -2.176 -11.829  39.508  0.00  0.00    -0.355 OA
BRANCH  34  35
ATOM     35  C27 O5S d   1      -3.216 -10.943  39.907  0.00  0.00     0.010 C 
ATOM     36  H23 O5S d   1      -3.696 -11.328  40.819  0.00  0.00     0.066 H 
ATOM     37  H24 O5S d   1      -3.963 -10.869  39.103  0.00  0.00     0.066 H 
ATOM     38  H25 O5S d   1      -2.793  -9.948  40.108  0.00  0.00     0.066 H 
ENDBRANCH  34  35
ENDBRANCH  24  34
ENDBRANCH   3  13
BRANCH   2  39
ATOM     39  C15 O5S d   1       1.106 -16.243  35.399  0.00  0.00    -0.013 A 
ATOM     40  C16 O5S d   1      -0.180 -15.585  34.872  0.00  0.00    -0.056 A 
ATOM     41  C17 O5S d   1      -0.122 -16.095  36.311  0.00  0.00    -0.056 A 
ATOM     42  H15 O5S d   1      -0.800 -16.108  34.128  0.00  0.00     0.034 H 
ATOM     43  H16 O5S d   1      -0.202 -14.503  34.673  0.00  0.00     0.034 H 
ATOM     44  H17 O5S d   1      -0.103 -15.380  37.147  0.00  0.00     0.034 H 
ATOM     45  H18 O5S d   1      -0.700 -16.984  36.602  0.00  0.00     0.034 H 
ATOM     46  H14 O5S d   1       1.329 -17.292  35.155  0.00  0.00     0.049 H 
ENDBRANCH   2  39
BRANCH   1  47
ATOM     47  C12 O5S d   1       2.582 -16.082  32.649  0.00  0.00     0.074 C 
ATOM     48  H12 O5S d   1       3.441 -16.416  32.048  0.00  0.00     0.079 H 
ATOM     49  H13 O5S d   1       1.953 -16.948  32.902  0.00  0.00     0.079 H 
BRANCH  47  50
ATOM     50  C10 O5S d   1       1.752 -15.024  31.862  0.00  0.00     0.236 C 
ATOM     51  N09 O5S d   1       1.226 -15.374  30.543  0.00  0.00    -0.352 N 
ATOM     52  H11 O5S d   1       1.411 -16.279  30.160  0.00  0.00     0.163 HD
ATOM     53  O11 O5S d   1       1.545 -13.937  32.309  0.00  0.00    -0.272 OA
BRANCH  51  54
ATOM     54  C07 O5S d   1       0.428 -14.408  29.776  0.00  0.00     0.043 A 
ATOM     55  C06 O5S d   1      -0.203 -15.154  28.654  0.00  0.00     0.018 A 
ATOM     56  N05 O5S d   1       0.531 -14.282  27.688  0.00  0.00    -0.348 N 
ATOM     57  H6  O5S d   1       0.075 -16.217  28.605  0.00  0.00     0.067 H 
ATOM     58  H7  O5S d   1      -1.298 -15.059  28.607  0.00  0.00     0.067 H 
ATOM     59  C03 O5S d   1       0.535 -14.167  26.234  0.00  0.00     0.219 C 
ATOM     60  C08 O5S d   1       1.229 -13.589  28.821  0.00  0.00     0.018 A 
ATOM     61  O04 O5S d   1       1.224 -13.358  25.715  0.00  0.00    -0.273 OA
ATOM     62  H9  O5S d   1       1.036 -12.508  28.879  0.00  0.00     0.067 H 
ATOM     63  H10 O5S d   1       2.313 -13.771  28.865  0.00  0.00     0.067 H 
ATOM     64  H8  O5S d   1      -0.250 -13.832  30.424  0.00  0.00     0.077 H 
BRANCH  59  65
ATOM     65  C02 O5S d   1      -0.367 -15.109  25.404  0.00  0.00     0.006 C 
ATOM     66  H4  O5S d   1       0.162 -15.376  24.477  0.00  0.00     0.046 H 
ATOM     67  H5  O5S d   1      -0.560 -16.019  25.991  0.00  0.00     0.046 H 
BRANCH  65  68
ATOM     68  C01 O5S d   1      -1.714 -14.467  25.034  0.00  0.00    -0.068 C 
ATOM     69  H1  O5S d   1      -2.311 -15.180  24.447  0.00  0.00     0.028 H 
ATOM     70  H2  O5S d   1      -1.536 -13.559  24.438  0.00  0.00     0.028 H 
ATOM     71  H3  O5S d   1      -2.259 -14.202  25.952  0.00  0.00     0.028 H 
ENDBRANCH  65  68
ENDBRANCH  59  65
ENDBRANCH  51  54
ENDBRANCH  47  50
ENDBRANCH   1  47
BRANCH   9  72
ATOM     72  C39 O5S d   1       5.140 -14.715  31.512  0.00  0.00    -0.049 C 
ATOM     73  H33 O5S d   1       5.998 -14.297  30.965  0.00  0.00     0.033 H 
ATOM     74  H34 O5S d   1       4.205 -14.374  31.043  0.00  0.00     0.033 H 
ATOM     75  H35 O5S d   1       5.186 -15.814  31.482  0.00  0.00     0.033 H 
ENDBRANCH   9  72
TORSDOF 10
