REMARK  8 active torsions:
REMARK  status: ('A' for Active; 'I' for Inactive)
REMARK    1  A    between atoms: C17_3  and  C18_2 
REMARK       I    between atoms: N1_14  and  C17_3 
REMARK    2  A    between atoms: C6_20  and  C16_4 
REMARK    3  A    between atoms: N4_26  and  C15_5 
REMARK    4  A    between atoms: C23_10  and  O3_33 
REMARK    5  A    between atoms: C1_15  and  N1_14 
REMARK    6  A    between atoms: N2_21  and  C4_18 
REMARK       I    between atoms: C7_22  and  N2_21 
REMARK    7  A    between atoms: C8_24  and  C7_22 
REMARK    8  A    between atoms: O3_33  and  C25_34 
ROOT
ATOM      1  C1  ODJ d   1       0.453   1.758 -10.243  0.00  0.00     0.041 A 
ATOM      2  C2  ODJ d   1       1.300   0.785 -10.783  0.00  0.00    -0.054 A 
ATOM      3  C3  ODJ d   1       2.302   0.235 -10.000  0.00  0.00    -0.055 A 
ATOM      4  C4  ODJ d   1       2.451   0.630  -8.674  0.00  0.00     0.035 A 
ATOM      5  C5  ODJ d   1       1.635   1.636  -8.156  0.00  0.00    -0.049 A 
ATOM      6  C6  ODJ d   1       0.628   2.215  -8.920  0.00  0.00    -0.033 A 
ATOM      7  H15 ODJ d   1       1.173   0.462 -11.810  0.00  0.00     0.087 H 
ATOM      8  H16 ODJ d   1       2.972  -0.505 -10.422  0.00  0.00     0.087 H 
ATOM      9  H17 ODJ d   1       1.789   1.973  -7.137  0.00  0.00     0.087 H 
ENDROOT
BRANCH   1  10
ATOM     10  N1  ODJ d   1      -0.646   2.244 -10.986  0.00  0.00    -0.322 N 
ATOM     11  C17 ODJ d   1      -1.864   1.680 -10.986  0.00  0.00     0.260 C 
ATOM     12  O2  ODJ d   1      -2.125   0.631 -10.402  0.00  0.00    -0.267 OA
ATOM     13  H14 ODJ d   1      -0.508   3.060 -11.547  0.00  0.00     0.169 HD
BRANCH  11  14
ATOM     14  C18 ODJ d   1      -2.895   2.395 -11.754  0.00  0.00     0.080 A 
ATOM     15  C19 ODJ d   1      -4.245   2.085 -11.719  0.00  0.00     0.075 A 
ATOM     16  C21 ODJ d   1      -5.066   1.128 -11.101  0.00  0.00    -0.051 A 
ATOM     17  N5  ODJ d   1      -4.863   2.994 -12.625  0.00  0.00    -0.242 N 
ATOM     18  C22 ODJ d   1      -6.420   1.079 -11.392  0.00  0.00    -0.047 A 
ATOM     19  H9  ODJ d   1      -4.637   0.422 -10.391  0.00  0.00     0.087 H 
ATOM     20  C23 ODJ d   1      -6.970   2.006 -12.265  0.00  0.00     0.085 A 
ATOM     21  H10 ODJ d   1      -7.050   0.316 -10.937  0.00  0.00     0.087 H 
ATOM     22  C24 ODJ d   1      -6.183   2.961 -12.878  0.00  0.00     0.036 A 
ATOM     23  H11 ODJ d   1      -6.628   3.682 -13.562  0.00  0.00     0.119 H 
ATOM     24  N6  ODJ d   1      -3.981   3.831 -13.215  0.00  0.00    -0.179 NA
ATOM     25  C20 ODJ d   1      -2.784   3.451 -12.675  0.00  0.00     0.040 A 
ATOM     26  H8  ODJ d   1      -1.836   3.921 -12.933  0.00  0.00     0.119 H 
BRANCH  20  27
ATOM     27  O3  ODJ d   1      -8.326   1.983 -12.470  0.00  0.00    -0.355 OA
BRANCH  27  28
ATOM     28  C25 ODJ d   1      -8.894   2.948 -13.356  0.00  0.00     0.010 C 
ATOM     29  H20 ODJ d   1      -9.982   2.798 -13.413  0.00  0.00     0.066 H 
ATOM     30  H21 ODJ d   1      -8.455   2.829 -14.358  0.00  0.00     0.066 H 
ATOM     31  H22 ODJ d   1      -8.682   3.960 -12.980  0.00  0.00     0.066 H 
ENDBRANCH  27  28
ENDBRANCH  20  27
ENDBRANCH  11  14
ENDBRANCH   1  10
BRANCH   6  32
ATOM     32  C16 ODJ d   1      -0.211   3.329  -8.335  0.00  0.00    -0.049 C 
ATOM     33  H2  ODJ d   1       0.100   3.515  -7.296  0.00  0.00     0.033 H 
ATOM     34  H3  ODJ d   1      -1.272   3.038  -8.354  0.00  0.00     0.033 H 
ATOM     35  H4  ODJ d   1      -0.071   4.244  -8.929  0.00  0.00     0.033 H 
ENDBRANCH   6  32
BRANCH   4  36
ATOM     36  N2  ODJ d   1       3.365  -0.031  -7.823  0.00  0.00    -0.322 N 
ATOM     37  C7  ODJ d   1       3.127  -0.592  -6.602  0.00  0.00     0.277 C 
ATOM     38  O1  ODJ d   1       2.016  -0.659  -6.067  0.00  0.00    -0.266 OA
ATOM     39  H18 ODJ d   1       4.305  -0.096  -8.158  0.00  0.00     0.169 HD
BRANCH  37  40
ATOM     40  C8  ODJ d   1       4.348  -1.139  -5.904  0.00  0.00     0.157 A 
ATOM     41  N3  ODJ d   1       4.257  -1.988  -4.881  0.00  0.00    -0.166 NA
ATOM     42  N4  ODJ d   1       5.534  -2.424  -4.611  0.00  0.00    -0.273 N 
ATOM     43  C9  ODJ d   1       6.453  -1.847  -5.435  0.00  0.00     0.065 A 
ATOM     44  C11 ODJ d   1       7.836  -1.979  -5.520  0.00  0.00    -0.055 A 
ATOM     45  C10 ODJ d   1       5.734  -1.022  -6.310  0.00  0.00     0.028 A 
ATOM     46  C12 ODJ d   1       8.500  -1.296  -6.530  0.00  0.00    -0.081 A 
ATOM     47  H12 ODJ d   1       8.380  -2.599  -4.816  0.00  0.00     0.087 H 
ATOM     48  C13 ODJ d   1       7.801  -0.491  -7.420  0.00  0.00    -0.082 A 
ATOM     49  H13 ODJ d   1       9.576  -1.392  -6.625  0.00  0.00     0.083 H 
ATOM     50  C14 ODJ d   1       6.424  -0.342  -7.312  0.00  0.00    -0.068 A 
ATOM     51  H1  ODJ d   1       8.336   0.027  -8.208  0.00  0.00     0.083 H 
ATOM     52  H19 ODJ d   1       5.889   0.299  -8.003  0.00  0.00     0.085 H 
BRANCH  42  53
ATOM     53  C15 ODJ d   1       5.744  -3.449  -3.595  0.00  0.00     0.003 C 
ATOM     54  H5  ODJ d   1       6.818  -3.671  -3.515  0.00  0.00     0.059 H 
ATOM     55  H6  ODJ d   1       5.201  -4.363  -3.878  0.00  0.00     0.059 H 
ATOM     56  H7  ODJ d   1       5.372  -3.086  -2.626  0.00  0.00     0.059 H 
ENDBRANCH  42  53
ENDBRANCH  37  40
ENDBRANCH   4  36
TORSDOF 8
