REMARK  4 active torsions:
REMARK  status: ('A' for Active; 'I' for Inactive)
REMARK       I    between atoms: N9_25  and  C11_3 
REMARK       I    between atoms: C11_3  and  N12_27 
REMARK    1  A    between atoms: N12_27  and  C14_4 
REMARK    2  A    between atoms: C17_7  and  C20_10 
REMARK    3  A    between atoms: C20_10  and  N21_29 
REMARK    4  A    between atoms: C7_23  and  C5_21 
ROOT
ATOM      1  C14 OE4 d   1       7.262  -4.965  11.917  0.00  0.00     0.036 A 
ATOM      2  C15 OE4 d   1       7.213  -3.677  11.332  0.00  0.00    -0.057 A 
ATOM      3  C16 OE4 d   1       6.640  -3.492  10.055  0.00  0.00    -0.073 A 
ATOM      4  C17 OE4 d   1       6.126  -4.589   9.334  0.00  0.00    -0.040 A 
ATOM      5  C18 OE4 d   1       6.247  -5.887   9.861  0.00  0.00    -0.073 A 
ATOM      6  C19 OE4 d   1       6.825  -6.068  11.136  0.00  0.00    -0.057 A 
ATOM      7  H3  OE4 d   1       7.618  -2.827  11.868  0.00  0.00     0.086 H 
ATOM      8  H4  OE4 d   1       6.595  -2.498   9.625  0.00  0.00     0.084 H 
ATOM      9  H5  OE4 d   1       5.899  -6.742   9.293  0.00  0.00     0.084 H 
ATOM     10  H6  OE4 d   1       6.938  -7.072  11.528  0.00  0.00     0.086 H 
ENDROOT
BRANCH   1  11
ATOM     11  N12 OE4 d   1       7.993  -5.091  13.137  0.00  0.00    -0.309 N 
ATOM     12  C11 OE4 d   1       8.571  -6.188  13.710  0.00  0.00     0.322 C 
ATOM     13  N9  OE4 d   1       9.412  -6.057  14.794  0.00  0.00    -0.333 N 
ATOM     14  O13 OE4 d   1       8.334  -7.326  13.307  0.00  0.00    -0.247 OA
ATOM     15  C8  OE4 d   1       9.917  -4.831  15.375  0.00  0.00     0.008 C 
ATOM     16  C10 OE4 d   1      10.057  -7.134  15.498  0.00  0.00     0.008 C 
ATOM     17  C7  OE4 d   1      10.819  -5.907  16.062  0.00  0.00     0.004 C 
ATOM     18  H16 OE4 d   1      10.419  -4.131  14.691  0.00  0.00     0.065 H 
ATOM     19  H17 OE4 d   1       9.229  -4.275  16.028  0.00  0.00     0.065 H 
ATOM     20  H15 OE4 d   1      10.597  -5.857  17.138  0.00  0.00     0.052 H 
ATOM     21  H18 OE4 d   1       9.436  -7.696  16.211  0.00  0.00     0.065 H 
ATOM     22  H19 OE4 d   1      10.643  -7.838  14.888  0.00  0.00     0.065 H 
ATOM     23  H20 OE4 d   1       8.099  -4.242  13.654  0.00  0.00     0.170 HD
BRANCH  17  24
ATOM     24  C5  OE4 d   1      12.368  -5.863  16.054  0.00  0.00    -0.033 A 
ATOM     25  C4  OE4 d   1      13.136  -7.038  16.204  0.00  0.00     0.008 A 
ATOM     26  N3  OE4 d   1      14.504  -6.998  16.289  0.00  0.00    -0.273 NA
ATOM     27  H13 OE4 d   1      12.632  -7.996  16.253  0.00  0.00     0.115 H 
ATOM     28  C2  OE4 d   1      15.179  -5.820  16.268  0.00  0.00     0.002 A 
ATOM     29  C1  OE4 d   1      14.472  -4.618  16.132  0.00  0.00    -0.066 A 
ATOM     30  H2  OE4 d   1      16.259  -5.810  16.356  0.00  0.00     0.114 H 
ATOM     31  C6  OE4 d   1      13.074  -4.638  16.045  0.00  0.00    -0.074 A 
ATOM     32  H1  OE4 d   1      15.005  -3.675  16.094  0.00  0.00     0.085 H 
ATOM     33  H14 OE4 d   1      12.528  -3.705  15.970  0.00  0.00     0.084 H 
ENDBRANCH  17  24
ENDBRANCH   1  11
BRANCH   4  34
ATOM     34  C20 OE4 d   1       5.566  -4.364   7.932  0.00  0.00     0.030 C 
ATOM     35  H7  OE4 d   1       5.822  -5.236   7.312  0.00  0.00     0.072 H 
ATOM     36  H8  OE4 d   1       6.036  -3.463   7.511  0.00  0.00     0.072 H 
BRANCH  34  37
ATOM     37  N21 OE4 d   1       4.123  -4.186   7.900  0.00  0.00    -0.276 N 
ATOM     38  C22 OE4 d   1       3.488  -2.984   7.946  0.00  0.00     0.262 A 
ATOM     39  C23 OE4 d   1       2.014  -3.188   7.741  0.00  0.00     0.048 A 
ATOM     40  O31 OE4 d   1       3.954  -1.877   8.185  0.00  0.00    -0.267 OA
ATOM     41  C24 OE4 d   1       1.846  -4.559   7.510  0.00  0.00     0.048 A 
ATOM     42  C26 OE4 d   1       0.933  -2.298   7.774  0.00  0.00    -0.067 A 
ATOM     43  C25 OE4 d   1       3.225  -5.166   7.599  0.00  0.00     0.262 A 
ATOM     44  C29 OE4 d   1       0.581  -5.111   7.254  0.00  0.00    -0.067 A 
ATOM     45  O30 OE4 d   1       3.427  -6.362   7.434  0.00  0.00    -0.267 OA
ATOM     46  C28 OE4 d   1      -0.512  -4.219   7.256  0.00  0.00    -0.082 A 
ATOM     47  H12 OE4 d   1       0.450  -6.170   7.064  0.00  0.00     0.085 H 
ATOM     48  C27 OE4 d   1      -0.344  -2.840   7.517  0.00  0.00    -0.082 A 
ATOM     49  H11 OE4 d   1      -1.506  -4.601   7.052  0.00  0.00     0.083 H 
ATOM     50  H10 OE4 d   1      -1.210  -2.188   7.520  0.00  0.00     0.083 H 
ATOM     51  H9  OE4 d   1       1.071  -1.244   7.987  0.00  0.00     0.085 H 
ENDBRANCH  34  37
ENDBRANCH   4  34
TORSDOF 4
