REMARK  14 active torsions:
REMARK  status: ('A' for Active; 'I' for Inactive)
REMARK    1  A    between atoms: CAA_1  and  CBN_2 
REMARK    2  A    between atoms: CBN_2  and  CAB_3 
REMARK    3  A    between atoms: CBN_2  and  CBA_4 
REMARK    4  A    between atoms: CBA_4  and  OAD_5 
REMARK    5  A    between atoms: CBA_4  and  CBJ_6 
REMARK    6  A    between atoms: CBG_14  and  CAW_15 
REMARK    7  A    between atoms: CAW_15  and  CBB_16 
REMARK    8  A    between atoms: CBC_21  and  NAX_22 
REMARK    9  A    between atoms: NAX_22  and  NAY_23 
REMARK   10  A    between atoms: NAY_23  and  CBE_24 
REMARK   11  A    between atoms: CBI_28  and  SBQ_29 
REMARK   12  A    between atoms: CBH_34  and  SBP_35 
REMARK   13  A    between atoms: CBD_39  and  NAC_40 
REMARK   14  A    between atoms: CBF_42  and  OAI_43 
ROOT
ATOM      1  CBB MOL d   1      25.029   3.077 -49.281  0.00  0.00    -0.050 A 
ATOM      2  CAU MOL d   1      23.809   2.824 -49.857  0.00  0.00    -0.049 A 
ATOM      3  CAO MOL d   1      25.282   4.205 -48.515  0.00  0.00    -0.076 A 
ATOM      4  CAL MOL d   1      24.282   5.142 -48.348  0.00  0.00    -0.080 A 
ATOM      5  CAP MOL d   1      23.031   4.918 -48.946  0.00  0.00    -0.056 A 
ATOM      6  CBC MOL d   1      22.791   3.750 -49.684  0.00  0.00     0.048 A 
ATOM      7  H16 MOL d   1      23.645   1.921 -50.434  0.00  0.00     0.087 H 
ATOM      8  H17 MOL d   1      26.252   4.349 -48.053  0.00  0.00     0.084 H 
ATOM      9  H18 MOL d   1      24.460   6.038 -47.764  0.00  0.00     0.083 H 
ATOM     10  H19 MOL d   1      22.244   5.655 -48.836  0.00  0.00     0.087 H 
ENDROOT
BRANCH   1  11
ATOM     11  CAW MOL d   1      26.104   2.067 -49.527  0.00  0.00     0.002 C 
ATOM     12  H14 MOL d   1      25.906   1.552 -50.478  0.00  0.00     0.049 H 
ATOM     13  H15 MOL d   1      27.076   2.579 -49.583  0.00  0.00     0.049 H 
BRANCH  11  14
ATOM     14  CBG MOL d   1      26.140   1.048 -48.406  0.00  0.00     0.070 A 
ATOM     15  CBJ MOL d   1      27.238   0.365 -48.000  0.00  0.00     0.026 A 
ATOM     16  CBL MOL d   1      26.933  -0.481 -46.982  0.00  0.00     0.069 A 
ATOM     17  CAR MOL d   1      27.582  -1.439 -46.184  0.00  0.00    -0.054 A 
ATOM     18  NBO MOL d   1      25.544  -0.262 -46.752  0.00  0.00    -0.244 N 
ATOM     19  CAM MOL d   1      26.847  -2.111 -45.183  0.00  0.00    -0.079 A 
ATOM     20  H10 MOL d   1      28.637  -1.660 -46.336  0.00  0.00     0.087 H 
ATOM     21  CAN MOL d   1      25.485  -1.823 -44.988  0.00  0.00    -0.066 A 
ATOM     22  H11 MOL d   1      27.338  -2.856 -44.559  0.00  0.00     0.083 H 
ATOM     23  CAT MOL d   1      24.845  -0.891 -45.794  0.00  0.00     0.004 A 
ATOM     24  H12 MOL d   1      24.930  -2.333 -44.202  0.00  0.00     0.085 H 
ATOM     25  H13 MOL d   1      23.788  -0.673 -45.651  0.00  0.00     0.114 H 
ATOM     26  NAZ MOL d   1      25.092   0.693 -47.647  0.00  0.00    -0.171 NA
BRANCH  15  27
ATOM     27  CBA MOL d   1      28.597   0.481 -48.704  0.00  0.00     0.068 C 
ATOM     28  H8  MOL d   1      28.741   1.473 -48.250  0.00  0.00     0.091 H 
BRANCH  27  29
ATOM     29  CBN MOL d   1      29.920  -0.001 -48.138  0.00  0.00    -0.032 C 
ATOM     30  H4  MOL d   1      29.764  -0.840 -47.444  0.00  0.00     0.043 H 
BRANCH  29  31
ATOM     31  CAA MOL d   1      30.570   1.178 -47.411  0.00  0.00    -0.071 C 
ATOM     32  H1  MOL d   1      31.534   0.861 -46.987  0.00  0.00     0.028 H 
ATOM     33  H2  MOL d   1      29.908   1.519 -46.601  0.00  0.00     0.028 H 
ATOM     34  H3  MOL d   1      30.735   2.001 -48.122  0.00  0.00     0.028 H 
ENDBRANCH  29  31
BRANCH  29  35
ATOM     35  CAB MOL d   1      30.819  -0.444 -49.324  0.00  0.00    -0.071 C 
ATOM     36  H5  MOL d   1      30.349  -1.292 -49.844  0.00  0.00     0.028 H 
ATOM     37  H6  MOL d   1      31.805  -0.749 -48.943  0.00  0.00     0.028 H 
ATOM     38  H7  MOL d   1      30.941   0.395 -50.025  0.00  0.00     0.028 H 
ENDBRANCH  29  35
ENDBRANCH  27  29
BRANCH  27  39
ATOM     39  OAD MOL d   1      28.693   1.006 -49.998  0.00  0.00    -0.390 OA
ATOM     40  H9  MOL d   1      27.834   1.287 -50.289  0.00  0.00     0.210 HD
ENDBRANCH  27  39
ENDBRANCH  15  27
ENDBRANCH  11  14
ENDBRANCH   1  11
BRANCH   6  41
ATOM     41  NAX MOL d   1      21.520   3.443 -50.316  0.00  0.00    -0.300 N 
ATOM     42  H20 MOL d   1      21.477   2.830 -51.143  0.00  0.00     0.187 HD
BRANCH  41  43
ATOM     43  NAY MOL d   1      20.367   3.994 -49.780  0.00  0.00    -0.298 N 
ATOM     44  H21 MOL d   1      20.438   4.677 -49.012  0.00  0.00     0.187 HD
BRANCH  43  45
ATOM     45  CBE MOL d   1      19.087   3.626 -50.279  0.00  0.00     0.082 A 
ATOM     46  CAQ MOL d   1      18.015   4.467 -50.004  0.00  0.00    -0.052 A 
ATOM     47  CAS MOL d   1      16.740   4.216 -50.438  0.00  0.00    -0.068 A 
ATOM     48  H22 MOL d   1      18.196   5.362 -49.420  0.00  0.00     0.087 H 
ATOM     49  CBK MOL d   1      16.499   3.053 -51.212  0.00  0.00     0.004 A 
ATOM     50  H23 MOL d   1      15.930   4.894 -50.194  0.00  0.00     0.085 H 
ATOM     51  CBI MOL d   1      15.230   2.764 -51.678  0.00  0.00     0.093 A 
ATOM     52  CBM MOL d   1      17.567   2.143 -51.519  0.00  0.00     0.039 A 
ATOM     53  CAV MOL d   1      14.980   1.627 -52.406  0.00  0.00    -0.033 A 
ATOM     54  CBH MOL d   1      15.989   0.738 -52.715  0.00  0.00     0.109 A 
ATOM     55  H24 MOL d   1      13.970   1.424 -52.745  0.00  0.00     0.088 H 
ATOM     56  CBD MOL d   1      17.302   0.959 -52.294  0.00  0.00     0.064 A 
ATOM     57  CBF MOL d   1      18.854   2.472 -51.064  0.00  0.00     0.107 A 
BRANCH  51  58
ATOM     58  SBQ MOL d   1      13.876   3.870 -51.339  0.00  0.00     0.138 S 
ATOM     59  OAK MOL d   1      14.292   5.079 -52.091  0.00  0.00    -0.591 OA
ATOM     60  OAH MOL d   1      13.719   4.036 -49.832  0.00  0.00    -0.591 OA
ATOM     61  OAG MOL d   1      12.732   3.213 -52.001  0.00  0.00    -0.591 OA
ENDBRANCH  51  58
BRANCH  54  62
ATOM     62  SBP MOL d   1      15.547  -0.715 -53.672  0.00  0.00     0.140 S 
ATOM     63  OAJ MOL d   1      14.079  -0.742 -53.780  0.00  0.00    -0.591 OA
ATOM     64  OAF MOL d   1      16.329  -0.451 -54.949  0.00  0.00    -0.591 OA
ATOM     65  OAE MOL d   1      16.080  -1.883 -52.828  0.00  0.00    -0.591 OA
ENDBRANCH  54  62
BRANCH  56  66
ATOM     66  NAC MOL d   1      18.392   0.048 -52.626  0.00  0.00    -0.397 N 
ATOM     67  H25 MOL d   1      18.204  -0.799 -53.180  0.00  0.00     0.156 HD
ATOM     68  H26 MOL d   1      19.349   0.252 -52.306  0.00  0.00     0.156 HD
ENDBRANCH  56  66
BRANCH  57  69
ATOM     69  OAI MOL d   1      19.877   1.579 -51.360  0.00  0.00    -0.357 OA
ATOM     70  H27 MOL d   1      20.695   1.906 -51.004  0.00  0.00     0.217 HD
ENDBRANCH  57  69
ENDBRANCH  43  45
ENDBRANCH  41  43
ENDBRANCH   6  41
TORSDOF 14
