REMARK WARNING: 32 MAX_TORS EXCEEDED!!!
REMARK  51 active torsions:
REMARK  status: ('A' for Active; 'I' for Inactive)
REMARK    1  A    between atoms: N_1  and  CA_2 
REMARK    2  A    between atoms: CA_2  and  C_3 
REMARK       I    between atoms: C_3  and  N_5 
REMARK    3  A    between atoms: N_5  and  CA_6 
REMARK    4  A    between atoms: CA_6  and  C_7 
REMARK    5  A    between atoms: CA_6  and  CB_9 
REMARK       I    between atoms: C_7  and  N_16 
REMARK    6  A    between atoms: CB_9  and  CG_10 
REMARK    7  A    between atoms: CG_10  and  CD_11 
REMARK    8  A    between atoms: CD_11  and  NE_12 
REMARK       I    between atoms: NE_12  and  CZ_13 
REMARK       I    between atoms: CZ_13  and  NH1_14 
REMARK    9  A    between atoms: N_16  and  CA_17 
REMARK   10  A    between atoms: CA_17  and  C_18 
REMARK   11  A    between atoms: CA_17  and  CB_20 
REMARK       I    between atoms: C_18  and  N_24 
REMARK   12  A    between atoms: CB_20  and  CG_21 
REMARK   13  A    between atoms: CG_21  and  CD1_22 
REMARK   14  A    between atoms: CG_21  and  CD2_23 
REMARK   15  A    between atoms: N_24  and  CA_25 
REMARK   16  A    between atoms: CA_25  and  C_26 
REMARK       I    between atoms: C_26  and  N_28 
REMARK   17  A    between atoms: N_28  and  CA_29 
REMARK   18  A    between atoms: CA_29  and  C_30 
REMARK   19  A    between atoms: CA_29  and  CB_32 
REMARK       I    between atoms: C_30  and  N_39 
REMARK   20  A    between atoms: CB_32  and  CG_33 
REMARK   21  A    between atoms: N_39  and  CA_40 
REMARK   22  A    between atoms: CA_40  and  C_41 
REMARK   23  A    between atoms: CA_40  and  CB_43 
REMARK       I    between atoms: C_41  and  N_51 
REMARK   24  A    between atoms: CB_43  and  CG_44 
REMARK   25  A    between atoms: CZ_49  and  OH_50 
REMARK   26  A    between atoms: N_51  and  CA_52 
REMARK   27  A    between atoms: CA_52  and  C_53 
REMARK       I    between atoms: C_53  and  N_55 
REMARK   28  A    between atoms: N_55  and  CA_56 
REMARK   29  A    between atoms: CA_56  and  C_57 
REMARK   30  A    between atoms: CA_56  and  CB_59 
REMARK       I    between atoms: C_57  and  N_67 
REMARK   31  A    between atoms: CB_59  and  CG_60 
REMARK   32  A    between atoms: CZ_65  and  OH_66 
REMARK   33  A    between atoms: N_67  and  CA_68 
REMARK   34  A    between atoms: CA_68  and  C_69 
REMARK   35  A    between atoms: CA_68  and  CB_71 
REMARK       I    between atoms: C_69  and  N_75 
REMARK   36  A    between atoms: CB_71  and  CG_72 
REMARK   37  A    between atoms: N_75  and  CA_76 
REMARK   38  A    between atoms: CA_76  and  C_77 
REMARK   39  A    between atoms: CA_76  and  CB_79 
REMARK       I    between atoms: C_77  and  N_83 
REMARK   40  A    between atoms: CB_79  and  CG_80 
REMARK   41  A    between atoms: CG_80  and  CD1_81 
REMARK   42  A    between atoms: CG_80  and  CD2_82 
REMARK   43  A    between atoms: N_83  and  CA_84 
REMARK   44  A    between atoms: CA_84  and  C_85 
REMARK   45  A    between atoms: CA_84  and  CB_87 
REMARK       I    between atoms: C_85  and  N_92 
REMARK   46  A    between atoms: CB_87  and  CG_88 
REMARK   47  A    between atoms: CG_88  and  CD_89 
REMARK       I    between atoms: CD_89  and  NE2_91 
REMARK   48  A    between atoms: N_92  and  CA_93 
REMARK   49  A    between atoms: CA_93  and  C_94 
REMARK   50  A    between atoms: CA_93  and  CB_96 
REMARK   51  A    between atoms: CB_96  and  CG_97 
ROOT
ATOM      1  CA  GLY d   1      44.986  64.691  16.770  0.00  0.00     0.093 C 
ATOM      2  H43 GLY d   1      44.234  63.888  16.791  0.00  0.00     0.088 H 
ENDROOT
BRANCH   1   3
ATOM      3  N   GLY d   1      46.278  64.083  16.463  0.00  0.00    -0.346 N 
ATOM      4  C   GLY d   1      46.606  62.863  16.880  0.00  0.00     0.241 C 
ATOM      5  O   GLY d   1      45.912  62.192  17.652  0.00  0.00    -0.271 OA
ATOM      6  H42 GLY d   1      46.939  64.602  15.921  0.00  0.00     0.163 HD
BRANCH   4   7
ATOM      7  CA  GLY d   1      47.916  62.311  16.338  0.00  0.00     0.093 C 
ATOM      8  H34 GLY d   1      48.701  63.068  16.481  0.00  0.00     0.088 H 
BRANCH   7   9
ATOM      9  N   GLY d   1      48.299  61.099  17.071  0.00  0.00    -0.346 N 
ATOM     10  C   GLY d   1      49.574  60.789  17.275  0.00  0.00     0.236 C 
ATOM     11  O   GLY d   1      50.508  61.496  16.875  0.00  0.00    -0.272 OA
ATOM     12  H33 GLY d   1      47.585  60.494  17.424  0.00  0.00     0.163 HD
BRANCH  10  13
ATOM     13  CA  GLY d   1      49.846  59.473  17.987  0.00  0.00     0.069 C 
ATOM     14  H31 GLY d   1      50.087  59.673  19.041  0.00  0.00     0.078 H 
ATOM     15  H32 GLY d   1      48.951  58.836  17.930  0.00  0.00     0.078 H 
BRANCH  13  16
ATOM     16  N   GLY d   1      50.977  58.781  17.352  0.00  0.00    -0.351 N 
ATOM     17  C   GLY d   1      50.908  58.305  16.111  0.00  0.00     0.240 C 
ATOM     18  O   GLY d   1      49.860  58.304  15.448  0.00  0.00    -0.271 OA
ATOM     19  H30 GLY d   1      51.825  58.664  17.869  0.00  0.00     0.163 HD
BRANCH  17  20
ATOM     20  CA  GLY d   1      52.208  57.719  15.527  0.00  0.00     0.089 C 
ATOM     21  H20 GLY d   1      52.834  57.342  16.349  0.00  0.00     0.087 H 
BRANCH  20  22
ATOM     22  N   GLY d   1      51.903  56.622  14.613  0.00  0.00    -0.346 N 
ATOM     23  C   GLY d   1      51.220  55.532  14.965  0.00  0.00     0.241 C 
ATOM     24  O   GLY d   1      51.068  55.164  16.137  0.00  0.00    -0.271 OA
ATOM     25  H19 GLY d   1      52.225  56.692  13.669  0.00  0.00     0.163 HD
BRANCH  23  26
ATOM     26  CA  GLY d   1      50.642  54.730  13.794  0.00  0.00     0.089 C 
ATOM     27  H7  GLY d   1      51.410  54.709  13.007  0.00  0.00     0.087 H 
BRANCH  26  28
ATOM     28  N   GLY d   1      50.325  53.341  14.121  0.00  0.00    -0.346 N 
ATOM     29  C   GLY d   1      51.237  52.371  14.124  0.00  0.00     0.243 C 
ATOM     30  O   GLY d   1      52.444  52.569  13.950  0.00  0.00    -0.272 OA
ATOM     31  H6  GLY d   1      49.380  53.109  14.353  0.00  0.00     0.163 HD
BRANCH  29  32
ATOM     32  CA  GLY d   1      50.704  50.969  14.363  0.00  0.00     0.152 C 
ATOM     33  H4  GLY d   1      49.881  50.781  13.657  0.00  0.00     0.090 H 
ATOM     34  H5  GLY d   1      51.515  50.249  14.181  0.00  0.00     0.090 H 
BRANCH  32  35
ATOM     35  N   GLY d   1      50.196  50.772  15.749  0.00  0.00    -0.071 N 
ATOM     36  H1  GLY d   1      49.856  49.829  15.851  0.00  0.00     0.274 HD
ATOM     37  H2  GLY d   1      49.445  51.421  15.927  0.00  0.00     0.274 HD
ATOM     38  H3  GLY d   1      50.943  50.933  16.407  0.00  0.00     0.274 HD
ENDBRANCH  32  35
ENDBRANCH  29  32
ENDBRANCH  26  28
BRANCH  26  39
ATOM     39  CB  GLY d   1      49.402  55.442  13.222  0.00  0.00    -0.036 C 
ATOM     40  H8  GLY d   1      49.194  56.321  13.850  0.00  0.00     0.036 H 
ATOM     41  H9  GLY d   1      48.553  54.744  13.275  0.00  0.00     0.036 H 
BRANCH  39  42
ATOM     42  CG  GLY d   1      49.537  55.914  11.778  0.00  0.00    -0.048 C 
ATOM     43  H10 GLY d   1      50.565  56.274  11.624  0.00  0.00     0.035 H 
ATOM     44  H11 GLY d   1      48.831  56.741  11.615  0.00  0.00     0.035 H 
BRANCH  42  45
ATOM     45  CD  GLY d   1      49.249  54.824  10.750  0.00  0.00     0.009 C 
ATOM     46  H12 GLY d   1      49.669  53.876  11.116  0.00  0.00     0.064 H 
ATOM     47  H13 GLY d   1      49.733  55.098   9.801  0.00  0.00     0.064 H 
BRANCH  45  48
ATOM     48  NE  GLY d   1      47.814  54.639  10.508  0.00  0.00    -0.227 N 
ATOM     49  CZ  GLY d   1      47.289  53.802   9.608  0.00  0.00     0.665 C 
ATOM     50  NH1 GLY d   1      48.069  53.048   8.837  0.00  0.00    -0.235 N 
ATOM     51  NH2 GLY d   1      45.969  53.717   9.476  0.00  0.00    -0.235 N 
ATOM     52  H15 GLY d   1      47.648  52.408   8.148  0.00  0.00     0.174 HD
ATOM     53  H16 GLY d   1      49.093  53.104   8.929  0.00  0.00     0.174 HD
ATOM     54  H17 GLY d   1      45.354  54.295  10.066  0.00  0.00     0.174 HD
ATOM     55  H18 GLY d   1      45.561  53.073   8.783  0.00  0.00     0.174 HD
ATOM     56  H14 GLY d   1      47.160  55.197  11.076  0.00  0.00     0.177 HD
ENDBRANCH  45  48
ENDBRANCH  42  45
ENDBRANCH  39  42
ENDBRANCH  26  39
ENDBRANCH  23  26
ENDBRANCH  20  22
BRANCH  20  57
ATOM     57  CB  GLY d   1      52.974  58.809  14.766  0.00  0.00    -0.035 C 
ATOM     58  H21 GLY d   1      52.565  59.760  15.137  0.00  0.00     0.037 H 
ATOM     59  H22 GLY d   1      52.693  58.675  13.711  0.00  0.00     0.037 H 
BRANCH  57  60
ATOM     60  CG  GLY d   1      54.507  59.007  14.753  0.00  0.00    -0.059 C 
ATOM     61  H23 GLY d   1      54.720  59.787  15.499  0.00  0.00     0.038 H 
BRANCH  60  62
ATOM     62  CD1 GLY d   1      55.350  57.804  15.150  0.00  0.00    -0.073 C 
ATOM     63  H24 GLY d   1      56.416  58.071  15.101  0.00  0.00     0.028 H 
ATOM     64  H25 GLY d   1      55.149  56.971  14.460  0.00  0.00     0.028 H 
ATOM     65  H26 GLY d   1      55.095  57.500  16.176  0.00  0.00     0.028 H 
ENDBRANCH  60  62
BRANCH  60  66
ATOM     66  CD2 GLY d   1      54.953  59.541  13.397  0.00  0.00    -0.073 C 
ATOM     67  H27 GLY d   1      54.335  60.409  13.124  0.00  0.00     0.028 H 
ATOM     68  H28 GLY d   1      54.837  58.755  12.637  0.00  0.00     0.028 H 
ATOM     69  H29 GLY d   1      56.009  59.845  13.452  0.00  0.00     0.028 H 
ENDBRANCH  60  66
ENDBRANCH  57  60
ENDBRANCH  20  57
ENDBRANCH  17  20
ENDBRANCH  13  16
ENDBRANCH  10  13
ENDBRANCH   7   9
BRANCH   7  70
ATOM     70  CB  GLY d   1      47.787  62.018  14.829  0.00  0.00    -0.014 C 
ATOM     71  H35 GLY d   1      48.702  61.507  14.494  0.00  0.00     0.043 H 
ATOM     72  H36 GLY d   1      47.686  62.975  14.296  0.00  0.00     0.043 H 
BRANCH  70  73
ATOM     73  CG  GLY d   1      46.604  61.152  14.482  0.00  0.00    -0.056 A 
ATOM     74  CD1 GLY d   1      46.693  59.752  14.564  0.00  0.00    -0.077 A 
ATOM     75  CE1 GLY d   1      45.595  58.949  14.258  0.00  0.00    -0.082 A 
ATOM     76  H37 GLY d   1      47.626  59.291  14.869  0.00  0.00     0.084 H 
ATOM     77  CZ  GLY d   1      44.395  59.534  13.861  0.00  0.00    -0.083 A 
ATOM     78  H39 GLY d   1      45.675  57.870  14.329  0.00  0.00     0.083 H 
ATOM     79  CE2 GLY d   1      44.291  60.924  13.782  0.00  0.00    -0.082 A 
ATOM     80  H41 GLY d   1      43.543  58.911  13.614  0.00  0.00     0.083 H 
ATOM     81  CD2 GLY d   1      45.388  61.731  14.082  0.00  0.00    -0.077 A 
ATOM     82  H40 GLY d   1      43.352  61.378  13.486  0.00  0.00     0.083 H 
ATOM     83  H38 GLY d   1      45.302  62.809  14.006  0.00  0.00     0.084 H 
ENDBRANCH  70  73
ENDBRANCH   7  70
ENDBRANCH   4   7
ENDBRANCH   1   3
BRANCH   1  84
ATOM     84  C   GLY d   1      44.584  65.695  15.698  0.00  0.00     0.241 C 
ATOM     85  O   GLY d   1      45.429  66.414  15.166  0.00  0.00    -0.271 OA
ATOM     86  N   GLY d   1      43.289  65.741  15.396  0.00  0.00    -0.351 N 
ATOM     87  H51 GLY d   1      42.675  65.046  15.771  0.00  0.00     0.163 HD
BRANCH  86  88
ATOM     88  CA  GLY d   1      42.744  66.781  14.531  0.00  0.00     0.069 C 
ATOM     89  H52 GLY d   1      43.546  67.099  13.849  0.00  0.00     0.078 H 
ATOM     90  H53 GLY d   1      42.451  67.626  15.172  0.00  0.00     0.078 H 
BRANCH  88  91
ATOM     91  C   GLY d   1      41.548  66.413  13.687  0.00  0.00     0.236 C 
ATOM     92  O   GLY d   1      40.912  67.292  13.112  0.00  0.00    -0.272 OA
ATOM     93  N   GLY d   1      41.224  65.127  13.608  0.00  0.00    -0.346 N 
ATOM     94  H54 GLY d   1      41.763  64.450  14.109  0.00  0.00     0.163 HD
BRANCH  93  95
ATOM     95  CA  GLY d   1      40.089  64.690  12.798  0.00  0.00     0.093 C 
ATOM     96  H55 GLY d   1      39.353  65.507  12.826  0.00  0.00     0.088 H 
BRANCH  95  97
ATOM     97  C   GLY d   1      39.384  63.448  13.303  0.00  0.00     0.241 C 
ATOM     98  O   GLY d   1      39.961  62.639  14.034  0.00  0.00    -0.271 OA
ATOM     99  N   GLY d   1      38.120  63.331  12.909  0.00  0.00    -0.345 N 
ATOM    100  H63 GLY d   1      37.669  64.130  12.512  0.00  0.00     0.163 HD
BRANCH  99 101
ATOM    101  CA  GLY d   1      37.359  62.094  13.028  0.00  0.00     0.098 C 
ATOM    102  H64 GLY d   1      37.953  61.359  13.591  0.00  0.00     0.088 H 
BRANCH 101 103
ATOM    103  C   GLY d   1      37.058  61.548  11.641  0.00  0.00     0.241 C 
ATOM    104  O   GLY d   1      36.915  62.311  10.687  0.00  0.00    -0.271 OA
ATOM    105  N   GLY d   1      36.968  60.222  11.557  0.00  0.00    -0.346 N 
ATOM    106  H67 GLY d   1      37.192  59.683  12.369  0.00  0.00     0.163 HD
BRANCH 105 107
ATOM    107  CA  GLY d   1      36.562  59.510  10.350  0.00  0.00     0.089 C 
ATOM    108  H68 GLY d   1      36.032  60.191   9.668  0.00  0.00     0.087 H 
BRANCH 107 109
ATOM    109  C   GLY d   1      35.637  58.390  10.804  0.00  0.00     0.241 C 
ATOM    110  O   GLY d   1      35.988  57.628  11.702  0.00  0.00    -0.271 OA
ATOM    111  N   GLY d   1      34.455  58.300  10.199  0.00  0.00    -0.346 N 
ATOM    112  H78 GLY d   1      34.190  58.993   9.528  0.00  0.00     0.163 HD
BRANCH 111 113
ATOM    113  CA  GLY d   1      33.536  57.197  10.504  0.00  0.00     0.090 C 
ATOM    114  H79 GLY d   1      33.455  57.103  11.597  0.00  0.00     0.087 H 
BRANCH 113 115
ATOM    115  C   GLY d   1      34.086  55.892   9.945  0.00  0.00     0.241 C 
ATOM    116  O   GLY d   1      34.876  55.914   8.999  0.00  0.00    -0.271 OA
ATOM    117  N   GLY d   1      33.708  54.768  10.549  0.00  0.00    -0.344 N 
ATOM    118  H86 GLY d   1      33.071  54.807  11.319  0.00  0.00     0.163 HD
BRANCH 117 119
ATOM    119  CA  GLY d   1      34.222  53.471  10.090  0.00  0.00     0.105 C 
ATOM    120  H87 GLY d   1      35.192  53.671   9.611  0.00  0.00     0.090 H 
BRANCH 119 121
ATOM    121  C   GLY d   1      33.334  52.829   9.021  0.00  0.00     0.197 C 
ATOM    122  O   GLY d   1      32.622  53.526   8.285  0.00  0.00    -0.646 OA
ATOM    123  OXT GLY d   1      33.310  51.600   8.871  0.00  0.00    -0.646 OA
ENDBRANCH 119 121
BRANCH 119 124
ATOM    124  CB  GLY d   1      34.499  52.514  11.265  0.00  0.00     0.044 C 
ATOM    125  H88 GLY d   1      35.428  52.829  11.763  0.00  0.00     0.053 H 
ATOM    126  H89 GLY d   1      34.623  51.496  10.867  0.00  0.00     0.053 H 
BRANCH 124 127
ATOM    127  CG  GLY d   1      33.385  52.499  12.288  0.00  0.00     0.175 C 
ATOM    128  OD1 GLY d   1      32.244  52.167  11.916  0.00  0.00    -0.648 OA
ATOM    129  OD2 GLY d   1      33.651  52.811  13.465  0.00  0.00    -0.648 OA
ENDBRANCH 124 127
ENDBRANCH 119 124
ENDBRANCH 117 119
ENDBRANCH 113 115
BRANCH 113 130
ATOM    130  CB  GLY d   1      32.150  57.473   9.943  0.00  0.00    -0.030 C 
ATOM    131  H80 GLY d   1      31.551  56.553  10.019  0.00  0.00     0.037 H 
ATOM    132  H81 GLY d   1      32.250  57.759   8.886  0.00  0.00     0.037 H 
BRANCH 130 133
ATOM    133  CG  GLY d   1      31.425  58.585  10.678  0.00  0.00     0.011 C 
ATOM    134  H82 GLY d   1      32.096  59.452  10.765  0.00  0.00     0.047 H 
ATOM    135  H83 GLY d   1      31.152  58.230  11.683  0.00  0.00     0.047 H 
BRANCH 133 136
ATOM    136  CD  GLY d   1      30.174  59.005   9.950  0.00  0.00     0.215 C 
ATOM    137  OE1 GLY d   1      30.175  59.988   9.201  0.00  0.00    -0.274 OA
ATOM    138  NE2 GLY d   1      29.096  58.249  10.153  0.00  0.00    -0.370 N 
ATOM    139  H84 GLY d   1      28.234  58.475   9.699  0.00  0.00     0.159 HD
ATOM    140  H85 GLY d   1      29.149  57.456  10.760  0.00  0.00     0.159 HD
ENDBRANCH 133 136
ENDBRANCH 130 133
ENDBRANCH 113 130
ENDBRANCH 111 113
ENDBRANCH 107 109
BRANCH 107 141
ATOM    141  CB  GLY d   1      37.789  58.918   9.633  0.00  0.00    -0.035 C 
ATOM    142  H69 GLY d   1      38.360  58.350  10.382  0.00  0.00     0.037 H 
ATOM    143  H70 GLY d   1      38.394  59.764   9.274  0.00  0.00     0.037 H 
BRANCH 141 144
ATOM    144  CG  GLY d   1      37.559  57.980   8.430  0.00  0.00    -0.059 C 
ATOM    145  H71 GLY d   1      36.703  57.331   8.666  0.00  0.00     0.038 H 
BRANCH 144 146
ATOM    146  CD1 GLY d   1      37.219  58.768   7.173  0.00  0.00    -0.073 C 
ATOM    147  H72 GLY d   1      37.061  58.072   6.336  0.00  0.00     0.028 H 
ATOM    148  H73 GLY d   1      38.048  59.450   6.932  0.00  0.00     0.028 H 
ATOM    149  H74 GLY d   1      36.302  59.351   7.343  0.00  0.00     0.028 H 
ENDBRANCH 144 146
BRANCH 144 150
ATOM    150  CD2 GLY d   1      38.773  57.092   8.192  0.00  0.00    -0.073 C 
ATOM    151  H75 GLY d   1      39.003  56.531   9.110  0.00  0.00     0.028 H 
ATOM    152  H76 GLY d   1      39.636  57.717   7.918  0.00  0.00     0.028 H 
ATOM    153  H77 GLY d   1      38.557  56.387   7.376  0.00  0.00     0.028 H 
ENDBRANCH 144 150
ENDBRANCH 141 144
ENDBRANCH 107 141
ENDBRANCH 105 107
ENDBRANCH 101 103
BRANCH 101 154
ATOM    154  CB  GLY d   1      36.039  62.336  13.756  0.00  0.00     0.043 C 
ATOM    155  H65 GLY d   1      35.396  61.454  13.618  0.00  0.00     0.052 H 
ATOM    156  H66 GLY d   1      35.552  63.218  13.315  0.00  0.00     0.052 H 
BRANCH 154 157
ATOM    157  CG  GLY d   1      36.217  62.575  15.237  0.00  0.00     0.175 C 
ATOM    158  OD1 GLY d   1      37.321  62.345  15.760  0.00  0.00    -0.648 OA
ATOM    159  OD2 GLY d   1      35.233  62.992  15.885  0.00  0.00    -0.648 OA
ENDBRANCH 154 157
ENDBRANCH 101 154
ENDBRANCH  99 101
ENDBRANCH  95  97
BRANCH  95 160
ATOM    160  CB  GLY d   1      40.499  64.487  11.332  0.00  0.00    -0.014 C 
ATOM    161  H56 GLY d   1      40.849  65.452  10.937  0.00  0.00     0.043 H 
ATOM    162  H57 GLY d   1      39.611  64.161  10.770  0.00  0.00     0.043 H 
BRANCH 160 163
ATOM    163  CG  GLY d   1      41.594  63.466  11.117  0.00  0.00    -0.056 A 
ATOM    164  CD1 GLY d   1      41.301  62.094  11.027  0.00  0.00    -0.074 A 
ATOM    165  CE1 GLY d   1      42.314  61.153  10.821  0.00  0.00    -0.051 A 
ATOM    166  H58 GLY d   1      40.274  61.761  11.119  0.00  0.00     0.084 H 
ATOM    167  CZ  GLY d   1      43.626  61.591  10.687  0.00  0.00     0.065 A 
ATOM    168  H60 GLY d   1      42.079  60.096  10.767  0.00  0.00     0.087 H 
ATOM    169  CE2 GLY d   1      43.940  62.941  10.784  0.00  0.00    -0.051 A 
ATOM    170  CD2 GLY d   1      42.926  63.870  10.990  0.00  0.00    -0.074 A 
ATOM    171  H61 GLY d   1      44.970  63.268  10.700  0.00  0.00     0.087 H 
ATOM    172  H59 GLY d   1      43.172  64.924  11.053  0.00  0.00     0.084 H 
BRANCH 167 173
ATOM    173  OH  GLY d   1      44.632  60.687  10.488  0.00  0.00    -0.361 OA
ATOM    174  H62 GLY d   1      45.079  60.886   9.674  0.00  0.00     0.217 HD
ENDBRANCH 167 173
ENDBRANCH 160 163
ENDBRANCH  95 160
ENDBRANCH  93  95
ENDBRANCH  88  91
ENDBRANCH  86  88
ENDBRANCH   1  84
BRANCH   1 175
ATOM    175  CB  GLY d   1      44.982  65.389  18.147  0.00  0.00    -0.014 C 
ATOM    176  H44 GLY d   1      45.651  66.261  18.110  0.00  0.00     0.043 H 
ATOM    177  H45 GLY d   1      45.342  64.683  18.910  0.00  0.00     0.043 H 
BRANCH 175 178
ATOM    178  CG  GLY d   1      43.588  65.849  18.517  0.00  0.00    -0.056 A 
ATOM    179  CD1 GLY d   1      42.665  64.949  19.062  0.00  0.00    -0.074 A 
ATOM    180  CE1 GLY d   1      41.369  65.347  19.366  0.00  0.00    -0.051 A 
ATOM    181  H46 GLY d   1      42.966  63.925  19.250  0.00  0.00     0.084 H 
ATOM    182  CZ  GLY d   1      40.975  66.663  19.129  0.00  0.00     0.065 A 
ATOM    183  H48 GLY d   1      40.666  64.636  19.786  0.00  0.00     0.087 H 
ATOM    184  CE2 GLY d   1      41.866  67.574  18.570  0.00  0.00    -0.051 A 
ATOM    185  CD2 GLY d   1      43.165  67.168  18.264  0.00  0.00    -0.074 A 
ATOM    186  H49 GLY d   1      41.553  68.593  18.373  0.00  0.00     0.087 H 
ATOM    187  H47 GLY d   1      43.858  67.877  17.826  0.00  0.00     0.084 H 
BRANCH 182 188
ATOM    188  OH  GLY d   1      39.682  67.037  19.434  0.00  0.00    -0.361 OA
ATOM    189  H50 GLY d   1      39.242  67.324  18.643  0.00  0.00     0.217 HD
ENDBRANCH 182 188
ENDBRANCH 175 178
ENDBRANCH   1 175
TORSDOF 51
