REMARK  6 active torsions:
REMARK  status: ('A' for Active; 'I' for Inactive)
REMARK    1  A    between atoms: C4_11  and  N4_10 
REMARK    2  A    between atoms: C7_28  and  C5_13 
REMARK       I    between atoms: C14_20  and  N5_14 
REMARK    3  A    between atoms: N5_14  and  C15_21 
REMARK    4  A    between atoms: C11_17  and  C14_20 
REMARK    5  A    between atoms: C20_26  and  C21_27 
REMARK    6  A    between atoms: C7_28  and  C8_29 
ROOT
ATOM      1  C10 OE7 d   1      -6.010   3.939  26.134  0.00  0.00    -0.067 A 
ATOM      2  C11 OE7 d   1      -5.765   3.365  24.866  0.00  0.00     0.032 A 
ATOM      3  C12 OE7 d   1      -4.783   3.943  24.030  0.00  0.00    -0.067 A 
ATOM      4  C13 OE7 d   1      -4.055   5.071  24.458  0.00  0.00    -0.076 A 
ATOM      5  C8  OE7 d   1      -4.302   5.633  25.727  0.00  0.00    -0.054 A 
ATOM      6  C9  OE7 d   1      -5.281   5.062  26.564  0.00  0.00    -0.076 A 
ATOM      7  H8  OE7 d   1      -6.767   3.510  26.781  0.00  0.00     0.085 H 
ATOM      8  H9  OE7 d   1      -4.588   3.516  23.053  0.00  0.00     0.085 H 
ATOM      9  H10 OE7 d   1      -3.304   5.508  23.810  0.00  0.00     0.084 H 
ATOM     10  H16 OE7 d   1      -5.473   5.489  27.542  0.00  0.00     0.084 H 
ENDROOT
BRANCH   5  11
ATOM     11  C7  OE7 d   1      -3.535   6.844  26.222  0.00  0.00    -0.015 C 
ATOM     12  H14 OE7 d   1      -4.189   7.410  26.901  0.00  0.00     0.047 H 
ATOM     13  H15 OE7 d   1      -2.652   6.489  26.774  0.00  0.00     0.047 H 
BRANCH  11  14
ATOM     14  C5  OE7 d   1      -3.065   7.778  25.135  0.00  0.00    -0.019 A 
ATOM     15  C2  OE7 d   1      -3.867   8.644  24.319  0.00  0.00     0.085 A 
ATOM     16  C1  OE7 d   1      -3.027   9.319  23.473  0.00  0.00     0.137 A 
ATOM     17  C3  OE7 d   1      -5.313   8.936  24.200  0.00  0.00     0.274 A 
ATOM     18  N1  OE7 d   1      -3.401  10.251  22.517  0.00  0.00    -0.176 N 
ATOM     19  N3  OE7 d   1      -1.742   8.914  23.738  0.00  0.00    -0.350 N 
ATOM     20  C4  OE7 d   1      -4.684  10.475  22.453  0.00  0.00     0.680 A 
ATOM     21  H1  OE7 d   1      -2.721  10.727  21.907  0.00  0.00     0.186 HD
ATOM     22  N2  OE7 d   1      -5.642   9.846  23.265  0.00  0.00    -0.155 N 
ATOM     23  H2  OE7 d   1      -6.606  10.084  23.144  0.00  0.00     0.187 HD
ATOM     24  C6  OE7 d   1      -1.759   7.976  24.750  0.00  0.00    -0.014 A 
ATOM     25  H3  OE7 d   1      -0.898   9.257  23.257  0.00  0.00     0.166 HD
ATOM     26  H7  OE7 d   1      -0.887   7.478  25.172  0.00  0.00     0.112 H 
ATOM     27  O1  OE7 d   1      -6.158   8.392  24.904  0.00  0.00    -0.267 OA
BRANCH  20  28
ATOM     28  N4  OE7 d   1      -5.273  11.362  21.576  0.00  0.00    -0.234 N 
ATOM     29  H4  OE7 d   1      -4.691  11.898  20.917  0.00  0.00     0.174 HD
ATOM     30  H5  OE7 d   1      -6.295  11.489  21.581  0.00  0.00     0.174 HD
ENDBRANCH  20  28
ENDBRANCH  11  14
ENDBRANCH   5  11
BRANCH   2  31
ATOM     31  C14 OE7 d   1      -6.552   2.166  24.419  0.00  0.00     0.256 C 
ATOM     32  O2  OE7 d   1      -7.507   1.778  25.095  0.00  0.00    -0.267 OA
ATOM     33  N5  OE7 d   1      -6.107   1.585  23.289  0.00  0.00    -0.322 N 
ATOM     34  H6  OE7 d   1      -5.303   2.018  22.881  0.00  0.00     0.169 HD
BRANCH  33  35
ATOM     35  C15 OE7 d   1      -6.601   0.448  22.580  0.00  0.00     0.053 A 
ATOM     36  C16 OE7 d   1      -7.840  -0.154  22.921  0.00  0.00    -0.035 A 
ATOM     37  C17 OE7 d   1      -8.322  -1.270  22.220  0.00  0.00     0.036 A 
ATOM     38  H11 OE7 d   1      -8.424   0.255  23.737  0.00  0.00     0.089 H 
ATOM     39  C18 OE7 d   1      -7.576  -1.803  21.159  0.00  0.00    -0.061 A 
ATOM     40 CL1  OE7 d   1      -9.830  -1.979  22.662  0.00  0.00    -0.084 Cl
ATOM     41  C19 OE7 d   1      -6.347  -1.220  20.802  0.00  0.00    -0.063 A 
ATOM     42  H12 OE7 d   1      -7.946  -2.664  20.614  0.00  0.00     0.086 H 
ATOM     43  C20 OE7 d   1      -5.842  -0.094  21.498  0.00  0.00     0.067 A 
ATOM     44  H13 OE7 d   1      -5.777  -1.639  19.981  0.00  0.00     0.085 H 
BRANCH  43  45
ATOM     45  C21 OE7 d   1      -4.516   0.488  21.066  0.00  0.00     0.211 C 
ATOM     46  O3  OE7 d   1      -4.456   1.850  21.131  0.00  0.00    -0.644 OA
ATOM     47  O4  OE7 d   1      -3.568  -0.204  20.692  0.00  0.00    -0.644 OA
ENDBRANCH  43  45
ENDBRANCH  33  35
ENDBRANCH   2  31
TORSDOF 6
