REMARK  7 active torsions:
REMARK  status: ('A' for Active; 'I' for Inactive)
REMARK    1  A    between atoms: C11_11  and  C14_14 
REMARK       I    between atoms: C14_14  and  N5_30 
REMARK    2  A    between atoms: N5_30  and  C15_15 
REMARK    3  A    between atoms: C16_16  and  C21_21 
REMARK    4  A    between atoms: C21_21  and  C22_22 
REMARK    5  A    between atoms: C4_23  and  N4_29 
REMARK    6  A    between atoms: C7_26  and  C5_24 
REMARK    7  A    between atoms: C7_26  and  C8_27 
ROOT
ATOM      1  C10 OF7 d   1      24.955  -9.137  -9.397  0.00  0.00    -0.067 A 
ATOM      2  C11 OF7 d   1      25.792  -9.674 -10.402  0.00  0.00     0.032 A 
ATOM      3  C12 OF7 d   1      27.191  -9.638 -10.212  0.00  0.00    -0.067 A 
ATOM      4  C13 OF7 d   1      27.742  -9.073  -9.046  0.00  0.00    -0.076 A 
ATOM      5  C8  OF7 d   1      26.904  -8.524  -8.056  0.00  0.00    -0.054 A 
ATOM      6  C9  OF7 d   1      25.506  -8.565  -8.233  0.00  0.00    -0.076 A 
ATOM      7  H4  OF7 d   1      23.879  -9.166  -9.523  0.00  0.00     0.085 H 
ATOM      8  H5  OF7 d   1      27.847 -10.049 -10.971  0.00  0.00     0.085 H 
ATOM      9  H6  OF7 d   1      28.817  -9.060  -8.909  0.00  0.00     0.084 H 
ATOM     10  H16 OF7 d   1      24.853  -8.155  -7.471  0.00  0.00     0.084 H 
ENDROOT
BRANCH   2  11
ATOM     11  C14 OF7 d   1      25.238 -10.290 -11.656  0.00  0.00     0.256 C 
ATOM     12  O2  OF7 d   1      24.037 -10.215 -11.927  0.00  0.00    -0.267 OA
ATOM     13  N5  OF7 d   1      26.187 -10.876 -12.408  0.00  0.00    -0.322 N 
ATOM     14  H19 OF7 d   1      27.104 -10.823 -12.012  0.00  0.00     0.169 HD
BRANCH  13  15
ATOM     15  C15 OF7 d   1      26.143 -11.557 -13.657  0.00  0.00     0.041 A 
ATOM     16  C16 OF7 d   1      27.347 -12.170 -14.085  0.00  0.00    -0.021 A 
ATOM     17  C17 OF7 d   1      27.383 -12.861 -15.317  0.00  0.00    -0.074 A 
ATOM     18  C18 OF7 d   1      26.231 -12.942 -16.119  0.00  0.00    -0.082 A 
ATOM     19  H7  OF7 d   1      28.303 -13.331 -15.645  0.00  0.00     0.084 H 
ATOM     20  C19 OF7 d   1      25.035 -12.334 -15.698  0.00  0.00    -0.081 A 
ATOM     21  H8  OF7 d   1      26.265 -13.474 -17.063  0.00  0.00     0.083 H 
ATOM     22  C20 OF7 d   1      24.987 -11.643 -14.473  0.00  0.00    -0.057 A 
ATOM     23  H9  OF7 d   1      24.148 -12.398 -16.318  0.00  0.00     0.083 H 
ATOM     24  H10 OF7 d   1      24.063 -11.175 -14.152  0.00  0.00     0.086 H 
BRANCH  16  25
ATOM     25  C21 OF7 d   1      28.606 -12.090 -13.218  0.00  0.00     0.042 C 
ATOM     26  H11 OF7 d   1      29.054 -13.092 -13.147  0.00  0.00     0.056 H 
ATOM     27  H12 OF7 d   1      28.325 -11.742 -12.213  0.00  0.00     0.056 H 
BRANCH  25  28
ATOM     28  C22 OF7 d   1      29.640 -11.126 -13.805  0.00  0.00     0.177 C 
ATOM     29  O3  OF7 d   1      30.787 -11.040 -13.368  0.00  0.00    -0.648 OA
ATOM     30  O4  OF7 d   1      29.139 -10.404 -14.854  0.00  0.00    -0.648 OA
ENDBRANCH  25  28
ENDBRANCH  16  25
ENDBRANCH  13  15
ENDBRANCH   2  11
BRANCH   5  31
ATOM     31  C7  OF7 d   1      27.503  -7.925  -6.797  0.00  0.00    -0.015 C 
ATOM     32  H14 OF7 d   1      26.981  -6.984  -6.571  0.00  0.00     0.047 H 
ATOM     33  H15 OF7 d   1      27.360  -8.632  -5.967  0.00  0.00     0.047 H 
BRANCH  31  34
ATOM     34  C5  OF7 d   1      28.978  -7.639  -6.943  0.00  0.00    -0.019 A 
ATOM     35  C2  OF7 d   1      29.602  -6.580  -7.675  0.00  0.00     0.085 A 
ATOM     36  C1  OF7 d   1      30.957  -6.708  -7.535  0.00  0.00     0.137 A 
ATOM     37  C3  OF7 d   1      29.117  -5.453  -8.491  0.00  0.00     0.274 A 
ATOM     38  N1  OF7 d   1      31.922  -5.882  -8.086  0.00  0.00    -0.176 N 
ATOM     39  N3  OF7 d   1      31.199  -7.805  -6.750  0.00  0.00    -0.350 N 
ATOM     40  C4  OF7 d   1      31.449  -4.900  -8.801  0.00  0.00     0.680 A 
ATOM     41  H1  OF7 d   1      32.931  -6.031  -7.943  0.00  0.00     0.186 HD
ATOM     42  N2  OF7 d   1      30.079  -4.667  -9.014  0.00  0.00    -0.155 N 
ATOM     43  H2  OF7 d   1      29.807  -3.886  -9.576  0.00  0.00     0.187 HD
ATOM     44  C6  OF7 d   1      29.997  -8.376  -6.386  0.00  0.00    -0.014 A 
ATOM     45  H3  OF7 d   1      32.130  -8.149  -6.475  0.00  0.00     0.166 HD
ATOM     46  H13 OF7 d   1      29.875  -9.261  -5.763  0.00  0.00     0.112 H 
ATOM     47  O1  OF7 d   1      27.920  -5.254  -8.669  0.00  0.00    -0.267 OA
BRANCH  40  48
ATOM     48  N4  OF7 d   1      32.237  -3.965  -9.438  0.00  0.00    -0.234 N 
ATOM     49  H17 OF7 d   1      33.263  -4.020  -9.364  0.00  0.00     0.174 HD
ATOM     50  H18 OF7 d   1      31.800  -3.212  -9.988  0.00  0.00     0.174 HD
ENDBRANCH  40  48
ENDBRANCH  31  34
ENDBRANCH   5  31
TORSDOF 7
