REMARK  7 active torsions:
REMARK  status: ('A' for Active; 'I' for Inactive)
REMARK    1  A    between atoms: C14_1  and  C11_11 
REMARK       I    between atoms: N5_27  and  C14_1 
REMARK    2  A    between atoms: C7_9  and  C5_5 
REMARK    3  A    between atoms: C4_6  and  N4_26 
REMARK    4  A    between atoms: C8_21  and  C7_9 
REMARK    5  A    between atoms: C15_13  and  N5_27 
REMARK    6  A    between atoms: C17_15  and  C22_20 
REMARK    7  A    between atoms: C20_18  and  C21_19 
ROOT
ATOM      1  C13 OEJ d   1      47.140  19.485  13.222  0.00  0.00    -0.076 A 
ATOM      2  C10 OEJ d   1      46.881  22.271  13.551  0.00  0.00    -0.067 A 
ATOM      3  C11 OEJ d   1      47.961  21.754  12.799  0.00  0.00     0.032 A 
ATOM      4  C12 OEJ d   1      48.080  20.358  12.646  0.00  0.00    -0.067 A 
ATOM      5  C8  OEJ d   1      46.064  20.000  13.968  0.00  0.00    -0.054 A 
ATOM      6  C9  OEJ d   1      45.938  21.395  14.130  0.00  0.00    -0.076 A 
ATOM      7  H1  OEJ d   1      47.245  18.414  13.091  0.00  0.00     0.084 H 
ATOM      8  H5  OEJ d   1      46.777  23.342  13.683  0.00  0.00     0.085 H 
ATOM      9  H6  OEJ d   1      48.908  19.951  12.076  0.00  0.00     0.085 H 
ATOM     10  H10 OEJ d   1      45.111  21.798  14.703  0.00  0.00     0.084 H 
ENDROOT
BRANCH   5  11
ATOM     11  C7  OEJ d   1      45.057  19.048  14.585  0.00  0.00    -0.015 C 
ATOM     12  H3  OEJ d   1      44.801  18.282  13.838  0.00  0.00     0.047 H 
ATOM     13  H4  OEJ d   1      45.524  18.567  15.457  0.00  0.00     0.047 H 
BRANCH  11  14
ATOM     14  C5  OEJ d   1      43.781  19.715  15.037  0.00  0.00    -0.019 A 
ATOM     15  C6  OEJ d   1      43.451  20.035  16.334  0.00  0.00    -0.014 A 
ATOM     16  N3  OEJ d   1      42.203  20.625  16.330  0.00  0.00    -0.350 N 
ATOM     17  H2  OEJ d   1      44.068  19.854  17.213  0.00  0.00     0.112 H 
ATOM     18  C1  OEJ d   1      41.731  20.679  15.041  0.00  0.00     0.137 A 
ATOM     19  H13 OEJ d   1      41.704  20.970  17.162  0.00  0.00     0.166 HD
ATOM     20  C2  OEJ d   1      42.678  20.127  14.220  0.00  0.00     0.085 A 
ATOM     21  N1  OEJ d   1      40.511  21.204  14.645  0.00  0.00    -0.176 N 
ATOM     22  C3  OEJ d   1      42.370  20.082  12.776  0.00  0.00     0.274 A 
ATOM     23  N2  OEJ d   1      41.176  20.600  12.423  0.00  0.00    -0.155 N 
ATOM     24  O1  OEJ d   1      43.146  19.608  11.949  0.00  0.00    -0.267 OA
ATOM     25  C4  OEJ d   1      40.282  21.145  13.360  0.00  0.00     0.680 A 
ATOM     26  H12 OEJ d   1      40.917  20.596  11.457  0.00  0.00     0.187 HD
ATOM     27  H11 OEJ d   1      39.838  21.609  15.311  0.00  0.00     0.186 HD
BRANCH  25  28
ATOM     28  N4  OEJ d   1      39.133  21.606  12.748  0.00  0.00    -0.234 N 
ATOM     29  H14 OEJ d   1      38.385  22.033  13.312  0.00  0.00     0.174 HD
ATOM     30  H15 OEJ d   1      39.024  21.523  11.727  0.00  0.00     0.174 HD
ENDBRANCH  25  28
ENDBRANCH  11  14
ENDBRANCH   5  11
BRANCH   3  31
ATOM     31  C14 OEJ d   1      48.995  22.640  12.170  0.00  0.00     0.256 C 
ATOM     32  N5  OEJ d   1      49.143  23.842  12.762  0.00  0.00    -0.322 N 
ATOM     33  H16 OEJ d   1      48.529  23.998  13.536  0.00  0.00     0.169 HD
ATOM     34  O2  OEJ d   1      49.628  22.235  11.195  0.00  0.00    -0.267 OA
BRANCH  32  35
ATOM     35  C15 OEJ d   1      50.022  24.932  12.480  0.00  0.00     0.053 A 
ATOM     36  C16 OEJ d   1      50.851  24.943  11.330  0.00  0.00    -0.040 A 
ATOM     37  C17 OEJ d   1      51.726  26.015  11.061  0.00  0.00     0.043 A 
ATOM     38  H7  OEJ d   1      50.811  24.107  10.641  0.00  0.00     0.088 H 
ATOM     39  C18 OEJ d   1      51.777  27.093  11.964  0.00  0.00    -0.065 A 
ATOM     40  C19 OEJ d   1      50.968  27.097  13.113  0.00  0.00    -0.063 A 
ATOM     41  H8  OEJ d   1      52.444  27.925  11.772  0.00  0.00     0.085 H 
ATOM     42  C20 OEJ d   1      50.086  26.028  13.392  0.00  0.00     0.067 A 
ATOM     43  H9  OEJ d   1      51.021  27.935  13.798  0.00  0.00     0.085 H 
BRANCH  37  44
ATOM     44  C22 OEJ d   1      52.602  26.028   9.840  0.00  0.00     0.209 C 
ATOM     45  O5  OEJ d   1      53.463  26.891   9.678  0.00  0.00    -0.644 OA
ATOM     46  O6  OEJ d   1      52.374  25.020   8.947  0.00  0.00    -0.644 OA
ENDBRANCH  37  44
BRANCH  42  47
ATOM     47  C21 OEJ d   1      49.246  26.095  14.648  0.00  0.00     0.211 C 
ATOM     48  O3  OEJ d   1      49.824  26.792  15.670  0.00  0.00    -0.644 OA
ATOM     49  O4  OEJ d   1      48.140  25.565  14.750  0.00  0.00    -0.644 OA
ENDBRANCH  42  47
ENDBRANCH  32  35
ENDBRANCH   3  31
TORSDOF 7
