REMARK  6 active torsions:
REMARK  status: ('A' for Active; 'I' for Inactive)
REMARK    1  A    between atoms: C01_1  and  C02_2 
REMARK    2  A    between atoms: C02_2  and  C03_3 
REMARK       I    between atoms: C03_3  and  N05_5 
REMARK    3  A    between atoms: N08_8  and  C11_11 
REMARK    4  A    between atoms: C14_14  and  C15_15 
REMARK    5  A    between atoms: C23_23  and  C28_28 
REMARK    6  A    between atoms: C29_29  and  O30_30 
ROOT
ATOM      1  C11 OJ1 d   1      10.661  -1.730  44.952  0.00  0.00     0.139 A 
ATOM      2  N12 OJ1 d   1       9.838  -0.974  45.661  0.00  0.00    -0.137 NA
ATOM      3  N13 OJ1 d   1      10.314  -0.121  46.618  0.00  0.00    -0.147 NA
ATOM      4  C14 OJ1 d   1      11.616  -0.024  46.842  0.00  0.00     0.100 A 
ATOM      5  C21 OJ1 d   1      12.560  -0.802  46.097  0.00  0.00     0.010 A 
ATOM      6  C22 OJ1 d   1      13.972  -0.725  46.310  0.00  0.00    -0.057 A 
ATOM      7  C23 OJ1 d   1      14.857  -1.506  45.565  0.00  0.00     0.003 A 
ATOM      8  C24 OJ1 d   1      14.349  -2.370  44.588  0.00  0.00     0.046 A 
ATOM      9 CL25 OJ1 d   1      15.459  -3.374  43.622  0.00  0.00    -0.083 Cl
ATOM     10  C26 OJ1 d   1      12.974  -2.452  44.373  0.00  0.00    -0.047 A 
ATOM     11  C27 OJ1 d   1      12.073  -1.650  45.144  0.00  0.00     0.020 A 
ATOM     12  H19 OJ1 d   1      14.361  -0.049  47.062  0.00  0.00     0.086 H 
ATOM     13  H20 OJ1 d   1      12.585  -3.126  43.618  0.00  0.00     0.087 H 
ENDROOT
BRANCH   1  14
ATOM     14  N08 OJ1 d   1      10.141  -2.577  43.922  0.00  0.00    -0.263 NA
ATOM     15  C07 OJ1 d   1      10.257  -1.942  42.570  0.00  0.00    -0.000 C 
ATOM     16  C06 OJ1 d   1      10.245  -3.027  41.523  0.00  0.00     0.009 C 
ATOM     17  H8  OJ1 d   1       9.409  -1.261  42.407  0.00  0.00     0.058 H 
ATOM     18  H9  OJ1 d   1      11.198  -1.377  42.506  0.00  0.00     0.058 H 
ATOM     19  N05 OJ1 d   1       9.008  -3.694  41.563  0.00  0.00    -0.350 N 
ATOM     20  H6  OJ1 d   1      10.390  -2.580  40.528  0.00  0.00     0.066 H 
ATOM     21  H7  OJ1 d   1      11.056  -3.743  41.725  0.00  0.00     0.066 H 
ATOM     22  C03 OJ1 d   1       8.237  -3.878  40.354  0.00  0.00     0.219 C 
ATOM     23  C10 OJ1 d   1       8.613  -4.165  42.848  0.00  0.00     0.009 C 
ATOM     24  O04 OJ1 d   1       8.645  -3.452  39.319  0.00  0.00    -0.273 OA
ATOM     25  C09 OJ1 d   1       8.765  -3.141  43.969  0.00  0.00    -0.000 C 
ATOM     26  H12 OJ1 d   1       9.229  -5.042  43.097  0.00  0.00     0.066 H 
ATOM     27  H13 OJ1 d   1       7.555  -4.463  42.795  0.00  0.00     0.066 H 
ATOM     28  H10 OJ1 d   1       8.030  -2.334  43.834  0.00  0.00     0.058 H 
ATOM     29  H11 OJ1 d   1       8.599  -3.630  44.941  0.00  0.00     0.058 H 
BRANCH  22  30
ATOM     30  C02 OJ1 d   1       6.907  -4.623  40.426  0.00  0.00     0.006 C 
ATOM     31  H4  OJ1 d   1       6.962  -5.502  39.767  0.00  0.00     0.046 H 
ATOM     32  H5  OJ1 d   1       6.746  -4.952  41.463  0.00  0.00     0.046 H 
BRANCH  30  33
ATOM     33  C01 OJ1 d   1       5.728  -3.774  40.001  0.00  0.00    -0.068 C 
ATOM     34  H1  OJ1 d   1       4.804  -4.366  40.075  0.00  0.00     0.028 H 
ATOM     35  H2  OJ1 d   1       5.870  -3.444  38.961  0.00  0.00     0.028 H 
ATOM     36  H3  OJ1 d   1       5.654  -2.895  40.658  0.00  0.00     0.028 H 
ENDBRANCH  30  33
ENDBRANCH  22  30
ENDBRANCH   1  14
BRANCH   4  37
ATOM     37  C15 OJ1 d   1      12.024   0.862  47.815  0.00  0.00    -0.005 A 
ATOM     38  C16 OJ1 d   1      11.854   0.554  49.160  0.00  0.00    -0.071 A 
ATOM     39  C17 OJ1 d   1      12.266   1.465  50.127  0.00  0.00    -0.082 A 
ATOM     40  H14 OJ1 d   1      11.404  -0.388  49.453  0.00  0.00     0.084 H 
ATOM     41  C18 OJ1 d   1      12.833   2.677  49.746  0.00  0.00    -0.083 A 
ATOM     42  H15 OJ1 d   1      12.145   1.230  51.178  0.00  0.00     0.083 H 
ATOM     43  C19 OJ1 d   1      12.999   2.980  48.401  0.00  0.00    -0.082 A 
ATOM     44  H16 OJ1 d   1      13.146   3.388  50.502  0.00  0.00     0.083 H 
ATOM     45  C20 OJ1 d   1      12.587   2.075  47.432  0.00  0.00    -0.071 A 
ATOM     46  H17 OJ1 d   1      13.450   3.921  48.108  0.00  0.00     0.083 H 
ATOM     47  H18 OJ1 d   1      12.704   2.313  46.381  0.00  0.00     0.084 H 
ENDBRANCH   4  37
BRANCH   7  48
ATOM     48  C28 OJ1 d   1      16.224  -1.389  45.801  0.00  0.00     0.048 A 
ATOM     49  C29 OJ1 d   1      16.801  -1.896  46.963  0.00  0.00     0.079 A 
ATOM     50  C31 OJ1 d   1      18.168  -1.752  47.186  0.00  0.00    -0.050 A 
ATOM     51  C32 OJ1 d   1      18.964  -1.094  46.257  0.00  0.00    -0.077 A 
ATOM     52  H22 OJ1 d   1      18.613  -2.155  48.089  0.00  0.00     0.087 H 
ATOM     53  C33 OJ1 d   1      18.395  -0.584  45.097  0.00  0.00    -0.045 A 
ATOM     54  H23 OJ1 d   1      20.027  -0.979  46.437  0.00  0.00     0.083 H 
ATOM     55  C34 OJ1 d   1      17.030  -0.727  44.874  0.00  0.00     0.130 A 
ATOM     56  H24 OJ1 d   1      19.014  -0.075  44.367  0.00  0.00     0.088 H 
ATOM     57  F35 OJ1 d   1      16.481  -0.224  43.733  0.00  0.00    -0.205 F 
BRANCH  49  58
ATOM     58  O30 OJ1 d   1      16.005  -2.557  47.906  0.00  0.00    -0.360 OA
ATOM     59  H21 OJ1 d   1      15.598  -3.314  47.501  0.00  0.00     0.217 HD
ENDBRANCH  49  58
ENDBRANCH   7  48
TORSDOF 6
