REMARK  8 active torsions:
REMARK  status: ('A' for Active; 'I' for Inactive)
REMARK    1  A    between atoms: C29_1  and  C28_2 
REMARK    2  A    between atoms: C28_2  and  C30_3 
REMARK    3  A    between atoms: C28_2  and  C11_4 
REMARK    4  A    between atoms: C10_9  and  N2_10 
REMARK    5  A    between atoms: C8_16  and  N3_17 
REMARK       I    between atoms: N4_22  and  C25_23 
REMARK    6  A    between atoms: C25_23  and  C26_25 
REMARK    7  A    between atoms: C26_25  and  C27_26 
REMARK    8  A    between atoms: C16_38  and  O2_39 
ROOT
ATOM      1  N2  OHY d   1       2.256   0.308 -11.433  0.00  0.00    -0.261 N 
ATOM      2  C2  OHY d   1       2.713   0.480 -10.113  0.00  0.00     0.059 A 
ATOM      3  C3  OHY d   1       3.501   1.583  -9.776  0.00  0.00    -0.043 A 
ATOM      4  C9  OHY d   1       1.461  -0.789 -11.746  0.00  0.00     0.355 A 
ATOM      5  O1  OHY d   1       1.060  -0.928 -12.905  0.00  0.00    -0.244 OA
ATOM      6  N1  OHY d   1       1.147  -1.690 -10.804  0.00  0.00    -0.175 NA
ATOM      7  C8  OHY d   1       1.564  -1.569  -9.528  0.00  0.00     0.143 A 
ATOM      8  C1  OHY d   1       2.363  -0.469  -9.152  0.00  0.00     0.039 A 
ATOM      9  C6  OHY d   1       2.829  -0.281  -7.855  0.00  0.00    -0.045 A 
ATOM     10  C5  OHY d   1       3.611   0.829  -7.521  0.00  0.00     0.046 A 
ATOM     11 CL1  OHY d   1       4.136   0.994  -5.889  0.00  0.00    -0.083 Cl
ATOM     12  C4  OHY d   1       3.966   1.781  -8.482  0.00  0.00     0.004 A 
ATOM     13  C7  OHY d   1       4.769   2.910  -8.221  0.00  0.00     0.048 A 
ATOM     14  C20 OHY d   1       6.129   2.763  -7.896  0.00  0.00     0.130 A 
ATOM     15  F1  OHY d   1       6.692   1.545  -7.787  0.00  0.00    -0.205 F 
ATOM     16  C19 OHY d   1       6.927   3.883  -7.650  0.00  0.00    -0.045 A 
ATOM     17  C18 OHY d   1       6.394   5.160  -7.751  0.00  0.00    -0.077 A 
ATOM     18  C17 OHY d   1       5.052   5.322  -8.086  0.00  0.00    -0.050 A 
ATOM     19  C16 OHY d   1       4.252   4.204  -8.329  0.00  0.00     0.079 A 
ATOM     20  H12 OHY d   1       3.756   2.304 -10.544  0.00  0.00     0.088 H 
ATOM     21  H26 OHY d   1       2.582  -1.008  -7.090  0.00  0.00     0.087 H 
ATOM     22  H27 OHY d   1       7.968   3.754  -7.379  0.00  0.00     0.088 H 
ATOM     23  H28 OHY d   1       7.019   6.027  -7.570  0.00  0.00     0.083 H 
ATOM     24  H29 OHY d   1       4.628   6.317  -8.158  0.00  0.00     0.087 H 
ENDROOT
BRANCH   7  25
ATOM     25  N3  OHY d   1       1.181  -2.593  -8.652  0.00  0.00    -0.362 N 
ATOM     26  C24 OHY d   1       2.094  -3.013  -7.579  0.00  0.00     0.011 C 
ATOM     27  C23 OHY d   1       2.061  -4.514  -7.355  0.00  0.00     0.013 C 
ATOM     28  H13 OHY d   1       1.801  -2.509  -6.646  0.00  0.00     0.066 H 
ATOM     29  H14 OHY d   1       3.119  -2.717  -7.849  0.00  0.00     0.066 H 
ATOM     30  N4  OHY d   1       0.659  -4.985  -7.169  0.00  0.00    -0.349 N 
ATOM     31  H15 OHY d   1       2.647  -4.759  -6.457  0.00  0.00     0.066 H 
ATOM     32  H16 OHY d   1       2.500  -5.020  -8.228  0.00  0.00     0.066 H 
ATOM     33  C22 OHY d   1      -0.479  -4.256  -7.788  0.00  0.00     0.013 C 
ATOM     34  C25 OHY d   1       0.437  -6.074  -6.433  0.00  0.00     0.219 C 
ATOM     35  C21 OHY d   1      -0.037  -3.385  -8.953  0.00  0.00     0.011 C 
ATOM     36  H19 OHY d   1      -1.213  -4.989  -8.152  0.00  0.00     0.066 H 
ATOM     37  H20 OHY d   1      -0.947  -3.617  -7.025  0.00  0.00     0.066 H 
ATOM     38  H17 OHY d   1       0.171  -4.033  -9.817  0.00  0.00     0.066 H 
ATOM     39  H18 OHY d   1      -0.854  -2.692  -9.203  0.00  0.00     0.066 H 
ATOM     40  O3  OHY d   1       1.380  -6.680  -5.924  0.00  0.00    -0.273 OA
BRANCH  34  41
ATOM     41  C26 OHY d   1      -0.989  -6.590  -6.241  0.00  0.00     0.006 C 
ATOM     42  H21 OHY d   1      -1.702  -5.849  -6.632  0.00  0.00     0.046 H 
ATOM     43  H22 OHY d   1      -1.179  -6.751  -5.170  0.00  0.00     0.046 H 
BRANCH  41  44
ATOM     44  C27 OHY d   1      -1.163  -7.909  -6.992  0.00  0.00    -0.068 C 
ATOM     45  H23 OHY d   1      -2.190  -8.278  -6.852  0.00  0.00     0.028 H 
ATOM     46  H24 OHY d   1      -0.451  -8.650  -6.601  0.00  0.00     0.028 H 
ATOM     47  H25 OHY d   1      -0.974  -7.748  -8.064  0.00  0.00     0.028 H 
ENDBRANCH  41  44
ENDBRANCH  34  41
ENDBRANCH   7  25
BRANCH   1  48
ATOM     48  C10 OHY d   1       2.547   1.252 -12.441  0.00  0.00     0.051 A 
ATOM     49  C11 OHY d   1       3.598   1.076 -13.331  0.00  0.00    -0.027 A 
ATOM     50  C12 OHY d   1       3.844   2.060 -14.299  0.00  0.00    -0.074 A 
ATOM     51  C13 OHY d   1       3.030   3.185 -14.365  0.00  0.00    -0.082 A 
ATOM     52  H8  OHY d   1       4.667   1.944 -14.995  0.00  0.00     0.084 H 
ATOM     53  C14 OHY d   1       1.978   3.359 -13.473  0.00  0.00    -0.081 A 
ATOM     54  H9  OHY d   1       3.218   3.937 -15.123  0.00  0.00     0.083 H 
ATOM     55  C15 OHY d   1       1.739   2.385 -12.507  0.00  0.00    -0.056 A 
ATOM     56  H10 OHY d   1       1.352   4.242 -13.529  0.00  0.00     0.083 H 
ATOM     57  H11 OHY d   1       0.922   2.509 -11.805  0.00  0.00     0.087 H 
BRANCH  49  58
ATOM     58  C28 OHY d   1       4.484  -0.181 -13.218  0.00  0.00    -0.033 C 
ATOM     59  H4  OHY d   1       4.119  -0.806 -12.389  0.00  0.00     0.046 H 
BRANCH  58  60
ATOM     60  C29 OHY d   1       5.907   0.271 -12.914  0.00  0.00    -0.069 C 
ATOM     61  H1  OHY d   1       6.561  -0.609 -12.828  0.00  0.00     0.028 H 
ATOM     62  H2  OHY d   1       5.920   0.831 -11.967  0.00  0.00     0.028 H 
ATOM     63  H3  OHY d   1       6.268   0.918 -13.727  0.00  0.00     0.028 H 
ENDBRANCH  58  60
BRANCH  58  64
ATOM     64  C30 OHY d   1       4.436  -1.011 -14.516  0.00  0.00    -0.069 C 
ATOM     65  H5  OHY d   1       3.400  -1.324 -14.713  0.00  0.00     0.028 H 
ATOM     66  H6  OHY d   1       5.074  -1.901 -14.406  0.00  0.00     0.028 H 
ATOM     67  H7  OHY d   1       4.800  -0.400 -15.355  0.00  0.00     0.028 H 
ENDBRANCH  58  64
ENDBRANCH  49  58
ENDBRANCH   1  48
BRANCH  19  68
ATOM     68  O2  OHY d   1       2.951   4.390  -8.660  0.00  0.00    -0.360 OA
ATOM     69  H30 OHY d   1       2.510   4.853  -7.957  0.00  0.00     0.217 HD
ENDBRANCH  19  68
TORSDOF 8
