REMARK  13 active torsions:
REMARK  status: ('A' for Active; 'I' for Inactive)
REMARK    1  A    between atoms: C3_2  and  C2_1 
REMARK    2  A    between atoms: C2_1  and  N1_15 
REMARK    3  A    between atoms: C4_3  and  C3_2 
REMARK    4  A    between atoms: N5_14  and  C4_3 
REMARK    5  A    between atoms: C6_4  and  C7_5 
REMARK    6  A    between atoms: C6_4  and  N5_14 
REMARK    7  A    between atoms: C7_5  and  C8_6 
REMARK    8  A    between atoms: C8_6  and  C9_7 
REMARK    9  A    between atoms: C9_7  and  C10_8 
REMARK   10  A    between atoms: C10_8  and  C11_9 
REMARK   11  A    between atoms: C11_9  and  C12_10 
REMARK   12  A    between atoms: C11_9  and  O13_16 
REMARK   13  A    between atoms: C11_9  and  O14_17 
ROOT
ATOM      1  C7  FKS d   1      15.709  51.094  31.619  0.00  0.00    -0.043 C 
ATOM      2  H9  FKS d   1      15.131  50.931  30.697  0.00  0.00     0.035 H 
ATOM      3  H10 FKS d   1      16.133  52.109  31.611  0.00  0.00     0.035 H 
ENDROOT
BRANCH   1   4
ATOM      4  C6  FKS d   1      16.875  50.069  31.661  0.00  0.00     0.082 C 
ATOM      5  H7  FKS d   1      17.586  50.365  32.446  0.00  0.00     0.075 H 
ATOM      6  H8  FKS d   1      17.386  50.064  30.687  0.00  0.00     0.075 H 
BRANCH   4   7
ATOM      7  N5  FKS d   1      16.347  48.640  31.965  0.00  0.00    -0.075 N 
ATOM      8  H17 FKS d   1      16.799  48.304  32.801  0.00  0.00     0.277 HD
ATOM      9  H18 FKS d   1      15.352  48.693  32.119  0.00  0.00     0.277 HD
BRANCH   7  10
ATOM     10  C4  FKS d   1      16.609  47.647  30.843  0.00  0.00     0.083 C 
ATOM     11  H5  FKS d   1      17.336  48.083  30.142  0.00  0.00     0.075 H 
ATOM     12  H6  FKS d   1      17.023  46.723  31.273  0.00  0.00     0.075 H 
BRANCH  10  13
ATOM     13  C3  FKS d   1      15.308  47.307  30.073  0.00  0.00    -0.020 C 
ATOM     14  H3  FKS d   1      14.616  46.781  30.747  0.00  0.00     0.037 H 
ATOM     15  H4  FKS d   1      14.841  48.239  29.723  0.00  0.00     0.037 H 
BRANCH  13  16
ATOM     16  C2  FKS d   1      15.614  46.418  28.874  0.00  0.00     0.081 C 
ATOM     17  H1  FKS d   1      16.701  46.260  28.811  0.00  0.00     0.075 H 
ATOM     18  H2  FKS d   1      15.261  46.915  27.958  0.00  0.00     0.075 H 
BRANCH  16  19
ATOM     19  N1  FKS d   1      14.926  45.077  29.006  0.00  0.00    -0.079 N 
ATOM     20  H19 FKS d   1      15.143  44.508  28.203  0.00  0.00     0.274 HD
ATOM     21  H20 FKS d   1      13.929  45.215  29.061  0.00  0.00     0.274 HD
ATOM     22  H21 FKS d   1      15.248  44.615  29.842  0.00  0.00     0.274 HD
ENDBRANCH  16  19
ENDBRANCH  13  16
ENDBRANCH  10  13
ENDBRANCH   7  10
ENDBRANCH   4   7
ENDBRANCH   1   4
BRANCH   1  23
ATOM     23  C8  FKS d   1      14.751  50.966  32.834  0.00  0.00    -0.063 C 
ATOM     24  H11 FKS d   1      15.045  50.084  33.421  0.00  0.00     0.033 H 
ATOM     25  H12 FKS d   1      13.725  50.832  32.460  0.00  0.00     0.033 H 
BRANCH  23  26
ATOM     26  C9  FKS d   1      14.781  52.212  33.763  0.00  0.00    -0.060 C 
ATOM     27  H13 FKS d   1      14.937  53.108  33.145  0.00  0.00     0.033 H 
ATOM     28  H14 FKS d   1      15.617  52.104  34.470  0.00  0.00     0.033 H 
BRANCH  26  29
ATOM     29  C10 FKS d   1      13.477  52.388  34.565  0.00  0.00    -0.004 C 
ATOM     30  H15 FKS d   1      13.068  51.386  34.760  0.00  0.00     0.041 H 
ATOM     31  H16 FKS d   1      12.774  52.955  33.937  0.00  0.00     0.041 H 
BRANCH  29  32
ATOM     32  C11 FKS d   1      13.590  53.135  35.949  0.00  0.00     0.260 C 
BRANCH  32  33
ATOM     33  C12 FKS d   1      12.111  53.106  36.523  0.00  0.00     0.444 C 
ATOM     34  F15 FKS d   1      11.691  51.889  36.924  0.00  0.00    -0.166 F 
ATOM     35  F16 FKS d   1      11.215  53.499  35.618  0.00  0.00    -0.166 F 
ATOM     36  F17 FKS d   1      11.974  53.954  37.554  0.00  0.00    -0.166 F 
ENDBRANCH  32  33
BRANCH  32  37
ATOM     37  O13 FKS d   1      14.424  52.493  36.859  0.00  0.00    -0.359 OA
ATOM     38  H22 FKS d   1      14.357  52.921  37.705  0.00  0.00     0.213 HD
ENDBRANCH  32  37
BRANCH  32  39
ATOM     39  O14 FKS d   1      13.951  54.481  35.803  0.00  0.00    -0.359 OA
ATOM     40  H23 FKS d   1      13.369  54.898  35.178  0.00  0.00     0.213 HD
ENDBRANCH  32  39
ENDBRANCH  29  32
ENDBRANCH  26  29
ENDBRANCH  23  26
ENDBRANCH   1  23
TORSDOF 13
