REMARK  12 active torsions:
REMARK  status: ('A' for Active; 'I' for Inactive)
REMARK    1  A    between atoms: C13_2  and  C14_3 
REMARK       I    between atoms: C13_2  and  N12_12 
REMARK    2  A    between atoms: C17_6  and  N20_7 
REMARK    3  A    between atoms: N20_7  and  C22_8 
REMARK    4  A    between atoms: N20_7  and  C21_9 
REMARK    5  A    between atoms: N12_12  and  C10_13 
REMARK    6  A    between atoms: C10_13  and  C9_14 
REMARK    7  A    between atoms: C9_14  and  C8_15 
REMARK    8  A    between atoms: C8_15  and  C7_16 
REMARK    9  A    between atoms: C7_16  and  C6_17 
REMARK   10  A    between atoms: C6_17  and  C5_18 
REMARK   11  A    between atoms: C5_18  and  C1_19 
REMARK       I    between atoms: C1_19  and  N3_21 
REMARK   12  A    between atoms: N3_21  and  O4_22 
ROOT
ATOM      1  C10 B3N d   1      14.205 109.886  19.927  0.00  0.00    -0.004 C 
ATOM      2  H12 B3N d   1      13.114 110.020  19.955  0.00  0.00     0.064 H 
ATOM      3  H13 B3N d   1      14.497 109.103  20.642  0.00  0.00     0.064 H 
ENDROOT
BRANCH   1   4
ATOM      4  N12 B3N d   1      14.851 111.137  20.295  0.00  0.00    -0.357 N 
ATOM      5  C13 B3N d   1      16.052 111.226  21.027  0.00  0.00     0.251 C 
ATOM      6  O23 B3N d   1      16.616 110.208  21.392  0.00  0.00    -0.268 OA
ATOM      7  H11 B3N d   1      14.414 111.990  20.010  0.00  0.00     0.162 HD
BRANCH   5   8
ATOM      8  C14 B3N d   1      16.633 112.574  21.328  0.00  0.00     0.032 A 
ATOM      9  C15 B3N d   1      17.725 112.690  22.188  0.00  0.00    -0.066 A 
ATOM     10  C16 B3N d   1      18.309 113.921  22.488  0.00  0.00    -0.056 A 
ATOM     11  H1  B3N d   1      18.134 111.793  22.639  0.00  0.00     0.085 H 
ATOM     12  C17 B3N d   1      17.822 115.114  21.930  0.00  0.00     0.029 A 
ATOM     13  H2  B3N d   1      19.155 113.957  23.165  0.00  0.00     0.086 H 
ATOM     14  C18 B3N d   1      16.729 114.989  21.056  0.00  0.00    -0.056 A 
ATOM     15  C19 B3N d   1      16.155 113.754  20.769  0.00  0.00    -0.066 A 
ATOM     16  H9  B3N d   1      16.321 115.880  20.592  0.00  0.00     0.086 H 
ATOM     17  H10 B3N d   1      15.311 113.711  20.090  0.00  0.00     0.085 H 
BRANCH  12  18
ATOM     18  N20 B3N d   1      18.413 116.374  22.212  0.00  0.00    -0.390 N 
BRANCH  18  19
ATOM     19  C22 B3N d   1      19.558 116.549  23.111  0.00  0.00    -0.019 C 
ATOM     20  H3  B3N d   1      19.825 117.615  23.161  0.00  0.00     0.056 H 
ATOM     21  H4  B3N d   1      20.415 115.974  22.730  0.00  0.00     0.056 H 
ATOM     22  H5  B3N d   1      19.293 116.190  24.116  0.00  0.00     0.056 H 
ENDBRANCH  18  19
BRANCH  18  23
ATOM     23  C21 B3N d   1      17.915 117.601  21.583  0.00  0.00    -0.019 C 
ATOM     24  H6  B3N d   1      17.061 117.359  20.933  0.00  0.00     0.056 H 
ATOM     25  H7  B3N d   1      18.716 118.056  20.982  0.00  0.00     0.056 H 
ATOM     26  H8  B3N d   1      17.594 118.308  22.362  0.00  0.00     0.056 H 
ENDBRANCH  18  23
ENDBRANCH  12  18
ENDBRANCH   5   8
ENDBRANCH   1   4
BRANCH   1  27
ATOM     27  C9  B3N d   1      14.628 109.462  18.511  0.00  0.00    -0.050 C 
ATOM     28  H14 B3N d   1      14.862 110.371  17.937  0.00  0.00     0.035 H 
ATOM     29  H15 B3N d   1      13.781 108.940  18.042  0.00  0.00     0.035 H 
BRANCH  27  30
ATOM     30  C8  B3N d   1      15.833 108.548  18.459  0.00  0.00    -0.064 C 
ATOM     31  H16 B3N d   1      15.748 107.804  19.265  0.00  0.00     0.033 H 
ATOM     32  H17 B3N d   1      16.741 109.151  18.611  0.00  0.00     0.033 H 
BRANCH  30  33
ATOM     33  C7  B3N d   1      15.948 107.818  17.131  0.00  0.00    -0.065 C 
ATOM     34  H18 B3N d   1      15.069 107.171  16.998  0.00  0.00     0.033 H 
ATOM     35  H19 B3N d   1      16.859 107.202  17.136  0.00  0.00     0.033 H 
BRANCH  33  36
ATOM     36  C6  B3N d   1      16.018 108.777  16.006  0.00  0.00    -0.057 C 
ATOM     37  H20 B3N d   1      16.928 109.384  16.118  0.00  0.00     0.033 H 
ATOM     38  H21 B3N d   1      15.134 109.431  16.046  0.00  0.00     0.033 H 
BRANCH  36  39
ATOM     39  C5  B3N d   1      16.054 108.105  14.677  0.00  0.00     0.011 C 
ATOM     40  H22 B3N d   1      15.858 108.845  13.887  0.00  0.00     0.047 H 
ATOM     41  H23 B3N d   1      15.285 107.320  14.643  0.00  0.00     0.047 H 
BRANCH  39  42
ATOM     42  C1  B3N d   1      17.402 107.492  14.463  0.00  0.00     0.240 C 
ATOM     43  O2  B3N d   1      18.433 108.108  14.223  0.00  0.00    -0.271 OA
ATOM     44  N3  B3N d   1      17.411 106.112  14.559  0.00  0.00    -0.237 N 
ATOM     45  H24 B3N d   1      16.590 105.578  14.759  0.00  0.00     0.197 HD
BRANCH  44  46
ATOM     46  O4  B3N d   1      18.601 105.555  14.363  0.00  0.00    -0.287 OA
ATOM     47  H25 B3N d   1      19.213 105.882  15.012  0.00  0.00     0.244 HD
ENDBRANCH  44  46
ENDBRANCH  39  42
ENDBRANCH  36  39
ENDBRANCH  33  36
ENDBRANCH  30  33
ENDBRANCH  27  30
ENDBRANCH   1  27
TORSDOF 12
