REMARK  7 active torsions:
REMARK  status: ('A' for Active; 'I' for Inactive)
REMARK    1  A    between atoms: C2_1  and  C3_2 
REMARK    2  A    between atoms: C2_1  and  N1_7 
REMARK    3  A    between atoms: C3_2  and  C4_3 
REMARK    4  A    between atoms: C4_3  and  C5_4 
REMARK    5  A    between atoms: C5_4  and  C6_5 
REMARK    6  A    between atoms: C6_5  and  C7_6 
REMARK       I    between atoms: C7_6  and  N8_8 
REMARK    7  A    between atoms: N8_8  and  O9_10 
ROOT
ATOM      1  C4  MOL d   1      43.296 -23.603  36.755  0.00  0.00    -0.063 C 
ATOM      2  H5  MOL d   1      42.476 -24.131  36.246  0.00  0.00     0.033 H 
ATOM      3  H6  MOL d   1      42.890 -23.014  37.591  0.00  0.00     0.033 H 
ENDROOT
BRANCH   1   4
ATOM      4  C3  MOL d   1      43.942 -22.615  35.736  0.00  0.00    -0.043 C 
ATOM      5  H3  MOL d   1      44.902 -22.270  36.147  0.00  0.00     0.035 H 
ATOM      6  H4  MOL d   1      44.119 -23.154  34.794  0.00  0.00     0.035 H 
BRANCH   4   7
ATOM      7  C2  MOL d   1      43.070 -21.379  35.433  0.00  0.00     0.080 C 
ATOM      8  H1  MOL d   1      43.716 -20.561  35.082  0.00  0.00     0.075 H 
ATOM      9  H2  MOL d   1      42.554 -21.070  36.354  0.00  0.00     0.075 H 
BRANCH   7  10
ATOM     10  N1  MOL d   1      42.018 -21.691  34.346  0.00  0.00    -0.079 N 
ATOM     11  H11 MOL d   1      41.464 -20.868  34.169  0.00  0.00     0.274 HD
ATOM     12  H12 MOL d   1      41.419 -22.437  34.663  0.00  0.00     0.274 HD
ATOM     13  H13 MOL d   1      42.484 -21.971  33.498  0.00  0.00     0.274 HD
ENDBRANCH   7  10
ENDBRANCH   4   7
ENDBRANCH   1   4
BRANCH   1  14
ATOM     14  C5  MOL d   1      44.268 -24.671  37.342  0.00  0.00    -0.057 C 
ATOM     15  H7  MOL d   1      43.663 -25.433  37.856  0.00  0.00     0.033 H 
ATOM     16  H8  MOL d   1      44.922 -24.169  38.071  0.00  0.00     0.033 H 
BRANCH  14  17
ATOM     17  C6  MOL d   1      45.181 -25.403  36.301  0.00  0.00     0.011 C 
ATOM     18  H9  MOL d   1      45.699 -24.633  35.711  0.00  0.00     0.047 H 
ATOM     19  H10 MOL d   1      44.528 -25.993  35.641  0.00  0.00     0.047 H 
BRANCH  17  20
ATOM     20  C7  MOL d   1      46.244 -26.347  36.868  0.00  0.00     0.240 C 
ATOM     21  N8  MOL d   1      46.182 -26.821  38.159  0.00  0.00    -0.237 N 
ATOM     22  H14 MOL d   1      45.437 -26.570  38.776  0.00  0.00     0.197 HD
ATOM     23  O10 MOL d   1      47.201 -26.681  36.120  0.00  0.00    -0.271 OA
BRANCH  21  24
ATOM     24  O9  MOL d   1      47.214 -27.671  38.562  0.00  0.00    -0.287 OA
ATOM     25  H15 MOL d   1      47.071 -27.936  39.463  0.00  0.00     0.244 HD
ENDBRANCH  21  24
ENDBRANCH  17  20
ENDBRANCH  14  17
ENDBRANCH   1  14
TORSDOF 7
