REMARK  1 active torsions:
REMARK  status: ('A' for Active; 'I' for Inactive)
REMARK    1  A    between atoms: C2_8  and  N2_9 
ROOT
ATOM      1  N9  GUN d   1       3.242  33.876 122.993  0.00  0.00    -0.223 NA
ATOM      2  C8  GUN d   1       2.566  34.744 122.202  0.00  0.00     0.067 A 
ATOM      3  N7  GUN d   1       3.051  35.973 122.214  0.00  0.00    -0.343 N 
ATOM      4  C5  GUN d   1       4.142  35.887 123.067  0.00  0.00     0.149 A 
ATOM      5  C6  GUN d   1       5.032  36.881 123.489  0.00  0.00     0.290 A 
ATOM      6  O6  GUN d   1       5.007  38.065 123.164  0.00  0.00    -0.265 OA
ATOM      7  N1  GUN d   1       6.024  36.378 124.366  0.00  0.00    -0.154 N 
ATOM      8  C2  GUN d   1       6.089  35.036 124.752  0.00  0.00     0.680 A 
ATOM      9  N3  GUN d   1       5.213  34.113 124.382  0.00  0.00    -0.172 N 
ATOM     10  C4  GUN d   1       4.260  34.571 123.541  0.00  0.00     0.176 A 
ATOM     11  H1  GUN d   1       1.700  34.454 121.609  0.00  0.00     0.143 H 
ATOM     12  H2  GUN d   1       2.702  36.800 121.709  0.00  0.00     0.167 HD
ATOM     13  H3  GUN d   1       6.709  37.012 124.725  0.00  0.00     0.187 HD
ATOM     14  H6  GUN d   1       5.255  33.136 124.706  0.00  0.00     0.186 HD
ENDROOT
BRANCH   8  15
ATOM     15  N2  GUN d   1       7.075  34.617 125.562  0.00  0.00    -0.234 N 
ATOM     16  H4  GUN d   1       7.123  33.628 125.846  0.00  0.00     0.174 HD
ATOM     17  H5  GUN d   1       7.783  35.285 125.899  0.00  0.00     0.174 HD
ENDBRANCH   8  15
TORSDOF 1
