REMARK  24 active torsions:
REMARK  status: ('A' for Active; 'I' for Inactive)
REMARK    1  A    between atoms: N_1  and  CA_2 
REMARK    2  A    between atoms: CA_2  and  C_3 
REMARK    3  A    between atoms: CA_2  and  CB_5 
REMARK       I    between atoms: C_3  and  N_6 
REMARK    4  A    between atoms: N_6  and  CA_7 
REMARK    5  A    between atoms: CA_16  and  CB_19 
REMARK    6  A    between atoms: CB_19  and  CG_20 
REMARK    7  A    between atoms: CG_20  and  CD1_21 
REMARK    8  A    between atoms: CG_20  and  CD2_22 
REMARK    9  A    between atoms: CA_24  and  CB_27 
REMARK   10  A    between atoms: CB_27  and  CG_28 
REMARK   11  A    between atoms: CA_34  and  CB_37 
REMARK   12  A    between atoms: C21_38  and  O30_47 
REMARK   13  A    between atoms: C53_49  and  C60_56 
REMARK       I    between atoms: C60_56  and  N_58 
REMARK   14  A    between atoms: N_58  and  CA_59 
REMARK   15  A    between atoms: CA_59  and  C_60 
REMARK   16  A    between atoms: CA_59  and  CB_62 
REMARK       I    between atoms: C_60  and  N_66 
REMARK   17  A    between atoms: CB_62  and  CG_63 
REMARK   18  A    between atoms: CG_63  and  CD1_64 
REMARK   19  A    between atoms: CG_63  and  CD2_65 
REMARK   20  A    between atoms: N_66  and  CA_67 
REMARK   21  A    between atoms: CA_67  and  C_68 
REMARK   22  A    between atoms: CA_67  and  CB_70 
REMARK   23  A    between atoms: CB_70  and  CG_71 
REMARK   24  A    between atoms: CG_71  and  CD_72 
REMARK       I    between atoms: CD_72  and  NE2_74 
ROOT
ATOM      1  CA  LYS d   1      -7.946  14.633  24.936  0.00  0.00     0.089 C 
ATOM      2  C   LYS d   1      -6.645  14.385  25.702  0.00  0.00     0.241 C 
ATOM      3  O   LYS d   1      -6.596  14.555  26.901  0.00  0.00    -0.271 OA
ATOM      4  CB  LYS d   1      -8.596  13.322  24.497  0.00  0.00    -0.038 C 
ATOM      5  CG  LYS d   1      -9.582  12.726  25.502  0.00  0.00    -0.061 C 
ATOM      6  CD  LYS d   1      -9.095  12.818  26.947  0.00  0.00    -0.042 C 
ATOM      7  CE  LYS d   1      -9.687  11.742  27.845  0.00  0.00     0.085 C 
ATOM      8  NZ  LYS d   1      -9.275  11.887  29.282  0.00  0.00    -0.048 N 
ATOM      9  N   LYS d   1      -5.615  13.954  24.977  0.00  0.00    -0.346 N 
ATOM     10  CA  LYS d   1      -4.302  13.587  25.498  0.00  0.00     0.089 C 
ATOM     11  C   LYS d   1      -3.641  14.863  25.974  0.00  0.00     0.241 C 
ATOM     12  O   LYS d   1      -3.024  14.906  26.997  0.00  0.00    -0.271 OA
ATOM     13  N   LYS d   1      -3.807  15.897  25.174  0.00  0.00    -0.346 N 
ATOM     14  CA  LYS d   1      -3.411  17.246  25.475  0.00  0.00     0.094 C 
ATOM     15  C   LYS d   1      -3.821  17.662  26.875  0.00  0.00     0.241 C 
ATOM     16  O   LYS d   1      -3.103  18.399  27.522  0.00  0.00    -0.271 OA
ATOM     17  N   LYS d   1      -4.927  17.171  27.388  0.00  0.00    -0.346 N 
ATOM     18  CA  LYS d   1      -5.229  17.503  28.760  0.00  0.00     0.086 C 
ATOM     19  C   LYS d   1      -4.551  16.536  29.757  0.00  0.00     0.240 C 
ATOM     20  O   LYS d   1      -3.579  16.903  30.370  0.00  0.00    -0.271 OA
ATOM     21  C21 LYS d   1      -9.456  12.356  30.620  0.00  0.00     0.202 C 
ATOM     22  C22 LYS d   1      -8.427  11.459  31.367  0.00  0.00     0.041 C 
ATOM     23  N23 LYS d   1      -7.019  10.772  30.739  0.00  0.00    -0.184 NA
ATOM     24  C24 LYS d   1      -6.798  10.446  32.017  0.00  0.00     0.214 A 
ATOM     25  O25 LYS d   1      -7.654  10.012  32.717  0.00  0.00    -0.279 OA
ATOM     26  C26 LYS d   1      -5.832  11.214  30.305  0.00  0.00     0.214 A 
ATOM     27  C27 LYS d   1      -4.728  11.232  31.339  0.00  0.00     0.066 A 
ATOM     28  C28 LYS d   1      -5.390  10.649  32.550  0.00  0.00     0.062 A 
ATOM     29  O29 LYS d   1      -5.660  11.590  29.177  0.00  0.00    -0.279 OA
ATOM     30  N52 LYS d   1      -4.122  15.221  29.684  0.00  0.00    -0.347 N 
ATOM     31  C53 LYS d   1      -3.577  14.538  30.792  0.00  0.00     0.080 C 
ATOM     32  C54 LYS d   1      -3.204  13.178  30.978  0.00  0.00    -0.006 C 
ATOM     33  C55 LYS d   1      -4.359  12.547  31.784  0.00  0.00     0.094 C 
ATOM     34  O56 LYS d   1      -4.108  12.327  33.092  0.00  0.00    -0.365 OA
ATOM     35  C57 LYS d   1      -5.245  11.698  33.511  0.00  0.00     0.068 C 
ATOM     36  C58 LYS d   1      -6.003  12.898  33.243  0.00  0.00    -0.075 C 
ATOM     37  C59 LYS d   1      -5.468  13.436  32.061  0.00  0.00    -0.070 C 
ATOM     38  H9  LYS d   1      -8.634  15.114  25.647  0.00  0.00     0.087 H 
ATOM     39  H10 LYS d   1      -7.798  12.586  24.323  0.00  0.00     0.036 H 
ATOM     40  H11 LYS d   1      -9.136  13.506  23.556  0.00  0.00     0.036 H 
ATOM     41  H12 LYS d   1      -9.739  11.666  25.252  0.00  0.00     0.033 H 
ATOM     42  H13 LYS d   1     -10.536  13.267  25.419  0.00  0.00     0.033 H 
ATOM     43  H14 LYS d   1      -9.375  13.803  27.349  0.00  0.00     0.035 H 
ATOM     44  H15 LYS d   1      -8.000  12.717  26.955  0.00  0.00     0.035 H 
ATOM     45  H16 LYS d   1      -9.353  10.759  27.482  0.00  0.00     0.075 H 
ATOM     46  H17 LYS d   1     -10.784  11.801  27.787  0.00  0.00     0.075 H 
ATOM     47  H18 LYS d   1      -8.364  12.286  29.121  0.00  0.00     0.280 HD
ATOM     48  H19 LYS d   1      -9.180  10.906  29.495  0.00  0.00     0.280 HD
ATOM     49  H20 LYS d   1      -5.753  13.875  23.990  0.00  0.00     0.163 HD
ATOM     50  H21 LYS d   1      -4.412  12.886  26.339  0.00  0.00     0.087 H 
ATOM     51  H31 LYS d   1      -4.242  15.730  24.289  0.00  0.00     0.163 HD
ATOM     52  H32 LYS d   1      -2.320  17.339  25.370  0.00  0.00     0.088 H 
ATOM     53  H38 LYS d   1      -5.536  16.590  26.849  0.00  0.00     0.163 HD
ATOM     54  H39 LYS d   1      -4.784  18.492  28.945  0.00  0.00     0.086 H 
ATOM     55  H43 LYS d   1     -10.316  11.707  30.843  0.00  0.00     0.130 H 
ATOM     56  H44 LYS d   1      -9.014  10.606  31.738  0.00  0.00     0.063 H 
ATOM     57  H45 LYS d   1      -8.087  12.069  32.217  0.00  0.00     0.063 H 
ATOM     58  H46 LYS d   1      -3.851  10.664  30.997  0.00  0.00     0.060 H 
ATOM     59  H47 LYS d   1      -4.947   9.708  32.909  0.00  0.00     0.059 H 
ATOM     60  H49 LYS d   1      -4.202  14.737  28.812  0.00  0.00     0.163 HD
ATOM     61  H50 LYS d   1      -4.212  14.826  31.643  0.00  0.00     0.086 H 
ATOM     62  H51 LYS d   1      -2.260  13.110  31.539  0.00  0.00     0.041 H 
ATOM     63  H52 LYS d   1      -3.091  12.673  30.007  0.00  0.00     0.041 H 
ATOM     64  H53 LYS d   1      -5.290  11.337  34.549  0.00  0.00     0.091 H 
ATOM     65  H54 LYS d   1      -6.822  13.303  33.836  0.00  0.00     0.080 H 
ATOM     66  H55 LYS d   1      -5.803  14.304  31.495  0.00  0.00     0.081 H 
ENDROOT
BRANCH  31  67
ATOM     67  C60 LYS d   1      -2.188  14.987  30.932  0.00  0.00     0.175 C 
ATOM     68  O93 LYS d   1      -1.362  14.946  32.011  0.00  0.00    -0.175 OA
ATOM     69  N   LYS d   1      -1.475  15.539  29.794  0.00  0.00    -0.357 N 
ATOM     70  H56 LYS d   1      -1.825  15.424  28.864  0.00  0.00     0.162 HD
BRANCH  69  71
ATOM     71  CA  LYS d   1      -0.203  16.284  30.050  0.00  0.00     0.088 C 
ATOM     72  H57 LYS d   1       0.375  15.803  30.853  0.00  0.00     0.087 H 
BRANCH  71  73
ATOM     73  C   LYS d   1      -0.470  17.720  30.421  0.00  0.00     0.241 C 
ATOM     74  O   LYS d   1       0.429  18.530  30.382  0.00  0.00    -0.271 OA
ATOM     75  N   LYS d   1      -1.753  18.057  30.766  0.00  0.00    -0.345 N 
ATOM     76  H67 LYS d   1      -2.468  17.390  30.558  0.00  0.00     0.163 HD
BRANCH  75  77
ATOM     77  CA  LYS d   1      -2.162  19.268  31.392  0.00  0.00     0.096 C 
ATOM     78  H68 LYS d   1      -3.220  19.421  31.134  0.00  0.00     0.089 H 
BRANCH  77  79
ATOM     79  C   LYS d   1      -1.386  20.502  30.897  0.00  0.00     0.196 C 
ATOM     80  O   LYS d   1      -1.760  21.143  29.921  0.00  0.00    -0.646 OA
ATOM     81  OXT LYS d   1      -0.368  20.886  31.462  0.00  0.00    -0.646 OA
ENDBRANCH  77  79
BRANCH  77  82
ATOM     82  CB  LYS d   1      -2.062  19.177  32.928  0.00  0.00    -0.029 C 
ATOM     83  H69 LYS d   1      -3.078  19.021  33.321  0.00  0.00     0.037 H 
ATOM     84  H70 LYS d   1      -1.670  20.137  33.295  0.00  0.00     0.037 H 
BRANCH  82  85
ATOM     85  CG  LYS d   1      -1.178  18.075  33.483  0.00  0.00     0.011 C 
ATOM     86  H71 LYS d   1      -0.518  18.505  34.252  0.00  0.00     0.047 H 
ATOM     87  H72 LYS d   1      -0.569  17.665  32.664  0.00  0.00     0.047 H 
BRANCH  85  88
ATOM     88  CD  LYS d   1      -1.982  16.945  34.106  0.00  0.00     0.215 C 
ATOM     89  OE1 LYS d   1      -3.190  16.912  33.978  0.00  0.00    -0.274 OA
ATOM     90  NE2 LYS d   1      -1.303  16.000  34.774  0.00  0.00    -0.370 N 
ATOM     91  H73 LYS d   1      -1.793  15.239  35.199  0.00  0.00     0.159 HD
ATOM     92  H74 LYS d   1      -0.307  16.057  34.847  0.00  0.00     0.159 HD
ENDBRANCH  85  88
ENDBRANCH  82  85
ENDBRANCH  77  82
ENDBRANCH  75  77
ENDBRANCH  71  73
BRANCH  71  93
ATOM     93  CB  LYS d   1       0.535  16.195  28.723  0.00  0.00    -0.035 C 
ATOM     94  H58 LYS d   1       1.559  16.562  28.887  0.00  0.00     0.037 H 
ATOM     95  H59 LYS d   1       0.019  16.855  28.011  0.00  0.00     0.037 H 
BRANCH  93  96
ATOM     96  CG  LYS d   1       0.637  14.821  28.083  0.00  0.00    -0.059 C 
ATOM     97  H60 LYS d   1      -0.136  14.177  28.528  0.00  0.00     0.038 H 
BRANCH  96  98
ATOM     98  CD1 LYS d   1       0.414  14.871  26.600  0.00  0.00    -0.073 C 
ATOM     99  H61 LYS d   1       0.497  13.857  26.182  0.00  0.00     0.028 H 
ATOM    100  H62 LYS d   1       1.171  15.521  26.137  0.00  0.00     0.028 H 
ATOM    101  H63 LYS d   1      -0.590  15.271  26.393  0.00  0.00     0.028 H 
ENDBRANCH  96  98
BRANCH  96 102
ATOM    102  CD2 LYS d   1       1.985  14.218  28.359  0.00  0.00    -0.073 C 
ATOM    103  H64 LYS d   1       2.154  14.179  29.445  0.00  0.00     0.028 H 
ATOM    104  H65 LYS d   1       2.765  14.834  27.889  0.00  0.00     0.028 H 
ATOM    105  H66 LYS d   1       2.023  13.200  27.945  0.00  0.00     0.028 H 
ENDBRANCH  96 102
ENDBRANCH  93  96
ENDBRANCH  71  93
ENDBRANCH  69  71
ENDBRANCH  31  67
BRANCH  18 106
ATOM    106  CB  LYS d   1      -6.717  17.662  28.990  0.00  0.00    -0.049 C 
ATOM    107  H40 LYS d   1      -6.900  17.914  30.045  0.00  0.00     0.030 H 
ATOM    108  H41 LYS d   1      -7.229  16.720  28.744  0.00  0.00     0.030 H 
ATOM    109  H42 LYS d   1      -7.103  18.468  28.349  0.00  0.00     0.030 H 
ENDBRANCH  18 106
BRANCH  14 110
ATOM    110  CB  LYS d   1      -4.108  18.156  24.503  0.00  0.00     0.004 C 
ATOM    111  H33 LYS d   1      -4.400  19.072  25.037  0.00  0.00     0.046 H 
ATOM    112  H34 LYS d   1      -5.009  17.643  24.135  0.00  0.00     0.046 H 
BRANCH 110 113
ATOM    113  CG  LYS d   1      -3.282  18.542  23.334  0.00  0.00     0.053 A 
ATOM    114  ND1 LYS d   1      -3.511  18.054  22.072  0.00  0.00    -0.247 NA
ATOM    115  CE1 LYS d   1      -2.639  18.576  21.232  0.00  0.00     0.064 A 
ATOM    116  NE2 LYS d   1      -1.865  19.400  21.908  0.00  0.00    -0.359 N 
ATOM    117  H36 LYS d   1      -2.571  18.363  20.166  0.00  0.00     0.143 H 
ATOM    118  CD2 LYS d   1      -2.248  19.398  23.223  0.00  0.00     0.002 A 
ATOM    119  H37 LYS d   1      -1.095  19.957  21.511  0.00  0.00     0.166 HD
ATOM    120  H35 LYS d   1      -1.800  19.979  24.028  0.00  0.00     0.114 H 
ENDBRANCH 110 113
ENDBRANCH  14 110
BRANCH  21 121
ATOM    121  O30 LYS d   1     -10.189  13.448  31.035  0.00  0.00    -0.369 OA
ATOM    122  H48 LYS d   1     -10.134  13.524  31.980  0.00  0.00     0.212 HD
ENDBRANCH  21 121
BRANCH  10 123
ATOM    123  CB  LYS d   1      -3.471  12.927  24.391  0.00  0.00    -0.035 C 
ATOM    124  H22 LYS d   1      -2.816  13.720  23.999  0.00  0.00     0.037 H 
ATOM    125  H23 LYS d   1      -4.192  12.631  23.615  0.00  0.00     0.037 H 
BRANCH 123 126
ATOM    126  CG  LYS d   1      -2.570  11.715  24.598  0.00  0.00    -0.059 C 
ATOM    127  H24 LYS d   1      -3.235  10.851  24.742  0.00  0.00     0.038 H 
BRANCH 126 128
ATOM    128  CD1 LYS d   1      -1.727  11.441  23.373  0.00  0.00    -0.073 C 
ATOM    129  H25 LYS d   1      -1.090  10.563  23.555  0.00  0.00     0.028 H 
ATOM    130  H26 LYS d   1      -1.094  12.315  23.160  0.00  0.00     0.028 H 
ATOM    131  H27 LYS d   1      -2.384  11.246  22.512  0.00  0.00     0.028 H 
ENDBRANCH 126 128
BRANCH 126 132
ATOM    132  CD2 LYS d   1      -1.693  11.794  25.806  0.00  0.00    -0.073 C 
ATOM    133  H28 LYS d   1      -2.310  11.993  26.695  0.00  0.00     0.028 H 
ATOM    134  H29 LYS d   1      -0.963  12.607  25.677  0.00  0.00     0.028 H 
ATOM    135  H30 LYS d   1      -1.161  10.840  25.936  0.00  0.00     0.028 H 
ENDBRANCH 126 132
ENDBRANCH 123 126
ENDBRANCH  10 123
BRANCH   1 136
ATOM    136  N   LYS d   1      -7.826  15.534  23.806  0.00  0.00    -0.346 N 
ATOM    137  C   LYS d   1      -7.343  16.736  23.984  0.00  0.00     0.248 C 
ATOM    138  O   LYS d   1      -6.873  17.063  25.031  0.00  0.00    -0.271 OA
ATOM    139  H8  LYS d   1      -8.111  15.237  22.895  0.00  0.00     0.163 HD
BRANCH 137 140
ATOM    140  CA  LYS d   1      -7.345  17.732  22.727  0.00  0.00     0.172 C 
ATOM    141  H4  LYS d   1      -6.417  18.312  22.836  0.00  0.00     0.098 H 
BRANCH 140 142
ATOM    142  N   LYS d   1      -7.192  17.050  21.464  0.00  0.00    -0.067 N 
ATOM    143  H1  LYS d   1      -7.201  17.724  20.715  0.00  0.00     0.275 HD
ATOM    144  H2  LYS d   1      -7.952  16.399  21.339  0.00  0.00     0.275 HD
ATOM    145  H3  LYS d   1      -6.317  16.550  21.456  0.00  0.00     0.275 HD
ENDBRANCH 140 142
BRANCH 140 146
ATOM    146  CB  LYS d   1      -8.458  18.799  22.761  0.00  0.00    -0.042 C 
ATOM    147  H5  LYS d   1      -8.495  19.259  23.760  0.00  0.00     0.030 H 
ATOM    148  H6  LYS d   1      -9.426  18.326  22.539  0.00  0.00     0.030 H 
ATOM    149  H7  LYS d   1      -8.247  19.573  22.009  0.00  0.00     0.030 H 
ENDBRANCH 140 146
ENDBRANCH 137 140
ENDBRANCH   1 136
TORSDOF 24
