REMARK  11 active torsions:
REMARK  status: ('A' for Active; 'I' for Inactive)
REMARK    1  A    between atoms: N1_1  and  C1'_9 
REMARK    2  A    between atoms: C4_4  and  N4_8 
REMARK    3  A    between atoms: C2'_10  and  O2'_11 
REMARK    4  A    between atoms: C3'_12  and  O3'_15 
REMARK    5  A    between atoms: C4'_13  and  C5'_16 
REMARK    6  A    between atoms: C5'_16  and  O5'_17 
REMARK    7  A    between atoms: O5'_17  and  PA_18 
REMARK    8  A    between atoms: PA_18  and  O3A_21 
REMARK    9  A    between atoms: O3A_21  and  PB_22 
REMARK   10  A    between atoms: PB_22  and  O3B_25 
REMARK   11  A    between atoms: O3B_25  and  PG_26 
ROOT
ATOM      1  C1' CTP d   1     142.913 160.058 148.442  0.00  0.00     0.141 A 
ATOM      2  C2' CTP d   1     141.762 161.001 148.130  0.00  0.00     0.105 A 
ATOM      3  C3' CTP d   1     141.211 160.570 146.786  0.00  0.00     0.091 A 
ATOM      4  C4' CTP d   1     142.051 159.384 146.342  0.00  0.00     0.089 A 
ATOM      5  O4' CTP d   1     143.029 159.136 147.355  0.00  0.00    -0.353 OA
ATOM      6  H6  CTP d   1     142.711 159.514 149.376  0.00  0.00     0.123 H 
ATOM      7  H7  CTP d   1     142.121 162.040 148.081  0.00  0.00     0.093 H 
ATOM      8  H9  CTP d   1     141.291 161.391 146.058  0.00  0.00     0.091 H 
ATOM      9  H10 CTP d   1     141.404 158.502 146.228  0.00  0.00     0.090 H 
ENDROOT
BRANCH   4  10
ATOM     10  C5' CTP d   1     142.746 159.664 145.016  0.00  0.00     0.058 C 
ATOM     11  H12 CTP d   1     142.989 160.735 144.949  0.00  0.00     0.079 H 
ATOM     12  H13 CTP d   1     142.078 159.387 144.187  0.00  0.00     0.079 H 
BRANCH  10  13
ATOM     13  O5' CTP d   1     143.946 158.899 144.935  0.00  0.00    -0.287 OA
BRANCH  13  14
ATOM     14  PA  CTP d   1     145.055 159.232 143.817  0.00  0.00     0.417 P 
ATOM     15  O1A CTP d   1     144.425 159.049 142.457  0.00  0.00    -0.624 OA
ATOM     16  O2A CTP d   1     146.319 158.485 144.168  0.00  0.00    -0.624 OA
BRANCH  14  17
ATOM     17  O3A CTP d   1     145.319 160.804 144.042  0.00  0.00    -0.180 OA
BRANCH  17  18
ATOM     18  PB  CTP d   1     145.444 161.800 142.783  0.00  0.00     0.428 P 
ATOM     19  O1B CTP d   1     144.132 161.785 142.037  0.00  0.00    -0.624 OA
ATOM     20  O2B CTP d   1     146.019 163.109 143.272  0.00  0.00    -0.624 OA
BRANCH  18  21
ATOM     21  O3B CTP d   1     146.553 161.075 141.868  0.00  0.00    -0.173 OA
BRANCH  21  22
ATOM     22  PG  CTP d   1     147.491 161.935 140.883  0.00  0.00     0.431 P 
ATOM     23  O1G CTP d   1     147.852 160.965 139.784  0.00  0.00    -0.616 OA
ATOM     24  O2G CTP d   1     146.604 163.076 140.442  0.00  0.00    -0.616 OA
ATOM     25  O3G CTP d   1     148.651 162.349 141.755  0.00  0.00    -0.616 OA
ENDBRANCH  21  22
ENDBRANCH  18  21
ENDBRANCH  17  18
ENDBRANCH  14  17
ENDBRANCH  13  14
ENDBRANCH  10  13
ENDBRANCH   4  10
BRANCH   3  26
ATOM     26  O3' CTP d   1     139.842 160.177 146.921  0.00  0.00    -0.390 OA
ATOM     27  H11 CTP d   1     139.775 159.486 147.569  0.00  0.00     0.210 HD
ENDBRANCH   3  26
BRANCH   2  28
ATOM     28  O2' CTP d   1     140.750 160.889 149.135  0.00  0.00    -0.388 OA
ATOM     29  H8  CTP d   1     140.425 159.996 149.158  0.00  0.00     0.210 HD
ENDBRANCH   2  28
BRANCH   1  30
ATOM     30  N1  CTP d   1     144.155 160.822 148.577  0.00  0.00    -0.280 N 
ATOM     31  C2  CTP d   1     144.828 160.863 149.815  0.00  0.00     0.330 A 
ATOM     32  N3  CTP d   1     145.973 161.567 149.942  0.00  0.00    -0.295 N 
ATOM     33  O2  CTP d   1     144.363 160.246 150.797  0.00  0.00    -0.246 OA
ATOM     34  C4  CTP d   1     146.483 162.236 148.887  0.00  0.00     0.103 A 
ATOM     35  H1  CTP d   1     146.446 161.593 150.823  0.00  0.00     0.172 HD
ATOM     36  C5  CTP d   1     145.830 162.205 147.661  0.00  0.00    -0.026 A 
ATOM     37  C6  CTP d   1     144.651 161.482 147.525  0.00  0.00    -0.010 A 
ATOM     38  H2  CTP d   1     146.241 162.745 146.810  0.00  0.00     0.091 H 
ATOM     39  H3  CTP d   1     144.134 161.453 146.567  0.00  0.00     0.112 H 
BRANCH  34  40
ATOM     40  N4  CTP d   1     147.633 162.940 149.023  0.00  0.00    -0.385 N 
ATOM     41  H4  CTP d   1     148.023 163.451 148.218  0.00  0.00     0.157 HD
ATOM     42  H5  CTP d   1     148.118 162.964 149.932  0.00  0.00     0.157 HD
ENDBRANCH  34  40
ENDBRANCH   1  30
TORSDOF 11
