REMARK  10 active torsions:
REMARK  status: ('A' for Active; 'I' for Inactive)
REMARK       I    between atoms: C48_1  and  N50_3 
REMARK       I    between atoms: N_12  and  C48_1 
REMARK    1  A    between atoms: N50_3  and  C51_4 
REMARK    2  A    between atoms: C54_7  and  C55_8 
REMARK    3  A    between atoms: C_11  and  CA_16 
REMARK       I    between atoms: N_24  and  C_11 
REMARK    4  A    between atoms: CA_16  and  N_12 
REMARK    5  A    between atoms: CA_16  and  CB_17 
REMARK    6  A    between atoms: CB_17  and  CG_18 
REMARK    7  A    between atoms: CA_25  and  N_24 
REMARK    8  A    between atoms: CA_46  and  CB_49 
REMARK    9  A    between atoms: C_50  and  O_52 
REMARK   10  A    between atoms: CG_57  and  CE_56 
ROOT
ATOM      1  CA  OO1 d   1     -18.287  72.024 -38.879  0.00  0.00     0.138 C 
ATOM      2  C   OO1 d   1     -19.400  73.048 -38.593  0.00  0.00     0.252 C 
ATOM      3  O   OO1 d   1     -20.514  72.881 -39.000  0.00  0.00    -0.270 OA
ATOM      4  CB  OO1 d   1     -17.751  72.313 -40.255  0.00  0.00     0.170 C 
ATOM      5  OG  OO1 d   1     -16.553  71.574 -40.283  0.00  0.00    -0.297 OA
ATOM      6  N   OO1 d   1     -19.058  74.227 -37.842  0.00  0.00    -0.312 N 
ATOM      7  CA  OO1 d   1     -17.855  74.478 -37.361  0.00  0.00     0.099 C 
ATOM      8  C   OO1 d   1     -17.601  73.567 -36.163  0.00  0.00     0.244 C 
ATOM      9  O   OO1 d   1     -18.490  73.137 -35.466  0.00  0.00    -0.271 OA
ATOM     10  CB  OO1 d   1     -17.912  75.943 -36.746  0.00  0.00    -0.021 C 
ATOM     11  CG  OO1 d   1     -19.401  76.126 -36.492  0.00  0.00    -0.086 C 
ATOM     12  CD  OO1 d   1     -20.041  75.433 -37.442  0.00  0.00    -0.020 C 
ATOM     13  C   OO1 d   1     -14.193  72.390 -36.833  0.00  0.00     0.241 C 
ATOM     14  N   OO1 d   1     -16.260  73.123 -35.786  0.00  0.00    -0.337 N 
ATOM     15  O   OO1 d   1     -12.989  72.503 -36.910  0.00  0.00    -0.271 OA
ATOM     16  CA  OO1 d   1     -15.029  73.561 -36.441  0.00  0.00     0.091 C 
ATOM     17  CB  OO1 d   1     -14.253  74.401 -35.426  0.00  0.00    -0.038 C 
ATOM     18  CD  OO1 d   1     -15.465  73.198 -33.549  0.00  0.00    -0.050 C 
ATOM     19  CE  OO1 d   1     -16.147  72.315 -34.569  0.00  0.00    -0.001 C 
ATOM     20  CG  OO1 d   1     -14.179  73.779 -34.054  0.00  0.00    -0.061 C 
ATOM     21  N   OO1 d   1     -14.810  71.112 -37.115  0.00  0.00    -0.346 N 
ATOM     22  CA  OO1 d   1     -13.972  69.990 -37.380  0.00  0.00     0.086 C 
ATOM     23  C   OO1 d   1     -14.380  69.126 -38.533  0.00  0.00     0.242 C 
ATOM     24  O   OO1 d   1     -14.641  67.953 -38.385  0.00  0.00    -0.271 OA
ATOM     25  C   OO1 d   1     -15.285  72.180 -39.974  0.00  0.00     0.306 C 
ATOM     26  N   OO1 d   1     -14.374  69.711 -39.810  0.00  0.00    -0.338 N 
ATOM     27  CA  OO1 d   1     -14.041  71.267 -40.170  0.00  0.00     0.096 C 
ATOM     28  CB  OO1 d   1     -13.672  71.246 -41.459  0.00  0.00    -0.034 C 
ATOM     29  CD  OO1 d   1     -14.726  69.050 -41.157  0.00  0.00     0.002 C 
ATOM     30  CG  OO1 d   1     -14.570  70.031 -42.122  0.00  0.00    -0.040 C 
ATOM     31  OXT OO1 d   1     -16.398  71.743 -40.169  0.00  0.00    -0.297 OA
ATOM     32  H17 OO1 d   1     -17.488  72.132 -38.131  0.00  0.00     0.095 H 
ATOM     33  H18 OO1 d   1     -18.314  72.918 -40.981  0.00  0.00     0.133 H 
ATOM     34  H19 OO1 d   1     -17.078  74.373 -38.133  0.00  0.00     0.088 H 
ATOM     35  H20 OO1 d   1     -17.534  76.690 -37.459  0.00  0.00     0.042 H 
ATOM     36  H21 OO1 d   1     -17.337  76.006 -35.810  0.00  0.00     0.042 H 
ATOM     37  H22 OO1 d   1     -19.858  76.708 -35.693  0.00  0.00     0.079 H 
ATOM     38  H23 OO1 d   1     -21.025  75.644 -37.858  0.00  0.00     0.111 H 
ATOM     39  H24 OO1 d   1     -15.269  74.160 -37.332  0.00  0.00     0.087 H 
ATOM     40  H25 OO1 d   1     -14.745  75.380 -35.337  0.00  0.00     0.036 H 
ATOM     41  H26 OO1 d   1     -13.228  74.539 -35.800  0.00  0.00     0.036 H 
ATOM     42  H27 OO1 d   1     -15.252  72.599 -32.651  0.00  0.00     0.035 H 
ATOM     43  H28 OO1 d   1     -16.145  74.022 -33.287  0.00  0.00     0.035 H 
ATOM     44  H29 OO1 d   1     -15.544  71.416 -34.761  0.00  0.00     0.064 H 
ATOM     45  H30 OO1 d   1     -17.144  72.018 -34.212  0.00  0.00     0.064 H 
ATOM     46  H31 OO1 d   1     -13.854  74.555 -33.345  0.00  0.00     0.033 H 
ATOM     47  H32 OO1 d   1     -13.430  72.974 -34.085  0.00  0.00     0.033 H 
ATOM     48  H33 OO1 d   1     -15.806  71.018 -37.124  0.00  0.00     0.163 HD
ATOM     49  H34 OO1 d   1     -12.954  70.350 -37.590  0.00  0.00     0.086 H 
ATOM     50  H39 OO1 d   1     -13.219  71.637 -39.539  0.00  0.00     0.085 H 
ATOM     51  H40 OO1 d   1     -12.597  71.032 -41.553  0.00  0.00     0.037 H 
ATOM     52  H41 OO1 d   1     -13.898  72.207 -41.944  0.00  0.00     0.037 H 
ATOM     53  H42 OO1 d   1     -15.765  68.689 -41.145  0.00  0.00     0.065 H 
ATOM     54  H43 OO1 d   1     -14.048  68.207 -41.357  0.00  0.00     0.065 H 
ATOM     55  H47 OO1 d   1     -15.563  70.414 -42.401  0.00  0.00     0.042 H 
ENDROOT
BRANCH   1  56
ATOM     56  N   OO1 d   1     -18.772  70.700 -38.853  0.00  0.00    -0.342 N 
ATOM     57  C   OO1 d   1     -18.270  69.722 -37.910  0.00  0.00     0.241 C 
ATOM     58  O   OO1 d   1     -17.417  70.012 -37.130  0.00  0.00    -0.271 OA
ATOM     59  H16 OO1 d   1     -19.482  70.429 -39.503  0.00  0.00     0.163 HD
BRANCH  57  60
ATOM     60  CA  OO1 d   1     -18.826  68.298 -37.957  0.00  0.00     0.095 C 
ATOM     61  H10 OO1 d   1     -19.913  68.302 -38.126  0.00  0.00     0.088 H 
BRANCH  60  62
ATOM     62  N   OO1 d   1     -18.145  67.714 -39.032  0.00  0.00    -0.329 N 
ATOM     63  C48 OO1 d   1     -18.526  67.938 -40.393  0.00  0.00     0.321 C 
ATOM     64  O49 OO1 d   1     -19.466  68.629 -40.744  0.00  0.00    -0.247 OA
ATOM     65  N50 OO1 d   1     -17.716  67.230 -41.311  0.00  0.00    -0.309 N 
ATOM     66  H1  OO1 d   1     -17.008  66.629 -40.940  0.00  0.00     0.170 HD
ATOM     67  H9  OO1 d   1     -17.364  67.119 -38.842  0.00  0.00     0.165 HD
BRANCH  65  68
ATOM     68  C51 OO1 d   1     -17.841  67.316 -42.748  0.00  0.00     0.036 A 
ATOM     69  C52 OO1 d   1     -17.863  66.161 -43.506  0.00  0.00    -0.057 A 
ATOM     70  C53 OO1 d   1     -17.909  66.275 -44.890  0.00  0.00    -0.075 A 
ATOM     71  H2  OO1 d   1     -17.845  65.187 -43.031  0.00  0.00     0.086 H 
ATOM     72  C54 OO1 d   1     -17.899  67.524 -45.498  0.00  0.00    -0.062 A 
ATOM     73  H3  OO1 d   1     -17.953  65.381 -45.501  0.00  0.00     0.084 H 
ATOM     74  C56 OO1 d   1     -17.858  68.679 -44.741  0.00  0.00    -0.075 A 
ATOM     75  C57 OO1 d   1     -17.805  68.579 -43.340  0.00  0.00    -0.057 A 
ATOM     76  H7  OO1 d   1     -17.867  69.651 -45.222  0.00  0.00     0.084 H 
ATOM     77  H8  OO1 d   1     -17.737  69.471 -42.728  0.00  0.00     0.086 H 
BRANCH  72  78
ATOM     78  C55 OO1 d   1     -17.950  67.611 -47.007  0.00  0.00    -0.051 C 
ATOM     79  H4  OO1 d   1     -17.934  68.667 -47.314  0.00  0.00     0.033 H 
ATOM     80  H5  OO1 d   1     -18.874  67.137 -47.371  0.00  0.00     0.033 H 
ATOM     81  H6  OO1 d   1     -17.079  67.092 -47.434  0.00  0.00     0.033 H 
ENDBRANCH  72  78
ENDBRANCH  65  68
ENDBRANCH  60  62
BRANCH  60  82
ATOM     82  CB  OO1 d   1     -18.507  67.554 -36.682  0.00  0.00    -0.014 C 
ATOM     83  H11 OO1 d   1     -18.791  68.184 -35.826  0.00  0.00     0.043 H 
ATOM     84  H12 OO1 d   1     -17.425  67.357 -36.650  0.00  0.00     0.043 H 
BRANCH  82  85
ATOM     85  CG  OO1 d   1     -19.259  66.209 -36.578  0.00  0.00    -0.050 A 
ATOM     86  CD1 OO1 d   1     -20.543  66.129 -36.075  0.00  0.00    -0.039 A 
ATOM     87  CE1 OO1 d   1     -21.207  64.893 -36.015  0.00  0.00     0.119 A 
ATOM     88  H14 OO1 d   1     -21.041  67.026 -35.724  0.00  0.00     0.089 H 
ATOM     89  F1  OO1 d   1     -22.438  64.847 -35.537  0.00  0.00    -0.206 F 
ATOM     90  CZ  OO1 d   1     -20.588  63.728 -36.410  0.00  0.00    -0.009 A 
ATOM     91  CE2 OO1 d   1     -19.305  63.821 -36.896  0.00  0.00     0.119 A 
ATOM     92  H13 OO1 d   1     -21.094  62.772 -36.340  0.00  0.00     0.092 H 
ATOM     93  F2  OO1 d   1     -18.665  62.734 -37.320  0.00  0.00    -0.206 F 
ATOM     94  CD2 OO1 d   1     -18.646  65.043 -36.996  0.00  0.00    -0.039 A 
ATOM     95  H15 OO1 d   1     -17.643  65.080 -37.405  0.00  0.00     0.089 H 
ENDBRANCH  82  85
ENDBRANCH  60  82
ENDBRANCH  57  60
ENDBRANCH   1  56
BRANCH  25  96
ATOM     96  O   OO1 d   1     -15.146  73.332 -39.626  0.00  0.00    -0.342 OA
ATOM     97  H38 OO1 d   1     -15.631  73.480 -38.822  0.00  0.00     0.215 HD
ENDBRANCH  25  96
BRANCH  30  98
ATOM     98  CE  OO1 d   1     -13.879  69.536 -43.369  0.00  0.00    -0.071 C 
ATOM     99  H44 OO1 d   1     -13.788  70.362 -44.090  0.00  0.00     0.028 H 
ATOM    100  H45 OO1 d   1     -14.468  68.722 -43.816  0.00  0.00     0.028 H 
ATOM    101  H46 OO1 d   1     -12.877  69.164 -43.110  0.00  0.00     0.028 H 
ENDBRANCH  30  98
BRANCH  22 102
ATOM    102  CB  OO1 d   1     -13.981  69.226 -36.062  0.00  0.00    -0.049 C 
ATOM    103  H35 OO1 d   1     -13.355  68.326 -36.156  0.00  0.00     0.030 H 
ATOM    104  H36 OO1 d   1     -15.012  68.931 -35.816  0.00  0.00     0.030 H 
ATOM    105  H37 OO1 d   1     -13.582  69.868 -35.263  0.00  0.00     0.030 H 
ENDBRANCH  22 102
TORSDOF 10
