REMARK  11 active torsions:
REMARK  status: ('A' for Active; 'I' for Inactive)
REMARK    1  A    between atoms: C2_2  and  C1_1 
REMARK    2  A    between atoms: C2_2  and  C3_3 
REMARK    3  A    between atoms: C2_2  and  C4_4 
REMARK    4  A    between atoms: C5_5  and  C2_2 
REMARK    5  A    between atoms: N8_18  and  C7_7 
REMARK    6  A    between atoms: C11_8  and  C9_19 
REMARK    7  A    between atoms: S12_21  and  C11_8 
REMARK    8  A    between atoms: N17_26  and  C18_9 
REMARK    9  A    between atoms: C21_11  and  O22_28 
REMARK   10  A    between atoms: N25_29  and  C27_14 
REMARK       I    between atoms: C9_19  and  N8_18 
REMARK   11  A    between atoms: C13_22  and  S12_21 
ROOT
ATOM      1  C5  OOM d   1     -17.720 -22.172 -13.317  0.00  0.00     0.066 A 
ATOM      2  C6  OOM d   1     -18.035 -22.702 -14.577  0.00  0.00    -0.012 A 
ATOM      3  C7  OOM d   1     -18.303 -24.039 -14.438  0.00  0.00     0.134 A 
ATOM      4  N25 OOM d   1     -18.160 -24.319 -13.099  0.00  0.00    -0.217 N 
ATOM      5  N26 OOM d   1     -17.798 -23.139 -12.452  0.00  0.00    -0.169 NA
ATOM      6  H10 OOM d   1     -18.062 -22.143 -15.511  0.00  0.00     0.092 H 
ENDROOT
BRANCH   3   7
ATOM      7  N8  OOM d   1     -18.688 -24.965 -15.435  0.00  0.00    -0.311 N 
ATOM      8  C9  OOM d   1     -18.311 -24.961 -16.745  0.00  0.00     0.233 C 
ATOM      9  O10 OOM d   1     -17.534 -24.144 -17.217  0.00  0.00    -0.272 OA
ATOM     10  H19 OOM d   1     -19.302 -25.701 -15.149  0.00  0.00     0.170 HD
BRANCH   8  11
ATOM     11  C11 OOM d   1     -18.854 -26.066 -17.620  0.00  0.00     0.058 C 
ATOM     12  H11 OOM d   1     -19.884 -26.287 -17.302  0.00  0.00     0.064 H 
ATOM     13  H12 OOM d   1     -18.227 -26.959 -17.480  0.00  0.00     0.064 H 
BRANCH  11  14
ATOM     14  S12 OOM d   1     -18.877 -25.652 -19.390  0.00  0.00    -0.079 SA
BRANCH  14  15
ATOM     15  C13 OOM d   1     -19.195 -27.213 -20.161  0.00  0.00     0.214 A 
ATOM     16  N14 OOM d   1     -19.456 -28.314 -19.497  0.00  0.00    -0.101 NA
ATOM     17  N15 OOM d   1     -19.648 -29.293 -20.283  0.00  0.00    -0.022 NA
ATOM     18  N16 OOM d   1     -19.533 -28.904 -21.494  0.00  0.00    -0.038 NA
ATOM     19  N17 OOM d   1     -19.230 -27.539 -21.488  0.00  0.00    -0.188 N 
BRANCH  19  20
ATOM     20  C18 OOM d   1     -19.031 -26.776 -22.659  0.00  0.00     0.063 A 
ATOM     21  C19 OOM d   1     -19.604 -25.522 -22.825  0.00  0.00    -0.052 A 
ATOM     22  C20 OOM d   1     -19.408 -24.811 -23.997  0.00  0.00    -0.049 A 
ATOM     23  H13 OOM d   1     -20.209 -25.097 -22.032  0.00  0.00     0.087 H 
ATOM     24  C21 OOM d   1     -18.634 -25.334 -25.021  0.00  0.00     0.065 A 
ATOM     25  H20 OOM d   1     -19.865 -23.835 -24.115  0.00  0.00     0.087 H 
ATOM     26  C23 OOM d   1     -18.060 -26.588 -24.865  0.00  0.00    -0.049 A 
ATOM     27  C24 OOM d   1     -18.269 -27.302 -23.698  0.00  0.00    -0.052 A 
ATOM     28  H14 OOM d   1     -17.449 -27.008 -25.656  0.00  0.00     0.087 H 
ATOM     29  H15 OOM d   1     -17.832 -28.288 -23.591  0.00  0.00     0.087 H 
BRANCH  24  30
ATOM     30  O22 OOM d   1     -18.438 -24.610 -26.161  0.00  0.00    -0.361 OA
ATOM     31  H21 OOM d   1     -17.890 -25.105 -26.759  0.00  0.00     0.217 HD
ENDBRANCH  24  30
ENDBRANCH  19  20
ENDBRANCH  14  15
ENDBRANCH  11  14
ENDBRANCH   8  11
ENDBRANCH   3   7
BRANCH   4  32
ATOM     32  C27 OOM d   1     -18.340 -25.537 -12.418  0.00  0.00     0.060 A 
ATOM     33  C32 OOM d   1     -19.005 -25.522 -11.186  0.00  0.00    -0.055 A 
ATOM     34  C31 OOM d   1     -19.207 -26.709 -10.487  0.00  0.00    -0.081 A 
ATOM     35  H18 OOM d   1     -19.363 -24.585 -10.776  0.00  0.00     0.087 H 
ATOM     36  C30 OOM d   1     -18.747 -27.914 -10.996  0.00  0.00    -0.083 A 
ATOM     37  H17 OOM d   1     -19.728 -26.691  -9.537  0.00  0.00     0.083 H 
ATOM     38  C29 OOM d   1     -18.096 -27.940 -12.224  0.00  0.00    -0.081 A 
ATOM     39  H16 OOM d   1     -18.894 -28.832 -10.439  0.00  0.00     0.083 H 
ATOM     40  C28 OOM d   1     -17.891 -26.759 -12.930  0.00  0.00    -0.055 A 
ATOM     41  H23 OOM d   1     -17.748 -28.882 -12.632  0.00  0.00     0.083 H 
ATOM     42  H22 OOM d   1     -17.379 -26.786 -13.885  0.00  0.00     0.087 H 
ENDBRANCH   4  32
BRANCH   1  43
ATOM     43  C2  OOM d   1     -17.349 -20.752 -12.954  0.00  0.00    -0.005 C 
BRANCH  43  44
ATOM     44  C1  OOM d   1     -18.243 -19.745 -13.678  0.00  0.00    -0.064 C 
ATOM     45  H1  OOM d   1     -17.949 -18.724 -13.394  0.00  0.00     0.028 H 
ATOM     46  H2  OOM d   1     -19.292 -19.917 -13.396  0.00  0.00     0.028 H 
ATOM     47  H3  OOM d   1     -18.131 -19.870 -14.765  0.00  0.00     0.028 H 
ENDBRANCH  43  44
BRANCH  43  48
ATOM     48  C3  OOM d   1     -15.891 -20.480 -13.313  0.00  0.00    -0.064 C 
ATOM     49  H4  OOM d   1     -15.245 -21.203 -12.794  0.00  0.00     0.028 H 
ATOM     50  H5  OOM d   1     -15.622 -19.459 -13.004  0.00  0.00     0.028 H 
ATOM     51  H6  OOM d   1     -15.756 -20.582 -14.400  0.00  0.00     0.028 H 
ENDBRANCH  43  48
BRANCH  43  52
ATOM     52  C4  OOM d   1     -17.516 -20.574 -11.445  0.00  0.00    -0.064 C 
ATOM     53  H7  OOM d   1     -18.563 -20.766 -11.167  0.00  0.00     0.028 H 
ATOM     54  H8  OOM d   1     -17.245 -19.545 -11.165  0.00  0.00     0.028 H 
ATOM     55  H9  OOM d   1     -16.860 -21.282 -10.917  0.00  0.00     0.028 H 
ENDBRANCH  43  52
ENDBRANCH   1  43
TORSDOF 11
