REMARK  7 active torsions:
REMARK  status: ('A' for Active; 'I' for Inactive)
REMARK    1  A    between atoms: C19_2  and  C18_4 
REMARK    2  A    between atoms: C18_4  and  C20_5 
REMARK    3  A    between atoms: C18_4  and  C15_11 
REMARK    4  A    between atoms: C12_16  and  C9_17 
REMARK    5  A    between atoms: C9_17  and  N1_21 
REMARK       I    between atoms: N1_21  and  C8_22 
REMARK    6  A    between atoms: C8_22  and  C6_24 
REMARK    7  A    between atoms: N_26  and  C25_27 
ROOT
ATOM      1  C9  ONS d   1      -7.566  -4.406 -44.028  0.00  0.00     0.103 A 
ATOM      2  C10 ONS d   1      -6.560  -3.914 -43.005  0.00  0.00     0.049 A 
ATOM      3  O1  ONS d   1      -5.471  -4.455 -43.756  0.00  0.00    -0.385 OA
ATOM      4  C11 ONS d   1      -6.365  -4.986 -44.753  0.00  0.00     0.049 A 
ATOM      5  H10 ONS d   1      -6.681  -4.369 -42.011  0.00  0.00     0.078 H 
ATOM      6  H11 ONS d   1      -6.529  -2.819 -42.906  0.00  0.00     0.078 H 
ATOM      7  H12 ONS d   1      -6.208  -4.568 -45.758  0.00  0.00     0.078 H 
ATOM      8  H13 ONS d   1      -6.367  -6.085 -44.809  0.00  0.00     0.078 H 
ENDROOT
BRANCH   1   9
ATOM      9  C12 ONS d   1      -8.321  -3.300 -44.756  0.00  0.00    -0.026 A 
ATOM     10  C17 ONS d   1      -9.684  -3.054 -44.505  0.00  0.00    -0.074 A 
ATOM     11  C16 ONS d   1     -10.386  -2.048 -45.175  0.00  0.00    -0.075 A 
ATOM     12  H7  ONS d   1     -10.203  -3.661 -43.772  0.00  0.00     0.084 H 
ATOM     13  C15 ONS d   1      -9.728  -1.271 -46.126  0.00  0.00    -0.039 A 
ATOM     14  H6  ONS d   1     -11.433  -1.874 -44.957  0.00  0.00     0.084 H 
ATOM     15  C14 ONS d   1      -8.384  -1.510 -46.375  0.00  0.00    -0.075 A 
ATOM     16  C13 ONS d   1      -7.685  -2.503 -45.700  0.00  0.00    -0.074 A 
ATOM     17  H8  ONS d   1      -7.867  -0.908 -47.114  0.00  0.00     0.084 H 
ATOM     18  H9  ONS d   1      -6.633  -2.658 -45.912  0.00  0.00     0.084 H 
BRANCH  13  19
ATOM     19  C18 ONS d   1     -10.325  -0.153 -46.910  0.00  0.00     0.082 C 
ATOM     20  H1  ONS d   1     -10.021  -0.304 -47.956  0.00  0.00     0.071 H 
BRANCH  19  21
ATOM     21  C19 ONS d   1      -9.742   1.130 -46.399  0.00  0.00     0.186 C 
ATOM     22  O2  ONS d   1      -9.557   1.308 -45.164  0.00  0.00    -0.647 OA
ATOM     23  O3  ONS d   1      -9.477   1.974 -47.277  0.00  0.00    -0.647 OA
ENDBRANCH  19  21
BRANCH  19  24
ATOM     24  C20 ONS d   1     -11.797   0.047 -46.907  0.00  0.00    -0.022 A 
ATOM     25  C21 ONS d   1     -12.526  -0.308 -48.055  0.00  0.00     0.009 A 
ATOM     26  N2  ONS d   1     -13.855  -0.126 -48.117  0.00  0.00    -0.273 NA
ATOM     27  H2  ONS d   1     -12.007  -0.736 -48.905  0.00  0.00     0.115 H 
ATOM     28  C22 ONS d   1     -14.507   0.419 -47.078  0.00  0.00     0.002 A 
ATOM     29  C23 ONS d   1     -13.827   0.809 -45.914  0.00  0.00    -0.066 A 
ATOM     30  H3  ONS d   1     -15.580   0.561 -47.139  0.00  0.00     0.114 H 
ATOM     31  C24 ONS d   1     -12.453   0.631 -45.820  0.00  0.00    -0.073 A 
ATOM     32  H4  ONS d   1     -14.374   1.249 -45.088  0.00  0.00     0.085 H 
ATOM     33  H5  ONS d   1     -11.908   0.935 -44.934  0.00  0.00     0.084 H 
ENDBRANCH  19  24
ENDBRANCH  13  19
ENDBRANCH   1   9
BRANCH   1  34
ATOM     34  N1  ONS d   1      -8.465  -5.405 -43.492  0.00  0.00    -0.338 N 
ATOM     35  C8  ONS d   1      -9.255  -6.130 -44.276  0.00  0.00     0.269 C 
ATOM     36  O   ONS d   1      -9.182  -6.075 -45.498  0.00  0.00    -0.266 OA
ATOM     37  H14 ONS d   1      -8.492  -5.554 -42.504  0.00  0.00     0.164 HD
BRANCH  35  38
ATOM     38  C6  ONS d   1     -10.362  -6.899 -43.648  0.00  0.00     0.104 A 
ATOM     39  C7  ONS d   1     -10.875  -6.644 -42.394  0.00  0.00    -0.038 A 
ATOM     40  C4  ONS d   1     -11.932  -7.558 -42.198  0.00  0.00     0.017 A 
ATOM     41  H15 ONS d   1     -10.532  -5.886 -41.692  0.00  0.00     0.088 H 
ATOM     42  C5  ONS d   1     -12.050  -8.346 -43.335  0.00  0.00     0.046 A 
ATOM     43  C3  ONS d   1     -12.787  -7.747 -41.129  0.00  0.00     0.068 A 
ATOM     44  N   ONS d   1     -11.088  -7.916 -44.189  0.00  0.00    -0.346 N 
ATOM     45  C   ONS d   1     -13.037  -9.333 -43.402  0.00  0.00    -0.054 A 
ATOM     46  C1  ONS d   1     -13.898  -9.516 -42.318  0.00  0.00    -0.058 A 
ATOM     47  H19 ONS d   1     -13.133  -9.951 -44.287  0.00  0.00     0.087 H 
ATOM     48  C2  ONS d   1     -13.750  -8.705 -41.190  0.00  0.00     0.056 A 
ATOM     49  H20 ONS d   1     -14.670 -10.276 -42.351  0.00  0.00     0.086 H 
ATOM     50 CL1  ONS d   1     -14.747  -8.793 -39.710  0.00  0.00    -0.083 Cl
ATOM     51 CL   ONS d   1     -12.720  -6.799 -39.607  0.00  0.00    -0.082 Cl
BRANCH  44  52
ATOM     52  C25 ONS d   1     -10.853  -8.480 -45.538  0.00  0.00    -0.013 C 
ATOM     53  H16 ONS d   1     -10.016  -7.950 -46.016  0.00  0.00     0.057 H 
ATOM     54  H17 ONS d   1     -11.760  -8.360 -46.149  0.00  0.00     0.057 H 
ATOM     55  H18 ONS d   1     -10.609  -9.549 -45.451  0.00  0.00     0.057 H 
ENDBRANCH  44  52
ENDBRANCH  35  38
ENDBRANCH   1  34
TORSDOF 7
