REMARK  5 active torsions:
REMARK  status: ('A' for Active; 'I' for Inactive)
REMARK    1  A    between atoms: C04_2  and  C02_1 
REMARK    2  A    between atoms: C05_3  and  C04_2 
REMARK    3  A    between atoms: O11_21  and  C10_7 
REMARK    4  A    between atoms: C12_8  and  C13_9 
REMARK    5  A    between atoms: C12_8  and  O11_21 
ROOT
ATOM      1  C05 OR4 d   1      37.313   7.012   1.233  0.00  0.00    -0.013 A 
ATOM      2  C06 OR4 d   1      36.181   7.304   1.893  0.00  0.00     0.027 A 
ATOM      3  C08 OR4 d   1      37.504   8.971   2.470  0.00  0.00     0.088 A 
ATOM      4  C09 OR4 d   1      38.018  10.146   3.047  0.00  0.00    -0.017 A 
ATOM      5  C10 OR4 d   1      39.337  10.513   2.755  0.00  0.00     0.071 A 
ATOM      6  C19 OR4 d   1      40.060   9.667   1.894  0.00  0.00    -0.050 A 
ATOM      7  C20 OR4 d   1      39.523   8.518   1.344  0.00  0.00    -0.067 A 
ATOM      8  C21 OR4 d   1      38.224   8.102   1.595  0.00  0.00     0.006 A 
ATOM      9  O07 OR4 d   1      36.228   8.471   2.655  0.00  0.00    -0.321 OA
ATOM     10  H3  OR4 d   1      35.293   6.677   1.837  0.00  0.00     0.124 H 
ATOM     11  H4  OR4 d   1      37.406  10.754   3.704  0.00  0.00     0.092 H 
ATOM     12  H12 OR4 d   1      41.084   9.928   1.651  0.00  0.00     0.087 H 
ATOM     13  H13 OR4 d   1      40.143   7.917   0.689  0.00  0.00     0.085 H 
ENDROOT
BRANCH   5  14
ATOM     14  O11 OR4 d   1      39.906  11.648   3.279  0.00  0.00    -0.347 OA
BRANCH  14  15
ATOM     15  C12 OR4 d   1      39.257  12.473   4.240  0.00  0.00     0.050 C 
ATOM     16  H5  OR4 d   1      38.358  12.921   3.791  0.00  0.00     0.082 H 
ATOM     17  H6  OR4 d   1      38.968  11.865   5.110  0.00  0.00     0.082 H 
BRANCH  15  18
ATOM     18  C13 OR4 d   1      40.206  13.576   4.684  0.00  0.00    -0.034 A 
ATOM     19  C14 OR4 d   1      41.090  13.432   5.752  0.00  0.00    -0.075 A 
ATOM     20  C15 OR4 d   1      41.974  14.423   6.144  0.00  0.00    -0.082 A 
ATOM     21  H7  OR4 d   1      41.085  12.498   6.303  0.00  0.00     0.084 H 
ATOM     22  C16 OR4 d   1      42.045  15.623   5.467  0.00  0.00    -0.083 A 
ATOM     23  H8  OR4 d   1      42.621  14.253   6.997  0.00  0.00     0.083 H 
ATOM     24  C17 OR4 d   1      41.190  15.816   4.391  0.00  0.00    -0.082 A 
ATOM     25  H9  OR4 d   1      42.748  16.392   5.767  0.00  0.00     0.083 H 
ATOM     26  C18 OR4 d   1      40.305  14.811   4.010  0.00  0.00    -0.075 A 
ATOM     27  H10 OR4 d   1      41.211  16.752   3.845  0.00  0.00     0.083 H 
ATOM     28  H11 OR4 d   1      39.662  14.986   3.155  0.00  0.00     0.084 H 
ENDBRANCH  15  18
ENDBRANCH  14  15
ENDBRANCH   5  14
BRANCH   1  29
ATOM     29  C04 OR4 d   1      37.554   5.825   0.353  0.00  0.00     0.042 C 
ATOM     30  H1  OR4 d   1      36.789   5.072   0.594  0.00  0.00     0.056 H 
ATOM     31  H2  OR4 d   1      37.430   6.154  -0.689  0.00  0.00     0.056 H 
BRANCH  29  32
ATOM     32  C02 OR4 d   1      38.982   5.115   0.468  0.00  0.00     0.177 C 
ATOM     33  O01 OR4 d   1      39.964   5.755   0.037  0.00  0.00    -0.648 OA
ATOM     34  O03 OR4 d   1      39.017   3.984   0.987  0.00  0.00    -0.648 OA
ENDBRANCH  29  32
ENDBRANCH   1  29
TORSDOF 5
