REMARK  4 active torsions:
REMARK  status: ('A' for Active; 'I' for Inactive)
REMARK    1  A    between atoms: C1_1  and  C2_2 
REMARK       I    between atoms: C2_2  and  N3_4 
REMARK    2  A    between atoms: N3_4  and  C4_5 
REMARK    3  A    between atoms: C61_11  and  S7_12 
REMARK    4  A    between atoms: S7_12  and  N8_15 
ROOT
ATOM      1  C4  XX0 d   1      13.018  11.411  39.073  0.00  0.00     0.036 A 
ATOM      2  C51 XX0 d   1      12.764  12.594  39.785  0.00  0.00    -0.033 A 
ATOM      3  C52 XX0 d   1      12.258  10.307  39.329  0.00  0.00    -0.056 A 
ATOM      4  C62 XX0 d   1      11.200  10.396  40.214  0.00  0.00    -0.058 A 
ATOM      5  C7  XX0 d   1      10.948  11.540  40.909  0.00  0.00     0.057 A 
ATOM      6 CL7  XX0 d   1       9.756  11.520  41.819  0.00  0.00    -0.083 Cl
ATOM      7  C61 XX0 d   1      11.712  12.667  40.682  0.00  0.00     0.098 A 
ATOM      8  H5  XX0 d   1      13.398  13.459  39.631  0.00  0.00     0.089 H 
ATOM      9  H6  XX0 d   1      12.483   9.366  38.841  0.00  0.00     0.087 H 
ATOM     10  H7  XX0 d   1      10.556   9.536  40.358  0.00  0.00     0.086 H 
ENDROOT
BRANCH   7  11
ATOM     11  S7  XX0 d   1      11.385  14.252  41.513  0.00  0.00     0.245 S 
ATOM     12  O71 XX0 d   1      12.402  15.214  41.209  0.00  0.00    -0.206 OA
ATOM     13  O72 XX0 d   1      11.197  13.680  42.852  0.00  0.00    -0.206 OA
BRANCH  11  14
ATOM     14  N8  XX0 d   1      10.167  14.879  41.049  0.00  0.00    -0.202 NA
ATOM     15  C91 XX0 d   1       9.753  16.179  41.676  0.00  0.00     0.013 C 
ATOM     16  CA1 XX0 d   1       8.219  16.356  41.562  0.00  0.00     0.031 C 
ATOM     17  H8  XX0 d   1      10.255  17.010  41.158  0.00  0.00     0.060 H 
ATOM     18  H9  XX0 d   1      10.042  16.180  42.737  0.00  0.00     0.060 H 
ATOM     19  OB  XX0 d   1       7.838  16.132  40.185  0.00  0.00    -0.389 OA
ATOM     20  H10 XX0 d   1       7.939  17.376  41.864  0.00  0.00     0.076 H 
ATOM     21  H11 XX0 d   1       7.711  15.628  42.212  0.00  0.00     0.076 H 
ATOM     22  CA2 XX0 d   1       9.011  16.196  39.286  0.00  0.00     0.031 C 
ATOM     23  C92 XX0 d   1      10.032  15.041  39.596  0.00  0.00     0.013 C 
ATOM     24  H12 XX0 d   1       9.514  17.165  39.422  0.00  0.00     0.076 H 
ATOM     25  H13 XX0 d   1       8.670  16.103  38.245  0.00  0.00     0.076 H 
ATOM     26  H14 XX0 d   1       9.667  14.102  39.155  0.00  0.00     0.060 H 
ATOM     27  H15 XX0 d   1      11.011  15.293  39.163  0.00  0.00     0.060 H 
ENDBRANCH  11  14
ENDBRANCH   7  11
BRANCH   1  28
ATOM     28  N3  XX0 d   1      14.097  11.315  38.240  0.00  0.00    -0.327 N 
ATOM     29  C2  XX0 d   1      14.513  12.439  37.652  0.00  0.00     0.218 C 
ATOM     30  O2  XX0 d   1      13.982  13.522  37.853  0.00  0.00    -0.274 OA
ATOM     31  H4  XX0 d   1      14.555  10.441  38.078  0.00  0.00     0.169 HD
BRANCH  29  32
ATOM     32  C1  XX0 d   1      15.846  12.335  36.863  0.00  0.00    -0.003 C 
ATOM     33  H1  XX0 d   1      16.150  11.280  36.795  0.00  0.00     0.040 H 
ATOM     34  H2  XX0 d   1      16.626  12.909  37.384  0.00  0.00     0.040 H 
ATOM     35  H3  XX0 d   1      15.706  12.742  35.851  0.00  0.00     0.040 H 
ENDBRANCH  29  32
ENDBRANCH   1  28
TORSDOF 4
