REMARK  9 active torsions:
REMARK  status: ('A' for Active; 'I' for Inactive)
REMARK    1  A    between atoms: CAA_1  and  CAC_2 
REMARK       I    between atoms: CAC_2  and  NAE_4 
REMARK    2  A    between atoms: NAE_4  and  CAF_5 
REMARK    3  A    between atoms: CAJ_11  and  SAM_12 
REMARK    4  A    between atoms: SAM_12  and  NAP_15 
REMARK    5  A    between atoms: NAP_15  and  CAQ_16 
REMARK    6  A    between atoms: NAP_15  and  CAR_17 
REMARK    7  A    between atoms: CAR_17  and  CAS_18 
REMARK    8  A    between atoms: CAS_18  and  OAT_19 
REMARK    9  A    between atoms: OAT_19  and  CAU_20 
ROOT
ATOM      1  SAM OR7 d   1      17.784  -2.465  18.251  0.00  0.00     0.245 S 
ATOM      2  OAN OR7 d   1      17.360  -2.526  19.718  0.00  0.00    -0.206 OA
ATOM      3  OAO OR7 d   1      19.298  -2.825  18.094  0.00  0.00    -0.206 OA
ENDROOT
BRANCH   1   4
ATOM      4  CAJ OR7 d   1      16.490  -3.659  17.234  0.00  0.00     0.098 A 
ATOM      5  CAH OR7 d   1      16.933  -4.683  16.391  0.00  0.00    -0.033 A 
ATOM      6  CAF OR7 d   1      16.056  -5.526  15.642  0.00  0.00     0.036 A 
ATOM      7  H5  OR7 d   1      18.001  -4.846  16.301  0.00  0.00     0.089 H 
ATOM      8  CAG OR7 d   1      14.674  -5.378  15.789  0.00  0.00    -0.056 A 
ATOM      9  CAI OR7 d   1      14.205  -4.379  16.634  0.00  0.00    -0.058 A 
ATOM     10  H6  OR7 d   1      13.986  -6.026  15.258  0.00  0.00     0.087 H 
ATOM     11  CAK OR7 d   1      15.098  -3.539  17.344  0.00  0.00     0.057 A 
ATOM     12  H7  OR7 d   1      13.136  -4.240  16.752  0.00  0.00     0.086 H 
ATOM     13 CLA  OR7 d   1      14.497  -2.332  18.323  0.00  0.00    -0.083 Cl
BRANCH   6  14
ATOM     14  NAE OR7 d   1      16.547  -6.510  14.853  0.00  0.00    -0.327 N 
ATOM     15  CAC OR7 d   1      17.836  -6.436  14.370  0.00  0.00     0.218 C 
ATOM     16  OAD OR7 d   1      18.581  -5.464  14.361  0.00  0.00    -0.274 OA
ATOM     17  H4  OR7 d   1      15.972  -7.294  14.619  0.00  0.00     0.169 HD
BRANCH  15  18
ATOM     18  CAA OR7 d   1      18.286  -7.622  13.629  0.00  0.00    -0.003 C 
ATOM     19  H1  OR7 d   1      17.531  -8.417  13.717  0.00  0.00     0.040 H 
ATOM     20  H2  OR7 d   1      19.241  -7.975  14.046  0.00  0.00     0.040 H 
ATOM     21  H3  OR7 d   1      18.423  -7.362  12.569  0.00  0.00     0.040 H 
ENDBRANCH  15  18
ENDBRANCH   6  14
ENDBRANCH   1   4
BRANCH   1  22
ATOM     22  NAP OR7 d   1      17.880  -0.716  17.817  0.00  0.00    -0.208 NA
BRANCH  22  23
ATOM     23  CAQ OR7 d   1      16.572  -0.098  17.523  0.00  0.00    -0.019 C 
ATOM     24  H8  OR7 d   1      16.716   0.963  17.269  0.00  0.00     0.049 H 
ATOM     25  H9  OR7 d   1      15.922  -0.178  18.407  0.00  0.00     0.049 H 
ATOM     26  H10 OR7 d   1      16.103  -0.618  16.674  0.00  0.00     0.049 H 
ENDBRANCH  22  23
BRANCH  22  27
ATOM     27  CAR OR7 d   1      18.906  -0.516  16.760  0.00  0.00     0.013 C 
ATOM     28  H11 OR7 d   1      19.877  -0.882  17.125  0.00  0.00     0.060 H 
ATOM     29  H12 OR7 d   1      18.982   0.557  16.529  0.00  0.00     0.060 H 
BRANCH  27  30
ATOM     30  CAS OR7 d   1      18.517  -1.298  15.457  0.00  0.00     0.031 C 
ATOM     31  H13 OR7 d   1      18.660  -0.619  14.603  0.00  0.00     0.076 H 
ATOM     32  H14 OR7 d   1      17.454  -1.571  15.535  0.00  0.00     0.076 H 
BRANCH  30  33
ATOM     33  OAT OR7 d   1      19.274  -2.522  15.185  0.00  0.00    -0.395 OA
BRANCH  33  34
ATOM     34  CAU OR7 d   1      18.976  -2.946  13.824  0.00  0.00     0.004 C 
ATOM     35  H15 OR7 d   1      19.535  -3.866  13.596  0.00  0.00     0.066 H 
ATOM     36  H16 OR7 d   1      19.271  -2.154  13.120  0.00  0.00     0.066 H 
ATOM     37  H17 OR7 d   1      17.897  -3.139  13.728  0.00  0.00     0.066 H 
ENDBRANCH  33  34
ENDBRANCH  30  33
ENDBRANCH  27  30
ENDBRANCH  22  27
ENDBRANCH   1  22
TORSDOF 9
