REMARK  7 active torsions:
REMARK  status: ('A' for Active; 'I' for Inactive)
REMARK    1  A    between atoms: C11_12  and  C12_1 
REMARK    2  A    between atoms: C02_4  and  C01_3 
REMARK    3  A    between atoms: C03_5  and  C02_4 
REMARK    4  A    between atoms: C04_6  and  C03_5 
REMARK    5  A    between atoms: O05_15  and  C04_6 
REMARK    6  A    between atoms: C06_7  and  O05_15 
REMARK    7  A    between atoms: C10_11  and  C11_12 
ROOT
ATOM      1  C15 OVG d   1      21.102 -10.543   3.521  0.00  0.00     0.027 A 
ATOM      2  C06 OVG d   1      20.891  -6.855   0.630  0.00  0.00     0.071 A 
ATOM      3  C07 OVG d   1      19.612  -7.415   0.402  0.00  0.00    -0.050 A 
ATOM      4  C08 OVG d   1      19.191  -8.593   1.081  0.00  0.00    -0.067 A 
ATOM      5  C09 OVG d   1      19.991  -9.278   2.001  0.00  0.00     0.006 A 
ATOM      6  C10 OVG d   1      19.871 -10.494   2.865  0.00  0.00    -0.013 A 
ATOM      7  C17 OVG d   1      21.268  -8.702   2.214  0.00  0.00     0.088 A 
ATOM      8  C18 OVG d   1      21.728  -7.520   1.556  0.00  0.00    -0.017 A 
ATOM      9  O16 OVG d   1      21.925  -9.479   3.133  0.00  0.00    -0.321 OA
ATOM     10  H1  OVG d   1      21.385 -11.309   4.241  0.00  0.00     0.124 H 
ATOM     11  H11 OVG d   1      18.940  -6.938  -0.303  0.00  0.00     0.087 H 
ATOM     12  H12 OVG d   1      18.199  -8.979   0.874  0.00  0.00     0.085 H 
ATOM     13  H15 OVG d   1      22.718  -7.133   1.766  0.00  0.00     0.092 H 
ENDROOT
BRANCH   2  14
ATOM     14  O05 OVG d   1      21.298  -5.680  -0.053  0.00  0.00    -0.351 OA
BRANCH  14  15
ATOM     15  C04 OVG d   1      20.415  -4.509  -0.016  0.00  0.00     0.026 C 
ATOM     16  H9  OVG d   1      20.562  -3.926  -0.937  0.00  0.00     0.075 H 
ATOM     17  H10 OVG d   1      19.372  -4.855   0.036  0.00  0.00     0.075 H 
BRANCH  15  18
ATOM     18  C03 OVG d   1      20.701  -3.582   1.217  0.00  0.00    -0.045 C 
ATOM     19  H7  OVG d   1      19.739  -3.301   1.671  0.00  0.00     0.036 H 
ATOM     20  H8  OVG d   1      21.299  -4.149   1.946  0.00  0.00     0.036 H 
BRANCH  18  21
ATOM     21  C02 OVG d   1      21.471  -2.283   0.855  0.00  0.00    -0.067 C 
ATOM     22  H5  OVG d   1      21.086  -1.903  -0.103  0.00  0.00     0.032 H 
ATOM     23  H6  OVG d   1      21.292  -1.538   1.644  0.00  0.00     0.032 H 
BRANCH  21  24
ATOM     24  C01 OVG d   1      22.995  -2.501   0.721  0.00  0.00    -0.076 C 
ATOM     25  H2  OVG d   1      23.481  -1.548   0.465  0.00  0.00     0.027 H 
ATOM     26  H3  OVG d   1      23.192  -3.237  -0.072  0.00  0.00     0.027 H 
ATOM     27  H4  OVG d   1      23.398  -2.873   1.675  0.00  0.00     0.027 H 
ENDBRANCH  21  24
ENDBRANCH  18  21
ENDBRANCH  15  18
ENDBRANCH  14  15
ENDBRANCH   2  14
BRANCH   6  28
ATOM     28  C11 OVG d   1      18.789 -11.498   3.086  0.00  0.00     0.042 C 
ATOM     29  H13 OVG d   1      17.846 -10.939   3.182  0.00  0.00     0.056 H 
ATOM     30  H14 OVG d   1      18.750 -12.131   2.188  0.00  0.00     0.056 H 
BRANCH  28  31
ATOM     31  C12 OVG d   1      18.883 -12.492   4.363  0.00  0.00     0.177 C 
ATOM     32  O13 OVG d   1      19.829 -13.329   4.367  0.00  0.00    -0.648 OA
ATOM     33  O14 OVG d   1      18.039 -12.422   5.307  0.00  0.00    -0.648 OA
ENDBRANCH  28  31
ENDBRANCH   6  28
TORSDOF 7
