REMARK  6 active torsions:
REMARK  status: ('A' for Active; 'I' for Inactive)
REMARK    1  A    between atoms: N11_18  and  C12_1 
REMARK    2  A    between atoms: C15_3  and  O16_22 
REMARK    3  A    between atoms: C04_8  and  C02_7 
REMARK    4  A    between atoms: C05_9  and  C04_8 
REMARK    5  A    between atoms: C10_13  and  N11_18 
REMARK    6  A    between atoms: O16_22  and  C17_15 
ROOT
ATOM      1  C20 OVJ d   1      18.998  -8.838   0.675  0.00  0.00    -0.056 A 
ATOM      2  C21 OVJ d   1      19.674  -7.717   0.204  0.00  0.00    -0.068 A 
ATOM      3  C22 OVJ d   1      20.978  -7.483   0.589  0.00  0.00     0.006 A 
ATOM      4  C05 OVJ d   1      22.012  -6.485   0.340  0.00  0.00    -0.013 A 
ATOM      5  C06 OVJ d   1      23.082  -6.908   1.083  0.00  0.00     0.027 A 
ATOM      6  C08 OVJ d   1      21.549  -8.438   1.479  0.00  0.00     0.087 A 
ATOM      7  C09 OVJ d   1      20.905  -9.559   1.957  0.00  0.00    -0.024 A 
ATOM      8  C10 OVJ d   1      19.589  -9.778   1.567  0.00  0.00     0.035 A 
ATOM      9  O07 OVJ d   1      22.829  -8.090   1.784  0.00  0.00    -0.321 OA
ATOM     10  H2  OVJ d   1      17.977  -9.003   0.349  0.00  0.00     0.086 H 
ATOM     11  H3  OVJ d   1      19.175  -7.026  -0.467  0.00  0.00     0.085 H 
ATOM     12  H6  OVJ d   1      24.032  -6.378   1.123  0.00  0.00     0.124 H 
ATOM     13  H7  OVJ d   1      21.412 -10.252   2.620  0.00  0.00     0.091 H 
ENDROOT
BRANCH   8  14
ATOM     14  N11 OVJ d   1      18.848 -10.933   2.029  0.00  0.00    -0.356 N 
ATOM     15  H14 OVJ d   1      18.112 -11.255   1.384  0.00  0.00     0.166 HD
BRANCH  14  16
ATOM     16  C12 OVJ d   1      18.965 -11.700   3.227  0.00  0.00     0.032 A 
ATOM     17  C13 OVJ d   1      19.948 -11.478   4.202  0.00  0.00    -0.055 A 
ATOM     18  C14 OVJ d   1      20.028 -12.246   5.356  0.00  0.00    -0.049 A 
ATOM     19  H1  OVJ d   1      20.668 -10.682   4.050  0.00  0.00     0.087 H 
ATOM     20  C15 OVJ d   1      19.126 -13.279   5.570  0.00  0.00     0.068 A 
ATOM     21  H8  OVJ d   1      20.797 -12.038   6.091  0.00  0.00     0.087 H 
ATOM     22  C18 OVJ d   1      18.139 -13.530   4.635  0.00  0.00    -0.049 A 
ATOM     23  C19 OVJ d   1      18.068 -12.748   3.486  0.00  0.00    -0.055 A 
ATOM     24  H12 OVJ d   1      17.426 -14.330   4.796  0.00  0.00     0.087 H 
ATOM     25  H13 OVJ d   1      17.289 -12.957   2.762  0.00  0.00     0.087 H 
BRANCH  20  26
ATOM     26  O16 OVJ d   1      19.191 -14.030   6.697  0.00  0.00    -0.356 OA
BRANCH  26  27
ATOM     27  C17 OVJ d   1      18.747 -13.320   7.824  0.00  0.00     0.010 C 
ATOM     28  H9  OVJ d   1      18.816 -13.964   8.713  0.00  0.00     0.066 H 
ATOM     29  H10 OVJ d   1      17.702 -13.012   7.675  0.00  0.00     0.066 H 
ATOM     30  H11 OVJ d   1      19.375 -12.429   7.967  0.00  0.00     0.066 H 
ENDBRANCH  26  27
ENDBRANCH  20  26
ENDBRANCH  14  16
ENDBRANCH   8  14
BRANCH   4  31
ATOM     31  C04 OVJ d   1      22.010  -5.264  -0.483  0.00  0.00     0.042 C 
ATOM     32  H4  OVJ d   1      23.018  -5.132  -0.902  0.00  0.00     0.056 H 
ATOM     33  H5  OVJ d   1      21.288  -5.404  -1.301  0.00  0.00     0.056 H 
BRANCH  31  34
ATOM     34  C02 OVJ d   1      21.628  -3.958   0.283  0.00  0.00     0.177 C 
ATOM     35  O01 OVJ d   1      20.448  -3.862   0.674  0.00  0.00    -0.648 OA
ATOM     36  O03 OVJ d   1      22.539  -3.113   0.448  0.00  0.00    -0.648 OA
ENDBRANCH  31  34
ENDBRANCH   4  31
TORSDOF 6
