REMARK  8 active torsions:
REMARK  status: ('A' for Active; 'I' for Inactive)
REMARK    1  A    between atoms: C4_5  and  N7_8 
REMARK    2  A    between atoms: C6_7  and  N13_15 
REMARK    3  A    between atoms: N7_8  and  C8_9 
REMARK    4  A    between atoms: C8_9  and  C10_12 
REMARK    5  A    between atoms: C8_9  and  C12_14 
REMARK    6  A    between atoms: C10_12  and  C11_13 
REMARK    7  A    between atoms: N13_15  and  C14_16 
REMARK    8  A    between atoms: C14_16  and  C15_17 
ROOT
ATOM      1  C8  CEB d   1     130.405  66.426  -4.370  0.00  0.00     0.132 C 
ATOM      2  C9  CEB d   1     131.172  65.672  -3.329  0.00  0.00     0.091 C 
ATOM      3  N9  CEB d   1     131.775  65.057  -2.543  0.00  0.00    -0.195 NA
ENDROOT
BRANCH   1   4
ATOM      4  N7  CEB d   1     131.110  67.599  -4.867  0.00  0.00    -0.200 N 
ATOM      5  H   CEB d   1     131.354  67.598  -5.868  0.00  0.00     0.179 HD
BRANCH   4   6
ATOM      6  C4  CEB d   1     131.476  68.681  -4.164  0.00  0.00     0.742 A 
ATOM      7  N3  CEB d   1     131.166  68.677  -2.834  0.00  0.00    -0.030 NA
ATOM      8  C2  CEB d   1     131.557  69.791  -2.245  0.00  0.00     0.259 A 
ATOM      9  N1  CEB d   1     132.162  70.849  -2.722  0.00  0.00    -0.030 NA
ATOM     10 CL2  CEB d   1     131.230  69.865  -0.532  0.00  0.00    -0.040 Cl
ATOM     11  C6  CEB d   1     132.412  70.724  -4.055  0.00  0.00     0.741 A 
ATOM     12  N5  CEB d   1     132.095  69.665  -4.810  0.00  0.00     0.130 NA
BRANCH  11  13
ATOM     13  N13 CEB d   1     133.031  71.778  -4.626  0.00  0.00    -0.222 N 
ATOM     14  H   CEB d   1     133.236  71.721  -5.634  0.00  0.00     0.177 HD
BRANCH  13  15
ATOM     15  C14 CEB d   1     133.434  72.997  -3.923  0.00  0.00     0.006 C 
ATOM     16  H   CEB d   1     134.398  72.821  -3.424  0.00  0.00     0.064 H 
ATOM     17  H   CEB d   1     132.672  73.246  -3.170  0.00  0.00     0.064 H 
BRANCH  15  18
ATOM     18  C15 CEB d   1     133.577  74.143  -4.868  0.00  0.00    -0.061 C 
ATOM     19  H   CEB d   1     133.880  75.042  -4.311  0.00  0.00     0.029 H 
ATOM     20  H   CEB d   1     132.615  74.328  -5.368  0.00  0.00     0.029 H 
ATOM     21  H   CEB d   1     134.342  73.904  -5.622  0.00  0.00     0.029 H 
ENDBRANCH  15  18
ENDBRANCH  13  15
ENDBRANCH  11  13
ENDBRANCH   4   6
ENDBRANCH   1   4
BRANCH   1  22
ATOM     22  C10 CEB d   1     130.286  65.383  -5.486  0.00  0.00    -0.032 C 
ATOM     23  H   CEB d   1     130.962  64.549  -5.243  0.00  0.00     0.037 H 
ATOM     24  H   CEB d   1     130.609  65.855  -6.426  0.00  0.00     0.037 H 
BRANCH  22  25
ATOM     25  C11 CEB d   1     128.903  64.812  -5.704  0.00  0.00    -0.073 C 
ATOM     26  H   CEB d   1     128.934  64.079  -6.523  0.00  0.00     0.027 H 
ATOM     27  H   CEB d   1     128.208  65.624  -5.965  0.00  0.00     0.027 H 
ATOM     28  H   CEB d   1     128.561  64.318  -4.783  0.00  0.00     0.027 H 
ENDBRANCH  22  25
ENDBRANCH   1  22
BRANCH   1  29
ATOM     29  C12 CEB d   1     129.059  66.869  -3.754  0.00  0.00    -0.040 C 
ATOM     30  H   CEB d   1     128.521  65.987  -3.376  0.00  0.00     0.032 H 
ATOM     31  H   CEB d   1     128.451  67.368  -4.522  0.00  0.00     0.032 H 
ATOM     32  H   CEB d   1     129.247  67.567  -2.925  0.00  0.00     0.032 H 
ENDBRANCH   1  29
TORSDOF 8
