REMARK  25 active torsions:
REMARK  status: ('A' for Active; 'I' for Inactive)
REMARK    1  A    between atoms: C1_1  and  O1_7 
REMARK    2  A    between atoms: C2_2  and  O2_8 
REMARK    3  A    between atoms: C3_3  and  O3_9 
REMARK    4  A    between atoms: C4_4  and  O4_10 
REMARK    5  A    between atoms: C5_5  and  C6_6 
REMARK    6  A    between atoms: C6_6  and  O6_12 
REMARK    7  A    between atoms: O1_7  and  C2'_14 
REMARK    8  A    between atoms: O6_12  and  C1_24 
REMARK    9  A    between atoms: C2'_14  and  C1'_13 
REMARK   10  A    between atoms: C1'_13  and  O1'_19 
REMARK   11  A    between atoms: C3'_15  and  O3'_21 
REMARK   12  A    between atoms: C4'_16  and  O4'_22 
REMARK   13  A    between atoms: C5'_17  and  C6'_18 
REMARK   14  A    between atoms: C6'_18  and  O6'_23 
REMARK   15  A    between atoms: C2_25  and  O2_30 
REMARK   16  A    between atoms: C3_26  and  O3_31 
REMARK   17  A    between atoms: C4_27  and  O4_32 
REMARK   18  A    between atoms: C5_28  and  C6_29 
REMARK   19  A    between atoms: C6_29  and  O6_34 
REMARK   20  A    between atoms: O6_34  and  C1_35 
REMARK   21  A    between atoms: C2_36  and  O2_41 
REMARK   22  A    between atoms: C3_37  and  O3_42 
REMARK   23  A    between atoms: C4_38  and  O4_43 
REMARK   24  A    between atoms: C5_39  and  C6_40 
REMARK   25  A    between atoms: C6_40  and  O6_45 
ROOT
ATOM      1  O6  SUC d   1       0.697  14.224  -4.034  0.00  0.00    -0.356 OA
ENDROOT
BRANCH   1   2
ATOM      2  C1  GLA d   1       0.568  12.794  -4.143  0.00  0.00     0.158 C 
ATOM      3  O5  GLA d   1      -0.506  12.388  -5.000  0.00  0.00    -0.348 OA
ATOM      4  C5  GLA d   1      -0.361  12.814  -6.363  0.00  0.00     0.089 C 
ATOM      5  C4  GLA d   1       0.924  12.246  -6.976  0.00  0.00     0.090 C 
ATOM      6  H26 GLA d   1      -0.280  13.911  -6.375  0.00  0.00     0.090 H 
ATOM      7  C3  GLA d   1       2.133  12.571  -6.096  0.00  0.00     0.092 C 
ATOM      8  H25 GLA d   1       1.074  12.708  -7.963  0.00  0.00     0.091 H 
ATOM      9  C2  GLA d   1       1.881  12.186  -4.637  0.00  0.00     0.110 C 
ATOM     10  H24 GLA d   1       2.310  13.656  -6.141  0.00  0.00     0.091 H 
ATOM     11  H23 GLA d   1       1.809  11.091  -4.569  0.00  0.00     0.094 H 
ATOM     12  H22 GLA d   1       0.361  12.400  -3.137  0.00  0.00     0.133 H 
BRANCH   4  13
ATOM     13  C6  GLA d   1      -1.609  12.426  -7.154  0.00  0.00     0.049 C 
ATOM     14  H27 GLA d   1      -2.030  11.492  -6.752  0.00  0.00     0.078 H 
ATOM     15  H28 GLA d   1      -1.350  12.285  -8.214  0.00  0.00     0.078 H 
BRANCH  13  16
ATOM     16  O6  GLA d   1      -2.565  13.484  -7.025  0.00  0.00    -0.356 OA
BRANCH  16  17
ATOM     17  C1  GLA d   1      -3.877  12.955  -6.743  0.00  0.00     0.158 C 
ATOM     18  O5  GLA d   1      -4.066  12.529  -5.384  0.00  0.00    -0.348 OA
ATOM     19  C5  GLA d   1      -3.959  13.573  -4.398  0.00  0.00     0.089 C 
ATOM     20  C4  GLA d   1      -4.964  14.699  -4.676  0.00  0.00     0.090 C 
ATOM     21  H36 GLA d   1      -2.950  14.005  -4.468  0.00  0.00     0.090 H 
ATOM     22  C3  GLA d   1      -4.844  15.178  -6.125  0.00  0.00     0.092 C 
ATOM     23  H35 GLA d   1      -4.738  15.542  -4.006  0.00  0.00     0.091 H 
ATOM     24  C2  GLA d   1      -4.926  14.005  -7.103  0.00  0.00     0.110 C 
ATOM     25  H34 GLA d   1      -3.861  15.656  -6.246  0.00  0.00     0.091 H 
ATOM     26  H33 GLA d   1      -5.925  13.550  -7.033  0.00  0.00     0.094 H 
ATOM     27  H32 GLA d   1      -4.026  12.076  -7.388  0.00  0.00     0.133 H 
BRANCH  19  28
ATOM     28  C6  GLA d   1      -4.116  12.984  -2.997  0.00  0.00     0.043 C 
ATOM     29  H37 GLA d   1      -4.246  13.801  -2.272  0.00  0.00     0.078 H 
ATOM     30  H38 GLA d   1      -3.214  12.408  -2.742  0.00  0.00     0.078 H 
BRANCH  28  31
ATOM     31  O6  GLA d   1      -5.259  12.121  -2.947  0.00  0.00    -0.398 OA
ATOM     32  H42 GLA d   1      -5.345  11.762  -2.072  0.00  0.00     0.209 HD
ENDBRANCH  28  31
ENDBRANCH  19  28
BRANCH  20  33
ATOM     33  O4  GLA d   1      -6.304  14.258  -4.420  0.00  0.00    -0.390 OA
ATOM     34  H41 GLA d   1      -6.906  14.978  -4.564  0.00  0.00     0.210 HD
ENDBRANCH  20  33
BRANCH  22  35
ATOM     35  O3  GLA d   1      -5.854  16.150  -6.423  0.00  0.00    -0.390 OA
ATOM     36  H40 GLA d   1      -5.790  16.871  -5.808  0.00  0.00     0.210 HD
ENDBRANCH  22  35
BRANCH  24  37
ATOM     37  O2  GLA d   1      -4.719  14.468  -8.441  0.00  0.00    -0.388 OA
ATOM     38  H39 GLA d   1      -4.790  13.736  -9.043  0.00  0.00     0.210 HD
ENDBRANCH  24  37
ENDBRANCH  16  17
ENDBRANCH  13  16
ENDBRANCH   4  13
BRANCH   5  39
ATOM     39  O4  GLA d   1       0.811  10.828  -7.146  0.00  0.00    -0.390 OA
ATOM     40  H31 GLA d   1       0.059  10.635  -7.693  0.00  0.00     0.210 HD
ENDBRANCH   5  39
BRANCH   7  41
ATOM     41  O3  GLA d   1       3.299  11.899  -6.585  0.00  0.00    -0.390 OA
ATOM     42  H30 GLA d   1       4.051  12.149  -6.061  0.00  0.00     0.210 HD
ENDBRANCH   7  41
BRANCH   9  43
ATOM     43  O2  GLA d   1       2.970  12.626  -3.818  0.00  0.00    -0.388 OA
ATOM     44  H29 GLA d   1       3.779  12.242  -4.135  0.00  0.00     0.210 HD
ENDBRANCH   9  43
ENDBRANCH   1   2
BRANCH   1  45
ATOM     45  C6  SUC d   1      -0.104  14.697  -2.946  0.00  0.00     0.049 C 
ATOM     46  H6  SUC d   1      -1.139  14.849  -3.287  0.00  0.00     0.078 H 
ATOM     47  H7  SUC d   1      -0.091  13.960  -2.129  0.00  0.00     0.078 H 
BRANCH  45  48
ATOM     48  C5  SUC d   1       0.473  16.019  -2.453  0.00  0.00     0.089 C 
ATOM     49  C4  SUC d   1       1.722  15.787  -1.596  0.00  0.00     0.090 C 
ATOM     50  C3  SUC d   1       2.201  17.084  -0.949  0.00  0.00     0.092 C 
ATOM     51  H4  SUC d   1       1.477  15.064  -0.804  0.00  0.00     0.091 H 
ATOM     52  C2  SUC d   1       1.054  17.796  -0.232  0.00  0.00     0.110 C 
ATOM     53  H3  SUC d   1       2.589  17.748  -1.735  0.00  0.00     0.091 H 
ATOM     54  C1  SUC d   1      -0.145  17.988  -1.165  0.00  0.00     0.162 C 
ATOM     55  H2  SUC d   1       0.738  17.180   0.623  0.00  0.00     0.094 H 
ATOM     56  O5  SUC d   1      -0.542  16.726  -1.725  0.00  0.00    -0.348 OA
ATOM     57  H1  SUC d   1      -0.986  18.392  -0.583  0.00  0.00     0.133 H 
ATOM     58  H5  SUC d   1       0.763  16.623  -3.325  0.00  0.00     0.090 H 
BRANCH  49  59
ATOM     59  O4  SUC d   1       2.773  15.254  -2.410  0.00  0.00    -0.390 OA
ATOM     60  H10 SUC d   1       2.492  14.429  -2.788  0.00  0.00     0.210 HD
ENDBRANCH  49  59
BRANCH  50  61
ATOM     61  O3  SUC d   1       3.255  16.796  -0.023  0.00  0.00    -0.390 OA
ATOM     62  H9  SUC d   1       3.552  17.604   0.379  0.00  0.00     0.210 HD
ENDBRANCH  50  61
BRANCH  52  63
ATOM     63  O2  SUC d   1       1.501  19.067   0.253  0.00  0.00    -0.388 OA
ATOM     64  H8  SUC d   1       1.794  19.599  -0.478  0.00  0.00     0.210 HD
ENDBRANCH  52  63
BRANCH  54  65
ATOM     65  O1  SUC d   1       0.192  18.927  -2.196  0.00  0.00    -0.318 OA
BRANCH  65  66
ATOM     66  C2' SUC d   1      -0.833  19.842  -2.613  0.00  0.00     0.217 C 
ATOM     67  C3' SUC d   1      -0.366  20.521  -3.897  0.00  0.00     0.118 C 
ATOM     68  C4' SUC d   1      -1.069  19.771  -5.010  0.00  0.00     0.092 C 
ATOM     69  H13 SUC d   1      -0.675  21.577  -3.898  0.00  0.00     0.095 H 
ATOM     70  C5' SUC d   1      -2.352  19.306  -4.347  0.00  0.00     0.089 C 
ATOM     71  H14 SUC d   1      -0.466  18.916  -5.349  0.00  0.00     0.091 H 
ATOM     72  O2' SUC d   1      -2.039  19.142  -2.958  0.00  0.00    -0.341 OA
ATOM     73  H15 SUC d   1      -3.120  20.085  -4.459  0.00  0.00     0.090 H 
BRANCH  66  74
ATOM     74  C1' SUC d   1      -1.141  20.881  -1.533  0.00  0.00     0.071 C 
ATOM     75  H11 SUC d   1      -1.802  20.432  -0.777  0.00  0.00     0.082 H 
ATOM     76  H12 SUC d   1      -1.644  21.744  -1.994  0.00  0.00     0.082 H 
BRANCH  74  77
ATOM     77  O1' SUC d   1       0.067  21.323  -0.900  0.00  0.00    -0.395 OA
ATOM     78  H18 SUC d   1       0.503  20.580  -0.498  0.00  0.00     0.209 HD
ENDBRANCH  74  77
ENDBRANCH  66  74
BRANCH  67  79
ATOM     79  O3' SUC d   1       1.057  20.459  -4.044  0.00  0.00    -0.387 OA
ATOM     80  H19 SUC d   1       1.337  19.552  -4.021  0.00  0.00     0.210 HD
ENDBRANCH  67  79
BRANCH  68  81
ATOM     81  O4' SUC d   1      -1.351  20.622  -6.123  0.00  0.00    -0.390 OA
ATOM     82  H20 SUC d   1      -0.535  20.901  -6.522  0.00  0.00     0.210 HD
ENDBRANCH  68  81
BRANCH  70  83
ATOM     83  C6' SUC d   1      -2.891  18.018  -4.957  0.00  0.00     0.043 C 
ATOM     84  H16 SUC d   1      -2.822  18.081  -6.053  0.00  0.00     0.078 H 
ATOM     85  H17 SUC d   1      -3.943  17.892  -4.662  0.00  0.00     0.078 H 
BRANCH  83  86
ATOM     86  O6' SUC d   1      -2.137  16.889  -4.503  0.00  0.00    -0.398 OA
ATOM     87  H21 SUC d   1      -2.196  16.830  -3.557  0.00  0.00     0.209 HD
ENDBRANCH  83  86
ENDBRANCH  70  83
ENDBRANCH  65  66
ENDBRANCH  54  65
ENDBRANCH  45  48
ENDBRANCH   1  45
TORSDOF 25
