REMARK  9 active torsions:
REMARK  status: ('A' for Active; 'I' for Inactive)
REMARK    1  A    between atoms: O17_1  and  C16_2 
REMARK    2  A    between atoms: C16_2  and  C18_3 
REMARK    3  A    between atoms: C16_2  and  C15_8 
REMARK    4  A    between atoms: C18_3  and  N19_4 
REMARK    5  A    between atoms: N19_4  and  C20_5 
REMARK    6  A    between atoms: C20_5  and  C21_6 
REMARK    7  A    between atoms: C20_5  and  C22_7 
REMARK    8  A    between atoms: C15_8  and  O14_9 
REMARK    9  A    between atoms: O14_9  and  C13_10 
ROOT
ATOM      1  C15 CAU d   1       2.033   4.084  48.967  0.00  0.00     0.051 C 
ATOM      2  H14 CAU d   1       1.515   4.548  48.114  0.00  0.00     0.079 H 
ATOM      3  H15 CAU d   1       1.329   3.966  49.803  0.00  0.00     0.079 H 
ENDROOT
BRANCH   1   4
ATOM      4  C16 CAU d   1       3.218   4.935  49.391  0.00  0.00     0.079 C 
ATOM      5  H2  CAU d   1       4.128   4.329  49.271  0.00  0.00     0.088 H 
BRANCH   4   6
ATOM      6  O17 CAU d   1       3.333   6.033  48.539  0.00  0.00    -0.392 OA
ATOM      7  H1  CAU d   1       2.573   6.593  48.642  0.00  0.00     0.210 HD
ENDBRANCH   4   6
BRANCH   4   8
ATOM      8  C18 CAU d   1       3.126   5.319  50.873  0.00  0.00     0.107 C 
ATOM      9  H3  CAU d   1       4.143   5.390  51.286  0.00  0.00     0.079 H 
ATOM     10  H4  CAU d   1       2.567   4.538  51.409  0.00  0.00     0.079 H 
BRANCH   8  11
ATOM     11  N19 CAU d   1       2.451   6.595  51.061  0.00  0.00    -0.069 N 
ATOM     12  H5  CAU d   1       1.585   6.587  50.545  0.00  0.00     0.277 HD
ATOM     13  H6  CAU d   1       3.043   7.333  50.713  0.00  0.00     0.277 HD
BRANCH  11  14
ATOM     14  C20 CAU d   1       2.162   6.844  52.465  0.00  0.00     0.095 C 
ATOM     15  H7  CAU d   1       2.479   5.980  53.067  0.00  0.00     0.083 H 
BRANCH  14  16
ATOM     16  C21 CAU d   1       2.909   8.099  52.916  0.00  0.00    -0.050 C 
ATOM     17  H8  CAU d   1       2.694   8.292  53.977  0.00  0.00     0.030 H 
ATOM     18  H9  CAU d   1       2.580   8.958  52.313  0.00  0.00     0.030 H 
ATOM     19  H10 CAU d   1       3.991   7.950  52.782  0.00  0.00     0.030 H 
ENDBRANCH  14  16
BRANCH  14  20
ATOM     20  C22 CAU d   1       0.665   7.088  52.655  0.00  0.00    -0.050 C 
ATOM     21  H11 CAU d   1       0.456   7.275  53.719  0.00  0.00     0.030 H 
ATOM     22  H12 CAU d   1       0.104   6.203  52.322  0.00  0.00     0.030 H 
ATOM     23  H13 CAU d   1       0.358   7.962  52.062  0.00  0.00     0.030 H 
ENDBRANCH  14  20
ENDBRANCH  11  14
ENDBRANCH   8  11
ENDBRANCH   4   8
ENDBRANCH   1   4
BRANCH   1  24
ATOM     24  O14 CAU d   1       2.562   2.843  48.598  0.00  0.00    -0.348 OA
BRANCH  24  25
ATOM     25  C13 CAU d   1       1.629   1.805  48.434  0.00  0.00     0.082 A 
ATOM     26  C12 CAU d   1       0.982   1.645  47.208  0.00  0.00    -0.050 A 
ATOM     27  C11 CAU d   1       0.105   0.583  46.999  0.00  0.00    -0.078 A 
ATOM     28  H16 CAU d   1       1.164   2.355  46.409  0.00  0.00     0.087 H 
ATOM     29  C10 CAU d   1      -0.121  -0.338  48.019  0.00  0.00    -0.056 A 
ATOM     30  H17 CAU d   1      -0.400   0.474  46.046  0.00  0.00     0.083 H 
ATOM     31  C8  CAU d   1       0.545  -0.202  49.256  0.00  0.00     0.046 A 
ATOM     32  H18 CAU d   1      -0.809  -1.161  47.863  0.00  0.00     0.086 H 
ATOM     33  C9  CAU d   1       1.422   0.848  49.468  0.00  0.00     0.036 A 
ATOM     34  N7  CAU d   1       0.504  -0.973  50.393  0.00  0.00    -0.355 N 
ATOM     35  C4  CAU d   1       1.929   0.702  50.759  0.00  0.00     0.006 A 
ATOM     36  C3  CAU d   1       1.348  -0.422  51.324  0.00  0.00     0.043 A 
ATOM     37  C5  CAU d   1       2.848   1.468  51.515  0.00  0.00    -0.070 A 
ATOM     38  C2  CAU d   1       1.645  -0.802  52.652  0.00  0.00    -0.056 A 
ATOM     39  C1  CAU d   1       2.543  -0.037  53.392  0.00  0.00    -0.081 A 
ATOM     40  H20 CAU d   1       1.180  -1.678  53.089  0.00  0.00     0.086 H 
ATOM     41  C6  CAU d   1       3.136   1.098  52.829  0.00  0.00    -0.082 A 
ATOM     42  H21 CAU d   1       2.784  -0.323  54.410  0.00  0.00     0.083 H 
ATOM     43  H22 CAU d   1       3.824   1.694  53.418  0.00  0.00     0.083 H 
ATOM     44  H23 CAU d   1       3.325   2.337  51.076  0.00  0.00     0.084 H 
ATOM     45  H19 CAU d   1      -0.065  -1.822  50.524  0.00  0.00     0.166 HD
ENDBRANCH  24  25
ENDBRANCH   1  24
TORSDOF 9
