REMARK  11 active torsions:
REMARK  status: ('A' for Active; 'I' for Inactive)
REMARK    1  A    between atoms: N4_6  and  C7_7 
REMARK    2  A    between atoms: C11_11  and  O12_12 
REMARK    3  A    between atoms: O12_12  and  C13_13 
REMARK    4  A    between atoms: C13_13  and  C14_14 
REMARK    5  A    between atoms: C14_14  and  O15_15 
REMARK    6  A    between atoms: C14_14  and  C16_16 
REMARK    7  A    between atoms: C16_16  and  N17_17 
REMARK    8  A    between atoms: N17_17  and  C18_18 
REMARK    9  A    between atoms: C18_18  and  C19_19 
REMARK   10  A    between atoms: C18_18  and  C20_20 
REMARK   11  A    between atoms: C18_18  and  C21_21 
ROOT
ATOM      1  C13 TIM d   1       2.656   4.157  48.609  0.00  0.00     0.053 C 
ATOM      2  H9  TIM d   1       2.319   4.585  47.653  0.00  0.00     0.079 H 
ATOM      3  H10 TIM d   1       3.480   3.452  48.425  0.00  0.00     0.079 H 
ENDROOT
BRANCH   1   4
ATOM      4  O12 TIM d   1       1.561   3.440  49.205  0.00  0.00    -0.329 OA
BRANCH   4   5
ATOM      5  C11 TIM d   1       1.236   2.296  48.534  0.00  0.00     0.221 A 
ATOM      6  C7  TIM d   1       1.368   0.926  49.013  0.00  0.00     0.189 A 
ATOM      7  N8  TIM d   1       0.958   0.025  48.099  0.00  0.00    -0.171 NA
ATOM      8  S9  TIM d   1       0.446   0.906  46.770  0.00  0.00     0.120 SA
ATOM      9  N10 TIM d   1       0.726   2.454  47.305  0.00  0.00    -0.164 NA
BRANCH   6  10
ATOM     10  N4  TIM d   1       1.873   0.546  50.248  0.00  0.00    -0.358 N 
ATOM     11  C5  TIM d   1       3.124   1.099  50.790  0.00  0.00     0.016 C 
ATOM     12  C6  TIM d   1       2.999   1.419  52.273  0.00  0.00     0.034 C 
ATOM     13  H1  TIM d   1       3.930   0.363  50.650  0.00  0.00     0.067 H 
ATOM     14  H2  TIM d   1       3.372   2.022  50.245  0.00  0.00     0.067 H 
ATOM     15  O1  TIM d   1       2.480   0.278  52.989  0.00  0.00    -0.388 OA
ATOM     16  H3  TIM d   1       2.316   2.271  52.404  0.00  0.00     0.076 H 
ATOM     17  H4  TIM d   1       3.990   1.679  52.673  0.00  0.00     0.076 H 
ATOM     18  C2  TIM d   1       1.178  -0.135  52.522  0.00  0.00     0.034 C 
ATOM     19  C3  TIM d   1       1.203  -0.495  51.040  0.00  0.00     0.016 C 
ATOM     20  H5  TIM d   1       0.465   0.688  52.678  0.00  0.00     0.076 H 
ATOM     21  H6  TIM d   1       0.854  -1.014  53.098  0.00  0.00     0.076 H 
ATOM     22  H7  TIM d   1       0.169  -0.608  50.681  0.00  0.00     0.067 H 
ATOM     23  H8  TIM d   1       1.742  -1.445  50.911  0.00  0.00     0.067 H 
ENDBRANCH   6  10
ENDBRANCH   4   5
ENDBRANCH   1   4
BRANCH   1  24
ATOM     24  C14 TIM d   1       3.169   5.289  49.499  0.00  0.00     0.079 C 
ATOM     25  H11 TIM d   1       4.137   4.969  49.912  0.00  0.00     0.088 H 
BRANCH  24  26
ATOM     26  O15 TIM d   1       3.393   6.426  48.666  0.00  0.00    -0.392 OA
ATOM     27  H12 TIM d   1       2.578   6.677  48.248  0.00  0.00     0.210 HD
ENDBRANCH  24  26
BRANCH  24  28
ATOM     28  C16 TIM d   1       2.271   5.648  50.703  0.00  0.00     0.108 C 
ATOM     29  H13 TIM d   1       2.294   4.821  51.428  0.00  0.00     0.079 H 
ATOM     30  H14 TIM d   1       1.240   5.798  50.351  0.00  0.00     0.079 H 
BRANCH  28  31
ATOM     31  N17 TIM d   1       2.744   6.893  51.369  0.00  0.00    -0.065 N 
ATOM     32  H15 TIM d   1       2.360   7.660  50.840  0.00  0.00     0.278 HD
ATOM     33  H16 TIM d   1       3.748   6.895  51.283  0.00  0.00     0.278 HD
BRANCH  31  34
ATOM     34  C18 TIM d   1       2.444   7.183  52.808  0.00  0.00     0.115 C 
BRANCH  34  35
ATOM     35  C19 TIM d   1       0.960   7.272  53.073  0.00  0.00    -0.046 C 
ATOM     36  H17 TIM d   1       0.790   7.486  54.139  0.00  0.00     0.030 H 
ATOM     37  H18 TIM d   1       0.482   6.317  52.810  0.00  0.00     0.030 H 
ATOM     38  H19 TIM d   1       0.526   8.079  52.464  0.00  0.00     0.030 H 
ENDBRANCH  34  35
BRANCH  34  39
ATOM     39  C20 TIM d   1       3.037   6.065  53.687  0.00  0.00    -0.046 C 
ATOM     40  H20 TIM d   1       2.818   6.275  54.744  0.00  0.00     0.030 H 
ATOM     41  H21 TIM d   1       4.126   6.021  53.539  0.00  0.00     0.030 H 
ATOM     42  H22 TIM d   1       2.590   5.101  53.405  0.00  0.00     0.030 H 
ENDBRANCH  34  39
BRANCH  34  43
ATOM     43  C21 TIM d   1       3.011   8.522  53.303  0.00  0.00    -0.046 C 
ATOM     44  H23 TIM d   1       2.750   8.661  54.362  0.00  0.00     0.030 H 
ATOM     45  H24 TIM d   1       2.584   9.343  52.709  0.00  0.00     0.030 H 
ATOM     46  H25 TIM d   1       4.105   8.520  53.192  0.00  0.00     0.030 H 
ENDBRANCH  34  43
ENDBRANCH  31  34
ENDBRANCH  28  31
ENDBRANCH  24  28
ENDBRANCH   1  24
TORSDOF 11
