REMARK  12 active torsions:
REMARK  status: ('A' for Active; 'I' for Inactive)
REMARK    1  A    between atoms: O1_1  and  C1_2 
REMARK    2  A    between atoms: C1_2  and  C2_3 
REMARK    3  A    between atoms: C1_2  and  C15_18 
REMARK    4  A    between atoms: C2_3  and  O2_4 
REMARK    5  A    between atoms: O2_4  and  C3_5 
REMARK    6  A    between atoms: C15_18  and  N2_19 
REMARK    7  A    between atoms: N2_19  and  C16_20 
REMARK    8  A    between atoms: C16_20  and  C17_21 
REMARK    9  A    between atoms: C17_21  and  O3_22 
REMARK   10  A    between atoms: O3_22  and  C18_23 
REMARK   11  A    between atoms: C19_28  and  O4_29 
REMARK   12  A    between atoms: O4_29  and  C24_30 
ROOT
ATOM      1  C1  CVD d   1       3.115   5.368  50.546  0.00  0.00     0.079 C 
ATOM      2  H2  CVD d   1       4.002   4.851  50.940  0.00  0.00     0.088 H 
ENDROOT
BRANCH   1   3
ATOM      3  O1  CVD d   1       3.529   6.483  49.808  0.00  0.00    -0.392 OA
ATOM      4  H1  CVD d   1       2.768   6.929  49.457  0.00  0.00     0.210 HD
ENDBRANCH   1   3
BRANCH   1   5
ATOM      5  C2  CVD d   1       2.341   4.420  49.636  0.00  0.00     0.051 C 
ATOM      6  H3  CVD d   1       2.717   4.506  48.606  0.00  0.00     0.079 H 
ATOM      7  H4  CVD d   1       1.271   4.676  49.658  0.00  0.00     0.079 H 
BRANCH   5   8
ATOM      8  O2  CVD d   1       2.523   3.105  50.098  0.00  0.00    -0.348 OA
BRANCH   8   9
ATOM      9  C3  CVD d   1       1.691   2.089  49.584  0.00  0.00     0.082 A 
ATOM     10  C14 CVD d   1       1.200   2.118  48.344  0.00  0.00    -0.050 A 
ATOM     11  C13 CVD d   1       0.333   0.957  47.819  0.00  0.00    -0.078 A 
ATOM     12  H5  CVD d   1       1.412   2.964  47.701  0.00  0.00     0.087 H 
ATOM     13  C12 CVD d   1       0.072  -0.089  48.596  0.00  0.00    -0.056 A 
ATOM     14  H6  CVD d   1      -0.066   0.994  46.812  0.00  0.00     0.083 H 
ATOM     15  C6  CVD d   1       0.650  -0.141  50.008  0.00  0.00     0.046 A 
ATOM     16  H7  CVD d   1      -0.547  -0.900  48.230  0.00  0.00     0.086 H 
ATOM     17  C4  CVD d   1       1.411   0.863  50.460  0.00  0.00     0.036 A 
ATOM     18  N1  CVD d   1       0.554  -1.071  51.041  0.00  0.00    -0.355 N 
ATOM     19  C5  CVD d   1       1.816   0.479  51.947  0.00  0.00     0.006 A 
ATOM     20  C8  CVD d   1       2.651   1.180  53.022  0.00  0.00    -0.070 A 
ATOM     21  C7  CVD d   1       1.248  -0.711  52.198  0.00  0.00     0.043 A 
ATOM     22  C11 CVD d   1       2.785   0.611  54.216  0.00  0.00    -0.082 A 
ATOM     23  H8  CVD d   1       3.128   2.130  52.812  0.00  0.00     0.084 H 
ATOM     24  C10 CVD d   1       2.154  -0.764  54.493  0.00  0.00    -0.081 A 
ATOM     25  H9  CVD d   1       3.341   1.118  54.997  0.00  0.00     0.083 H 
ATOM     26  C9  CVD d   1       1.407  -1.356  53.573  0.00  0.00    -0.056 A 
ATOM     27  H10 CVD d   1       2.321  -1.252  55.447  0.00  0.00     0.083 H 
ATOM     28  H11 CVD d   1       0.911  -2.294  53.795  0.00  0.00     0.086 H 
ATOM     29  H12 CVD d   1       0.018  -1.947  50.959  0.00  0.00     0.166 HD
ENDBRANCH   8   9
ENDBRANCH   5   8
ENDBRANCH   1   5
BRANCH   1  30
ATOM     30  C15 CVD d   1       2.218   5.784  51.720  0.00  0.00     0.107 C 
ATOM     31  H13 CVD d   1       2.022   4.909  52.358  0.00  0.00     0.079 H 
ATOM     32  H14 CVD d   1       1.266   6.175  51.331  0.00  0.00     0.079 H 
BRANCH  30  33
ATOM     33  N2  CVD d   1       2.876   6.810  52.501  0.00  0.00    -0.071 N 
ATOM     34  H15 CVD d   1       2.980   7.637  51.934  0.00  0.00     0.277 HD
ATOM     35  H16 CVD d   1       3.786   6.477  52.779  0.00  0.00     0.277 HD
BRANCH  33  36
ATOM     36  C16 CVD d   1       2.115   7.146  53.687  0.00  0.00     0.102 C 
ATOM     37  H17 CVD d   1       2.309   6.401  54.473  0.00  0.00     0.079 H 
ATOM     38  H18 CVD d   1       1.042   7.154  53.446  0.00  0.00     0.079 H 
BRANCH  36  39
ATOM     39  C17 CVD d   1       2.541   8.535  54.180  0.00  0.00     0.049 C 
ATOM     40  H19 CVD d   1       2.136   8.705  55.188  0.00  0.00     0.077 H 
ATOM     41  H20 CVD d   1       2.152   9.302  53.494  0.00  0.00     0.077 H 
BRANCH  39  42
ATOM     42  O3  CVD d   1       3.943   8.614  54.221  0.00  0.00    -0.347 OA
BRANCH  42  43
ATOM     43  C18 CVD d   1       4.518   9.827  54.642  0.00  0.00     0.102 A 
ATOM     44  C23 CVD d   1       5.062  10.637  53.735  0.00  0.00    -0.048 A 
ATOM     45  C22 CVD d   1       5.724  11.954  54.165  0.00  0.00    -0.080 A 
ATOM     46  H21 CVD d   1       5.037  10.364  52.686  0.00  0.00     0.087 H 
ATOM     47  C21 CVD d   1       5.774  12.271  55.451  0.00  0.00    -0.080 A 
ATOM     48  H22 CVD d   1       6.148  12.620  53.422  0.00  0.00     0.083 H 
ATOM     49  C20 CVD d   1       5.162  11.335  56.506  0.00  0.00    -0.048 A 
ATOM     50  H23 CVD d   1       6.249  13.195  55.761  0.00  0.00     0.083 H 
ATOM     51  C19 CVD d   1       4.605  10.180  56.149  0.00  0.00     0.101 A 
ATOM     52  H24 CVD d   1       5.184  11.619  57.552  0.00  0.00     0.087 H 
BRANCH  51  53
ATOM     53  O4  CVD d   1       4.024   9.352  57.142  0.00  0.00    -0.353 OA
BRANCH  53  54
ATOM     54  C24 CVD d   1       4.687   8.153  57.470  0.00  0.00     0.010 C 
ATOM     55  H25 CVD d   1       4.121   7.622  58.249  0.00  0.00     0.066 H 
ATOM     56  H26 CVD d   1       5.697   8.382  57.842  0.00  0.00     0.066 H 
ATOM     57  H27 CVD d   1       4.761   7.518  56.575  0.00  0.00     0.066 H 
ENDBRANCH  53  54
ENDBRANCH  51  53
ENDBRANCH  42  43
ENDBRANCH  39  42
ENDBRANCH  36  39
ENDBRANCH  33  36
ENDBRANCH  30  33
ENDBRANCH   1  30
TORSDOF 12
