REMARK  11 active torsions:
REMARK  status: ('A' for Active; 'I' for Inactive)
REMARK    1  A    between atoms: C13_16  and  N1_2 
REMARK    2  A    between atoms: N1_2  and  C15_18 
REMARK    3  A    between atoms: O1_3  and  C10_13 
REMARK    4  A    between atoms: C11_14  and  O1_3 
REMARK    5  A    between atoms: C12_15  and  O2_5 
REMARK    6  A    between atoms: C6_9  and  C7_10 
REMARK    7  A    between atoms: C12_15  and  C11_14 
REMARK    8  A    between atoms: C12_15  and  C13_16 
REMARK    9  A    between atoms: C13_16  and  C14_17 
REMARK   10  A    between atoms: C15_18  and  C16_19 
REMARK   11  A    between atoms: C15_18  and  C17_20 
ROOT
ATOM      1  C11 JRZ d   1       2.722   5.244  49.004  0.00  0.00     0.052 C 
ATOM      2  H15 JRZ d   1       1.627   5.340  49.029  0.00  0.00     0.079 H 
ATOM      3  H16 JRZ d   1       3.092   5.519  48.005  0.00  0.00     0.079 H 
ENDROOT
BRANCH   1   4
ATOM      4  O1  JRZ d   1       3.111   3.906  49.328  0.00  0.00    -0.348 OA
BRANCH   4   5
ATOM      5  C10 JRZ d   1       2.184   2.881  49.090  0.00  0.00     0.075 A 
ATOM      6  C4  JRZ d   1       2.221   1.815  50.009  0.00  0.00    -0.018 A 
ATOM      7  C3  JRZ d   1       3.062   1.676  51.247  0.00  0.00    -0.037 C 
ATOM      8  C5  JRZ d   1       1.382   0.718  49.860  0.00  0.00    -0.043 A 
ATOM      9  C2  JRZ d   1       2.264   0.643  52.044  0.00  0.00    -0.058 C 
ATOM     10  H8  JRZ d   1       4.071   1.308  51.008  0.00  0.00     0.040 H 
ATOM     11  H9  JRZ d   1       3.139   2.630  51.789  0.00  0.00     0.040 H 
ATOM     12  C1  JRZ d   1       1.589  -0.244  51.000  0.00  0.00    -0.040 C 
ATOM     13  H5  JRZ d   1       2.934   0.046  52.680  0.00  0.00     0.033 H 
ATOM     14  H6  JRZ d   1       1.510   1.140  52.672  0.00  0.00     0.033 H 
ATOM     15  H1  JRZ d   1       0.631  -0.638  51.370  0.00  0.00     0.040 H 
ATOM     16  H2  JRZ d   1       2.240  -1.080  50.705  0.00  0.00     0.040 H 
ATOM     17  C6  JRZ d   1       0.482   0.640  48.762  0.00  0.00    -0.055 A 
ATOM     18  C8  JRZ d   1       0.460   1.701  47.832  0.00  0.00    -0.074 A 
ATOM     19  C9  JRZ d   1       1.290   2.812  47.989  0.00  0.00    -0.050 A 
ATOM     20  H13 JRZ d   1      -0.212   1.652  46.983  0.00  0.00     0.084 H 
ATOM     21  H14 JRZ d   1       1.252   3.623  47.270  0.00  0.00     0.087 H 
BRANCH  17  22
ATOM     22  C7  JRZ d   1      -0.470  -0.511  48.576  0.00  0.00    -0.051 C 
ATOM     23  H10 JRZ d   1      -1.062  -0.353  47.663  0.00  0.00     0.033 H 
ATOM     24  H11 JRZ d   1      -1.144  -0.574  49.443  0.00  0.00     0.033 H 
ATOM     25  H12 JRZ d   1       0.100  -1.448  48.486  0.00  0.00     0.033 H 
ENDBRANCH  17  22
ENDBRANCH   4   5
ENDBRANCH   1   4
BRANCH   1  26
ATOM     26  C12 JRZ d   1       3.358   6.135  50.070  0.00  0.00     0.083 C 
ATOM     27  H17 JRZ d   1       4.317   5.668  50.336  0.00  0.00     0.089 H 
BRANCH  26  28
ATOM     28  O2  JRZ d   1       3.642   7.370  49.426  0.00  0.00    -0.391 OA
ATOM     29  H7  JRZ d   1       2.834   7.748  49.098  0.00  0.00     0.210 HD
ENDBRANCH  26  28
BRANCH  26  30
ATOM     30  C13 JRZ d   1       2.607   6.328  51.422  0.00  0.00     0.125 C 
ATOM     31  H18 JRZ d   1       3.060   5.637  52.148  0.00  0.00     0.087 H 
BRANCH  30  32
ATOM     32  N1  JRZ d   1       2.818   7.752  51.914  0.00  0.00    -0.065 N 
ATOM     33  H3  JRZ d   1       2.053   8.295  51.545  0.00  0.00     0.278 HD
ATOM     34  H4  JRZ d   1       3.683   8.068  51.504  0.00  0.00     0.278 HD
BRANCH  32  35
ATOM     35  C15 JRZ d   1       2.901   8.084  53.390  0.00  0.00     0.096 C 
ATOM     36  H22 JRZ d   1       3.158   7.191  53.979  0.00  0.00     0.083 H 
BRANCH  35  37
ATOM     37  C16 JRZ d   1       3.964   9.174  53.560  0.00  0.00    -0.050 C 
ATOM     38  H23 JRZ d   1       4.050   9.440  54.624  0.00  0.00     0.030 H 
ATOM     39  H24 JRZ d   1       3.672  10.064  52.983  0.00  0.00     0.030 H 
ATOM     40  H25 JRZ d   1       4.933   8.802  53.196  0.00  0.00     0.030 H 
ENDBRANCH  35  37
BRANCH  35  41
ATOM     41  C17 JRZ d   1       1.547   8.653  53.829  0.00  0.00    -0.050 C 
ATOM     42  H26 JRZ d   1       1.584   8.902  54.900  0.00  0.00     0.030 H 
ATOM     43  H27 JRZ d   1       0.760   7.904  53.653  0.00  0.00     0.030 H 
ATOM     44  H28 JRZ d   1       1.325   9.561  53.249  0.00  0.00     0.030 H 
ENDBRANCH  35  41
ENDBRANCH  32  35
ENDBRANCH  30  32
BRANCH  30  45
ATOM     45  C14 JRZ d   1       1.099   6.030  51.388  0.00  0.00    -0.047 C 
ATOM     46  H19 JRZ d   1       0.936   5.002  51.033  0.00  0.00     0.030 H 
ATOM     47  H20 JRZ d   1       0.601   6.736  50.707  0.00  0.00     0.030 H 
ATOM     48  H21 JRZ d   1       0.681   6.139  52.400  0.00  0.00     0.030 H 
ENDBRANCH  30  45
ENDBRANCH  26  30
ENDBRANCH   1  26
TORSDOF 11
