REMARK  9 active torsions:
REMARK  status: ('A' for Active; 'I' for Inactive)
REMARK    1  A    between atoms: C1_1  and  O1_11 
REMARK    2  A    between atoms: O1_11  and  C11_12 
REMARK    3  A    between atoms: C11_12  and  C12_13 
REMARK    4  A    between atoms: C12_13  and  O2_14 
REMARK    5  A    between atoms: C12_13  and  C13_15 
REMARK    6  A    between atoms: C13_15  and  N1_16 
REMARK    7  A    between atoms: N1_16  and  C14_17 
REMARK    8  A    between atoms: C14_17  and  C15_18 
REMARK    9  A    between atoms: C14_17  and  C16_19 
ROOT
ATOM      1  C11 SNP d   1       2.346   4.131  49.559  0.00  0.00     0.051 C 
ATOM      2  H8  SNP d   1       1.264   4.239  49.722  0.00  0.00     0.079 H 
ATOM      3  H9  SNP d   1       2.577   4.314  48.499  0.00  0.00     0.079 H 
ENDROOT
BRANCH   1   4
ATOM      4  O1  SNP d   1       2.774   2.815  49.938  0.00  0.00    -0.348 OA
BRANCH   4   5
ATOM      5  C1  SNP d   1       1.915   1.723  49.718  0.00  0.00     0.080 A 
ATOM      6  C2  SNP d   1       1.201   1.509  48.522  0.00  0.00    -0.050 A 
ATOM      7  C3  SNP d   1       0.399   0.383  48.364  0.00  0.00    -0.080 A 
ATOM      8  H1  SNP d   1       1.278   2.230  47.716  0.00  0.00     0.087 H 
ATOM      9  C4  SNP d   1       0.291  -0.545  49.390  0.00  0.00    -0.072 A 
ATOM     10  H2  SNP d   1      -0.143   0.230  47.438  0.00  0.00     0.083 H 
ATOM     11  C10 SNP d   1       0.994  -0.364  50.584  0.00  0.00    -0.023 A 
ATOM     12  H3  SNP d   1      -0.343  -1.416  49.264  0.00  0.00     0.084 H 
ATOM     13  C5  SNP d   1       0.883  -1.310  51.606  0.00  0.00    -0.072 A 
ATOM     14  C9  SNP d   1       1.823   0.770  50.759  0.00  0.00     0.007 A 
ATOM     15  C6  SNP d   1       1.573  -1.157  52.800  0.00  0.00    -0.082 A 
ATOM     16  H4  SNP d   1       0.248  -2.177  51.464  0.00  0.00     0.084 H 
ATOM     17  C7  SNP d   1       2.389  -0.053  52.985  0.00  0.00    -0.082 A 
ATOM     18  H5  SNP d   1       1.474  -1.898  53.585  0.00  0.00     0.083 H 
ATOM     19  C8  SNP d   1       2.514   0.902  51.980  0.00  0.00    -0.070 A 
ATOM     20  H6  SNP d   1       2.932   0.068  53.915  0.00  0.00     0.083 H 
ATOM     21  H7  SNP d   1       3.154   1.762  52.139  0.00  0.00     0.085 H 
ENDBRANCH   4   5
ENDBRANCH   1   4
BRANCH   1  22
ATOM     22  C12 SNP d   1       3.108   5.112  50.437  0.00  0.00     0.079 C 
ATOM     23  H10 SNP d   1       3.986   4.603  50.861  0.00  0.00     0.088 H 
BRANCH  22  24
ATOM     24  O2  SNP d   1       3.566   6.201  49.632  0.00  0.00    -0.392 OA
ATOM     25  H11 SNP d   1       2.820   6.637  49.237  0.00  0.00     0.210 HD
ENDBRANCH  22  24
BRANCH  22  26
ATOM     26  C13 SNP d   1       2.211   5.572  51.603  0.00  0.00     0.107 C 
ATOM     27  H12 SNP d   1       2.190   4.776  52.362  0.00  0.00     0.079 H 
ATOM     28  H13 SNP d   1       1.194   5.738  51.217  0.00  0.00     0.079 H 
BRANCH  26  29
ATOM     29  N1  SNP d   1       2.676   6.816  52.244  0.00  0.00    -0.069 N 
ATOM     30  H14 SNP d   1       2.299   7.599  51.734  0.00  0.00     0.277 HD
ATOM     31  H15 SNP d   1       3.683   6.841  52.202  0.00  0.00     0.277 HD
BRANCH  29  32
ATOM     32  C14 SNP d   1       2.261   6.933  53.660  0.00  0.00     0.095 C 
ATOM     33  H16 SNP d   1       2.185   5.919  54.079  0.00  0.00     0.083 H 
BRANCH  32  34
ATOM     34  C15 SNP d   1       3.347   7.709  54.403  0.00  0.00    -0.050 C 
ATOM     35  H17 SNP d   1       3.065   7.812  55.461  0.00  0.00     0.030 H 
ATOM     36  H18 SNP d   1       3.457   8.707  53.954  0.00  0.00     0.030 H 
ATOM     37  H19 SNP d   1       4.301   7.167  54.329  0.00  0.00     0.030 H 
ENDBRANCH  32  34
BRANCH  32  38
ATOM     38  C16 SNP d   1       0.916   7.640  53.881  0.00  0.00    -0.050 C 
ATOM     39  H20 SNP d   1       0.695   7.678  54.958  0.00  0.00     0.030 H 
ATOM     40  H21 SNP d   1       0.120   7.085  53.363  0.00  0.00     0.030 H 
ATOM     41  H22 SNP d   1       0.970   8.663  53.481  0.00  0.00     0.030 H 
ENDBRANCH  32  38
ENDBRANCH  29  32
ENDBRANCH  26  29
ENDBRANCH  22  26
ENDBRANCH   1  22
TORSDOF 9
