REMARK  4 active torsions:
REMARK  status: ('A' for Active; 'I' for Inactive)
REMARK    1  A    between atoms: N02_19  and  C01_1 
REMARK    2  A    between atoms: C06_5  and  C05_4 
REMARK    3  A    between atoms: C07_6  and  C06_5 
REMARK    4  A    between atoms: N08_20  and  C07_6 
ROOT
ATOM      1  C09 Y17 d   1      10.957   6.568   3.573  0.00  0.00     0.046 A 
ATOM      2  C10 Y17 d   1       9.734   6.512   2.843  0.00  0.00    -0.056 A 
ATOM      3  C11 Y17 d   1       8.707   5.726   3.342  0.00  0.00    -0.081 A 
ATOM      4  C12 Y17 d   1       8.861   4.998   4.540  0.00  0.00    -0.082 A 
ATOM      5  C13 Y17 d   1      10.057   5.065   5.258  0.00  0.00    -0.070 A 
ATOM      6  C14 Y17 d   1      11.135   5.861   4.775  0.00  0.00     0.008 A 
ATOM      7  C15 Y17 d   1      12.502   6.146   5.216  0.00  0.00     0.067 A 
ATOM      8  C16 Y17 d   1      13.070   7.000   4.297  0.00  0.00     0.030 A 
ATOM      9  C17 Y17 d   1      14.468   7.506   4.426  0.00  0.00    -0.011 C 
ATOM     10  C18 Y17 d   1      14.925   7.516   5.879  0.00  0.00     0.000 C 
ATOM     11  C20 Y17 d   1      13.247   5.698   6.372  0.00  0.00     0.254 C 
ATOM     12  N08 Y17 d   1      12.161   7.261   3.293  0.00  0.00    -0.349 N 
ATOM     13  N19 Y17 d   1      14.472   6.327   6.656  0.00  0.00    -0.356 N 
ATOM     14  O21 Y17 d   1      12.892   4.759   7.092  0.00  0.00    -0.268 OA
ATOM     15  H11 Y17 d   1       9.610   7.069   1.922  0.00  0.00     0.087 H 
ATOM     16  H12 Y17 d   1       7.769   5.670   2.802  0.00  0.00     0.083 H 
ATOM     17  H13 Y17 d   1       8.047   4.383   4.905  0.00  0.00     0.083 H 
ATOM     18  H14 Y17 d   1      10.165   4.511   6.183  0.00  0.00     0.084 H 
ATOM     19  H15 Y17 d   1      14.515   8.531   4.029  0.00  0.00     0.044 H 
ATOM     20  H16 Y17 d   1      15.139   6.856   3.845  0.00  0.00     0.044 H 
ATOM     21  H17 Y17 d   1      14.526   8.420   6.363  0.00  0.00     0.064 H 
ATOM     22  H18 Y17 d   1      16.024   7.545   5.897  0.00  0.00     0.064 H 
ATOM     23  H21 Y17 d   1      15.049   5.971   7.391  0.00  0.00     0.162 HD
ENDROOT
BRANCH  12  24
ATOM     24  C07 Y17 d   1      12.408   8.121   2.107  0.00  0.00     0.001 C 
ATOM     25  H9  Y17 d   1      11.710   8.970   2.143  0.00  0.00     0.064 H 
ATOM     26  H10 Y17 d   1      13.442   8.493   2.158  0.00  0.00     0.064 H 
BRANCH  24  27
ATOM     27  C06 Y17 d   1      12.222   7.404   0.777  0.00  0.00    -0.044 C 
ATOM     28  H7  Y17 d   1      11.146   7.386   0.551  0.00  0.00     0.036 H 
ATOM     29  H8  Y17 d   1      12.749   7.984   0.005  0.00  0.00     0.036 H 
BRANCH  27  30
ATOM     30  C05 Y17 d   1      12.751   5.930   0.715  0.00  0.00    -0.029 C 
ATOM     31  C04 Y17 d   1      14.253   5.898   0.646  0.00  0.00     0.014 C 
ATOM     32  C03 Y17 d   1      14.524   4.617  -0.130  0.00  0.00     0.219 C 
ATOM     33  H4  Y17 d   1      14.644   6.776   0.112  0.00  0.00     0.047 H 
ATOM     34  H5  Y17 d   1      14.696   5.854   1.652  0.00  0.00     0.047 H 
ATOM     35  N02 Y17 d   1      13.412   4.238  -0.824  0.00  0.00    -0.356 N 
ATOM     36  O23 Y17 d   1      15.565   3.971  -0.152  0.00  0.00    -0.273 OA
ATOM     37  C22 Y17 d   1      12.347   5.163  -0.600  0.00  0.00     0.001 C 
ATOM     38  H19 Y17 d   1      12.257   5.862  -1.444  0.00  0.00     0.065 H 
ATOM     39  H20 Y17 d   1      11.394   4.631  -0.461  0.00  0.00     0.065 H 
ATOM     40  H6  Y17 d   1      12.386   5.389   1.601  0.00  0.00     0.043 H 
BRANCH  35  41
ATOM     41  C01 Y17 d   1      13.170   3.076  -1.720  0.00  0.00    -0.016 C 
ATOM     42  H1  Y17 d   1      12.137   3.112  -2.097  0.00  0.00     0.056 H 
ATOM     43  H2  Y17 d   1      13.323   2.142  -1.159  0.00  0.00     0.056 H 
ATOM     44  H3  Y17 d   1      13.871   3.114  -2.567  0.00  0.00     0.056 H 
ENDBRANCH  35  41
ENDBRANCH  27  30
ENDBRANCH  24  27
ENDBRANCH  12  24
TORSDOF 4
