REMARK  3 active torsions:
REMARK  status: ('A' for Active; 'I' for Inactive)
REMARK    1  A    between atoms: C09_6  and  C10_7 
REMARK    2  A    between atoms: C09_6  and  N08_19 
REMARK    3  A    between atoms: N12_20  and  C13_9 
ROOT
ATOM      1  C02 Y18 d   1      17.267 -15.388  -3.404  0.00  0.00     0.254 C 
ATOM      2  C04 Y18 d   1      18.621 -17.173  -4.652  0.00  0.00     0.000 C 
ATOM      3  C05 Y18 d   1      18.285 -16.414  -5.887  0.00  0.00    -0.011 C 
ATOM      4  C06 Y18 d   1      17.610 -14.488  -4.463  0.00  0.00     0.067 A 
ATOM      5  C07 Y18 d   1      18.093 -15.016  -5.684  0.00  0.00     0.030 A 
ATOM      6  C17 Y18 d   1      17.948 -12.734  -5.906  0.00  0.00     0.046 A 
ATOM      7  C18 Y18 d   1      17.509 -13.112  -4.626  0.00  0.00     0.008 A 
ATOM      8  C19 Y18 d   1      17.106 -12.101  -3.763  0.00  0.00    -0.070 A 
ATOM      9  C20 Y18 d   1      17.160 -10.800  -4.210  0.00  0.00    -0.082 A 
ATOM     10  C21 Y18 d   1      17.604 -10.456  -5.515  0.00  0.00    -0.081 A 
ATOM     11  C22 Y18 d   1      17.990 -11.420  -6.388  0.00  0.00    -0.056 A 
ATOM     12  N03 Y18 d   1      17.720 -16.763  -3.543  0.00  0.00    -0.356 N 
ATOM     13  N08 Y18 d   1      18.268 -13.963  -6.543  0.00  0.00    -0.348 N 
ATOM     14  O01 Y18 d   1      16.557 -15.056  -2.461  0.00  0.00    -0.268 OA
ATOM     15  H1  Y18 d   1      19.664 -16.966  -4.370  0.00  0.00     0.064 H 
ATOM     16  H2  Y18 d   1      18.499 -18.250  -4.841  0.00  0.00     0.064 H 
ATOM     17  H3  Y18 d   1      17.358 -16.831  -6.306  0.00  0.00     0.044 H 
ATOM     18  H4  Y18 d   1      19.106 -16.548  -6.607  0.00  0.00     0.044 H 
ATOM     19  H15 Y18 d   1      16.758 -12.331  -2.763  0.00  0.00     0.084 H 
ATOM     20  H16 Y18 d   1      16.851 -10.006  -3.539  0.00  0.00     0.083 H 
ATOM     21  H17 Y18 d   1      17.635  -9.415  -5.816  0.00  0.00     0.083 H 
ATOM     22  H18 Y18 d   1      18.311 -11.187  -7.397  0.00  0.00     0.087 H 
ATOM     23  H19 Y18 d   1      17.419 -17.447  -2.878  0.00  0.00     0.162 HD
ENDROOT
BRANCH  13  24
ATOM     24  C09 Y18 d   1      18.785 -13.853  -7.933  0.00  0.00     0.005 C 
ATOM     25  H5  Y18 d   1      19.172 -12.835  -8.086  0.00  0.00     0.065 H 
ATOM     26  H6  Y18 d   1      19.601 -14.579  -8.064  0.00  0.00     0.065 H 
BRANCH  24  27
ATOM     27  C10 Y18 d   1      17.621 -14.153  -9.067  0.00  0.00    -0.015 C 
ATOM     28  C11 Y18 d   1      16.647 -12.987  -9.114  0.00  0.00     0.002 C 
ATOM     29  N12 Y18 d   1      15.419 -13.650  -9.657  0.00  0.00    -0.356 N 
ATOM     30  H8  Y18 d   1      17.004 -12.191  -9.784  0.00  0.00     0.065 H 
ATOM     31  H9  Y18 d   1      16.469 -12.570  -8.112  0.00  0.00     0.065 H 
ATOM     32  C14 Y18 d   1      15.457 -15.038  -9.461  0.00  0.00     0.219 C 
ATOM     33  C15 Y18 d   1      16.792 -15.441  -8.777  0.00  0.00     0.016 C 
ATOM     34  O16 Y18 d   1      14.557 -15.777  -9.787  0.00  0.00    -0.273 OA
ATOM     35  H13 Y18 d   1      16.665 -15.615  -7.698  0.00  0.00     0.047 H 
ATOM     36  H14 Y18 d   1      17.240 -16.332  -9.242  0.00  0.00     0.047 H 
ATOM     37  H7  Y18 d   1      18.111 -14.262 -10.046  0.00  0.00     0.045 H 
BRANCH  29  38
ATOM     38  C13 Y18 d   1      14.357 -12.800 -10.211  0.00  0.00    -0.016 C 
ATOM     39  H10 Y18 d   1      13.529 -13.432 -10.566  0.00  0.00     0.056 H 
ATOM     40  H11 Y18 d   1      14.757 -12.214 -11.051  0.00  0.00     0.056 H 
ATOM     41  H12 Y18 d   1      13.989 -12.118  -9.431  0.00  0.00     0.056 H 
ENDBRANCH  29  38
ENDBRANCH  24  27
ENDBRANCH  13  24
TORSDOF 3
