REMARK  13 active torsions:
REMARK  status: ('A' for Active; 'I' for Inactive)
REMARK    1  A    between atoms: CBI_1  and  CBG_2 
REMARK    2  A    between atoms: CBG_2  and  NBF_3 
REMARK    3  A    between atoms: NBF_3  and  CBH_4 
REMARK       I    between atoms: NBF_3  and  CBD_6 
REMARK    4  A    between atoms: CBH_4  and  CBJ_5 
REMARK    5  A    between atoms: CBD_6  and  CAZ_8 
REMARK    6  A    between atoms: CAR_13  and  CAP_14 
REMARK    7  A    between atoms: CAP_14  and  CAQ_15 
REMARK    8  A    between atoms: CAP_14  and  NAK_22 
REMARK    9  A    between atoms: CAT_17  and  OBC_18 
REMARK   10  A    between atoms: CAJ_23  and  CAO_25 
REMARK   11  A    between atoms: CAM_27  and  CAN_28 
REMARK   12  A    between atoms: NAH_29  and  CAG_30 
REMARK   13  A    between atoms: CAG_30  and  CAB_31 
ROOT
ATOM      1  CAP OWY d   1       4.792 -42.221 -46.661  0.00  0.00     0.155 C 
ATOM      2  H15 OWY d   1       5.717 -42.774 -46.883  0.00  0.00     0.100 H 
ENDROOT
BRANCH   1   3
ATOM      3  CAR OWY d   1       4.349 -41.590 -47.938  0.00  0.00    -0.023 A 
ATOM      4  CBB OWY d   1       5.070 -41.843 -49.123  0.00  0.00    -0.073 A 
ATOM      5  CBA OWY d   1       4.647 -41.270 -50.340  0.00  0.00    -0.067 A 
ATOM      6  H12 OWY d   1       5.949 -42.477 -49.099  0.00  0.00     0.084 H 
ATOM      7  CAZ OWY d   1       3.485 -40.472 -50.392  0.00  0.00     0.032 A 
ATOM      8  H11 OWY d   1       5.220 -41.444 -51.244  0.00  0.00     0.085 H 
ATOM      9  CAY OWY d   1       2.787 -40.195 -49.205  0.00  0.00    -0.067 A 
ATOM     10  CAX OWY d   1       3.190 -40.780 -47.996  0.00  0.00    -0.073 A 
ATOM     11  H13 OWY d   1       1.934 -39.527 -49.224  0.00  0.00     0.085 H 
ATOM     12  H14 OWY d   1       2.608 -40.610 -47.097  0.00  0.00     0.084 H 
BRANCH   7  13
ATOM     13  CBD OWY d   1       3.082 -39.835 -51.677  0.00  0.00     0.253 C 
ATOM     14  NBF OWY d   1       2.007 -40.204 -52.438  0.00  0.00    -0.349 N 
ATOM     15  OBE OWY d   1       3.791 -38.935 -52.048  0.00  0.00    -0.267 OA
BRANCH  14  16
ATOM     16  CBG OWY d   1       1.794 -39.555 -53.596  0.00  0.00    -0.005 C 
ATOM     17  H4  OWY d   1       0.710 -39.492 -53.768  0.00  0.00     0.063 H 
ATOM     18  H5  OWY d   1       2.212 -38.541 -53.512  0.00  0.00     0.063 H 
BRANCH  16  19
ATOM     19  CBI OWY d   1       2.438 -40.250 -54.794  0.00  0.00    -0.061 C 
ATOM     20  H1  OWY d   1       2.229 -39.674 -55.708  0.00  0.00     0.029 H 
ATOM     21  H2  OWY d   1       2.023 -41.263 -54.897  0.00  0.00     0.029 H 
ATOM     22  H3  OWY d   1       3.525 -40.313 -54.640  0.00  0.00     0.029 H 
ENDBRANCH  16  19
ENDBRANCH  14  16
BRANCH  14  23
ATOM     23  CBH OWY d   1       1.144 -41.201 -52.107  0.00  0.00    -0.005 C 
ATOM     24  H6  OWY d   1       1.696 -41.924 -51.489  0.00  0.00     0.063 H 
ATOM     25  H7  OWY d   1       0.825 -41.686 -53.041  0.00  0.00     0.063 H 
BRANCH  23  26
ATOM     26  CBJ OWY d   1      -0.138 -40.803 -51.327  0.00  0.00    -0.061 C 
ATOM     27  H8  OWY d   1      -0.740 -41.702 -51.127  0.00  0.00     0.029 H 
ATOM     28  H9  OWY d   1      -0.727 -40.093 -51.927  0.00  0.00     0.029 H 
ATOM     29  H10 OWY d   1       0.144 -40.332 -50.374  0.00  0.00     0.029 H 
ENDBRANCH  23  26
ENDBRANCH  14  23
ENDBRANCH   7  13
ENDBRANCH   1   3
BRANCH   1  30
ATOM     30  CAQ OWY d   1       3.774 -43.222 -46.249  0.00  0.00    -0.020 A 
ATOM     31  CAS OWY d   1       3.864 -44.497 -46.812  0.00  0.00    -0.043 A 
ATOM     32  CAT OWY d   1       2.897 -45.468 -46.521  0.00  0.00     0.066 A 
ATOM     33  H16 OWY d   1       4.686 -44.736 -47.477  0.00  0.00     0.088 H 
ATOM     34  CAU OWY d   1       1.847 -45.186 -45.633  0.00  0.00    -0.051 A 
ATOM     35  CAV OWY d   1       1.736 -43.904 -45.072  0.00  0.00    -0.080 A 
ATOM     36  H18 OWY d   1       1.125 -45.955 -45.382  0.00  0.00     0.087 H 
ATOM     37  CAW OWY d   1       2.691 -42.922 -45.388  0.00  0.00    -0.074 A 
ATOM     38  H19 OWY d   1       0.918 -43.672 -44.399  0.00  0.00     0.083 H 
ATOM     39  H20 OWY d   1       2.597 -41.927 -44.969  0.00  0.00     0.084 H 
BRANCH  32  40
ATOM     40  OBC OWY d   1       2.993 -46.692 -47.122  0.00  0.00    -0.361 OA
ATOM     41  H17 OWY d   1       2.275 -47.243 -46.832  0.00  0.00     0.217 HD
ENDBRANCH  32  40
ENDBRANCH   1  30
BRANCH   1  42
ATOM     42  NAK OWY d   1       5.140 -41.265 -45.594  0.00  0.00    -0.051 N 
ATOM     43  CAJ OWY d   1       5.698 -41.858 -44.386  0.00  0.00     0.125 C 
ATOM     44  CAI OWY d   1       5.645 -40.762 -43.290  0.00  0.00     0.110 C 
ATOM     45  H22 OWY d   1       5.016 -42.667 -44.084  0.00  0.00     0.086 H 
ATOM     46  NAH OWY d   1       6.218 -39.471 -43.698  0.00  0.00    -0.060 N 
ATOM     47  H23 OWY d   1       6.202 -41.124 -42.413  0.00  0.00     0.079 H 
ATOM     48  H24 OWY d   1       4.592 -40.600 -43.015  0.00  0.00     0.079 H 
ATOM     49  CAM OWY d   1       5.824 -38.983 -45.023  0.00  0.00     0.124 C 
ATOM     50  H34 OWY d   1       7.212 -39.629 -43.755  0.00  0.00     0.280 HD
ATOM     51  CAL OWY d   1       5.982 -40.130 -46.071  0.00  0.00     0.111 C 
ATOM     52  H30 OWY d   1       6.519 -38.172 -45.288  0.00  0.00     0.086 H 
ATOM     53  H28 OWY d   1       5.637 -39.791 -47.059  0.00  0.00     0.079 H 
ATOM     54  H29 OWY d   1       7.035 -40.441 -46.137  0.00  0.00     0.079 H 
ATOM     55  H21 OWY d   1       4.262 -40.857 -45.312  0.00  0.00     0.281 HD
BRANCH  43  56
ATOM     56  CAO OWY d   1       7.092 -42.511 -44.506  0.00  0.00    -0.048 C 
ATOM     57  H25 OWY d   1       7.392 -42.916 -43.529  0.00  0.00     0.030 H 
ATOM     58  H26 OWY d   1       7.824 -41.756 -44.830  0.00  0.00     0.030 H 
ATOM     59  H27 OWY d   1       7.053 -43.325 -45.245  0.00  0.00     0.030 H 
ENDBRANCH  43  56
BRANCH  46  60
ATOM     60  CAG OWY d   1       6.023 -38.411 -42.656  0.00  0.00     0.107 C 
ATOM     61  H35 OWY d   1       4.943 -38.216 -42.581  0.00  0.00     0.083 H 
ATOM     62  H36 OWY d   1       6.536 -37.504 -43.008  0.00  0.00     0.083 H 
BRANCH  60  63
ATOM     63  CAB OWY d   1       6.519 -38.701 -41.289  0.00  0.00    -0.033 A 
ATOM     64  CAA OWY d   1       5.683 -38.407 -40.190  0.00  0.00    -0.075 A 
ATOM     65  CAF OWY d   1       6.112 -38.664 -38.869  0.00  0.00    -0.082 A 
ATOM     66  H37 OWY d   1       4.702 -37.980 -40.362  0.00  0.00     0.084 H 
ATOM     67  CAE OWY d   1       7.395 -39.186 -38.632  0.00  0.00    -0.083 A 
ATOM     68  H38 OWY d   1       5.450 -38.458 -38.036  0.00  0.00     0.083 H 
ATOM     69  CAD OWY d   1       8.248 -39.451 -39.724  0.00  0.00    -0.082 A 
ATOM     70  H39 OWY d   1       7.726 -39.383 -37.619  0.00  0.00     0.083 H 
ATOM     71  CAC OWY d   1       7.817 -39.209 -41.048  0.00  0.00    -0.075 A 
ATOM     72  H40 OWY d   1       9.243 -39.844 -39.546  0.00  0.00     0.083 H 
ATOM     73  H41 OWY d   1       8.482 -39.413 -41.880  0.00  0.00     0.084 H 
ENDBRANCH  60  63
ENDBRANCH  46  60
BRANCH  49  74
ATOM     74  CAN OWY d   1       4.403 -38.413 -45.120  0.00  0.00    -0.048 C 
ATOM     75  H31 OWY d   1       4.282 -37.604 -44.385  0.00  0.00     0.030 H 
ATOM     76  H32 OWY d   1       3.673 -39.209 -44.912  0.00  0.00     0.030 H 
ATOM     77  H33 OWY d   1       4.235 -38.017 -46.132  0.00  0.00     0.030 H 
ENDBRANCH  49  74
ENDBRANCH   1  42
TORSDOF 13
