REMARK  15 active torsions:
REMARK  status: ('A' for Active; 'I' for Inactive)
REMARK    1  A    between atoms: C29_2  and  C33_25 
REMARK    2  A    between atoms: C26_5  and  C27_4 
REMARK    3  A    between atoms: C18_19  and  C19_6 
REMARK    4  A    between atoms: C19_6  and  C20_20 
REMARK    5  A    between atoms: C14_7  and  O23_35 
REMARK    6  A    between atoms: C15_8  and  C12_10 
REMARK    7  A    between atoms: N16_27  and  C15_8 
REMARK    8  A    between atoms: C13_9  and  O22_34 
REMARK    9  A    between atoms: C6_11  and  N17_28 
REMARK   10  A    between atoms: C10_18  and  N9_16 
REMARK   11  A    between atoms: N16_27  and  C18_19 
REMARK   12  A    between atoms: C20_20  and  C36_26 
REMARK   13  A    between atoms: C20_20  and  N21_29 
REMARK   14  A    between atoms: C24_21  and  C25_22 
REMARK   15  A    between atoms: C24_21  and  N16_27 
REMARK       I    between atoms: C33_25  and  N34_30 
ROOT
ATOM      1  N16 P0V d   1       3.231  -2.412  -7.335  0.00  0.00    -0.059 N 
ATOM      2  H20 P0V d   1       3.260  -1.437  -7.080  0.00  0.00     0.281 HD
ENDROOT
BRANCH   1   3
ATOM      3  C15 P0V d   1       2.239  -2.536  -8.458  0.00  0.00     0.111 C 
ATOM      4  H6  P0V d   1       2.311  -1.634  -9.083  0.00  0.00     0.080 H 
ATOM      5  H7  P0V d   1       2.505  -3.419  -9.057  0.00  0.00     0.080 H 
BRANCH   3   6
ATOM      6  C12 P0V d   1       0.807  -2.685  -8.007  0.00  0.00     0.091 C 
ATOM      7  C13 P0V d   1       0.250  -4.066  -8.034  0.00  0.00     0.091 C 
ATOM      8  C14 P0V d   1      -0.727  -4.156  -9.125  0.00  0.00     0.105 C 
ATOM      9  H8  P0V d   1      -0.285  -4.251  -7.091  0.00  0.00     0.091 H 
ATOM     10  C10 P0V d   1      -0.561  -3.019 -10.019  0.00  0.00     0.139 C 
ATOM     11  H5  P0V d   1      -1.748  -4.210  -8.719  0.00  0.00     0.093 H 
ATOM     12  O11 P0V d   1      -0.005  -1.919  -9.038  0.00  0.00    -0.354 OA
ATOM     13  H12 P0V d   1       0.224  -3.310 -10.732  0.00  0.00     0.122 H 
ATOM     14  H9  P0V d   1       0.693  -2.262  -6.998  0.00  0.00     0.090 H 
BRANCH   7  15
ATOM     15  O22 P0V d   1       1.340  -5.019  -8.113  0.00  0.00    -0.390 OA
ATOM     16  H28 P0V d   1       0.987  -5.901  -8.130  0.00  0.00     0.210 HD
ENDBRANCH   7  15
BRANCH   8  17
ATOM     17  O23 P0V d   1      -0.436  -5.286  -9.976  0.00  0.00    -0.388 OA
ATOM     18  H29 P0V d   1      -0.519  -6.088  -9.474  0.00  0.00     0.210 HD
ENDBRANCH   8  17
BRANCH  10  19
ATOM     19  N9  P0V d   1      -1.569  -2.424 -10.818  0.00  0.00    -0.294 N 
ATOM     20  C2  P0V d   1      -2.703  -2.175 -10.431  0.00  0.00     0.167 A 
ATOM     21  N3  P0V d   1      -3.475  -2.333  -9.343  0.00  0.00    -0.222 NA
ATOM     22  C1  P0V d   1      -3.259  -1.549 -11.581  0.00  0.00     0.149 A 
ATOM     23  C4  P0V d   1      -4.737  -1.907  -9.354  0.00  0.00     0.091 A 
ATOM     24  N5  P0V d   1      -5.275  -1.313 -10.436  0.00  0.00    -0.222 NA
ATOM     25  H10 P0V d   1      -5.347  -2.042  -8.468  0.00  0.00     0.146 H 
ATOM     26  C6  P0V d   1      -4.567  -1.126 -11.555  0.00  0.00     0.155 A 
ATOM     27  N7  P0V d   1      -2.194  -1.538 -12.543  0.00  0.00    -0.236 NA
ATOM     28  C8  P0V d   1      -1.172  -2.114 -11.942  0.00  0.00     0.071 A 
ATOM     29  H11 P0V d   1      -0.178  -2.282 -12.355  0.00  0.00     0.144 H 
BRANCH  26  30
ATOM     30  N17 P0V d   1      -5.107  -0.474 -12.733  0.00  0.00    -0.382 N 
ATOM     31  H21 P0V d   1      -6.084  -0.148 -12.739  0.00  0.00     0.157 HD
ATOM     32  H22 P0V d   1      -4.513  -0.337 -13.564  0.00  0.00     0.157 HD
ENDBRANCH  26  30
ENDBRANCH  10  19
ENDBRANCH   3   6
ENDBRANCH   1   3
BRANCH   1  33
ATOM     33  C18 P0V d   1       2.785  -3.161  -6.102  0.00  0.00     0.087 C 
ATOM     34  H13 P0V d   1       1.734  -2.932  -5.873  0.00  0.00     0.076 H 
ATOM     35  H14 P0V d   1       2.901  -4.245  -6.248  0.00  0.00     0.076 H 
BRANCH  33  36
ATOM     36  C19 P0V d   1       3.706  -2.669  -4.962  0.00  0.00    -0.006 C 
ATOM     37  H3  P0V d   1       4.077  -1.670  -5.236  0.00  0.00     0.039 H 
ATOM     38  H4  P0V d   1       4.553  -3.367  -4.888  0.00  0.00     0.039 H 
BRANCH  36  39
ATOM     39  C20 P0V d   1       3.066  -2.567  -3.591  0.00  0.00     0.184 C 
ATOM     40  H15 P0V d   1       2.568  -1.586  -3.622  0.00  0.00     0.101 H 
BRANCH  39  41
ATOM     41  C36 P0V d   1       4.368  -2.423  -2.675  0.00  0.00     0.204 C 
ATOM     42  O37 P0V d   1       4.557  -1.490  -1.852  0.00  0.00    -0.646 OA
ATOM     43  O38 P0V d   1       5.349  -3.243  -2.678  0.00  0.00    -0.646 OA
ENDBRANCH  39  41
BRANCH  39  44
ATOM     44  N21 P0V d   1       2.080  -3.362  -2.924  0.00  0.00    -0.065 N 
ATOM     45  H23 P0V d   1       1.903  -2.980  -2.008  0.00  0.00     0.275 HD
ATOM     46  H24 P0V d   1       2.416  -4.308  -2.834  0.00  0.00     0.275 HD
ATOM     47  H25 P0V d   1       1.226  -3.358  -3.460  0.00  0.00     0.275 HD
ENDBRANCH  39  44
ENDBRANCH  36  39
ENDBRANCH  33  36
ENDBRANCH   1  33
BRANCH   1  48
ATOM     48  C24 P0V d   1       4.623  -2.776  -7.784  0.00  0.00     0.138 C 
ATOM     49  H16 P0V d   1       4.959  -3.654  -7.213  0.00  0.00     0.095 H 
ATOM     50  H17 P0V d   1       4.594  -3.025  -8.855  0.00  0.00     0.095 H 
BRANCH  48  51
ATOM     51  C25 P0V d   1       5.644  -1.617  -7.567  0.00  0.00    -0.073 C 
ATOM     52  C26 P0V d   1       6.438  -0.726  -7.403  0.00  0.00    -0.065 C 
BRANCH  52  53
ATOM     53  C27 P0V d   1       7.457   0.412  -7.199  0.00  0.00     0.018 A 
ATOM     54  C28 P0V d   1       7.380   1.504  -8.040  0.00  0.00    -0.050 A 
ATOM     55  C29 P0V d   1       8.282   2.580  -7.911  0.00  0.00     0.033 A 
ATOM     56  H1  P0V d   1       6.617   1.535  -8.809  0.00  0.00     0.087 H 
ATOM     57  C30 P0V d   1       9.253   2.558  -6.926  0.00  0.00    -0.068 A 
ATOM     58  C31 P0V d   1       9.335   1.455  -6.067  0.00  0.00    -0.081 A 
ATOM     59  H2  P0V d   1       9.944   3.387  -6.820  0.00  0.00     0.085 H 
ATOM     60  C32 P0V d   1       8.436   0.380  -6.203  0.00  0.00    -0.065 A 
ATOM     61  H18 P0V d   1      10.094   1.429  -5.294  0.00  0.00     0.083 H 
ATOM     62  H19 P0V d   1       8.503  -0.471  -5.536  0.00  0.00     0.085 H 
BRANCH  55  63
ATOM     63  C33 P0V d   1       8.107   3.748  -8.894  0.00  0.00     0.249 C 
ATOM     64  N34 P0V d   1       6.813   4.436  -8.853  0.00  0.00    -0.366 N 
ATOM     65  H26 P0V d   1       6.636   5.205  -9.468  0.00  0.00     0.159 HD
ATOM     66  H27 P0V d   1       6.108   4.137  -8.210  0.00  0.00     0.159 HD
ATOM     67  O35 P0V d   1       8.962   4.070  -9.661  0.00  0.00    -0.268 OA
ENDBRANCH  55  63
ENDBRANCH  52  53
ENDBRANCH  48  51
ENDBRANCH   1  48
TORSDOF 15
