REMARK  0 active torsions:
REMARK  status: ('A' for Active; 'I' for Inactive)
ROOT
ATOM      1  O12 P0S d   1      -7.235 -13.342  10.610  0.00  0.00    -0.624 OA
ATOM      2  O13 P0S d   1     -10.020 -11.325  14.624  0.00  0.00    -0.624 OA
ATOM      3  O14 P0S d   1      -7.869 -17.096  13.071  0.00  0.00    -0.624 OA
ATOM      4  O15 P0S d   1     -10.052 -15.751  12.722  0.00  0.00    -0.180 OA
ATOM      5  O01 P0S d   1     -12.245 -14.556  13.237  0.00  0.00    -0.180 OA
ATOM      6  O02 P0S d   1      -9.073 -12.423  12.037  0.00  0.00    -0.180 OA
ATOM      7  O03 P0S d   1     -10.967 -15.943  15.060  0.00  0.00    -0.624 OA
ATOM      8  O04 P0S d   1     -10.376 -11.859   9.978  0.00  0.00    -0.624 OA
ATOM      9  O05 P0S d   1     -10.125 -13.623  14.210  0.00  0.00    -0.624 OA
ATOM     10  O06 P0S d   1      -9.097  -9.948  11.189  0.00  0.00    -0.624 OA
ATOM     11  O07 P0S d   1     -12.433 -12.150  14.162  0.00  0.00    -0.180 OA
ATOM     12  O08 P0S d   1      -7.855 -14.576  12.691  0.00  0.00    -0.180 OA
ATOM     13  O09 P0S d   1     -13.294 -12.634  11.828  0.00  0.00    -0.624 OA
ATOM     14  O10 P0S d   1      -6.609 -12.293  12.909  0.00  0.00    -0.624 OA
ATOM     15  O11 P0S d   1     -14.529 -13.663  13.874  0.00  0.00    -0.624 OA
ATOM     16  O16 P0S d   1     -11.154 -11.068  12.305  0.00  0.00    -0.180 OA
ATOM     17  O17 P0S d   1     -12.006  -9.676  14.303  0.00  0.00    -0.624 OA
ATOM     18  O18 P0S d   1      -8.529 -16.121  10.731  0.00  0.00    -0.624 OA
ATOM     19  P01 P0S d   1     -10.791 -14.945  13.947  0.00  0.00     0.427 P 
ATOM     20  P02 P0S d   1      -9.897 -11.220  11.254  0.00  0.00     0.427 P 
ATOM     21  P03 P0S d   1     -13.245 -13.226  13.214  0.00  0.00     0.427 P 
ATOM     22  P04 P0S d   1      -7.555 -13.093  12.061  0.00  0.00     0.427 P 
ATOM     23  P05 P0S d   1     -11.311 -10.960  13.938  0.00  0.00     0.427 P 
ATOM     24  P06 P0S d   1      -8.508 -16.017  12.230  0.00  0.00     0.427 P 
ENDROOT
TORSDOF 0
