REMARK  14 active torsions:
REMARK  status: ('A' for Active; 'I' for Inactive)
REMARK    1  A    between atoms: C1'_1  and  N1_8 
REMARK    2  A    between atoms: C5'_6  and  C4'_4 
REMARK    3  A    between atoms: O5'_28  and  C5'_6 
REMARK    4  A    between atoms: PB_32  and  O06_15 
REMARK    5  A    between atoms: O06_15  and  PG_33 
REMARK    6  A    between atoms: P01_29  and  O2G_22 
REMARK    7  A    between atoms: O2G_22  and  PB_32 
REMARK    8  A    between atoms: O3A_23  and  P02_30 
REMARK    9  A    between atoms: PA_31  and  O3A_23 
REMARK   10  A    between atoms: O3B_24  and  P01_29 
REMARK   11  A    between atoms: P02_30  and  O3B_24 
REMARK   12  A    between atoms: O5'_28  and  PA_31 
REMARK   13  A    between atoms: C2'_34  and  O2'_36 
REMARK   14  A    between atoms: C3'_35  and  O3'_37 
ROOT
ATOM      1  C1' U5F d   1     -12.789 -17.593  11.761  0.00  0.00     0.141 C 
ATOM      2  C4' U5F d   1     -10.643 -16.956  12.578  0.00  0.00     0.089 C 
ATOM      3  O4' U5F d   1     -11.382 -17.921  11.791  0.00  0.00    -0.353 OA
ATOM      4  C2' U5F d   1     -12.966 -16.862  13.115  0.00  0.00     0.105 C 
ATOM      5  C3' U5F d   1     -11.662 -16.063  13.301  0.00  0.00     0.091 C 
ATOM      6  H1  U5F d   1     -13.084 -17.007  10.878  0.00  0.00     0.123 H 
ATOM      7  H2  U5F d   1     -10.048 -16.319  11.908  0.00  0.00     0.090 H 
ATOM      8  H8  U5F d   1     -13.073 -17.602  13.922  0.00  0.00     0.093 H 
ATOM      9  H9  U5F d   1     -11.414 -15.916  14.363  0.00  0.00     0.091 H 
ENDROOT
BRANCH   2  10
ATOM     10  C5' U5F d   1      -9.675 -17.708  13.490  0.00  0.00     0.058 C 
ATOM     11  H4  U5F d   1      -9.139 -17.004  14.143  0.00  0.00     0.079 H 
ATOM     12  H5  U5F d   1      -8.949 -18.277  12.891  0.00  0.00     0.079 H 
BRANCH  10  13
ATOM     13  O5' U5F d   1     -10.479 -18.593  14.268  0.00  0.00    -0.287 OA
BRANCH  13  14
ATOM     14  PA  U5F d   1      -9.550 -19.708  14.955  0.00  0.00     0.417 P 
ATOM     15  O1A U5F d   1      -8.517 -19.038  15.776  0.00  0.00    -0.624 OA
ATOM     16  O2A U5F d   1     -10.486 -20.626  15.893  0.00  0.00    -0.624 OA
BRANCH  14  17
ATOM     17  O3A U5F d   1      -8.842 -20.579  13.798  0.00  0.00    -0.180 OA
BRANCH  17  18
ATOM     18  P02 U5F d   1      -9.352 -22.109  13.857  0.00  0.00     0.427 P 
ATOM     19  O04 U5F d   1      -8.733 -22.815  12.715  0.00  0.00    -0.624 OA
ATOM     20  O05 U5F d   1     -10.954 -22.155  13.684  0.00  0.00    -0.624 OA
BRANCH  18  21
ATOM     21  O3B U5F d   1      -9.000 -22.785  15.288  0.00  0.00    -0.180 OA
BRANCH  21  22
ATOM     22  P01 U5F d   1      -7.800 -23.874  15.279  0.00  0.00     0.427 P 
ATOM     23  O01 U5F d   1      -6.504 -23.159  15.332  0.00  0.00    -0.624 OA
ATOM     24  O03 U5F d   1      -7.825 -24.848  13.995  0.00  0.00    -0.624 OA
BRANCH  22  25
ATOM     25  O2G U5F d   1      -7.964 -24.797  16.594  0.00  0.00    -0.180 OA
BRANCH  25  26
ATOM     26  PB  U5F d   1      -9.105 -25.890  16.261  0.00  0.00     0.428 P 
ATOM     27  O1B U5F d   1      -9.665 -26.377  17.542  0.00  0.00    -0.624 OA
ATOM     28  O2B U5F d   1      -8.460 -27.128  15.453  0.00  0.00    -0.624 OA
BRANCH  26  29
ATOM     29  O06 U5F d   1     -10.262 -25.168  15.395  0.00  0.00    -0.173 OA
BRANCH  29  30
ATOM     30  PG  U5F d   1     -11.494 -26.155  15.051  0.00  0.00     0.431 P 
ATOM     31  O02 U5F d   1     -12.322 -25.510  13.827  0.00  0.00    -0.616 OA
ATOM     32  O1G U5F d   1     -12.387 -26.288  16.226  0.00  0.00    -0.616 OA
ATOM     33  O3G U5F d   1     -10.965 -27.610  14.610  0.00  0.00    -0.616 OA
ENDBRANCH  29  30
ENDBRANCH  26  29
ENDBRANCH  25  26
ENDBRANCH  22  25
ENDBRANCH  21  22
ENDBRANCH  18  21
ENDBRANCH  17  18
ENDBRANCH  14  17
ENDBRANCH  13  14
ENDBRANCH  10  13
ENDBRANCH   2  10
BRANCH   5  34
ATOM     34  O3' U5F d   1     -11.743 -14.807  12.623  0.00  0.00    -0.390 OA
ATOM     35  H11 U5F d   1     -12.467 -14.304  12.977  0.00  0.00     0.210 HD
ENDBRANCH   5  34
BRANCH   1  36
ATOM     36  N1  U5F d   1     -13.582 -18.815  11.933  0.00  0.00    -0.280 N 
ATOM     37  C2  U5F d   1     -14.787 -18.909  11.353  0.00  0.00     0.331 A 
ATOM     38  N3  U5F d   1     -15.541 -20.020  11.486  0.00  0.00    -0.275 N 
ATOM     39  O2  U5F d   1     -15.197 -17.973  10.695  0.00  0.00    -0.246 OA
ATOM     40  C4  U5F d   1     -15.097 -21.058  12.223  0.00  0.00     0.250 A 
ATOM     41  H7  U5F d   1     -16.433 -20.074  11.036  0.00  0.00     0.173 HD
ATOM     42  C5  U5F d   1     -13.827 -20.977  12.851  0.00  0.00    -0.002 A 
ATOM     43  O4  U5F d   1     -15.787 -22.051  12.343  0.00  0.00    -0.268 OA
ATOM     44  C6  U5F d   1     -13.091 -19.853  12.688  0.00  0.00    -0.008 A 
ATOM     45  H3  U5F d   1     -13.452 -21.803  13.453  0.00  0.00     0.094 H 
ATOM     46  H6  U5F d   1     -12.111 -19.771  13.155  0.00  0.00     0.112 H 
ENDBRANCH   1  36
BRANCH   4  47
ATOM     47  O2' U5F d   1     -14.099 -15.999  13.145  0.00  0.00    -0.388 OA
ATOM     48  H10 U5F d   1     -14.132 -15.550  13.982  0.00  0.00     0.210 HD
ENDBRANCH   4  47
TORSDOF 14
