REMARK  6 active torsions:
REMARK  status: ('A' for Active; 'I' for Inactive)
REMARK    1  A    between atoms: C13_2  and  C14_16 
REMARK    2  A    between atoms: C14_16  and  C15_3 
REMARK    3  A    between atoms: O02_18  and  C01_7 
REMARK    4  A    between atoms: C03_8  and  O02_18 
REMARK    5  A    between atoms: O08_19  and  C07_12 
REMARK    6  A    between atoms: C09_13  and  O08_19 
ROOT
ATOM      1  C10 OZG d   1      19.997 -10.568   2.633  0.00  0.00    -0.049 A 
ATOM      2  C13 OZG d   1      20.392  -7.261   0.925  0.00  0.00    -0.013 A 
ATOM      3  C20 OZG d   1      18.926  -8.706   0.845  0.00  0.00     0.088 A 
ATOM      4  C21 OZG d   1      18.243  -9.851   1.087  0.00  0.00    -0.017 A 
ATOM      5  C09 OZG d   1      18.741 -10.810   1.982  0.00  0.00     0.078 A 
ATOM      6  C11 OZG d   1      20.690  -9.363   2.362  0.00  0.00    -0.067 A 
ATOM      7  C12 OZG d   1      20.184  -8.438   1.489  0.00  0.00     0.006 A 
ATOM      8  C18 OZG d   1      19.628  -6.695   0.101  0.00  0.00     0.027 A 
ATOM      9  O19 OZG d   1      18.589  -7.549  -0.058  0.00  0.00    -0.321 OA
ATOM     10  H1  OZG d   1      20.409 -11.297   3.322  0.00  0.00     0.087 H 
ATOM     11  H2  OZG d   1      17.300 -10.028   0.583  0.00  0.00     0.092 H 
ATOM     12  H10 OZG d   1      21.637  -9.170   2.854  0.00  0.00     0.085 H 
ATOM     13  H13 OZG d   1      19.771  -5.728  -0.380  0.00  0.00     0.124 H 
ENDROOT
BRANCH   5  14
ATOM     14  O08 OZG d   1      17.946 -11.957   2.143  0.00  0.00    -0.311 OA
BRANCH  14  15
ATOM     15  C07 OZG d   1      18.190 -12.840   3.205  0.00  0.00     0.078 A 
ATOM     16  C22 OZG d   1      18.234 -12.425   4.532  0.00  0.00    -0.018 A 
ATOM     17  C03 OZG d   1      18.454 -13.355   5.536  0.00  0.00     0.070 A 
ATOM     18  H3  OZG d   1      18.097 -11.379   4.780  0.00  0.00     0.092 H 
ATOM     19  C04 OZG d   1      18.613 -14.697   5.225  0.00  0.00    -0.051 A 
ATOM     20  C05 OZG d   1      18.552 -15.113   3.911  0.00  0.00    -0.078 A 
ATOM     21  H7  OZG d   1      18.785 -15.419   6.015  0.00  0.00     0.087 H 
ATOM     22  C06 OZG d   1      18.334 -14.186   2.906  0.00  0.00    -0.050 A 
ATOM     23  H8  OZG d   1      18.674 -16.162   3.666  0.00  0.00     0.083 H 
ATOM     24  H9  OZG d   1      18.275 -14.516   1.875  0.00  0.00     0.087 H 
BRANCH  17  25
ATOM     25  O02 OZG d   1      18.518 -12.946   6.870  0.00  0.00    -0.356 OA
BRANCH  25  26
ATOM     26  C01 OZG d   1      17.874 -13.802   7.773  0.00  0.00     0.010 C 
ATOM     27  H4  OZG d   1      17.976 -13.403   8.793  0.00  0.00     0.066 H 
ATOM     28  H5  OZG d   1      18.333 -14.800   7.723  0.00  0.00     0.066 H 
ATOM     29  H6  OZG d   1      16.808 -13.875   7.512  0.00  0.00     0.066 H 
ENDBRANCH  25  26
ENDBRANCH  17  25
ENDBRANCH  14  15
ENDBRANCH   5  14
BRANCH   2  30
ATOM     30  C14 OZG d   1      21.663  -6.496   1.291  0.00  0.00     0.042 C 
ATOM     31  H11 OZG d   1      22.429  -6.666   0.520  0.00  0.00     0.056 H 
ATOM     32  H12 OZG d   1      22.037  -6.848   2.264  0.00  0.00     0.056 H 
BRANCH  30  33
ATOM     33  C15 OZG d   1      21.347  -5.000   1.376  0.00  0.00     0.177 C 
ATOM     34  O16 OZG d   1      21.110  -4.343   0.326  0.00  0.00    -0.648 OA
ATOM     35  O17 OZG d   1      21.319  -4.419   2.493  0.00  0.00    -0.648 OA
ENDBRANCH  30  33
ENDBRANCH   2  30
TORSDOF 6
