REMARK WARNING: 32 MAX_TORS EXCEEDED!!!
REMARK  54 active torsions:
REMARK  status: ('A' for Active; 'I' for Inactive)
REMARK    1  A    between atoms: C_1  and  CH3_3 
REMARK       I    between atoms: C_1  and  N_4 
REMARK    2  A    between atoms: N_4  and  CA_5 
REMARK    3  A    between atoms: CA_5  and  C_6 
REMARK    4  A    between atoms: CA_5  and  CB_8 
REMARK       I    between atoms: C_6  and  N_13 
REMARK    5  A    between atoms: CB_8  and  CG_9 
REMARK    6  A    between atoms: CG_9  and  CD_10 
REMARK    7  A    between atoms: N_13  and  CA_14 
REMARK    8  A    between atoms: CA_14  and  C_15 
REMARK    9  A    between atoms: CA_14  and  CB_17 
REMARK       I    between atoms: C_15  and  N_22 
REMARK   10  A    between atoms: CB_17  and  CG_18 
REMARK   11  A    between atoms: CG_18  and  CD_19 
REMARK   12  A    between atoms: N_22  and  CA_23 
REMARK   13  A    between atoms: CA_23  and  C_24 
REMARK   14  A    between atoms: CA_23  and  CB_26 
REMARK       I    between atoms: C_24  and  N_31 
REMARK   15  A    between atoms: CB_26  and  CG_27 
REMARK   16  A    between atoms: CG_27  and  CD_28 
REMARK   17  A    between atoms: N_31  and  CA_32 
REMARK   18  A    between atoms: CA_32  and  C_33 
REMARK   19  A    between atoms: CA_32  and  CB_35 
REMARK       I    between atoms: C_33  and  N_39 
REMARK   20  A    between atoms: CB_35  and  CG_36 
REMARK       I    between atoms: CG_36  and  ND2_38 
REMARK   21  A    between atoms: N_39  and  CA_40 
REMARK   22  A    between atoms: CA_40  and  C_41 
REMARK   23  A    between atoms: CA_40  and  CB_43 
REMARK       I    between atoms: C_41  and  N_47 
REMARK   24  A    between atoms: CB_43  and  CG1_44 
REMARK   25  A    between atoms: CB_43  and  CG2_45 
REMARK   26  A    between atoms: CG1_44  and  CD1_46 
REMARK   27  A    between atoms: N_47  and  CA_48 
REMARK   28  A    between atoms: CA_48  and  C_49 
REMARK   29  A    between atoms: CA_48  and  CB_51 
REMARK       I    between atoms: C_49  and  N_63 
REMARK   30  A    between atoms: CB_51  and  CG_52 
REMARK   31  A    between atoms: CZ_57  and  OH_58 
REMARK   32  A    between atoms: OH_58  and  P_59 
REMARK   33  A    between atoms: N_63  and  CA_64 
REMARK   34  A    between atoms: CA_64  and  C_65 
REMARK   35  A    between atoms: CA_64  and  CB_67 
REMARK       I    between atoms: C_65  and  N_69 
REMARK   36  A    between atoms: CB_67  and  OG_68 
REMARK   37  A    between atoms: N_69  and  CA_70 
REMARK   38  A    between atoms: CA_70  and  C_71 
REMARK   39  A    between atoms: CA_70  and  CB_73 
REMARK       I    between atoms: C_71  and  N_76 
REMARK   40  A    between atoms: CB_73  and  CG1_74 
REMARK   41  A    between atoms: CB_73  and  CG2_75 
REMARK   42  A    between atoms: CA_77  and  C_78 
REMARK       I    between atoms: C_78  and  N_83 
REMARK   43  A    between atoms: N_83  and  CA_84 
REMARK   44  A    between atoms: CA_84  and  C_85 
REMARK   45  A    between atoms: CA_84  and  CB_87 
REMARK       I    between atoms: C_85  and  N_93 
REMARK   46  A    between atoms: CB_87  and  CG_88 
REMARK   47  A    between atoms: N_93  and  CA_94 
REMARK   48  A    between atoms: CA_94  and  C_95 
REMARK   49  A    between atoms: CA_94  and  CB_97 
REMARK       I    between atoms: C_95  and  N_101 
REMARK   50  A    between atoms: CB_97  and  CG_98 
REMARK   51  A    between atoms: N_101  and  CA_102 
REMARK   52  A    between atoms: CA_102  and  C_103 
REMARK   53  A    between atoms: CA_102  and  CB_105 
REMARK   54  A    between atoms: CB_105  and  OG_106 
ROOT
ATOM      1  CA  ACE d   1      48.521  14.508  20.267  0.00  0.00     0.093 C 
ATOM      2  H40 ACE d   1      48.575  15.334  20.991  0.00  0.00     0.088 H 
ENDROOT
BRANCH   1   3
ATOM      3  N   ACE d   1      49.078  14.966  19.002  0.00  0.00    -0.346 N 
ATOM      4  C   ACE d   1      49.630  16.171  18.901  0.00  0.00     0.241 C 
ATOM      5  O   ACE d   1      49.684  16.955  19.846  0.00  0.00    -0.271 OA
ATOM      6  H39 ACE d   1      49.045  14.368  18.201  0.00  0.00     0.163 HD
BRANCH   4   7
ATOM      7  CA  ACE d   1      50.173  16.563  17.540  0.00  0.00     0.092 C 
ATOM      8  H29 ACE d   1      49.716  15.903  16.788  0.00  0.00     0.088 H 
BRANCH   7   9
ATOM      9  N   ACE d   1      49.812  17.941  17.223  0.00  0.00    -0.346 N 
ATOM     10  C   ACE d   1      48.750  18.242  16.479  0.00  0.00     0.241 C 
ATOM     11  O   ACE d   1      47.978  17.390  16.027  0.00  0.00    -0.271 OA
ATOM     12  H28 ACE d   1      50.381  18.683  17.576  0.00  0.00     0.163 HD
BRANCH  10  13
ATOM     13  CA  ACE d   1      48.531  19.724  16.222  0.00  0.00     0.097 C 
ATOM     14  H23 ACE d   1      49.504  20.198  16.027  0.00  0.00     0.088 H 
BRANCH  13  15
ATOM     15  N   ACE d   1      47.682  19.900  15.061  0.00  0.00    -0.346 N 
ATOM     16  C   ACE d   1      48.154  19.673  13.842  0.00  0.00     0.241 C 
ATOM     17  O   ACE d   1      49.341  19.421  13.613  0.00  0.00    -0.271 OA
ATOM     18  H22 ACE d   1      46.734  20.195  15.179  0.00  0.00     0.163 HD
BRANCH  16  19
ATOM     19  CA  ACE d   1      47.127  19.757  12.724  0.00  0.00     0.090 C 
ATOM     20  H17 ACE d   1      46.392  20.533  12.984  0.00  0.00     0.087 H 
BRANCH  19  21
ATOM     21  N   ACE d   1      47.763  20.131  11.477  0.00  0.00    -0.346 N 
ATOM     22  C   ACE d   1      48.128  21.388  11.282  0.00  0.00     0.241 C 
ATOM     23  O   ACE d   1      47.913  22.282  12.106  0.00  0.00    -0.271 OA
ATOM     24  H16 ACE d   1      47.925  19.444  10.769  0.00  0.00     0.163 HD
BRANCH  22  25
ATOM     25  CA  ACE d   1      48.827  21.679   9.964  0.00  0.00     0.090 C 
ATOM     26  H11 ACE d   1      48.642  20.843   9.273  0.00  0.00     0.087 H 
BRANCH  25  27
ATOM     27  N   ACE d   1      48.293  22.896   9.377  0.00  0.00    -0.346 N 
ATOM     28  C   ACE d   1      47.014  22.968   9.016  0.00  0.00     0.241 C 
ATOM     29  O   ACE d   1      46.227  22.028   9.133  0.00  0.00    -0.271 OA
ATOM     30  H10 ACE d   1      48.891  23.686   9.243  0.00  0.00     0.163 HD
BRANCH  28  31
ATOM     31  CA  ACE d   1      46.557  24.297   8.437  0.00  0.00     0.090 C 
ATOM     32  H5  ACE d   1      47.446  24.845   8.092  0.00  0.00     0.087 H 
BRANCH  31  33
ATOM     33  N   ACE d   1      45.664  24.120   7.295  0.00  0.00    -0.348 N 
ATOM     34  C   ACE d   1      46.019  23.495   6.174  0.00  0.00     0.214 C 
ATOM     35  O   ACE d   1      47.135  23.002   6.007  0.00  0.00    -0.274 OA
ATOM     36  H4  ACE d   1      44.736  24.488   7.358  0.00  0.00     0.163 HD
BRANCH  34  37
ATOM     37  CH3 ACE d   1      44.957  23.425   5.115  0.00  0.00    -0.003 C 
ATOM     38  H1  ACE d   1      44.047  23.926   5.475  0.00  0.00     0.040 H 
ATOM     39  H2  ACE d   1      44.731  22.372   4.891  0.00  0.00     0.040 H 
ATOM     40  H3  ACE d   1      45.315  23.925   4.203  0.00  0.00     0.040 H 
ENDBRANCH  34  37
ENDBRANCH  31  33
BRANCH  31  41
ATOM     41  CB  ACE d   1      45.870  25.121   9.523  0.00  0.00    -0.029 C 
ATOM     42  H6  ACE d   1      45.556  24.440  10.328  0.00  0.00     0.037 H 
ATOM     43  H7  ACE d   1      44.984  25.603   9.084  0.00  0.00     0.037 H 
BRANCH  41  44
ATOM     44  CG  ACE d   1      46.749  26.198  10.125  0.00  0.00     0.018 C 
ATOM     45  H8  ACE d   1      47.359  26.645   9.326  0.00  0.00     0.049 H 
ATOM     46  H9  ACE d   1      47.408  25.739  10.877  0.00  0.00     0.049 H 
BRANCH  44  47
ATOM     47  CD  ACE d   1      45.938  27.290  10.789  0.00  0.00     0.172 C 
ATOM     48  OE1 ACE d   1      45.096  26.961  11.651  0.00  0.00    -0.648 OA
ATOM     49  OE2 ACE d   1      46.131  28.475  10.437  0.00  0.00    -0.648 OA
ENDBRANCH  44  47
ENDBRANCH  41  44
ENDBRANCH  31  41
ENDBRANCH  28  31
ENDBRANCH  25  27
BRANCH  25  50
ATOM     50  CB  ACE d   1      50.336  21.810  10.182  0.00  0.00    -0.029 C 
ATOM     51  H12 ACE d   1      50.511  22.625  10.899  0.00  0.00     0.037 H 
ATOM     52  H13 ACE d   1      50.802  22.063   9.219  0.00  0.00     0.037 H 
BRANCH  50  53
ATOM     53  CG  ACE d   1      51.002  20.556  10.717  0.00  0.00     0.018 C 
ATOM     54  H14 ACE d   1      50.837  19.737  10.001  0.00  0.00     0.049 H 
ATOM     55  H15 ACE d   1      50.542  20.298  11.682  0.00  0.00     0.049 H 
BRANCH  53  56
ATOM     56  CD  ACE d   1      52.503  20.728  10.923  0.00  0.00     0.172 C 
ATOM     57  OE1 ACE d   1      53.270  20.647   9.935  0.00  0.00    -0.648 OA
ATOM     58  OE2 ACE d   1      52.910  20.954  12.081  0.00  0.00    -0.648 OA
ENDBRANCH  53  56
ENDBRANCH  50  53
ENDBRANCH  25  50
ENDBRANCH  22  25
ENDBRANCH  19  21
BRANCH  19  59
ATOM     59  CB  ACE d   1      46.393  18.425  12.582  0.00  0.00    -0.029 C 
ATOM     60  H18 ACE d   1      46.011  18.128  13.570  0.00  0.00     0.037 H 
ATOM     61  H19 ACE d   1      47.106  17.668  12.222  0.00  0.00     0.037 H 
BRANCH  59  62
ATOM     62  CG  ACE d   1      45.233  18.492  11.617  0.00  0.00     0.018 C 
ATOM     63  H20 ACE d   1      45.586  18.195  10.618  0.00  0.00     0.049 H 
ATOM     64  H21 ACE d   1      44.862  19.527  11.582  0.00  0.00     0.049 H 
BRANCH  62  65
ATOM     65  CD  ACE d   1      44.096  17.581  12.022  0.00  0.00     0.172 C 
ATOM     66  OE1 ACE d   1      43.925  16.524  11.382  0.00  0.00    -0.648 OA
ATOM     67  OE2 ACE d   1      43.382  17.920  12.990  0.00  0.00    -0.648 OA
ENDBRANCH  62  65
ENDBRANCH  59  62
ENDBRANCH  19  59
ENDBRANCH  16  19
ENDBRANCH  13  15
BRANCH  13  68
ATOM     68  CB  ACE d   1      47.897  20.386  17.438  0.00  0.00     0.036 C 
ATOM     69  H24 ACE d   1      48.539  20.206  18.313  0.00  0.00     0.051 H 
ATOM     70  H25 ACE d   1      46.908  19.936  17.610  0.00  0.00     0.051 H 
BRANCH  68  71
ATOM     71  CG  ACE d   1      47.727  21.872  17.260  0.00  0.00     0.217 C 
ATOM     72  OD1 ACE d   1      48.643  22.554  16.813  0.00  0.00    -0.274 OA
ATOM     73  ND2 ACE d   1      46.555  22.376  17.590  0.00  0.00    -0.370 N 
ATOM     74  H26 ACE d   1      46.387  23.357  17.492  0.00  0.00     0.159 HD
ATOM     75  H27 ACE d   1      45.834  21.777  17.938  0.00  0.00     0.159 HD
ENDBRANCH  68  71
ENDBRANCH  13  68
ENDBRANCH  10  13
ENDBRANCH   7   9
BRANCH   7  76
ATOM     76  CB  ACE d   1      51.671  16.392  17.466  0.00  0.00    -0.030 C 
ATOM     77  H30 ACE d   1      52.152  17.217  18.012  0.00  0.00     0.043 H 
BRANCH  76  78
ATOM     78  CG1 ACE d   1      52.101  16.452  16.001  0.00  0.00    -0.063 C 
ATOM     79  H31 ACE d   1      51.625  17.327  15.534  0.00  0.00     0.033 H 
ATOM     80  H32 ACE d   1      51.757  15.536  15.499  0.00  0.00     0.033 H 
BRANCH  78  81
ATOM     81  CD1 ACE d   1      53.574  16.564  15.818  0.00  0.00    -0.076 C 
ATOM     82  H36 ACE d   1      53.808  16.602  14.744  0.00  0.00     0.027 H 
ATOM     83  H37 ACE d   1      54.067  15.691  16.270  0.00  0.00     0.027 H 
ATOM     84  H38 ACE d   1      53.935  17.482  16.305  0.00  0.00     0.027 H 
ENDBRANCH  78  81
ENDBRANCH  76  78
BRANCH  76  85
ATOM     85  CG2 ACE d   1      52.097  15.069  18.109  0.00  0.00    -0.071 C 
ATOM     86  H33 ACE d   1      51.776  15.052  19.161  0.00  0.00     0.028 H 
ATOM     87  H34 ACE d   1      53.192  14.972  18.058  0.00  0.00     0.028 H 
ATOM     88  H35 ACE d   1      51.630  14.232  17.570  0.00  0.00     0.028 H 
ENDBRANCH  76  85
ENDBRANCH   7  76
ENDBRANCH   4   7
ENDBRANCH   1   3
BRANCH   1  89
ATOM     89  C   ACE d   1      49.327  13.341  20.805  0.00  0.00     0.241 C 
ATOM     90  O   ACE d   1      49.966  12.576  20.066  0.00  0.00    -0.271 OA
ATOM     91  N   ACE d   1      49.305  13.206  22.117  0.00  0.00    -0.344 N 
ATOM     92  H47 ACE d   1      48.754  13.836  22.664  0.00  0.00     0.163 HD
BRANCH  91  93
ATOM     93  CA  ACE d   1      50.057  12.171  22.779  0.00  0.00     0.109 C 
ATOM     94  H48 ACE d   1      50.828  11.798  22.088  0.00  0.00     0.090 H 
BRANCH  93  95
ATOM     95  C   ACE d   1      49.148  11.019  23.165  0.00  0.00     0.243 C 
ATOM     96  O   ACE d   1      47.923  11.125  23.107  0.00  0.00    -0.271 OA
ATOM     97  N   ACE d   1      49.777   9.930  23.588  0.00  0.00    -0.346 N 
ATOM     98  H52 ACE d   1      50.777   9.935  23.600  0.00  0.00     0.163 HD
BRANCH  97  99
ATOM     99  CA  ACE d   1      49.088   8.725  24.037  0.00  0.00     0.092 C 
ATOM    100  H53 ACE d   1      48.004   8.910  24.043  0.00  0.00     0.088 H 
BRANCH  99 101
ATOM    101  C   ACE d   1      49.546   8.433  25.461  0.00  0.00     0.243 C 
ATOM    102  O   ACE d   1      50.727   8.637  25.780  0.00  0.00    -0.271 OA
ATOM    103  N   ACE d   1      48.657   7.980  26.349  0.00  0.00    -0.337 N 
ATOM    104  CA  ACE d   1      49.071   7.697  27.733  0.00  0.00     0.091 C 
ATOM    105  CD  ACE d   1      47.201   7.825  26.168  0.00  0.00    -0.001 C 
ATOM    106  CB  ACE d   1      47.790   7.166  28.383  0.00  0.00    -0.036 C 
ATOM    107  H61 ACE d   1      49.396   8.626  28.225  0.00  0.00     0.087 H 
ATOM    108  CG  ACE d   1      46.695   7.754  27.566  0.00  0.00    -0.048 C 
ATOM    109  H62 ACE d   1      47.717   7.498  29.429  0.00  0.00     0.036 H 
ATOM    110  H63 ACE d   1      47.759   6.067  28.343  0.00  0.00     0.036 H 
ATOM    111  H64 ACE d   1      46.447   8.761  27.932  0.00  0.00     0.035 H 
ATOM    112  H65 ACE d   1      45.800   7.116  27.614  0.00  0.00     0.035 H 
ATOM    113  H66 ACE d   1      46.967   6.903  25.616  0.00  0.00     0.064 H 
ATOM    114  H67 ACE d   1      46.775   8.689  25.637  0.00  0.00     0.064 H 
BRANCH 104 115
ATOM    115  C   ACE d   1      50.199   6.676  27.836  0.00  0.00     0.241 C 
ATOM    116  O   ACE d   1      50.361   5.790  26.989  0.00  0.00    -0.271 OA
ATOM    117  N   ACE d   1      50.963   6.755  28.907  0.00  0.00    -0.346 N 
ATOM    118  H68 ACE d   1      50.761   7.469  29.577  0.00  0.00     0.163 HD
BRANCH 117 119
ATOM    119  CA  ACE d   1      52.104   5.847  29.177  0.00  0.00     0.094 C 
ATOM    120  H69 ACE d   1      52.879   6.028  28.418  0.00  0.00     0.088 H 
BRANCH 119 121
ATOM    121  C   ACE d   1      51.700   4.369  29.087  0.00  0.00     0.241 C 
ATOM    122  O   ACE d   1      52.487   3.599  28.662  0.00  0.00    -0.271 OA
ATOM    123  N   ACE d   1      50.463   4.024  29.392  0.00  0.00    -0.345 N 
ATOM    124  H75 ACE d   1      49.795   4.741  29.589  0.00  0.00     0.163 HD
BRANCH 123 125
ATOM    125  CA  ACE d   1      50.032   2.601  29.452  0.00  0.00     0.098 C 
ATOM    126  H76 ACE d   1      50.895   1.981  29.737  0.00  0.00     0.088 H 
BRANCH 125 127
ATOM    127  C   ACE d   1      49.470   2.113  28.124  0.00  0.00     0.241 C 
ATOM    128  O   ACE d   1      48.827   1.091  28.143  0.00  0.00    -0.271 OA
ATOM    129  N   ACE d   1      49.651   2.858  27.037  0.00  0.00    -0.343 N 
ATOM    130  H79 ACE d   1      50.209   3.687  27.080  0.00  0.00     0.163 HD
BRANCH 129 131
ATOM    131  CA  ACE d   1      49.020   2.449  25.766  0.00  0.00     0.116 C 
ATOM    132  H80 ACE d   1      48.651   1.419  25.880  0.00  0.00     0.093 H 
BRANCH 131 133
ATOM    133  C   ACE d   1      49.981   2.479  24.580  0.00  0.00     0.198 C 
ATOM    134  O   ACE d   1      51.039   3.039  24.723  0.00  0.00    -0.646 OA
ATOM    135  OXT ACE d   1      49.635   1.941  23.558  0.00  0.00    -0.646 OA
ENDBRANCH 131 133
BRANCH 131 136
ATOM    136  CB  ACE d   1      47.886   3.333  25.506  0.00  0.00     0.045 C 
ATOM    137  H81 ACE d   1      47.327   3.509  26.437  0.00  0.00     0.077 H 
ATOM    138  H82 ACE d   1      47.220   2.878  24.758  0.00  0.00     0.077 H 
BRANCH 136 139
ATOM    139  OG  ACE d   1      48.394   4.539  25.020  0.00  0.00    -0.398 OA
ATOM    140  H83 ACE d   1      48.972   4.923  25.669  0.00  0.00     0.209 HD
ENDBRANCH 136 139
ENDBRANCH 131 136
ENDBRANCH 129 131
ENDBRANCH 125 127
BRANCH 125 141
ATOM    141  CB  ACE d   1      48.905   2.435  30.477  0.00  0.00     0.043 C 
ATOM    142  H77 ACE d   1      49.347   2.238  31.465  0.00  0.00     0.052 H 
ATOM    143  H78 ACE d   1      48.275   1.584  30.180  0.00  0.00     0.052 H 
BRANCH 141 144
ATOM    144  CG  ACE d   1      48.044   3.679  30.562  0.00  0.00     0.175 C 
ATOM    145  OD1 ACE d   1      46.997   3.704  29.974  0.00  0.00    -0.648 OA
ATOM    146  OD2 ACE d   1      48.493   4.634  31.188  0.00  0.00    -0.648 OA
ENDBRANCH 141 144
ENDBRANCH 125 141
ENDBRANCH 123 125
ENDBRANCH 119 121
BRANCH 119 147
ATOM    147  CB  ACE d   1      52.678   6.201  30.549  0.00  0.00     0.004 C 
ATOM    148  H70 ACE d   1      51.871   6.100  31.290  0.00  0.00     0.046 H 
ATOM    149  H71 ACE d   1      53.016   7.247  30.515  0.00  0.00     0.046 H 
BRANCH 147 150
ATOM    150  CG  ACE d   1      53.822   5.365  31.002  0.00  0.00     0.053 A 
ATOM    151  ND1 ACE d   1      55.005   5.301  30.322  0.00  0.00    -0.247 NA
ATOM    152  CE1 ACE d   1      55.823   4.507  30.951  0.00  0.00     0.064 A 
ATOM    153  NE2 ACE d   1      55.218   4.066  32.026  0.00  0.00    -0.359 N 
ATOM    154  H73 ACE d   1      56.835   4.253  30.638  0.00  0.00     0.143 H 
ATOM    155  CD2 ACE d   1      53.977   4.595  32.088  0.00  0.00     0.002 A 
ATOM    156  H74 ACE d   1      55.625   3.418  32.715  0.00  0.00     0.166 HD
ATOM    157  H72 ACE d   1      53.241   4.428  32.873  0.00  0.00     0.114 H 
ENDBRANCH 147 150
ENDBRANCH 119 147
ENDBRANCH 117 119
ENDBRANCH 104 115
ENDBRANCH  99 101
BRANCH  99 158
ATOM    158  CB  ACE d   1      49.372   7.554  23.085  0.00  0.00    -0.033 C 
ATOM    159  H54 ACE d   1      48.891   6.649  23.486  0.00  0.00     0.042 H 
BRANCH 158 160
ATOM    160  CG1 ACE d   1      48.823   7.821  21.717  0.00  0.00    -0.071 C 
ATOM    161  H55 ACE d   1      49.042   6.966  21.061  0.00  0.00     0.028 H 
ATOM    162  H56 ACE d   1      49.289   8.728  21.305  0.00  0.00     0.028 H 
ATOM    163  H57 ACE d   1      47.734   7.965  21.780  0.00  0.00     0.028 H 
ENDBRANCH 158 160
BRANCH 158 164
ATOM    164  CG2 ACE d   1      50.861   7.322  23.001  0.00  0.00    -0.071 C 
ATOM    165  H58 ACE d   1      51.259   7.127  24.008  0.00  0.00     0.028 H 
ATOM    166  H59 ACE d   1      51.348   8.214  22.581  0.00  0.00     0.028 H 
ATOM    167  H60 ACE d   1      51.061   6.456  22.353  0.00  0.00     0.028 H 
ENDBRANCH 158 164
ENDBRANCH  99 158
ENDBRANCH  97  99
ENDBRANCH  93  95
BRANCH  93 168
ATOM    168  CB  ACE d   1      50.737  12.728  24.018  0.00  0.00     0.044 C 
ATOM    169  H49 ACE d   1      51.335  11.934  24.489  0.00  0.00     0.077 H 
ATOM    170  H50 ACE d   1      49.970  13.078  24.725  0.00  0.00     0.077 H 
BRANCH 168 171
ATOM    171  OG  ACE d   1      51.591  13.818  23.676  0.00  0.00    -0.398 OA
ATOM    172  H51 ACE d   1      51.077  14.507  23.271  0.00  0.00     0.209 HD
ENDBRANCH 168 171
ENDBRANCH  93 168
ENDBRANCH  91  93
ENDBRANCH   1  89
BRANCH   1 173
ATOM    173  CB  ACE d   1      47.051  14.103  20.099  0.00  0.00    -0.014 C 
ATOM    174  H41 ACE d   1      46.718  13.614  21.026  0.00  0.00     0.043 H 
ATOM    175  H42 ACE d   1      46.981  13.391  19.263  0.00  0.00     0.043 H 
BRANCH 173 176
ATOM    176  CG  ACE d   1      46.128  15.262  19.815  0.00  0.00    -0.056 A 
ATOM    177  CD1 ACE d   1      46.075  15.838  18.553  0.00  0.00    -0.074 A 
ATOM    178  CE1 ACE d   1      45.230  16.898  18.287  0.00  0.00    -0.050 A 
ATOM    179  H43 ACE d   1      46.707  15.449  17.763  0.00  0.00     0.084 H 
ATOM    180  CZ  ACE d   1      44.426  17.409  19.286  0.00  0.00     0.082 A 
ATOM    181  H45 ACE d   1      45.198  17.329  17.293  0.00  0.00     0.087 H 
ATOM    182  CE2 ACE d   1      44.453  16.847  20.544  0.00  0.00    -0.050 A 
ATOM    183  CD2 ACE d   1      45.303  15.787  20.806  0.00  0.00    -0.074 A 
ATOM    184  H46 ACE d   1      43.810  17.234  21.326  0.00  0.00     0.087 H 
ATOM    185  H44 ACE d   1      45.327  15.357  21.801  0.00  0.00     0.084 H 
BRANCH 180 186
ATOM    186  OH  ACE d   1      43.604  18.384  19.000  0.00  0.00    -0.240 OA
BRANCH 186 187
ATOM    187  P   ACE d   1      43.801  19.941  19.358  0.00  0.00     0.427 P 
ATOM    188  O1P ACE d   1      44.259  20.717  18.108  0.00  0.00    -0.617 OA
ATOM    189  O2P ACE d   1      42.483  20.450  19.782  0.00  0.00    -0.617 OA
ATOM    190  O3P ACE d   1      44.874  20.158  20.436  0.00  0.00    -0.617 OA
ENDBRANCH 186 187
ENDBRANCH 180 186
ENDBRANCH 173 176
ENDBRANCH   1 173
TORSDOF 54
