REMARK  3 active torsions:
REMARK  status: ('A' for Active; 'I' for Inactive)
REMARK    1  A    between atoms: CAP_15  and  CAG_7 
REMARK    2  A    between atoms: CAI_8  and  CAJ_9 
REMARK    3  A    between atoms: NAQ_20  and  CAP_15 
ROOT
ATOM      1  CAA P57 d   1     -15.110 -31.600  -2.320  0.00  0.00    -0.070 A 
ATOM      2  CAB P57 d   1     -14.486 -32.594  -1.576  0.00  0.00    -0.082 A 
ATOM      3  CAC P57 d   1     -13.578 -33.441  -2.212  0.00  0.00    -0.081 A 
ATOM      4  CAD P57 d   1     -13.286 -33.300  -3.565  0.00  0.00    -0.056 A 
ATOM      5  CAE P57 d   1     -13.918 -32.280  -4.319  0.00  0.00     0.043 A 
ATOM      6  CAF P57 d   1     -14.822 -31.460  -3.703  0.00  0.00     0.001 A 
ATOM      7  CAG P57 d   1     -15.287 -30.559  -4.703  0.00  0.00     0.000 A 
ATOM      8  CAI P57 d   1     -14.635 -30.919  -5.881  0.00  0.00     0.051 A 
ATOM      9  NAH P57 d   1     -13.833 -31.932  -5.636  0.00  0.00    -0.354 N 
ATOM     10  H1  P57 d   1     -15.817 -30.931  -1.844  0.00  0.00     0.084 H 
ATOM     11  H2  P57 d   1     -14.701 -32.709  -0.520  0.00  0.00     0.083 H 
ATOM     12  H3  P57 d   1     -13.091 -34.224  -1.641  0.00  0.00     0.083 H 
ATOM     13  H4  P57 d   1     -12.577 -33.968  -4.041  0.00  0.00     0.086 H 
ATOM     14  H15 P57 d   1     -13.231 -32.393  -6.333  0.00  0.00     0.166 HD
ENDROOT
BRANCH   7  15
ATOM     15  CAP P57 d   1     -16.325 -29.451  -4.479  0.00  0.00     0.027 C 
ATOM     16  H10 P57 d   1     -17.086 -29.817  -3.775  0.00  0.00     0.072 H 
ATOM     17  H11 P57 d   1     -16.801 -29.212  -5.442  0.00  0.00     0.072 H 
BRANCH  15  18
ATOM     18  NAQ P57 d   1     -15.732 -28.237  -3.937  0.00  0.00    -0.346 N 
ATOM     19  CAR P57 d   1     -16.413 -27.222  -3.438  0.00  0.00     0.065 A 
ATOM     20  NAS P57 d   1     -15.565 -26.293  -3.046  0.00  0.00    -0.255 NA
ATOM     21  H12 P57 d   1     -17.498 -27.162  -3.363  0.00  0.00     0.143 H 
ATOM     22  CAT P57 d   1     -14.328 -26.723  -3.255  0.00  0.00     0.018 A 
ATOM     23  CAU P57 d   1     -14.436 -27.975  -3.831  0.00  0.00    -0.002 A 
ATOM     24  H13 P57 d   1     -13.406 -26.193  -3.019  0.00  0.00     0.117 H 
ATOM     25  H14 P57 d   1     -13.615 -28.622  -4.138  0.00  0.00     0.113 H 
ENDBRANCH  15  18
ENDBRANCH   7  15
BRANCH   8  26
ATOM     26  CAJ P57 d   1     -14.752 -30.252  -7.230  0.00  0.00    -0.009 A 
ATOM     27  CAK P57 d   1     -14.455 -30.966  -8.381  0.00  0.00    -0.071 A 
ATOM     28  CAL P57 d   1     -14.545 -30.310  -9.589  0.00  0.00    -0.082 A 
ATOM     29  H5  P57 d   1     -14.161 -32.008  -8.332  0.00  0.00     0.084 H 
ATOM     30  CAM P57 d   1     -14.886 -28.970  -9.641  0.00  0.00    -0.083 A 
ATOM     31  H6  P57 d   1     -14.347 -30.849 -10.508  0.00  0.00     0.083 H 
ATOM     32  CAN P57 d   1     -15.150 -28.254  -8.493  0.00  0.00    -0.082 A 
ATOM     33  H7  P57 d   1     -14.947 -28.474 -10.603  0.00  0.00     0.083 H 
ATOM     34  CAO P57 d   1     -15.065 -28.908  -7.278  0.00  0.00    -0.071 A 
ATOM     35  H8  P57 d   1     -15.418 -27.205  -8.542  0.00  0.00     0.083 H 
ATOM     36  H9  P57 d   1     -15.245 -28.363  -6.358  0.00  0.00     0.084 H 
ENDBRANCH   8  26
TORSDOF 3
