REMARK  10 active torsions:
REMARK  status: ('A' for Active; 'I' for Inactive)
REMARK    1  A    between atoms: C4_1  and  C5_2 
REMARK    2  A    between atoms: C5_2  and  C6_3 
REMARK    3  A    between atoms: C10_6  and  C11_12 
REMARK    4  A    between atoms: C9_20  and  C10_6 
REMARK    5  A    between atoms: C15_8  and  O4_24 
REMARK    6  A    between atoms: C20_10  and  O5_25 
REMARK    7  A    between atoms: O1_21  and  C1_11 
REMARK    8  A    between atoms: C14_14  and  O3_23 
REMARK    9  A    between atoms: O4_24  and  C16_15 
REMARK   10  A    between atoms: C2_18  and  O1_21 
ROOT
ATOM      1  C6  P5G d   1      14.679  30.321  -4.380  0.00  0.00    -0.024 C 
ATOM      2  C7  P5G d   1      15.306  29.114  -5.090  0.00  0.00     0.024 C 
ATOM      3  C8  P5G d   1      13.347  28.442  -3.948  0.00  0.00     0.024 C 
ATOM      4  C9  P5G d   1      13.212  29.895  -4.428  0.00  0.00    -0.024 C 
ATOM      5  O2  P5G d   1      14.633  27.964  -4.483  0.00  0.00    -0.390 OA
ATOM      6  H3  P5G d   1      14.845  31.264  -4.921  0.00  0.00     0.044 H 
ATOM      7  H4  P5G d   1      16.390  29.073  -4.910  0.00  0.00     0.074 H 
ATOM      8  H5  P5G d   1      15.115  29.153  -6.173  0.00  0.00     0.074 H 
ATOM      9  H6  P5G d   1      12.519  27.831  -4.337  0.00  0.00     0.074 H 
ATOM     10  H7  P5G d   1      13.349  28.400  -2.849  0.00  0.00     0.074 H 
ATOM     11  H22 P5G d   1      12.598  30.501  -3.746  0.00  0.00     0.044 H 
ENDROOT
BRANCH   1  12
ATOM     12  C5  P5G d   1      15.256  30.432  -2.952  0.00  0.00    -0.035 C 
ATOM     13  H1  P5G d   1      15.001  29.518  -2.396  0.00  0.00     0.040 H 
ATOM     14  H2  P5G d   1      16.350  30.527  -3.019  0.00  0.00     0.040 H 
BRANCH  12  15
ATOM     15  C4  P5G d   1      14.748  31.541  -2.255  0.00  0.00    -0.055 A 
ATOM     16  C18 P5G d   1      14.591  31.446  -0.876  0.00  0.00    -0.074 A 
ATOM     17  C19 P5G d   1      14.088  32.517  -0.146  0.00  0.00    -0.048 A 
ATOM     18  H19 P5G d   1      14.863  30.529  -0.366  0.00  0.00     0.084 H 
ATOM     19  C20 P5G d   1      13.745  33.691  -0.801  0.00  0.00     0.099 A 
ATOM     20  H20 P5G d   1      13.965  32.435   0.928  0.00  0.00     0.087 H 
ATOM     21  C2  P5G d   1      13.899  33.800  -2.171  0.00  0.00     0.101 A 
ATOM     22  C3  P5G d   1      14.402  32.729  -2.900  0.00  0.00    -0.042 A 
ATOM     23  H21 P5G d   1      14.526  32.817  -3.973  0.00  0.00     0.088 H 
BRANCH  19  24
ATOM     24  O5  P5G d   1      13.249  34.779  -0.154  0.00  0.00    -0.358 OA
ATOM     25  H24 P5G d   1      13.829  35.519  -0.291  0.00  0.00     0.217 HD
ENDBRANCH  19  24
BRANCH  21  26
ATOM     26  O1  P5G d   1      13.532  34.996  -2.715  0.00  0.00    -0.353 OA
BRANCH  26  27
ATOM     27  C1  P5G d   1      13.499  34.981  -4.142  0.00  0.00     0.010 C 
ATOM     28  H12 P5G d   1      13.197  35.972  -4.512  0.00  0.00     0.066 H 
ATOM     29  H13 P5G d   1      12.776  34.226  -4.484  0.00  0.00     0.066 H 
ATOM     30  H14 P5G d   1      14.498  34.734  -4.529  0.00  0.00     0.066 H 
ENDBRANCH  26  27
ENDBRANCH  21  26
ENDBRANCH  12  15
ENDBRANCH   1  12
BRANCH   4  31
ATOM     31  C10 P5G d   1      12.592  29.933  -5.843  0.00  0.00    -0.035 C 
ATOM     32  H8  P5G d   1      13.358  29.679  -6.590  0.00  0.00     0.040 H 
ATOM     33  H9  P5G d   1      11.765  29.210  -5.905  0.00  0.00     0.040 H 
BRANCH  31  34
ATOM     34  C11 P5G d   1      12.108  31.226  -6.083  0.00  0.00    -0.055 A 
ATOM     35  C17 P5G d   1      12.915  32.180  -6.704  0.00  0.00    -0.042 A 
ATOM     36  C15 P5G d   1      12.414  33.462  -6.927  0.00  0.00     0.101 A 
ATOM     37  H11 P5G d   1      13.923  31.927  -7.011  0.00  0.00     0.088 H 
ATOM     38  C14 P5G d   1      11.125  33.783  -6.528  0.00  0.00     0.099 A 
ATOM     39  C13 P5G d   1      10.315  32.838  -5.916  0.00  0.00    -0.048 A 
ATOM     40  C12 P5G d   1      10.813  31.560  -5.695  0.00  0.00    -0.074 A 
ATOM     41  H10 P5G d   1       9.306  33.093  -5.614  0.00  0.00     0.087 H 
ATOM     42  H15 P5G d   1      10.187  30.816  -5.216  0.00  0.00     0.084 H 
BRANCH  36  43
ATOM     43  O4  P5G d   1      13.112  34.478  -7.515  0.00  0.00    -0.353 OA
BRANCH  43  44
ATOM     44  C16 P5G d   1      14.485  34.170  -7.770  0.00  0.00     0.010 C 
ATOM     45  H16 P5G d   1      14.973  35.035  -8.242  0.00  0.00     0.066 H 
ATOM     46  H17 P5G d   1      14.547  33.302  -8.443  0.00  0.00     0.066 H 
ATOM     47  H18 P5G d   1      14.991  33.936  -6.822  0.00  0.00     0.066 H 
ENDBRANCH  43  44
ENDBRANCH  36  43
BRANCH  38  48
ATOM     48  O3  P5G d   1      10.707  35.055  -6.777  0.00  0.00    -0.358 OA
ATOM     49  H23 P5G d   1       9.816  35.161  -6.464  0.00  0.00     0.217 HD
ENDBRANCH  38  48
ENDBRANCH  31  34
ENDBRANCH   4  31
TORSDOF 10
