REMARK  5 active torsions:
REMARK  status: ('A' for Active; 'I' for Inactive)
REMARK    1  A    between atoms: C1_1  and  C_23 
REMARK    2  A    between atoms: C4_4  and  O4_11 
REMARK    3  A    between atoms: C6_6  and  O3_10 
REMARK    4  A    between atoms: C17_17  and  C18_16 
REMARK    5  A    between atoms: C13_18  and  C23_19 
ROOT
ATOM      1  C1  P4S d   1      13.523 107.562  60.665  0.00  0.00    -0.009 C 
ATOM      2  C2  P4S d   1      12.743 107.658  61.984  0.00  0.00    -0.053 C 
ATOM      3  C3  P4S d   1      13.609 107.452  63.226  0.00  0.00    -0.040 C 
ATOM      4  C4  P4S d   1      14.718 108.491  63.313  0.00  0.00     0.038 C 
ATOM      5  C5  P4S d   1      14.907 109.250  62.004  0.00  0.00    -0.012 C 
ATOM      6  C6  P4S d   1      14.837 108.375  60.758  0.00  0.00     0.068 C 
ATOM      7  C7  P4S d   1      16.129 107.568  60.754  0.00  0.00    -0.035 C 
ATOM      8  C17 P4S d   1      14.024 101.967  59.055  0.00  0.00    -0.015 A 
ATOM      9  C13 P4S d   1      13.741 103.454  58.765  0.00  0.00    -0.002 A 
ATOM     10  C12 P4S d   1      12.570 103.893  59.636  0.00  0.00    -0.054 C 
ATOM     11  C11 P4S d   1      12.457 105.408  59.774  0.00  0.00    -0.060 C 
ATOM     12  C10 P4S d   1      13.721 106.067  60.345  0.00  0.00    -0.038 C 
ATOM     13  C16 P4S d   1      15.456 101.881  59.603  0.00  0.00    -0.030 A 
ATOM     14  C15 P4S d   1      16.053 103.289  59.651  0.00  0.00     0.071 A 
ATOM     15  O   P4S d   1      16.160 103.990  58.411  0.00  0.00    -0.368 OA
ATOM     16  C14 P4S d   1      14.971 104.245  59.178  0.00  0.00     0.099 A 
ATOM     17  C9  P4S d   1      14.863 105.776  59.376  0.00  0.00    -0.016 C 
ATOM     18  C8  P4S d   1      16.196 106.393  59.799  0.00  0.00    -0.056 C 
ATOM     19  H1  P4S d   1      11.956 106.890  61.978  0.00  0.00     0.034 H 
ATOM     20  H2  P4S d   1      12.282 108.655  62.043  0.00  0.00     0.034 H 
ATOM     21  H3  P4S d   1      14.061 106.450  63.184  0.00  0.00     0.036 H 
ATOM     22  H4  P4S d   1      12.975 107.531  64.121  0.00  0.00     0.036 H 
ATOM     23  H5  P4S d   1      15.659 107.987  63.579  0.00  0.00     0.083 H 
ATOM     24  H6  P4S d   1      15.893 109.738  62.028  0.00  0.00     0.041 H 
ATOM     25  H7  P4S d   1      14.120 110.015  61.932  0.00  0.00     0.041 H 
ATOM     26  H8  P4S d   1      16.282 107.179  61.772  0.00  0.00     0.037 H 
ATOM     27  H9  P4S d   1      16.949 108.254  60.496  0.00  0.00     0.037 H 
ATOM     28  H15 P4S d   1      13.350 101.663  59.870  0.00  0.00     0.049 H 
ATOM     29  H19 P4S d   1      12.699 103.460  60.639  0.00  0.00     0.034 H 
ATOM     30  H20 P4S d   1      11.640 103.513  59.189  0.00  0.00     0.034 H 
ATOM     31  H21 P4S d   1      11.614 105.635  60.443  0.00  0.00     0.033 H 
ATOM     32  H22 P4S d   1      12.261 105.835  58.779  0.00  0.00     0.033 H 
ATOM     33  H23 P4S d   1      13.960 105.572  61.298  0.00  0.00     0.042 H 
ATOM     34  H27 P4S d   1      16.066 101.244  58.946  0.00  0.00     0.037 H 
ATOM     35  H28 P4S d   1      15.439 101.452  60.616  0.00  0.00     0.037 H 
ATOM     36  H29 P4S d   1      16.744 103.460  60.489  0.00  0.00     0.088 H 
ATOM     37  H30 P4S d   1      14.597 106.223  58.407  0.00  0.00     0.045 H 
ATOM     38  H31 P4S d   1      16.790 105.604  60.283  0.00  0.00     0.033 H 
ATOM     39  H32 P4S d   1      16.710 106.733  58.888  0.00  0.00     0.033 H 
ENDROOT
BRANCH   8  40
ATOM     40  C18 P4S d   1      13.717 101.038  57.911  0.00  0.00    -0.030 A 
ATOM     41  C19 P4S d   1      14.585 100.827  56.829  0.00  0.00     0.029 A 
ATOM     42  O1  P4S d   1      14.270 100.004  55.828  0.00  0.00    -0.287 OA
ATOM     43  H12 P4S d   1      15.541 101.349  56.806  0.00  0.00     0.124 H 
ATOM     44  C20 P4S d   1      13.082  99.328  55.814  0.00  0.00     0.287 A 
ATOM     45  O2  P4S d   1      12.826  98.566  54.858  0.00  0.00    -0.260 OA
ATOM     46  C21 P4S d   1      12.181  99.498  56.862  0.00  0.00    -0.009 A 
ATOM     47  C22 P4S d   1      12.501 100.355  57.914  0.00  0.00    -0.069 A 
ATOM     48  H13 P4S d   1      11.232  98.965  56.860  0.00  0.00     0.092 H 
ATOM     49  H14 P4S d   1      11.802 100.491  58.738  0.00  0.00     0.084 H 
ENDBRANCH   8  40
BRANCH   9  50
ATOM     50  C23 P4S d   1      13.471 103.783  57.296  0.00  0.00    -0.066 C 
ATOM     51  H16 P4S d   1      12.585 103.229  56.953  0.00  0.00     0.028 H 
ATOM     52  H17 P4S d   1      14.341 103.493  56.689  0.00  0.00     0.028 H 
ATOM     53  H18 P4S d   1      13.293 104.863  57.189  0.00  0.00     0.028 H 
ENDBRANCH   9  50
BRANCH   1  54
ATOM     54  C   P4S d   1      12.637 108.214  59.602  0.00  0.00    -0.066 C 
ATOM     55  H24 P4S d   1      12.502 109.279  59.840  0.00  0.00     0.028 H 
ATOM     56  H25 P4S d   1      11.657 107.715  59.586  0.00  0.00     0.028 H 
ATOM     57  H26 P4S d   1      13.115 108.116  58.616  0.00  0.00     0.028 H 
ENDBRANCH   1  54
BRANCH   6  58
ATOM     58  O3  P4S d   1      14.931 109.282  59.652  0.00  0.00    -0.389 OA
ATOM     59  H10 P4S d   1      14.893 108.793  58.839  0.00  0.00     0.210 HD
ENDBRANCH   6  58
BRANCH   4  60
ATOM     60  O4  P4S d   1      14.377 109.449  64.316  0.00  0.00    -0.395 OA
ATOM     61  H11 P4S d   1      14.252 109.005  65.147  0.00  0.00     0.210 HD
ENDBRANCH   4  60
TORSDOF 5
