REMARK  5 active torsions:
REMARK  status: ('A' for Active; 'I' for Inactive)
REMARK    1  A    between atoms: C1_1  and  C_23 
REMARK    2  A    between atoms: C4_4  and  O4_11 
REMARK    3  A    between atoms: C6_6  and  O3_10 
REMARK    4  A    between atoms: C17_17  and  C18_16 
REMARK    5  A    between atoms: C13_18  and  C23_19 
ROOT
ATOM      1  C1  P4S d   1      52.102 -28.537   3.261  0.00  0.00    -0.009 C 
ATOM      2  C2  P4S d   1      51.395 -29.861   2.910  0.00  0.00    -0.053 C 
ATOM      3  C3  P4S d   1      50.650 -30.527   4.065  0.00  0.00    -0.040 C 
ATOM      4  C4  P4S d   1      49.616 -29.584   4.676  0.00  0.00     0.038 C 
ATOM      5  C5  P4S d   1      50.259 -28.263   5.069  0.00  0.00    -0.012 C 
ATOM      6  C6  P4S d   1      51.036 -27.611   3.912  0.00  0.00     0.068 C 
ATOM      7  C7  P4S d   1      51.624 -26.295   4.410  0.00  0.00    -0.035 C 
ATOM      8  C17 P4S d   1      57.041 -28.787   6.469  0.00  0.00    -0.015 C 
ATOM      9  C13 P4S d   1      56.174 -28.553   5.213  0.00  0.00    -0.002 C 
ATOM     10  C12 P4S d   1      55.485 -29.865   4.824  0.00  0.00    -0.054 C 
ATOM     11  C11 P4S d   1      54.402 -29.679   3.756  0.00  0.00    -0.060 C 
ATOM     12  C10 P4S d   1      53.280 -28.737   4.256  0.00  0.00    -0.038 C 
ATOM     13  C16 P4S d   1      56.249 -28.253   7.679  0.00  0.00    -0.030 C 
ATOM     14  C15 P4S d   1      55.174 -27.305   7.153  0.00  0.00     0.071 A 
ATOM     15  O   P4S d   1      55.556 -26.357   6.150  0.00  0.00    -0.368 OA
ATOM     16  C14 P4S d   1      55.063 -27.614   5.672  0.00  0.00     0.099 A 
ATOM     17  C9  P4S d   1      53.857 -27.386   4.746  0.00  0.00    -0.016 C 
ATOM     18  C8  P4S d   1      52.797 -26.475   5.364  0.00  0.00    -0.056 C 
ATOM     19  H1  P4S d   1      52.156 -30.566   2.544  0.00  0.00     0.034 H 
ATOM     20  H2  P4S d   1      50.669 -29.657   2.109  0.00  0.00     0.034 H 
ATOM     21  H3  P4S d   1      51.375 -30.814   4.841  0.00  0.00     0.036 H 
ATOM     22  H4  P4S d   1      50.138 -31.426   3.690  0.00  0.00     0.036 H 
ATOM     23  H5  P4S d   1      49.183 -30.059   5.569  0.00  0.00     0.083 H 
ATOM     24  H6  P4S d   1      50.955 -28.445   5.901  0.00  0.00     0.041 H 
ATOM     25  H7  P4S d   1      49.469 -27.571   5.396  0.00  0.00     0.041 H 
ATOM     26  H8  P4S d   1      50.834 -25.736   4.932  0.00  0.00     0.037 H 
ATOM     27  H9  P4S d   1      51.969 -25.717   3.540  0.00  0.00     0.037 H 
ATOM     28  H15 P4S d   1      57.159 -29.873   6.596  0.00  0.00     0.049 H 
ATOM     29  H19 P4S d   1      55.020 -30.297   5.723  0.00  0.00     0.034 H 
ATOM     30  H20 P4S d   1      56.245 -30.558   4.435  0.00  0.00     0.034 H 
ATOM     31  H21 P4S d   1      53.966 -30.659   3.513  0.00  0.00     0.033 H 
ATOM     32  H22 P4S d   1      54.858 -29.246   2.853  0.00  0.00     0.033 H 
ATOM     33  H23 P4S d   1      52.845 -29.229   5.139  0.00  0.00     0.042 H 
ATOM     34  H27 P4S d   1      56.924 -27.712   8.359  0.00  0.00     0.037 H 
ATOM     35  H28 P4S d   1      55.779 -29.089   8.217  0.00  0.00     0.037 H 
ATOM     36  H29 P4S d   1      54.343 -27.123   7.851  0.00  0.00     0.088 H 
ATOM     37  H30 P4S d   1      54.235 -26.861   3.856  0.00  0.00     0.045 H 
ATOM     38  H31 P4S d   1      52.436 -26.924   6.301  0.00  0.00     0.033 H 
ATOM     39  H32 P4S d   1      53.244 -25.493   5.577  0.00  0.00     0.033 H 
ENDROOT
BRANCH   8  40
ATOM     40  C18 P4S d   1      58.422 -28.217   6.368  0.00  0.00    -0.030 A 
ATOM     41  C19 P4S d   1      58.722 -26.861   6.618  0.00  0.00     0.029 A 
ATOM     42  O1  P4S d   1      59.977 -26.403   6.489  0.00  0.00    -0.287 OA
ATOM     43  H12 P4S d   1      57.928 -26.180   6.918  0.00  0.00     0.124 H 
ATOM     44  C20 P4S d   1      61.012 -27.231   6.109  0.00  0.00     0.287 A 
ATOM     45  O2  P4S d   1      62.175 -26.781   6.002  0.00  0.00    -0.260 OA
ATOM     46  C21 P4S d   1      60.761 -28.577   5.844  0.00  0.00    -0.009 A 
ATOM     47  C22 P4S d   1      59.461 -29.067   5.969  0.00  0.00    -0.069 A 
ATOM     48  H13 P4S d   1      61.572 -29.239   5.543  0.00  0.00     0.092 H 
ATOM     49  H14 P4S d   1      59.253 -30.114   5.755  0.00  0.00     0.084 H 
ENDBRANCH   8  40
BRANCH   9  50
ATOM     50  C23 P4S d   1      56.914 -28.003   3.966  0.00  0.00    -0.066 C 
ATOM     51  H16 P4S d   1      57.705 -28.708   3.668  0.00  0.00     0.028 H 
ATOM     52  H17 P4S d   1      57.363 -27.028   4.207  0.00  0.00     0.028 H 
ATOM     53  H18 P4S d   1      56.199 -27.883   3.139  0.00  0.00     0.028 H 
ENDBRANCH   9  50
BRANCH   1  54
ATOM     54  C   P4S d   1      52.613 -27.982   1.913  0.00  0.00    -0.066 C 
ATOM     55  H24 P4S d   1      51.764 -27.849   1.226  0.00  0.00     0.028 H 
ATOM     56  H25 P4S d   1      53.332 -28.689   1.474  0.00  0.00     0.028 H 
ATOM     57  H26 P4S d   1      53.106 -27.013   2.079  0.00  0.00     0.028 H 
ENDBRANCH   1  54
BRANCH   6  58
ATOM     58  O3  P4S d   1      50.049 -27.243   2.938  0.00  0.00    -0.389 OA
ATOM     59  H10 P4S d   1      49.586 -28.020   2.648  0.00  0.00     0.210 HD
ENDBRANCH   6  58
BRANCH   4  60
ATOM     60  O4  P4S d   1      48.579 -29.307   3.735  0.00  0.00    -0.395 OA
ATOM     61  H11 P4S d   1      47.935 -28.734   4.135  0.00  0.00     0.210 HD
ENDBRANCH   4  60
TORSDOF 5
