REMARK  6 active torsions:
REMARK  status: ('A' for Active; 'I' for Inactive)
REMARK    1  A    between atoms: C28_31  and  C1_1 
REMARK    2  A    between atoms: C7_5  and  C10_22 
REMARK    3  A    between atoms: C16_10  and  C27_15 
REMARK    4  A    between atoms: C16_10  and  C20_27 
REMARK    5  A    between atoms: C20_27  and  C21_12 
REMARK    6  A    between atoms: C31_16  and  C34_18 
ROOT
ATOM      1  C11 P5J d   1      37.938  12.796  34.568  0.00  0.00    -0.070 A 
ATOM      2  C12 P5J d   1      38.937  12.024  35.134  0.00  0.00    -0.056 A 
ATOM      3  C15 P5J d   1      39.313  14.768  34.825  0.00  0.00    -0.062 A 
ATOM      4  C16 P5J d   1      41.682  14.310  35.945  0.00  0.00     0.071 A 
ATOM      5  C17 P5J d   1      42.202  12.967  36.426  0.00  0.00     0.235 A 
ATOM      6  C10 P5J d   1      38.112  14.183  34.364  0.00  0.00    -0.020 A 
ATOM      7  C13 P5J d   1      40.134  12.611  35.554  0.00  0.00     0.042 A 
ATOM      8  C14 P5J d   1      40.309  13.983  35.384  0.00  0.00    -0.013 A 
ATOM      9  O18 P5J d   1      43.278  12.754  36.942  0.00  0.00    -0.272 OA
ATOM     10  N19 P5J d   1      41.262  12.048  36.154  0.00  0.00    -0.326 N 
ATOM     11  H4  P5J d   1      37.005  12.328  34.276  0.00  0.00     0.084 H 
ATOM     12  H5  P5J d   1      38.790  10.957  35.252  0.00  0.00     0.087 H 
ATOM     13  H6  P5J d   1      39.456  15.839  34.741  0.00  0.00     0.085 H 
ATOM     14  H16 P5J d   1      41.358  11.074  36.357  0.00  0.00     0.169 HD
ENDROOT
BRANCH   6  15
ATOM     15  C7  P5J d   1      37.014  15.026  33.790  0.00  0.00     0.041 A 
ATOM     16  C5  P5J d   1      35.839  14.604  33.130  0.00  0.00     0.163 A 
ATOM     17  N4  P5J d   1      35.100  15.724  32.861  0.00  0.00    -0.226 N 
ATOM     18  N6  P5J d   1      35.382  13.403  32.749  0.00  0.00    -0.228 NA
ATOM     19  C3  P5J d   1      33.899  15.640  32.211  0.00  0.00     0.008 A 
ATOM     20  N9  P5J d   1      35.789  16.835  33.359  0.00  0.00    -0.178 NA
ATOM     21  C2  P5J d   1      33.439  14.425  31.847  0.00  0.00    -0.037 A 
ATOM     22  H2  P5J d   1      33.324  16.538  31.991  0.00  0.00     0.115 H 
ATOM     23  C1  P5J d   1      34.221  13.269  32.126  0.00  0.00     0.073 A 
ATOM     24  H1  P5J d   1      32.478  14.330  31.344  0.00  0.00     0.089 H 
ATOM     25  C8  P5J d   1      36.911  16.424  33.900  0.00  0.00     0.037 A 
ATOM     26  H3  P5J d   1      37.653  17.070  34.366  0.00  0.00     0.118 H 
BRANCH  23  27
ATOM     27  C28 P5J d   1      33.776  11.904  31.699  0.00  0.00     0.028 A 
ATOM     28  C33 P5J d   1      34.715  10.891  31.398  0.00  0.00     0.018 A 
ATOM     29  N32 P5J d   1      34.283   9.696  30.994  0.00  0.00    -0.245 NA
ATOM     30  H12 P5J d   1      35.777  11.084  31.495  0.00  0.00     0.116 H 
ATOM     31  C31 P5J d   1      32.984   9.441  30.872  0.00  0.00     0.121 A 
ATOM     32  N30 P5J d   1      32.074  10.355  31.143  0.00  0.00    -0.245 NA
ATOM     33  C29 P5J d   1      32.419  11.578  31.540  0.00  0.00     0.018 A 
ATOM     34  H22 P5J d   1      31.655  12.320  31.740  0.00  0.00     0.116 H 
BRANCH  31  35
ATOM     35  C34 P5J d   1      32.499   8.085  30.417  0.00  0.00    -0.020 C 
ATOM     36  H13 P5J d   1      31.399   8.081  30.383  0.00  0.00     0.037 H 
ATOM     37  H14 P5J d   1      32.846   7.316  31.122  0.00  0.00     0.037 H 
ATOM     38  H15 P5J d   1      32.898   7.870  29.415  0.00  0.00     0.037 H 
ENDBRANCH  31  35
ENDBRANCH  23  27
ENDBRANCH   6  15
BRANCH   4  39
ATOM     39  C27 P5J d   1      41.522  15.266  37.134  0.00  0.00    -0.056 C 
ATOM     40  H9  P5J d   1      42.513  15.508  37.546  0.00  0.00     0.029 H 
ATOM     41  H10 P5J d   1      40.909  14.786  37.911  0.00  0.00     0.029 H 
ATOM     42  H11 P5J d   1      41.029  16.190  36.798  0.00  0.00     0.029 H 
ENDBRANCH   4  39
BRANCH   4  43
ATOM     43  C20 P5J d   1      42.600  14.979  34.899  0.00  0.00    -0.022 C 
ATOM     44  H17 P5J d   1      43.466  15.400  35.431  0.00  0.00     0.042 H 
ATOM     45  H18 P5J d   1      42.032  15.791  34.422  0.00  0.00     0.042 H 
BRANCH  43  46
ATOM     46  C21 P5J d   1      43.124  14.073  33.803  0.00  0.00    -0.057 A 
ATOM     47  C22 P5J d   1      44.276  13.312  33.981  0.00  0.00    -0.077 A 
ATOM     48  C23 P5J d   1      44.755  12.492  32.960  0.00  0.00    -0.082 A 
ATOM     49  H19 P5J d   1      44.807  13.357  34.925  0.00  0.00     0.084 H 
ATOM     50  C24 P5J d   1      44.092  12.443  31.739  0.00  0.00    -0.083 A 
ATOM     51  H7  P5J d   1      45.644  11.893  33.118  0.00  0.00     0.083 H 
ATOM     52  C25 P5J d   1      42.947  13.211  31.554  0.00  0.00    -0.082 A 
ATOM     53  H8  P5J d   1      44.464  11.813  30.939  0.00  0.00     0.083 H 
ATOM     54  C26 P5J d   1      42.472  14.025  32.579  0.00  0.00    -0.077 A 
ATOM     55  H20 P5J d   1      42.422  13.176  30.607  0.00  0.00     0.083 H 
ATOM     56  H21 P5J d   1      41.585  14.627  32.419  0.00  0.00     0.084 H 
ENDBRANCH  43  46
ENDBRANCH   4  43
TORSDOF 6
