REMARK  6 active torsions:
REMARK  status: ('A' for Active; 'I' for Inactive)
REMARK    1  A    between atoms: C28_31  and  C1_1 
REMARK    2  A    between atoms: C7_5  and  C10_22 
REMARK    3  A    between atoms: C16_10  and  C27_15 
REMARK    4  A    between atoms: C16_10  and  C20_27 
REMARK    5  A    between atoms: C20_27  and  C21_12 
REMARK    6  A    between atoms: C31_16  and  C34_18 
ROOT
ATOM      1  C11 P5J d   1     -14.225  11.936  26.720  0.00  0.00    -0.070 A 
ATOM      2  C12 P5J d   1     -14.194  10.812  25.915  0.00  0.00    -0.056 A 
ATOM      3  C15 P5J d   1     -16.410  11.279  27.515  0.00  0.00    -0.062 A 
ATOM      4  C16 P5J d   1     -17.341   9.018  26.450  0.00  0.00     0.071 A 
ATOM      5  C17 P5J d   1     -16.591   8.136  25.471  0.00  0.00     0.235 A 
ATOM      6  C10 P5J d   1     -15.342  12.202  27.536  0.00  0.00    -0.020 A 
ATOM      7  C13 P5J d   1     -15.265   9.919  25.892  0.00  0.00     0.042 A 
ATOM      8  C14 P5J d   1     -16.366  10.152  26.714  0.00  0.00    -0.013 A 
ATOM      9  O18 P5J d   1     -16.980   7.091  24.995  0.00  0.00    -0.272 OA
ATOM     10  N19 P5J d   1     -15.428   8.735  25.183  0.00  0.00    -0.326 N 
ATOM     11  H4  P5J d   1     -13.383  12.618  26.723  0.00  0.00     0.084 H 
ATOM     12  H5  P5J d   1     -13.326  10.623  25.294  0.00  0.00     0.087 H 
ATOM     13  H6  P5J d   1     -17.280  11.457  28.137  0.00  0.00     0.085 H 
ATOM     14  H16 P5J d   1     -14.757   8.373  24.535  0.00  0.00     0.169 HD
ENDROOT
BRANCH   6  15
ATOM     15  C7  P5J d   1     -15.365  13.403  28.426  0.00  0.00     0.041 A 
ATOM     16  C5  P5J d   1     -16.464  13.979  29.094  0.00  0.00     0.163 A 
ATOM     17  N4  P5J d   1     -15.988  15.049  29.819  0.00  0.00    -0.226 N 
ATOM     18  N6  P5J d   1     -17.771  13.694  29.138  0.00  0.00    -0.228 NA
ATOM     19  C3  P5J d   1     -16.832  15.822  30.579  0.00  0.00     0.008 A 
ATOM     20  N9  P5J d   1     -14.616  15.130  29.604  0.00  0.00    -0.178 NA
ATOM     21  C2  P5J d   1     -18.149  15.515  30.625  0.00  0.00    -0.037 A 
ATOM     22  H2  P5J d   1     -16.445  16.673  31.138  0.00  0.00     0.115 H 
ATOM     23  C1  P5J d   1     -18.619  14.413  29.866  0.00  0.00     0.073 A 
ATOM     24  H1  P5J d   1     -18.835  16.103  31.233  0.00  0.00     0.089 H 
ATOM     25  C8  P5J d   1     -14.248  14.166  28.799  0.00  0.00     0.037 A 
ATOM     26  H3  P5J d   1     -13.227  13.983  28.468  0.00  0.00     0.118 H 
BRANCH  23  27
ATOM     27  C28 P5J d   1     -20.062  14.062  29.874  0.00  0.00     0.028 A 
ATOM     28  C33 P5J d   1     -20.831  14.087  31.055  0.00  0.00     0.018 A 
ATOM     29  N32 P5J d   1     -22.121  13.764  30.995  0.00  0.00    -0.245 NA
ATOM     30  H12 P5J d   1     -20.378  14.366  32.000  0.00  0.00     0.116 H 
ATOM     31  C31 P5J d   1     -22.694  13.425  29.846  0.00  0.00     0.121 A 
ATOM     32  N30 P5J d   1     -22.010  13.390  28.711  0.00  0.00    -0.245 NA
ATOM     33  C29 P5J d   1     -20.716  13.698  28.680  0.00  0.00     0.018 A 
ATOM     34  H22 P5J d   1     -20.169  13.669  27.744  0.00  0.00     0.116 H 
BRANCH  31  35
ATOM     35  C34 P5J d   1     -24.159  13.068  29.829  0.00  0.00    -0.020 C 
ATOM     36  H13 P5J d   1     -24.463  12.815  28.802  0.00  0.00     0.037 H 
ATOM     37  H14 P5J d   1     -24.749  13.925  30.186  0.00  0.00     0.037 H 
ATOM     38  H15 P5J d   1     -24.333  12.203  30.486  0.00  0.00     0.037 H 
ENDBRANCH  31  35
ENDBRANCH  23  27
ENDBRANCH   6  15
BRANCH   4  39
ATOM     39  C27 P5J d   1     -18.534   9.615  25.689  0.00  0.00    -0.056 C 
ATOM     40  H9  P5J d   1     -19.267   8.823  25.477  0.00  0.00     0.029 H 
ATOM     41  H10 P5J d   1     -18.183  10.053  24.743  0.00  0.00     0.029 H 
ATOM     42  H11 P5J d   1     -19.006  10.397  26.302  0.00  0.00     0.029 H 
ENDBRANCH   4  39
BRANCH   4  43
ATOM     43  C20 P5J d   1     -17.735   8.184  27.689  0.00  0.00    -0.022 C 
ATOM     44  H17 P5J d   1     -16.820   7.954  28.255  0.00  0.00     0.042 H 
ATOM     45  H18 P5J d   1     -18.197   7.248  27.342  0.00  0.00     0.042 H 
BRANCH  43  46
ATOM     46  C21 P5J d   1     -18.708   8.877  28.620  0.00  0.00    -0.057 A 
ATOM     47  C22 P5J d   1     -20.075   8.873  28.357  0.00  0.00    -0.077 A 
ATOM     48  C23 P5J d   1     -20.959   9.515  29.215  0.00  0.00    -0.082 A 
ATOM     49  H19 P5J d   1     -20.452   8.365  27.477  0.00  0.00     0.084 H 
ATOM     50  C24 P5J d   1     -20.481  10.152  30.351  0.00  0.00    -0.083 A 
ATOM     51  H7  P5J d   1     -22.021   9.518  28.997  0.00  0.00     0.083 H 
ATOM     52  C25 P5J d   1     -19.121  10.152  30.625  0.00  0.00    -0.082 A 
ATOM     53  H8  P5J d   1     -21.170  10.649  31.024  0.00  0.00     0.083 H 
ATOM     54  C26 P5J d   1     -18.241   9.510  29.764  0.00  0.00    -0.077 A 
ATOM     55  H20 P5J d   1     -18.746  10.653  31.510  0.00  0.00     0.083 H 
ATOM     56  H21 P5J d   1     -17.180   9.503  29.987  0.00  0.00     0.084 H 
ENDBRANCH  43  46
ENDBRANCH   4  43
TORSDOF 6
