REMARK  2 active torsions:
REMARK  status: ('A' for Active; 'I' for Inactive)
REMARK    1  A    between atoms: C20_23  and  C7_5 
REMARK    2  A    between atoms: C15_9  and  C17_10 
REMARK       I    between atoms: N14_21  and  C15_9 
ROOT
ATOM      1  C2  P5V d   1      42.557  12.497  36.237  0.00  0.00     0.255 A 
ATOM      2  C4  P5V d   1      40.414  12.087  35.671  0.00  0.00     0.044 A 
ATOM      3  C5  P5V d   1      39.167  11.502  35.519  0.00  0.00    -0.056 A 
ATOM      4  C6  P5V d   1      38.133  12.246  34.993  0.00  0.00    -0.070 A 
ATOM      5  C7  P5V d   1      38.319  13.594  34.604  0.00  0.00    -0.025 A 
ATOM      6  C8  P5V d   1      39.587  14.176  34.788  0.00  0.00    -0.061 A 
ATOM      7  C11 P5V d   1      42.072  14.979  36.552  0.00  0.00    -0.027 C 
ATOM      8  C12 P5V d   1      42.351  16.189  35.630  0.00  0.00    -0.047 C 
ATOM      9  C15 P5V d   1      43.307  13.193  33.503  0.00  0.00     0.225 C 
ATOM     10  O1  P5V d   1      43.674  12.305  36.628  0.00  0.00    -0.270 OA
ATOM     11  N3  P5V d   1      41.581  11.570  36.193  0.00  0.00    -0.324 N 
ATOM     12  C9  P5V d   1      40.607  13.426  35.300  0.00  0.00     0.007 A 
ATOM     13  C10 P5V d   1      42.038  13.767  35.611  0.00  0.00     0.146 A 
ATOM     14  C13 P5V d   1      43.113  15.543  34.440  0.00  0.00    -0.001 C 
ATOM     15  N14 P5V d   1      42.874  14.078  34.451  0.00  0.00    -0.329 N 
ATOM     16  O16 P5V d   1      43.058  12.001  33.564  0.00  0.00    -0.273 OA
ATOM     17  H1  P5V d   1      39.007  10.470  35.811  0.00  0.00     0.087 H 
ATOM     18  H2  P5V d   1      37.157  11.789  34.875  0.00  0.00     0.084 H 
ATOM     19  H3  P5V d   1      39.753  15.214  34.525  0.00  0.00     0.085 H 
ATOM     20  H4  P5V d   1      41.106  15.098  37.065  0.00  0.00     0.038 H 
ATOM     21  H5  P5V d   1      42.873  14.868  37.298  0.00  0.00     0.038 H 
ATOM     22  H6  P5V d   1      42.973  16.940  36.139  0.00  0.00     0.035 H 
ATOM     23  H7  P5V d   1      41.413  16.656  35.294  0.00  0.00     0.035 H 
ATOM     24  H15 P5V d   1      41.689  10.625  36.501  0.00  0.00     0.169 HD
ATOM     25  H16 P5V d   1      44.190  15.742  34.541  0.00  0.00     0.064 H 
ATOM     26  H17 P5V d   1      42.748  15.969  33.494  0.00  0.00     0.064 H 
ENDROOT
BRANCH   9  27
ATOM     27  C17 P5V d   1      44.160  13.646  32.360  0.00  0.00     0.024 A 
ATOM     28  C18 P5V d   1      44.511  12.606  31.300  0.00  0.00    -0.053 A 
ATOM     29  C19 P5V d   1      43.505  13.722  30.986  0.00  0.00    -0.053 A 
ATOM     30  H9  P5V d   1      44.165  11.568  31.411  0.00  0.00     0.034 H 
ATOM     31  H10 P5V d   1      45.505  12.613  30.830  0.00  0.00     0.034 H 
ATOM     32  H11 P5V d   1      43.778  14.529  30.290  0.00  0.00     0.034 H 
ATOM     33  H12 P5V d   1      42.437  13.484  30.871  0.00  0.00     0.034 H 
ATOM     34  H8  P5V d   1      44.892  14.400  32.686  0.00  0.00     0.054 H 
ENDBRANCH   9  27
BRANCH   5  35
ATOM     35  C20 P5V d   1      37.191  14.377  34.035  0.00  0.00    -0.024 A 
ATOM     36  C21 P5V d   1      36.117  13.737  33.447  0.00  0.00    -0.042 A 
ATOM     37  C22 P5V d   1      35.054  14.480  32.951  0.00  0.00     0.086 A 
ATOM     38  H13 P5V d   1      36.104  12.656  33.373  0.00  0.00     0.088 H 
ATOM     39  C27 P5V d   1      35.066  15.895  33.033  0.00  0.00     0.085 A 
ATOM     40  N23 P5V d   1      34.026  13.850  32.378  0.00  0.00    -0.257 NA
ATOM     41  N26 P5V d   1      34.035  16.611  32.546  0.00  0.00    -0.257 NA
ATOM     42  C28 P5V d   1      36.150  16.514  33.633  0.00  0.00    -0.052 A 
ATOM     43  C25 P5V d   1      33.012  15.962  32.005  0.00  0.00     0.020 A 
ATOM     44  C24 P5V d   1      33.018  14.564  31.907  0.00  0.00     0.020 A 
ATOM     45  H18 P5V d   1      32.160  16.520  31.634  0.00  0.00     0.117 H 
ATOM     46  H14 P5V d   1      32.182  14.059  31.437  0.00  0.00     0.117 H 
ATOM     47  C29 P5V d   1      37.176  15.779  34.100  0.00  0.00    -0.070 A 
ATOM     48  H19 P5V d   1      36.172  17.594  33.727  0.00  0.00     0.087 H 
ATOM     49  H20 P5V d   1      38.023  16.289  34.543  0.00  0.00     0.084 H 
ENDBRANCH   5  35
TORSDOF 2
