REMARK  10 active torsions:
REMARK  status: ('A' for Active; 'I' for Inactive)
REMARK    1  A    between atoms: C13_1  and  O1_2 
REMARK    2  A    between atoms: O1_2  and  C12_3 
REMARK    3  A    between atoms: C12_3  and  C9_4 
REMARK    4  A    between atoms: C1_11  and  C11_12 
REMARK    5  A    between atoms: C1_11  and  C2_13 
REMARK    6  A    between atoms: C4_20  and  N3_21 
REMARK       I    between atoms: N3_21  and  C15_22 
REMARK    7  A    between atoms: C15_22  and  C16_24 
REMARK    8  A    between atoms: C18_29  and  O3_30 
REMARK    9  A    between atoms: O3_30  and  C20_31 
REMARK   10  A    between atoms: C20_31  and  C21_32 
ROOT
ATOM      1  C21 P6J d   1      73.343  44.501  -1.324  0.00  0.00    -0.091 C 
ATOM      2  C22 P6J d   1      74.205  45.159  -1.724  0.00  0.00    -0.152 C 
ATOM      3  H22 P6J d   1      74.993  45.760  -2.089  0.00  0.00     0.166 H 
ENDROOT
BRANCH   1   4
ATOM      4  C20 P6J d   1      72.236  43.686  -0.815  0.00  0.00     0.081 C 
ATOM      5  H20 P6J d   1      71.757  43.161  -1.655  0.00  0.00     0.094 H 
ATOM      6  H21 P6J d   1      72.628  42.950  -0.098  0.00  0.00     0.094 H 
BRANCH   4   7
ATOM      7  O3  P6J d   1      71.260  44.517  -0.156  0.00  0.00    -0.321 OA
BRANCH   7   8
ATOM      8  C18 P6J d   1      71.590  45.060   1.045  0.00  0.00     0.182 A 
ATOM      9  N5  P6J d   1      72.742  44.801   1.700  0.00  0.00    -0.233 NA
ATOM     10  C19 P6J d   1      72.994  45.382   2.867  0.00  0.00     0.038 A 
ATOM     11  C16 P6J d   1      72.075  46.263   3.426  0.00  0.00     0.141 A 
ATOM     12  H18 P6J d   1      73.921  45.168   3.387  0.00  0.00     0.118 H 
ATOM     13  N4  P6J d   1      70.932  46.508   2.772  0.00  0.00    -0.250 NA
ATOM     14  C17 P6J d   1      70.674  45.935   1.611  0.00  0.00     0.054 A 
ATOM     15  H19 P6J d   1      69.743  46.149   1.098  0.00  0.00     0.121 H 
BRANCH  11  16
ATOM     16  C15 P6J d   1      72.344  46.928   4.781  0.00  0.00     0.276 C 
ATOM     17  N3  P6J d   1      71.259  47.485   5.353  0.00  0.00    -0.322 N 
ATOM     18  H17 P6J d   1      70.424  47.490   4.803  0.00  0.00     0.169 HD
ATOM     19  O2  P6J d   1      73.498  46.944   5.226  0.00  0.00    -0.266 OA
BRANCH  17  20
ATOM     20  C4  P6J d   1      71.168  48.036   6.579  0.00  0.00     0.038 A 
ATOM     21  C3  P6J d   1      69.909  48.444   7.038  0.00  0.00    -0.045 A 
ATOM     22  C2  P6J d   1      69.701  48.957   8.318  0.00  0.00     0.014 A 
ATOM     23  H15 P6J d   1      69.060  48.357   6.370  0.00  0.00     0.088 H 
ATOM     24  C7  P6J d   1      70.812  49.075   9.159  0.00  0.00     0.163 A 
ATOM     25  F1  P6J d   1      70.686  49.563  10.405  0.00  0.00    -0.202 F 
ATOM     26  C6  P6J d   1      72.063  48.670   8.733  0.00  0.00     0.157 A 
ATOM     27  F2  P6J d   1      73.102  48.791   9.594  0.00  0.00    -0.203 F 
ATOM     28  C5  P6J d   1      72.261  48.152   7.455  0.00  0.00    -0.017 A 
ATOM     29  H16 P6J d   1      73.250  47.841   7.139  0.00  0.00     0.091 H 
BRANCH  22  30
ATOM     30  C1  P6J d   1      68.316  49.436   8.806  0.00  0.00     0.064 C 
ATOM     31  C8  P6J d   1      67.861  48.695  10.074  0.00  0.00    -0.006 A 
ATOM     32  C9  P6J d   1      67.105  47.396   9.903  0.00  0.00     0.044 A 
ATOM     33  C14 P6J d   1      68.528  47.359  10.458  0.00  0.00    -0.039 A 
ATOM     34  H6  P6J d   1      67.574  49.416  10.853  0.00  0.00     0.046 H 
ATOM     35  S1  P6J d   1      66.932  46.724   8.228  0.00  0.00    -0.082 SA
ATOM     36  C10 P6J d   1      66.683  48.195   7.323  0.00  0.00     0.135 C 
ATOM     37  N2  P6J d   1      65.865  48.207   6.287  0.00  0.00    -0.380 N 
ATOM     38  N1  P6J d   1      67.316  49.367   7.708  0.00  0.00    -0.357 N 
ATOM     39  H9  P6J d   1      65.720  49.077   5.755  0.00  0.00     0.158 HD
ATOM     40  H10 P6J d   1      65.371  47.346   6.011  0.00  0.00     0.158 HD
ATOM     41  H11 P6J d   1      67.081  50.236   7.207  0.00  0.00     0.162 HD
ATOM     42  H7  P6J d   1      69.349  46.956   9.847  0.00  0.00     0.036 H 
ATOM     43  H8  P6J d   1      68.702  47.112  11.516  0.00  0.00     0.036 H 
BRANCH  32  44
ATOM     44  C12 P6J d   1      65.941  47.203  10.844  0.00  0.00     0.035 C 
ATOM     45  H4  P6J d   1      65.828  46.135  11.082  0.00  0.00     0.076 H 
ATOM     46  H5  P6J d   1      66.115  47.769  11.771  0.00  0.00     0.076 H 
BRANCH  44  47
ATOM     47  O1  P6J d   1      64.741  47.690  10.189  0.00  0.00    -0.394 OA
BRANCH  47  48
ATOM     48  C13 P6J d   1      64.531  49.093  10.407  0.00  0.00     0.004 C 
ATOM     49  H1  P6J d   1      63.612  49.411   9.892  0.00  0.00     0.066 H 
ATOM     50  H2  P6J d   1      65.388  49.658  10.011  0.00  0.00     0.066 H 
ATOM     51  H3  P6J d   1      64.432  49.286  11.485  0.00  0.00     0.066 H 
ENDBRANCH  47  48
ENDBRANCH  44  47
ENDBRANCH  32  44
BRANCH  30  52
ATOM     52  C11 P6J d   1      68.424  50.945   9.098  0.00  0.00    -0.048 C 
ATOM     53  H12 P6J d   1      68.750  51.472   8.189  0.00  0.00     0.031 H 
ATOM     54  H13 P6J d   1      69.157  51.112   9.901  0.00  0.00     0.031 H 
ATOM     55  H14 P6J d   1      67.442  51.329   9.412  0.00  0.00     0.031 H 
ENDBRANCH  30  52
ENDBRANCH  22  30
ENDBRANCH  17  20
ENDBRANCH  11  16
ENDBRANCH   7   8
ENDBRANCH   4   7
ENDBRANCH   1   4
TORSDOF 10
