REMARK  6 active torsions:
REMARK  status: ('A' for Active; 'I' for Inactive)
REMARK    1  A    between atoms: C01_5  and  C14_1 
REMARK    2  A    between atoms: C14_1  and  N15_15 
REMARK    3  A    between atoms: C05_9  and  B06_10 
REMARK    4  A    between atoms: B06_10  and  O08_12 
REMARK    5  A    between atoms: B06_10  and  O09_13 
REMARK    6  A    between atoms: B06_10  and  O07_11 
ROOT
ATOM      1  C13 HCQ d   1      -7.609   0.395 -17.694  0.00  0.00    -0.074 A 
ATOM      2  C12 HCQ d   1      -7.239   0.804 -16.359  0.00  0.00    -0.065 A 
ATOM      3  C11 HCQ d   1      -8.031   1.836 -15.636  0.00  0.00     0.014 A 
ATOM      4  C01 HCQ d   1      -8.756   1.005 -18.374  0.00  0.00    -0.032 A 
ATOM      5  C02 HCQ d   1      -9.566   2.006 -17.704  0.00  0.00    -0.064 A 
ATOM      6  C03 HCQ d   1      -9.149   2.381 -16.353  0.00  0.00    -0.018 A 
ATOM      7  C04 HCQ d   1      -9.959   3.353 -15.518  0.00  0.00    -0.071 A 
ATOM      8  C05 HCQ d   1      -9.126   3.428 -14.252  0.00  0.00    -0.078 A 
ATOM      9  S10 HCQ d   1      -7.815   2.402 -14.119  0.00  0.00    -0.108 SA
ATOM     10  H3  HCQ d   1      -7.032  -0.371 -18.199  0.00  0.00     0.084 H 
ATOM     11  H4  HCQ d   1      -6.377   0.355 -15.879  0.00  0.00     0.085 H 
ATOM     12  H5  HCQ d   1     -10.433   2.451 -18.179  0.00  0.00     0.085 H 
ATOM     13  H6  HCQ d   1     -10.890   3.862 -15.762  0.00  0.00     0.084 H 
ENDROOT
BRANCH   8  14
ATOM     14  B06 HCQ d   1      -9.382   4.523 -13.115  0.00  0.00     0.144 B 
BRANCH  14  15
ATOM     15  O08 HCQ d   1      -8.806   4.061 -11.822  0.00  0.00     0.000 OA
ATOM     16  H10 HCQ d   1      -9.306   3.320 -11.501  0.00  0.00     0.000 HD
ATOM     17  H11 HCQ d   1      -9.306   3.320 -11.501  0.00  0.00     0.000 HD
ENDBRANCH  14  15
BRANCH  14  18
ATOM     18  O09 HCQ d   1     -10.784   4.918 -12.875  0.00  0.00     0.000 OA
ATOM     19  H12 HCQ d   1     -11.271   4.171 -12.547  0.00  0.00     0.000 HD
ATOM     20  H13 HCQ d   1     -11.271   4.171 -12.547  0.00  0.00     0.000 HD
ENDBRANCH  14  18
BRANCH  14  21
ATOM     21  O07 HCQ d   1      -8.683   5.878 -13.404  0.00  0.00     0.000 OA
ATOM     22  H8  HCQ d   1      -8.870   6.486 -12.699  0.00  0.00     0.000 HD
ATOM     23  H9  HCQ d   1      -8.870   6.486 -12.699  0.00  0.00     0.000 HD
ENDBRANCH  14  21
ENDBRANCH   8  14
BRANCH   4  24
ATOM     24  C14 HCQ d   1      -9.227   0.672 -19.786  0.00  0.00     0.103 C 
ATOM     25  H1  HCQ d   1      -8.582   1.207 -20.498  0.00  0.00     0.082 H 
ATOM     26  H2  HCQ d   1     -10.264   1.024 -19.894  0.00  0.00     0.082 H 
BRANCH  24  27
ATOM     27  N15 HCQ d   1      -9.192  -0.722 -20.112  0.00  0.00    -0.075 N 
ATOM     28  H14 HCQ d   1      -9.517  -0.854 -21.057  0.00  0.00     0.274 HD
ATOM     29  H15 HCQ d   1      -9.788  -1.230 -19.477  0.00  0.00     0.274 HD
ATOM     30  H16 HCQ d   1      -8.247  -1.062 -20.031  0.00  0.00     0.274 HD
ENDBRANCH  24  27
ENDBRANCH   4  24
TORSDOF 6
