REMARK WARNING: 32 MAX_TORS EXCEEDED!!!
REMARK  66 active torsions:
REMARK  status: ('A' for Active; 'I' for Inactive)
REMARK    1  A    between atoms: C_1  and  CH3_3 
REMARK       I    between atoms: C_1  and  N_4 
REMARK    2  A    between atoms: CA_5  and  C_6 
REMARK       I    between atoms: C_6  and  N_11 
REMARK    3  A    between atoms: N_11  and  CA_12 
REMARK    4  A    between atoms: CA_12  and  CB_13 
REMARK    5  A    between atoms: CA_12  and  C_24 
REMARK    6  A    between atoms: CB_13  and  CG_14 
REMARK       I    between atoms: C_24  and  N_26 
REMARK    7  A    between atoms: N_26  and  CA_27 
REMARK    8  A    between atoms: CA_27  and  C_28 
REMARK    9  A    between atoms: CA_27  and  CB_30 
REMARK       I    between atoms: C_28  and  N_37 
REMARK   10  A    between atoms: CB_30  and  CG_31 
REMARK   11  A    between atoms: CG_31  and  CD_32 
REMARK   12  A    between atoms: CD_32  and  NE_33 
REMARK       I    between atoms: NE_33  and  CZ_34 
REMARK       I    between atoms: CZ_34  and  NH1_35 
REMARK       I    between atoms: CZ_34  and  NH2_36 
REMARK   13  A    between atoms: N_37  and  CA_38 
REMARK   14  A    between atoms: CA_38  and  C_39 
REMARK   15  A    between atoms: CA_38  and  CB_41 
REMARK       I    between atoms: C_39  and  N_45 
REMARK   16  A    between atoms: CB_41  and  CG_42 
REMARK   17  A    between atoms: CG_42  and  CD1_43 
REMARK   18  A    between atoms: CG_42  and  CD2_44 
REMARK   19  A    between atoms: N_45  and  CA_46 
REMARK   20  A    between atoms: CA_46  and  C_47 
REMARK   21  A    between atoms: CA_46  and  CB_49 
REMARK       I    between atoms: C_47  and  N_56 
REMARK   22  A    between atoms: CB_49  and  CG_50 
REMARK   23  A    between atoms: CG_50  and  CD_51 
REMARK   24  A    between atoms: CD_51  and  NE_52 
REMARK       I    between atoms: NE_52  and  CZ_53 
REMARK       I    between atoms: CZ_53  and  NH1_54 
REMARK   25  A    between atoms: N_56  and  CA_57 
REMARK   26  A    between atoms: CA_57  and  C_58 
REMARK   27  A    between atoms: CA_57  and  CB_60 
REMARK       I    between atoms: C_58  and  N_65 
REMARK   28  A    between atoms: CB_60  and  CG_61 
REMARK   29  A    between atoms: CG_61  and  CD_62 
REMARK   30  A    between atoms: CD_62  and  CE_63 
REMARK   31  A    between atoms: CE_63  and  NZ_64 
REMARK   32  A    between atoms: N_65  and  CA_66 
REMARK   33  A    between atoms: CA_66  and  CB_67 
REMARK   34  A    between atoms: CA_66  and  C1_68 
REMARK   35  A    between atoms: CB_67  and  CG_70 
REMARK       I    between atoms: C1_68  and  N_74 
REMARK   36  A    between atoms: CA_75  and  C_76 
REMARK       I    between atoms: C_76  and  N_82 
REMARK   37  A    between atoms: CG_79  and  OD1_81 
REMARK   38  A    between atoms: N_82  and  CA_83 
REMARK   39  A    between atoms: CA_83  and  C_84 
REMARK   40  A    between atoms: CA_83  and  CB_86 
REMARK       I    between atoms: C_84  and  N_90 
REMARK   41  A    between atoms: CB_86  and  CG_87 
REMARK   42  A    between atoms: N_90  and  CA_91 
REMARK   43  A    between atoms: CA_91  and  C_92 
REMARK   44  A    between atoms: CA_91  and  CB_94 
REMARK       I    between atoms: C_92  and  N_96 
REMARK   45  A    between atoms: CB_94  and  OG_95 
REMARK   46  A    between atoms: N_96  and  CA_97 
REMARK   47  A    between atoms: CA_97  and  C_98 
REMARK   48  A    between atoms: CA_97  and  CB_100 
REMARK       I    between atoms: C_98  and  N_107 
REMARK   49  A    between atoms: CB_100  and  CG_101 
REMARK   50  A    between atoms: N_107  and  CA_108 
REMARK   51  A    between atoms: CA_108  and  C_109 
REMARK   52  A    between atoms: CA_108  and  CB_111 
REMARK       I    between atoms: C_109  and  N_122 
REMARK   53  A    between atoms: CB_111  and  CG1_112 
REMARK   54  A    between atoms: N_122  and  CA_123 
REMARK   55  A    between atoms: CA_123  and  C_124 
REMARK   56  A    between atoms: CA_123  and  CB_126 
REMARK       I    between atoms: C_124  and  N_131 
REMARK   57  A    between atoms: CB_126  and  CG_127 
REMARK   58  A    between atoms: CG_127  and  CD_128 
REMARK   59  A    between atoms: CD_128  and  CE_129 
REMARK   60  A    between atoms: CE_129  and  NZ_130 
REMARK   61  A    between atoms: N_131  and  CA_132 
REMARK   62  A    between atoms: CA_132  and  C_133 
REMARK   63  A    between atoms: CA_132  and  CB_135 
REMARK       I    between atoms: C_133  and  N_140 
REMARK   64  A    between atoms: CB_135  and  CG_136 
REMARK   65  A    between atoms: CG_136  and  CD_137 
REMARK   66  A    between atoms: CA_141  and  C_142 
REMARK       I    between atoms: C_142  and  N_147 
ROOT
ATOM      1  CA  ACE d   1     167.711  11.393  13.692  0.00  0.00     0.090 C 
ATOM      2  H71 ACE d   1     167.080  11.009  14.507  0.00  0.00     0.087 H 
ENDROOT
BRANCH   1   3
ATOM      3  N   ACE d   1     166.884  11.987  12.639  0.00  0.00    -0.346 N 
ATOM      4  C   ACE d   1     165.575  11.687  12.466  0.00  0.00     0.241 C 
ATOM      5  O   ACE d   1     164.959  10.899  13.168  0.00  0.00    -0.271 OA
ATOM      6  H70 ACE d   1     167.307  12.646  12.017  0.00  0.00     0.163 HD
BRANCH   4   7
ATOM      7  CA  ACE d   1     164.854  12.352  11.312  0.00  0.00     0.089 C 
ATOM      8  H58 ACE d   1     165.433  13.218  10.959  0.00  0.00     0.087 H 
BRANCH   7   9
ATOM      9  N   ACE d   1     164.742  11.329  10.274  0.00  0.00    -0.346 N 
ATOM     10  C   ACE d   1     165.774  10.994   9.465  0.00  0.00     0.241 C 
ATOM     11  O   ACE d   1     166.872  11.525   9.535  0.00  0.00    -0.271 OA
ATOM     12  H57 ACE d   1     163.868  10.858  10.157  0.00  0.00     0.163 HD
BRANCH  10  13
ATOM     13  CA  ACE d   1     165.537   9.908   8.436  0.00  0.00     0.089 C 
ATOM     14  H45 ACE d   1     164.493   9.967   8.094  0.00  0.00     0.087 H 
BRANCH  13  15
ATOM     15  N   ACE d   1     166.422  10.091   7.286  0.00  0.00    -0.346 N 
ATOM     16  C   ACE d   1     166.175  11.002   6.307  0.00  0.00     0.241 C 
ATOM     17  O   ACE d   1     165.202  11.747   6.307  0.00  0.00    -0.271 OA
ATOM     18  H44 ACE d   1     167.242   9.523   7.217  0.00  0.00     0.163 HD
BRANCH  16  19
ATOM     19  CA  ACE d   1     167.165  11.114   5.159  0.00  0.00     0.089 C 
ATOM     20  H34 ACE d   1     167.561  12.140   5.139  0.00  0.00     0.087 H 
BRANCH  19  21
ATOM     21  N   ACE d   1     168.295  10.187   5.349  0.00  0.00    -0.346 N 
ATOM     22  C   ACE d   1     169.513  10.622   5.769  0.00  0.00     0.241 C 
ATOM     23  O   ACE d   1     169.758  11.792   6.020  0.00  0.00    -0.271 OA
ATOM     24  H33 ACE d   1     168.163   9.213   5.164  0.00  0.00     0.163 HD
BRANCH  22  25
ATOM     25  CA  ACE d   1     170.659   9.647   5.961  0.00  0.00     0.089 C 
ATOM     26  H21 ACE d   1     171.170   9.914   6.898  0.00  0.00     0.087 H 
BRANCH  25  27
ATOM     27  N   ACE d   1     170.228   8.247   6.062  0.00  0.00    -0.346 N 
ATOM     28  C   ACE d   1     169.415   7.758   7.039  0.00  0.00     0.241 C 
ATOM     29  O   ACE d   1     168.939   8.428   7.946  0.00  0.00    -0.271 OA
ATOM     30  H20 ACE d   1     170.554   7.608   5.365  0.00  0.00     0.163 HD
BRANCH  28  31
ATOM     31  CA  ACE d   1     169.071   6.284   7.027  0.00  0.00     0.093 C 
ATOM     32  H12 ACE d   1     168.151   6.103   7.603  0.00  0.00     0.088 H 
BRANCH  31  33
ATOM     33  N   ACE d   1     168.889   5.838   5.644  0.00  0.00    -0.346 N 
ATOM     34  C   ACE d   1     168.023   6.388   4.753  0.00  0.00     0.241 C 
ATOM     35  O   ACE d   1     167.288   7.340   5.000  0.00  0.00    -0.271 OA
ATOM     36  H11 ACE d   1     169.446   5.069   5.331  0.00  0.00     0.163 HD
BRANCH  34  37
ATOM     37  CA  ACE d   1     168.014   5.757   3.371  0.00  0.00     0.091 C 
ATOM     38  N   ACE d   1     166.675   5.711   2.775  0.00  0.00    -0.339 N 
ATOM     39  C   ACE d   1     165.649   5.067   3.404  0.00  0.00     0.216 C 
ATOM     40  CD  ACE d   1     166.515   6.373   1.485  0.00  0.00    -0.001 C 
ATOM     41  O   ACE d   1     165.812   4.513   4.484  0.00  0.00    -0.274 OA
ATOM     42  CG  ACE d   1     167.672   7.394   1.561  0.00  0.00    -0.048 C 
ATOM     43  H9  ACE d   1     165.537   6.870   1.400  0.00  0.00     0.064 H 
ATOM     44  H10 ACE d   1     166.644   5.672   0.648  0.00  0.00     0.064 H 
ATOM     45  CB  ACE d   1     168.769   6.663   2.364  0.00  0.00    -0.036 C 
ATOM     46  H7  ACE d   1     168.032   7.652   0.554  0.00  0.00     0.035 H 
ATOM     47  H8  ACE d   1     167.352   8.309   2.081  0.00  0.00     0.035 H 
ATOM     48  H5  ACE d   1     169.394   6.055   1.694  0.00  0.00     0.036 H 
ATOM     49  H6  ACE d   1     169.401   7.388   2.898  0.00  0.00     0.036 H 
ATOM     50  H4  ACE d   1     168.458   4.752   3.425  0.00  0.00     0.087 H 
BRANCH  39  51
ATOM     51  CH3 ACE d   1     164.260   5.010   2.814  0.00  0.00    -0.003 C 
ATOM     52  H1  ACE d   1     164.249   5.541   1.851  0.00  0.00     0.040 H 
ATOM     53  H2  ACE d   1     163.549   5.487   3.504  0.00  0.00     0.040 H 
ATOM     54  H3  ACE d   1     163.971   3.960   2.657  0.00  0.00     0.040 H 
ENDBRANCH  39  51
ENDBRANCH  34  37
ENDBRANCH  31  33
BRANCH  31  55
ATOM     55  CB  ACE d   1     170.257   5.524   7.661  0.00  0.00    -0.012 C 
ATOM     56  H13 ACE d   1     170.579   6.065   8.563  0.00  0.00     0.044 H 
ATOM     57  H14 ACE d   1     171.084   5.495   6.936  0.00  0.00     0.044 H 
BRANCH  55  58
ATOM     58  CG  ACE d   1     169.905   4.113   8.046  0.00  0.00    -0.028 A 
ATOM     59  CD2 ACE d   1     169.227   3.701   9.326  0.00  0.00    -0.002 A 
ATOM     60  CE3 ACE d   1     168.730   4.381  10.443  0.00  0.00    -0.069 A 
ATOM     61  CE2 ACE d   1     169.162   2.317   9.201  0.00  0.00     0.044 A 
ATOM     62  CZ3 ACE d   1     168.151   3.594  11.448  0.00  0.00    -0.061 A 
ATOM     63  H15 ACE d   1     168.790   5.460  10.527  0.00  0.00     0.085 H 
ATOM     64  CH2 ACE d   1     168.079   2.195  11.331  0.00  0.00     0.036 A 
ATOM     65  H19 ACE d   1     167.750   4.074  12.334  0.00  0.00     0.086 H 
ATOM     66  CZ2 ACE d   1     168.587   1.521  10.198  0.00  0.00    -0.035 A 
ATOM     67 CLL  ACE d   1     167.344   1.283  12.632  0.00  0.00    -0.084 Cl
ATOM     68  H18 ACE d   1     168.534   0.442  10.106  0.00  0.00     0.089 H 
ATOM     69  NE1 ACE d   1     169.718   1.948   8.026  0.00  0.00    -0.365 N 
ATOM     70  CD1 ACE d   1     170.157   2.986   7.353  0.00  0.00    -0.015 A 
ATOM     71  H16 ACE d   1     169.788   0.974   7.699  0.00  0.00     0.165 HD
ATOM     72  H17 ACE d   1     170.650   2.942   6.383  0.00  0.00     0.112 H 
ENDBRANCH  55  58
ENDBRANCH  31  55
ENDBRANCH  28  31
ENDBRANCH  25  27
BRANCH  25  73
ATOM     73  CB  ACE d   1     171.678   9.765   4.788  0.00  0.00    -0.036 C 
ATOM     74  H22 ACE d   1     171.551  10.747   4.308  0.00  0.00     0.036 H 
ATOM     75  H23 ACE d   1     171.468   8.970   4.057  0.00  0.00     0.036 H 
BRANCH  73  76
ATOM     76  CG  ACE d   1     173.155   9.629   5.263  0.00  0.00    -0.048 C 
ATOM     77  H24 ACE d   1     173.700   9.000   4.543  0.00  0.00     0.035 H 
ATOM     78  H25 ACE d   1     173.164   9.147   6.252  0.00  0.00     0.035 H 
BRANCH  76  79
ATOM     79  CD  ACE d   1     173.879  11.001   5.372  0.00  0.00     0.009 C 
ATOM     80  H26 ACE d   1     173.290  11.762   4.838  0.00  0.00     0.064 H 
ATOM     81  H27 ACE d   1     174.875  10.919   4.912  0.00  0.00     0.064 H 
BRANCH  79  82
ATOM     82  NE  ACE d   1     174.030  11.408   6.775  0.00  0.00    -0.227 N 
ATOM     83  CZ  ACE d   1     174.137  12.647   7.210  0.00  0.00     0.665 C 
ATOM     84  NH1 ACE d   1     173.069  13.310   7.438  0.00  0.00    -0.235 N 
ATOM     85  NH2 ACE d   1     175.316  13.196   7.417  0.00  0.00    -0.235 N 
ATOM     86  H29 ACE d   1     173.128  14.280   7.779  0.00  0.00     0.174 HD
ATOM     87  H30 ACE d   1     172.149  12.874   7.281  0.00  0.00     0.174 HD
ATOM     88  H31 ACE d   1     176.174  12.658   7.232  0.00  0.00     0.174 HD
ATOM     89  H32 ACE d   1     175.380  14.164   7.764  0.00  0.00     0.174 HD
ATOM     90  H28 ACE d   1     174.054  10.659   7.481  0.00  0.00     0.177 HD
ENDBRANCH  79  82
ENDBRANCH  76  79
ENDBRANCH  73  76
ENDBRANCH  25  73
ENDBRANCH  22  25
ENDBRANCH  19  21
BRANCH  19  91
ATOM     91  CB  ACE d   1     166.438  10.838   3.804  0.00  0.00    -0.035 C 
ATOM     92  H35 ACE d   1     165.587  11.531   3.729  0.00  0.00     0.037 H 
ATOM     93  H36 ACE d   1     166.068   9.802   3.823  0.00  0.00     0.037 H 
BRANCH  91  94
ATOM     94  CG  ACE d   1     167.314  11.012   2.522  0.00  0.00    -0.059 C 
ATOM     95  H37 ACE d   1     168.125  10.271   2.566  0.00  0.00     0.038 H 
BRANCH  94  96
ATOM     96  CD1 ACE d   1     166.452  10.730   1.259  0.00  0.00    -0.073 C 
ATOM     97  H38 ACE d   1     167.071  10.853   0.358  0.00  0.00     0.028 H 
ATOM     98  H39 ACE d   1     165.610  11.437   1.225  0.00  0.00     0.028 H 
ATOM     99  H40 ACE d   1     166.066   9.701   1.301  0.00  0.00     0.028 H 
ENDBRANCH  94  96
BRANCH  94 100
ATOM    100  CD2 ACE d   1     167.964  12.424   2.400  0.00  0.00    -0.073 C 
ATOM    101  H41 ACE d   1     168.574  12.625   3.293  0.00  0.00     0.028 H 
ATOM    102  H42 ACE d   1     167.174  13.185   2.317  0.00  0.00     0.028 H 
ATOM    103  H43 ACE d   1     168.602  12.458   1.505  0.00  0.00     0.028 H 
ENDBRANCH  94 100
ENDBRANCH  91  94
ENDBRANCH  19  91
ENDBRANCH  16  19
ENDBRANCH  13  15
BRANCH  13 104
ATOM    104  CB  ACE d   1     165.781   8.508   9.066  0.00  0.00    -0.036 C 
ATOM    105  H46 ACE d   1     165.383   8.500  10.091  0.00  0.00     0.036 H 
ATOM    106  H47 ACE d   1     166.862   8.308   9.091  0.00  0.00     0.036 H 
BRANCH 104 107
ATOM    107  CG  ACE d   1     165.078   7.398   8.240  0.00  0.00    -0.048 C 
ATOM    108  H48 ACE d   1     165.289   7.561   7.173  0.00  0.00     0.035 H 
ATOM    109  H49 ACE d   1     163.993   7.459   8.413  0.00  0.00     0.035 H 
BRANCH 107 110
ATOM    110  CD  ACE d   1     165.569   5.982   8.637  0.00  0.00     0.009 C 
ATOM    111  H50 ACE d   1     165.056   5.670   9.559  0.00  0.00     0.064 H 
ATOM    112  H51 ACE d   1     166.654   6.016   8.815  0.00  0.00     0.064 H 
BRANCH 110 113
ATOM    113  NE  ACE d   1     165.290   5.006   7.583  0.00  0.00    -0.227 N 
ATOM    114  CZ  ACE d   1     164.358   4.077   7.658  0.00  0.00     0.665 C 
ATOM    115  NH1 ACE d   1     163.984   3.489   6.586  0.00  0.00    -0.235 N 
ATOM    116  NH2 ACE d   1     163.834   3.755   8.822  0.00  0.00    -0.235 N 
ATOM    117  H53 ACE d   1     163.257   2.760   6.625  0.00  0.00     0.174 HD
ATOM    118  H54 ACE d   1     164.410   3.744   5.683  0.00  0.00     0.174 HD
ATOM    119  H55 ACE d   1     164.145   4.237   9.678  0.00  0.00     0.174 HD
ATOM    120  H56 ACE d   1     163.113   3.021   8.877  0.00  0.00     0.174 HD
ATOM    121  H52 ACE d   1     165.860   5.048   6.726  0.00  0.00     0.177 HD
ENDBRANCH 110 113
ENDBRANCH 107 110
ENDBRANCH 104 107
ENDBRANCH  13 104
ENDBRANCH  10  13
ENDBRANCH   7   9
BRANCH   7 122
ATOM    122  CB  ACE d   1     163.405  12.795  11.654  0.00  0.00    -0.038 C 
ATOM    123  H59 ACE d   1     162.847  11.912  11.998  0.00  0.00     0.036 H 
ATOM    124  H60 ACE d   1     162.940  13.188  10.738  0.00  0.00     0.036 H 
BRANCH 122 125
ATOM    125  CG  ACE d   1     163.311  13.887  12.754  0.00  0.00    -0.061 C 
ATOM    126  H61 ACE d   1     163.689  14.839  12.354  0.00  0.00     0.033 H 
ATOM    127  H62 ACE d   1     163.921  13.585  13.618  0.00  0.00     0.033 H 
BRANCH 125 128
ATOM    128  CD  ACE d   1     161.835  14.070  13.206  0.00  0.00    -0.043 C 
ATOM    129  H63 ACE d   1     161.207  14.240  12.319  0.00  0.00     0.035 H 
ATOM    130  H64 ACE d   1     161.770  14.942  13.873  0.00  0.00     0.035 H 
BRANCH 128 131
ATOM    131  CE  ACE d   1     161.315  12.816  13.961  0.00  0.00     0.080 C 
ATOM    132  H65 ACE d   1     162.158  12.321  14.465  0.00  0.00     0.075 H 
ATOM    133  H66 ACE d   1     160.861  12.121  13.239  0.00  0.00     0.075 H 
BRANCH 131 134
ATOM    134  NZ  ACE d   1     160.305  13.202  14.967  0.00  0.00    -0.079 N 
ATOM    135  H67 ACE d   1     159.978  12.379  15.448  0.00  0.00     0.274 HD
ATOM    136  H68 ACE d   1     159.529  13.654  14.508  0.00  0.00     0.274 HD
ATOM    137  H69 ACE d   1     160.718  13.837  15.632  0.00  0.00     0.274 HD
ENDBRANCH 131 134
ENDBRANCH 128 131
ENDBRANCH 125 128
ENDBRANCH 122 125
ENDBRANCH   7 122
ENDBRANCH   4   7
ENDBRANCH   1   3
BRANCH   1 138
ATOM    138  CB  ACE d   1     168.559  10.240  13.050  0.00  0.00    -0.035 C 
ATOM    139  H72 ACE d   1     169.236   9.839  13.819  0.00  0.00     0.037 H 
ATOM    140  H73 ACE d   1     169.151  10.664  12.225  0.00  0.00     0.037 H 
BRANCH 138 141
ATOM    141  CG  ACE d   1     167.705   9.064  12.487  0.00  0.00    -0.052 C 
ATOM    142  CD1 ACE d   1     168.453   7.746  12.136  0.00  0.00    -0.062 C 
ATOM    143  CE  ACE d   1     167.222   6.992  12.698  0.00  0.00    -0.064 C 
ATOM    144  H75 ACE d   1     169.387   7.584  12.694  0.00  0.00     0.033 H 
ATOM    145  H76 ACE d   1     168.636   7.592  11.062  0.00  0.00     0.033 H 
ATOM    146  CD2 ACE d   1     166.850   8.267  13.504  0.00  0.00    -0.062 C 
ATOM    147  H79 ACE d   1     167.470   6.119  13.319  0.00  0.00     0.033 H 
ATOM    148  H80 ACE d   1     166.481   6.703  11.938  0.00  0.00     0.033 H 
ATOM    149  H77 ACE d   1     165.779   8.517  13.501  0.00  0.00     0.033 H 
ATOM    150  H78 ACE d   1     167.228   8.285  14.537  0.00  0.00     0.033 H 
ATOM    151  H74 ACE d   1     167.114   9.456  11.646  0.00  0.00     0.040 H 
ENDBRANCH 138 141
ENDBRANCH   1 138
BRANCH   1 152
ATOM    152  C1  ACE d   1     168.681  12.430  14.213  0.00  0.00     0.243 C 
ATOM    153  O   ACE d   1     168.955  13.334  13.434  0.00  0.00    -0.271 OA
ATOM    154  N   ACE d   1     169.245  12.347  15.454  0.00  0.00    -0.334 N 
ATOM    155  CA  ACE d   1     170.194  13.358  15.905  0.00  0.00     0.094 C 
ATOM    156  CD  ACE d   1     168.933  11.270  16.390  0.00  0.00     0.022 C 
ATOM    157  CB  ACE d   1     170.532  12.835  17.327  0.00  0.00    -0.012 C 
ATOM    158  H81 ACE d   1     169.744  14.362  15.926  0.00  0.00     0.088 H 
ATOM    159  CG  ACE d   1     169.319  11.959  17.715  0.00  0.00     0.053 C 
ATOM    160  H82 ACE d   1     170.649  13.672  18.032  0.00  0.00     0.040 H 
ATOM    161  H83 ACE d   1     171.455  12.237  17.312  0.00  0.00     0.040 H 
ATOM    162  H84 ACE d   1     169.619  11.208  18.460  0.00  0.00     0.085 H 
ATOM    163  H85 ACE d   1     169.542  10.374  16.201  0.00  0.00     0.068 H 
ATOM    164  H86 ACE d   1     167.867  11.001  16.364  0.00  0.00     0.068 H 
BRANCH 155 165
ATOM    165  C   ACE d   1     171.448  13.365  15.054  0.00  0.00     0.241 C 
ATOM    166  O   ACE d   1     171.756  12.346  14.445  0.00  0.00    -0.271 OA
ATOM    167  N   ACE d   1     172.181  14.510  15.041  0.00  0.00    -0.346 N 
ATOM    168  H88 ACE d   1     171.853  15.289  15.576  0.00  0.00     0.163 HD
BRANCH 167 169
ATOM    169  CA  ACE d   1     173.426  14.661  14.284  0.00  0.00     0.098 C 
ATOM    170  H89 ACE d   1     173.197  14.565  13.212  0.00  0.00     0.088 H 
BRANCH 169 171
ATOM    171  C   ACE d   1     174.469  13.630  14.685  0.00  0.00     0.241 C 
ATOM    172  O   ACE d   1     175.202  13.165  13.817  0.00  0.00    -0.271 OA
ATOM    173  N   ACE d   1     174.544  13.281  16.005  0.00  0.00    -0.344 N 
ATOM    174  H92 ACE d   1     173.902  13.705  16.643  0.00  0.00     0.163 HD
BRANCH 173 175
ATOM    175  CA  ACE d   1     175.520  12.314  16.538  0.00  0.00     0.109 C 
ATOM    176  H93 ACE d   1     176.525  12.710  16.331  0.00  0.00     0.090 H 
BRANCH 175 177
ATOM    177  C   ACE d   1     175.426  10.957  15.853  0.00  0.00     0.243 C 
ATOM    178  O   ACE d   1     176.466  10.316  15.762  0.00  0.00    -0.271 OA
ATOM    179  N   ACE d   1     174.233  10.527  15.368  0.00  0.00    -0.346 N 
ATOM    180  H97 ACE d   1     173.436  11.122  15.473  0.00  0.00     0.163 HD
BRANCH 179 181
ATOM    181  CA  ACE d   1     174.052   9.230  14.695  0.00  0.00     0.093 C 
ATOM    182  H98 ACE d   1     174.217   8.426  15.427  0.00  0.00     0.088 H 
BRANCH 181 183
ATOM    183  C   ACE d   1     175.038   9.028  13.564  0.00  0.00     0.241 C 
ATOM    184  O   ACE d   1     175.381   7.873  13.328  0.00  0.00    -0.271 OA
ATOM    185  N   ACE d   1     175.504  10.119  12.895  0.00  0.00    -0.346 N 
ATOM    186 6H10 ACE d   1     175.184  11.028  13.162  0.00  0.00     0.163 HD
BRANCH 185 187
ATOM    187  CA  ACE d   1     176.463   9.993  11.793  0.00  0.00     0.093 C 
ATOM    188 7H10 ACE d   1     176.554   8.925  11.545  0.00  0.00     0.088 H 
BRANCH 187 189
ATOM    189  C   ACE d   1     177.834  10.491  12.183  0.00  0.00     0.241 C 
ATOM    190  O   ACE d   1     178.630  10.715  11.287  0.00  0.00    -0.271 OA
ATOM    191  N   ACE d   1     178.133  10.657  13.496  0.00  0.00    -0.346 N 
ATOM    192 7H11 ACE d   1     177.444  10.452  14.191  0.00  0.00     0.163 HD
BRANCH 191 193
ATOM    193  CA  ACE d   1     179.456  11.134  13.903  0.00  0.00     0.089 C 
ATOM    194 8H11 ACE d   1     180.102  11.205  13.016  0.00  0.00     0.087 H 
BRANCH 193 195
ATOM    195  C   ACE d   1     180.044  10.122  14.861  0.00  0.00     0.241 C 
ATOM    196  O   ACE d   1     179.631  10.101  16.020  0.00  0.00    -0.271 OA
ATOM    197  N   ACE d   1     180.993   9.283  14.367  0.00  0.00    -0.346 N 
ATOM    198 0H13 ACE d   1     181.277   9.363  13.412  0.00  0.00     0.163 HD
BRANCH 197 199
ATOM    199  CA  ACE d   1     181.601   8.266  15.220  0.00  0.00     0.090 C 
ATOM    200 1H13 ACE d   1     180.801   7.630  15.628  0.00  0.00     0.087 H 
BRANCH 199 201
ATOM    201  C   ACE d   1     182.340   8.924  16.377  0.00  0.00     0.243 C 
ATOM    202  O   ACE d   1     183.218   9.711  16.043  0.00  0.00    -0.271 OA
ATOM    203  N   ACE d   1     182.058   8.647  17.695  0.00  0.00    -0.337 N 
ATOM    204  CA  ACE d   1     182.801   9.274  18.791  0.00  0.00     0.091 C 
ATOM    205  CD  ACE d   1     181.016   7.702  18.086  0.00  0.00    -0.001 C 
ATOM    206  CB  ACE d   1     182.238   8.515  20.020  0.00  0.00    -0.036 C 
ATOM    207 6H13 ACE d   1     182.615  10.357  18.845  0.00  0.00     0.087 H 
ATOM    208  CG  ACE d   1     180.845   8.030  19.584  0.00  0.00    -0.048 C 
ATOM    209 7H13 ACE d   1     182.159   9.187  20.887  0.00  0.00     0.036 H 
ATOM    210 8H13 ACE d   1     182.882   7.661  20.276  0.00  0.00     0.036 H 
ATOM    211 9H13 ACE d   1     180.093   8.820  19.728  0.00  0.00     0.035 H 
ATOM    212 0H14 ACE d   1     180.548   7.134  20.149  0.00  0.00     0.035 H 
ATOM    213 1H14 ACE d   1     181.341   6.662  17.938  0.00  0.00     0.064 H 
ATOM    214 2H14 ACE d   1     180.085   7.878  17.528  0.00  0.00     0.064 H 
BRANCH 204 215
ATOM    215  C   ACE d   1     184.285   8.998  18.683  0.00  0.00     0.238 C 
ATOM    216  O   ACE d   1     184.690   8.040  18.032  0.00  0.00    -0.271 OA
ATOM    217  N   ACE d   1     185.131   9.836  19.321  0.00  0.00    -0.368 N 
ATOM    218 3H14 ACE d   1     186.118   9.684  19.271  0.00  0.00     0.159 HD
ATOM    219 4H14 ACE d   1     184.770  10.609  19.843  0.00  0.00     0.159 HD
ENDBRANCH 204 215
ENDBRANCH 199 201
BRANCH 199 220
ATOM    220  CB  ACE d   1     182.582   7.368  14.412  0.00  0.00    -0.029 C 
ATOM    221 2H13 ACE d   1     183.358   8.000  13.955  0.00  0.00     0.037 H 
ATOM    222 3H13 ACE d   1     182.025   6.843  13.622  0.00  0.00     0.037 H 
BRANCH 220 223
ATOM    223  CG  ACE d   1     183.258   6.320  15.345  0.00  0.00     0.018 C 
ATOM    224 4H13 ACE d   1     182.468   5.861  15.958  0.00  0.00     0.049 H 
ATOM    225 5H13 ACE d   1     183.961   6.859  15.997  0.00  0.00     0.049 H 
BRANCH 223 226
ATOM    226  CD  ACE d   1     184.019   5.208  14.673  0.00  0.00     0.172 C 
ATOM    227  OE1 ACE d   1     184.274   5.364  13.371  0.00  0.00    -0.648 OA
ATOM    228  OE2 ACE d   1     184.383   4.219  15.297  0.00  0.00    -0.648 OA
ENDBRANCH 223 226
ENDBRANCH 220 223
ENDBRANCH 199 220
ENDBRANCH 197 199
ENDBRANCH 193 195
BRANCH 193 229
ATOM    229  CB  ACE d   1     179.359  12.543  14.557  0.00  0.00    -0.038 C 
ATOM    230 9H11 ACE d   1     180.306  12.761  15.073  0.00  0.00     0.036 H 
ATOM    231 0H12 ACE d   1     178.536  12.540  15.287  0.00  0.00     0.036 H 
BRANCH 229 232
ATOM    232  CG  ACE d   1     179.093  13.653  13.505  0.00  0.00    -0.061 C 
ATOM    233 1H12 ACE d   1     178.440  14.419  13.949  0.00  0.00     0.033 H 
ATOM    234 2H12 ACE d   1     178.594  13.207  12.632  0.00  0.00     0.033 H 
BRANCH 232 235
ATOM    235  CD  ACE d   1     180.419  14.322  13.044  0.00  0.00    -0.043 C 
ATOM    236 3H12 ACE d   1     181.267  13.709  13.384  0.00  0.00     0.035 H 
ATOM    237 4H12 ACE d   1     180.489  15.325  13.491  0.00  0.00     0.035 H 
BRANCH 235 238
ATOM    238  CE  ACE d   1     180.478  14.453  11.497  0.00  0.00     0.080 C 
ATOM    239 5H12 ACE d   1     181.192  15.244  11.224  0.00  0.00     0.075 H 
ATOM    240 6H12 ACE d   1     179.480  14.712  11.113  0.00  0.00     0.075 H 
BRANCH 238 241
ATOM    241  NZ  ACE d   1     180.915  13.169  10.905  0.00  0.00    -0.079 N 
ATOM    242 7H12 ACE d   1     180.952  13.257   9.902  0.00  0.00     0.274 HD
ATOM    243 8H12 ACE d   1     180.261  12.444  11.155  0.00  0.00     0.274 HD
ATOM    244 9H12 ACE d   1     181.830  12.931  11.256  0.00  0.00     0.274 HD
ENDBRANCH 238 241
ENDBRANCH 235 238
ENDBRANCH 232 235
ENDBRANCH 229 232
ENDBRANCH 193 229
ENDBRANCH 191 193
ENDBRANCH 187 189
BRANCH 187 245
ATOM    245  CB  ACE d   1     175.932  10.736  10.534  0.00  0.00    -0.013 C 
ATOM    246 8H10 ACE d   1     176.699  10.728   9.746  0.00  0.00     0.043 H 
ATOM    247 9H10 ACE d   1     175.683  11.776  10.793  0.00  0.00     0.043 H 
BRANCH 245 248
ATOM    248  CG1 ACE d   1     174.665  10.003  10.038  0.00  0.00    -0.045 A 
ATOM    249  CD1 ACE d   1     174.848   8.763   9.396  0.00  0.00    -0.076 A 
ATOM    250  CE1 ACE d   1     173.761   8.022   8.921  0.00  0.00    -0.082 A 
ATOM    251 0H11 ACE d   1     175.852   8.375   9.267  0.00  0.00     0.084 H 
ATOM    252  CZ1 ACE d   1     172.469   8.530   9.082  0.00  0.00    -0.072 A 
ATOM    253 1H11 ACE d   1     173.919   7.066   8.434  0.00  0.00     0.083 H 
ATOM    254  CE2 ACE d   1     172.271   9.765   9.718  0.00  0.00    -0.025 A 
ATOM    255 2H11 ACE d   1     171.618   7.968   8.715  0.00  0.00     0.084 H 
ATOM    256  CD2 ACE d   1     173.364  10.512  10.204  0.00  0.00    -0.020 A 
ATOM    257  CZ2 ACE d   1     170.962  10.250   9.865  0.00  0.00    -0.072 A 
ATOM    258  CG2 ACE d   1     173.099  11.747  10.834  0.00  0.00    -0.072 A 
ATOM    259  CD3 ACE d   1     171.795  12.233  10.982  0.00  0.00    -0.082 A 
ATOM    260 3H11 ACE d   1     173.927  12.335  11.213  0.00  0.00     0.084 H 
ATOM    261  CE3 ACE d   1     170.726  11.481  10.490  0.00  0.00    -0.082 A 
ATOM    262 4H11 ACE d   1     171.617  13.183  11.473  0.00  0.00     0.083 H 
ATOM    263 5H11 ACE d   1     169.712  11.851  10.592  0.00  0.00     0.083 H 
ATOM    264 6H11 ACE d   1     170.127   9.667   9.492  0.00  0.00     0.084 H 
ENDBRANCH 245 248
ENDBRANCH 187 245
ENDBRANCH 185 187
ENDBRANCH 181 183
BRANCH 181 265
ATOM    265  CB  ACE d   1     172.581   9.172  14.220  0.00  0.00    -0.014 C 
ATOM    266  H99 ACE d   1     172.464   9.864  13.373  0.00  0.00     0.043 H 
ATOM    267 0H10 ACE d   1     171.937   9.496  15.050  0.00  0.00     0.043 H 
BRANCH 265 268
ATOM    268  CG  ACE d   1     172.121   7.772  13.768  0.00  0.00    -0.056 A 
ATOM    269  CD1 ACE d   1     172.278   7.363  12.428  0.00  0.00    -0.077 A 
ATOM    270  CE1 ACE d   1     171.834   6.099  12.012  0.00  0.00    -0.082 A 
ATOM    271 1H10 ACE d   1     172.746   8.031  11.713  0.00  0.00     0.084 H 
ATOM    272  CZ  ACE d   1     171.221   5.229  12.929  0.00  0.00    -0.083 A 
ATOM    273 3H10 ACE d   1     171.964   5.793  10.980  0.00  0.00     0.083 H 
ATOM    274  CE2 ACE d   1     171.056   5.633  14.267  0.00  0.00    -0.082 A 
ATOM    275 5H10 ACE d   1     170.877   4.252  12.608  0.00  0.00     0.083 H 
ATOM    276  CD2 ACE d   1     171.500   6.902  14.683  0.00  0.00    -0.077 A 
ATOM    277 4H10 ACE d   1     170.586   4.965  14.979  0.00  0.00     0.083 H 
ATOM    278 2H10 ACE d   1     171.363   7.211  15.713  0.00  0.00     0.084 H 
ENDBRANCH 265 268
ENDBRANCH 181 265
ENDBRANCH 179 181
ENDBRANCH 175 177
BRANCH 175 279
ATOM    279  CB  ACE d   1     175.368  12.211  18.078  0.00  0.00     0.044 C 
ATOM    280  H94 ACE d   1     175.728  13.139  18.545  0.00  0.00     0.077 H 
ATOM    281  H95 ACE d   1     175.958  11.360  18.449  0.00  0.00     0.077 H 
BRANCH 279 282
ATOM    282  OG  ACE d   1     173.983  12.014  18.408  0.00  0.00    -0.398 OA
ATOM    283  H96 ACE d   1     173.889  11.951  19.351  0.00  0.00     0.209 HD
ENDBRANCH 279 282
ENDBRANCH 175 279
ENDBRANCH 173 175
ENDBRANCH 169 171
BRANCH 169 284
ATOM    284  CB  ACE d   1     174.102  16.036  14.563  0.00  0.00     0.043 C 
ATOM    285  H90 ACE d   1     175.132  15.975  14.183  0.00  0.00     0.052 H 
ATOM    286  H91 ACE d   1     174.121  16.174  15.654  0.00  0.00     0.052 H 
BRANCH 284 287
ATOM    287  CG  ACE d   1     173.478  17.279  13.966  0.00  0.00     0.175 C 
ATOM    288  OD1 ACE d   1     172.451  17.099  13.128  0.00  0.00    -0.648 OA
ATOM    289  OD2 ACE d   1     173.912  18.390  14.255  0.00  0.00    -0.648 OA
ENDBRANCH 284 287
ENDBRANCH 169 284
ENDBRANCH 167 169
ENDBRANCH 155 165
BRANCH 159 290
ATOM    290  OD1 ACE d   1     168.235  12.728  18.257  0.00  0.00    -0.394 OA
ATOM    291  H87 ACE d   1     167.495  12.156  18.424  0.00  0.00     0.210 HD
ENDBRANCH 159 290
ENDBRANCH   1 152
TORSDOF 66
