REMARK WARNING: 32 MAX_TORS EXCEEDED!!!
REMARK  34 active torsions:
REMARK  status: ('A' for Active; 'I' for Inactive)
REMARK    1  A    between atoms: C3_3  and  C2_1 
REMARK    2  A    between atoms: C2_1  and  N_23 
REMARK       I    between atoms: N1_16  and  C3_3 
REMARK    3  A    between atoms: C4_6  and  N1_16 
REMARK    4  A    between atoms: C10_7  and  C23_44 
REMARK       I    between atoms: N_23  and  C1_17 
REMARK    5  A    between atoms: C1_17  and  C24_24 
REMARK       I    between atoms: N7_30  and  C18_39 
REMARK    6  A    between atoms: C19_40  and  N7_30 
REMARK       I    between atoms: N8_31  and  C20_41 
REMARK    7  A    between atoms: C21_42  and  N8_31 
REMARK       I    between atoms: C22_43  and  N9_32 
REMARK    8  A    between atoms: C18_39  and  C17_38 
REMARK    9  A    between atoms: C20_41  and  C19_40 
REMARK   10  A    between atoms: C21_42  and  C22_43 
REMARK   11  A    between atoms: CA_47  and  CB_50 
REMARK   12  A    between atoms: CB_50  and  CG_51 
REMARK   13  A    between atoms: CG_51  and  CD_52 
REMARK   14  A    between atoms: CD_52  and  NE_53 
REMARK       I    between atoms: NE_53  and  CZ_54 
REMARK       I    between atoms: CZ_54  and  NH1_55 
REMARK   15  A    between atoms: CA_58  and  CB_61 
REMARK   16  A    between atoms: CB_61  and  CG_62 
REMARK   17  A    between atoms: CG_62  and  CD1_63 
REMARK   18  A    between atoms: CG_62  and  CD2_64 
REMARK   19  A    between atoms: CA_66  and  CB_69 
REMARK   20  A    between atoms: CB_69  and  CG_70 
REMARK   21  A    between atoms: CZ_75  and  OH_76 
REMARK   22  A    between atoms: CA_82  and  CB_85 
REMARK   23  A    between atoms: CB_85  and  CG_86 
REMARK   24  A    between atoms: CA_93  and  CB_96 
REMARK   25  A    between atoms: CB_96  and  CG_97 
REMARK   26  A    between atoms: CG_97  and  CD_98 
REMARK   27  A    between atoms: CD_98  and  CE_99 
REMARK   28  A    between atoms: CE_99  and  NZ_100 
REMARK   29  A    between atoms: CA_102  and  CB_105 
REMARK   30  A    between atoms: CB_105  and  CG1_106 
REMARK   31  A    between atoms: CB_105  and  CG2_107 
REMARK   32  A    between atoms: CG1_106  and  CD1_108 
REMARK   33  A    between atoms: CA_110  and  CB_113 
REMARK   34  A    between atoms: CB_113  and  CG_114 
ROOT
ATOM      1  N2  HEK d   1      27.323  65.428  13.082  0.00  0.00    -0.258 N 
ATOM      2  C5  HEK d   1      26.478  66.562  12.712  0.00  0.00     0.045 C 
ATOM      3  C4  HEK d   1      25.301  66.050  11.877  0.00  0.00     0.106 C 
ATOM      4  C10 HEK d   1      30.427  61.044  15.542  0.00  0.00     0.042 A 
ATOM      5  C11 HEK d   1      30.257  61.262  16.909  0.00  0.00    -0.054 A 
ATOM      6  C12 HEK d   1      29.445  62.301  17.358  0.00  0.00    -0.002 A 
ATOM      7  C13 HEK d   1      28.791  63.115  16.435  0.00  0.00    -0.058 A 
ATOM      8  N3  HEK d   1      28.533  63.699  12.752  0.00  0.00    -0.130 NA
ATOM      9  C9  HEK d   1      29.782  61.872  14.625  0.00  0.00    -0.054 A 
ATOM     10  C8  HEK d   1      28.968  62.912  15.068  0.00  0.00    -0.002 A 
ATOM     11  C7  HEK d   1      28.348  63.830  14.098  0.00  0.00     0.108 A 
ATOM     12  O7  HEK d   1      24.895  63.853  12.688  0.00  0.00    -0.271 OA
ATOM     13  C6  HEK d   1      27.571  64.938  14.307  0.00  0.00     0.030 A 
ATOM     14  N4  HEK d   1      27.916  64.679  12.135  0.00  0.00    -0.066 NA
ATOM     15  N5  HEK d   1      29.366  62.544  20.955  0.00  0.00    -0.256 N 
ATOM     16  N6  HEK d   1      27.154  61.670  22.477  0.00  0.00    -0.075 NA
ATOM     17  N10 HEK d   1      28.698  63.653  20.594  0.00  0.00    -0.066 NA
ATOM     18  N11 HEK d   1      28.660  63.668  19.282  0.00  0.00    -0.130 NA
ATOM     19  C14 HEK d   1      29.310  62.568  18.803  0.00  0.00     0.108 A 
ATOM     20  C15 HEK d   1      29.763  61.849  19.876  0.00  0.00     0.030 A 
ATOM     21  C16 HEK d   1      29.593  62.242  22.365  0.00  0.00     0.072 C 
ATOM     22  C17 HEK d   1      28.508  61.347  22.973  0.00  0.00     0.266 A 
ATOM     23  C   HEK d   1      24.456  64.970  12.615  0.00  0.00     0.242 C 
ATOM     24  N   HEK d   1      23.128  65.226  12.667  0.00  0.00    -0.346 N 
ATOM     25  CA  HEK d   1      21.869  64.494  12.784  0.00  0.00     0.089 C 
ATOM     26  C   HEK d   1      21.737  63.388  11.740  0.00  0.00     0.241 C 
ATOM     27  O   HEK d   1      21.922  63.644  10.548  0.00  0.00    -0.271 OA
ATOM     28  N   HEK d   1      21.422  62.159  12.190  0.00  0.00    -0.346 N 
ATOM     29  CA  HEK d   1      21.207  61.014  11.310  0.00  0.00     0.089 C 
ATOM     30  C   HEK d   1      19.740  60.587  11.417  0.00  0.00     0.241 C 
ATOM     31  O   HEK d   1      19.306  60.116  12.475  0.00  0.00    -0.271 OA
ATOM     32  N   HEK d   1      18.977  60.806  10.319  0.00  0.00    -0.346 N 
ATOM     33  CA  HEK d   1      17.537  60.559  10.183  0.00  0.00     0.093 C 
ATOM     34  C   HEK d   1      16.721  61.374  11.206  0.00  0.00     0.241 C 
ATOM     35  O   HEK d   1      15.693  60.899  11.702  0.00  0.00    -0.271 OA
ATOM     36  N   HEK d   1      17.205  62.585  11.503  0.00  0.00    -0.351 N 
ATOM     37  CA  HEK d   1      16.589  63.512  12.447  0.00  0.00     0.069 C 
ATOM     38  C   HEK d   1      17.115  63.434  13.868  0.00  0.00     0.236 C 
ATOM     39  O   HEK d   1      16.877  64.352  14.661  0.00  0.00    -0.272 OA
ATOM     40  N   HEK d   1      17.824  62.333  14.209  0.00  0.00    -0.346 N 
ATOM     41  CA  HEK d   1      18.378  62.092  15.545  0.00  0.00     0.093 C 
ATOM     42  C   HEK d   1      19.758  62.675  15.704  0.00  0.00     0.241 C 
ATOM     43  O   HEK d   1      20.634  62.422  14.870  0.00  0.00    -0.271 OA
ATOM     44  N   HEK d   1      19.988  63.367  16.829  0.00  0.00    -0.346 N 
ATOM     45  CA  HEK d   1      21.309  63.879  17.184  0.00  0.00     0.089 C 
ATOM     46  C   HEK d   1      22.158  62.663  17.595  0.00  0.00     0.241 C 
ATOM     47  O   HEK d   1      21.609  61.629  17.993  0.00  0.00    -0.271 OA
ATOM     48  N   HEK d   1      23.479  62.769  17.462  0.00  0.00    -0.346 N 
ATOM     49  CA  HEK d   1      24.402  61.695  17.835  0.00  0.00     0.092 C 
ATOM     50  C   HEK d   1      24.893  61.948  19.257  0.00  0.00     0.241 C 
ATOM     51  O   HEK d   1      25.313  63.062  19.577  0.00  0.00    -0.271 OA
ATOM     52  N   HEK d   1      24.798  60.926  20.099  0.00  0.00    -0.346 N 
ATOM     53  CA  HEK d   1      25.180  61.025  21.528  0.00  0.00     0.092 C 
ATOM     54  C   HEK d   1      26.691  60.829  21.669  0.00  0.00     0.249 C 
ATOM     55  O   HEK d   1      27.158  59.819  21.137  0.00  0.00    -0.275 OA
ATOM     56  OXT HEK d   1      27.293  61.700  22.301  0.00  0.00    -0.251 OA
ATOM     57  H3  HEK d   1      27.064  67.282  12.122  0.00  0.00     0.071 H 
ATOM     58  H4  HEK d   1      26.100  67.053  13.621  0.00  0.00     0.071 H 
ATOM     59  H5  HEK d   1      25.736  65.556  10.996  0.00  0.00     0.090 H 
ATOM     60  H6  HEK d   1      30.759  60.621  17.625  0.00  0.00     0.086 H 
ATOM     61  H7  HEK d   1      28.141  63.910  16.782  0.00  0.00     0.086 H 
ATOM     62  H8  HEK d   1      29.914  61.706  13.562  0.00  0.00     0.086 H 
ATOM     63  H10 HEK d   1      27.228  65.336  15.261  0.00  0.00     0.118 H 
ATOM     64  H19 HEK d   1      30.324  60.916  19.859  0.00  0.00     0.118 H 
ATOM     65  H20 HEK d   1      29.620  63.188  22.925  0.00  0.00     0.075 H 
ATOM     66  H21 HEK d   1      30.562  61.731  22.461  0.00  0.00     0.075 H 
ATOM     67  H26 HEK d   1      22.958  66.210  12.608  0.00  0.00     0.163 HD
ATOM     68  H27 HEK d   1      21.866  64.011  13.773  0.00  0.00     0.087 H 
ATOM     69  H39 HEK d   1      21.331  62.023  13.177  0.00  0.00     0.163 HD
ATOM     70  H40 HEK d   1      21.398  61.332  10.274  0.00  0.00     0.087 H 
ATOM     71  H50 HEK d   1      19.445  61.175   9.516  0.00  0.00     0.163 HD
ATOM     72  H51 HEK d   1      17.246  60.916   9.184  0.00  0.00     0.088 H 
ATOM     73  H59 HEK d   1      18.046  62.875  11.047  0.00  0.00     0.163 HD
ATOM     74  H60 HEK d   1      15.509  63.304  12.472  0.00  0.00     0.078 H 
ATOM     75  H61 HEK d   1      16.757  64.535  12.078  0.00  0.00     0.078 H 
ATOM     76  H62 HEK d   1      17.980  61.640  13.505  0.00  0.00     0.163 HD
ATOM     77  H63 HEK d   1      17.707  62.556  16.283  0.00  0.00     0.088 H 
ATOM     78  H71 HEK d   1      19.224  63.540  17.451  0.00  0.00     0.163 HD
ATOM     79  H72 HEK d   1      21.763  64.381  16.317  0.00  0.00     0.087 H 
ATOM     80  H84 HEK d   1      23.857  63.618  17.092  0.00  0.00     0.163 HD
ATOM     81  H85 HEK d   1      23.827  60.758  17.849  0.00  0.00     0.088 H 
ATOM     82  H95 HEK d   1      24.454  60.052  19.755  0.00  0.00     0.163 HD
ATOM     83  H96 HEK d   1      24.907  62.020  21.911  0.00  0.00     0.087 H 
ENDROOT
BRANCH  22  84
ATOM     84  C18 HEK d   1      28.637  61.421  24.525  0.00  0.00     0.274 C 
ATOM     85  O2  HEK d   1      28.731  62.509  25.093  0.00  0.00    -0.268 OA
ATOM     86  N7  HEK d   1      28.691  60.248  25.160  0.00  0.00    -0.348 N 
ATOM     87  H15 HEK d   1      28.389  59.426  24.677  0.00  0.00     0.163 HD
BRANCH  86  88
ATOM     88  C19 HEK d   1      29.169  60.119  26.520  0.00  0.00     0.069 C 
ATOM     89  H22 HEK d   1      30.060  60.755  26.627  0.00  0.00     0.078 H 
ATOM     90  H23 HEK d   1      29.447  59.067  26.682  0.00  0.00     0.078 H 
BRANCH  88  91
ATOM     91  C20 HEK d   1      28.183  60.513  27.604  0.00  0.00     0.235 C 
ATOM     92  O3  HEK d   1      27.691  61.640  27.634  0.00  0.00    -0.272 OA
ATOM     93  N8  HEK d   1      27.957  59.586  28.535  0.00  0.00    -0.351 N 
ATOM     94  H16 HEK d   1      27.989  58.620  28.276  0.00  0.00     0.163 HD
BRANCH  93  95
ATOM     95  C21 HEK d   1      27.666  59.936  29.909  0.00  0.00     0.069 C 
ATOM     96  H24 HEK d   1      27.204  59.069  30.404  0.00  0.00     0.078 H 
ATOM     97  H25 HEK d   1      26.962  60.781  29.916  0.00  0.00     0.078 H 
BRANCH  95  98
ATOM     98  C22 HEK d   1      28.908  60.332  30.682  0.00  0.00     0.233 C 
ATOM     99  O4  HEK d   1      29.239  61.520  30.747  0.00  0.00    -0.272 OA
ATOM    100  N9  HEK d   1      29.614  59.354  31.230  0.00  0.00    -0.369 N 
ATOM    101  H17 HEK d   1      29.303  58.407  31.149  0.00  0.00     0.159 HD
ATOM    102  H18 HEK d   1      30.458  59.563  31.724  0.00  0.00     0.159 HD
ENDBRANCH  95  98
ENDBRANCH  93  95
ENDBRANCH  88  91
ENDBRANCH  86  88
ENDBRANCH  22  84
BRANCH  53 103
ATOM    103  CB  HEK d   1      24.432  59.956  22.325  0.00  0.00     0.003 C 
ATOM    104  H97 HEK d   1      24.951  58.995  22.196  0.00  0.00     0.046 H 
ATOM    105  H98 HEK d   1      23.408  59.876  21.930  0.00  0.00     0.046 H 
BRANCH 103 106
ATOM    106  CG  HEK d   1      24.358  60.262  23.772  0.00  0.00     0.053 A 
ATOM    107  ND1 HEK d   1      23.691  61.355  24.247  0.00  0.00    -0.247 NA
ATOM    108  CE1 HEK d   1      23.789  61.385  25.554  0.00  0.00     0.064 A 
ATOM    109  NE2 HEK d   1      24.511  60.345  25.938  0.00  0.00    -0.359 N 
ATOM    110 0H10 HEK d   1      23.352  62.136  26.210  0.00  0.00     0.143 H 
ATOM    111  CD2 HEK d   1      24.869  59.632  24.840  0.00  0.00     0.002 A 
ATOM    112 1H10 HEK d   1      24.760  60.114  26.910  0.00  0.00     0.166 HD
ATOM    113  H99 HEK d   1      25.461  58.718  24.828  0.00  0.00     0.114 H 
ENDBRANCH 103 106
ENDBRANCH  53 103
BRANCH  49 114
ATOM    114  CB  HEK d   1      25.558  61.488  16.805  0.00  0.00    -0.030 C 
ATOM    115  H86 HEK d   1      26.217  62.364  16.893  0.00  0.00     0.043 H 
BRANCH 114 116
ATOM    116  CG1 HEK d   1      25.052  61.457  15.332  0.00  0.00    -0.063 C 
ATOM    117  H87 HEK d   1      25.931  61.334  14.683  0.00  0.00     0.033 H 
ATOM    118  H88 HEK d   1      24.576  62.427  15.125  0.00  0.00     0.033 H 
BRANCH 116 119
ATOM    119  CD1 HEK d   1      24.023  60.335  14.950  0.00  0.00    -0.076 C 
ATOM    120  H92 HEK d   1      23.753  60.431  13.888  0.00  0.00     0.027 H 
ATOM    121  H93 HEK d   1      23.119  60.440  15.569  0.00  0.00     0.027 H 
ATOM    122  H94 HEK d   1      24.475  59.348  15.126  0.00  0.00     0.027 H 
ENDBRANCH 116 119
ENDBRANCH 114 116
BRANCH 114 123
ATOM    123  CG2 HEK d   1      26.414  60.255  17.135  0.00  0.00    -0.071 C 
ATOM    124  H89 HEK d   1      26.752  60.312  18.180  0.00  0.00     0.028 H 
ATOM    125  H90 HEK d   1      27.288  60.226  16.468  0.00  0.00     0.028 H 
ATOM    126  H91 HEK d   1      25.814  59.344  16.993  0.00  0.00     0.028 H 
ENDBRANCH 114 123
ENDBRANCH  49 114
BRANCH   4 127
ATOM    127  C23 HEK d   1      31.272  59.911  15.056  0.00  0.00     0.209 C 
ATOM    128  O6  HEK d   1      31.479  59.723  13.859  0.00  0.00    -0.644 OA
ATOM    129  O5  HEK d   1      31.784  59.156  15.993  0.00  0.00    -0.644 OA
ENDBRANCH   4 127
BRANCH  45 130
ATOM    130  CB  HEK d   1      21.209  64.877  18.357  0.00  0.00    -0.038 C 
ATOM    131  H73 HEK d   1      22.222  65.034  18.756  0.00  0.00     0.036 H 
ATOM    132  H74 HEK d   1      20.575  64.424  19.134  0.00  0.00     0.036 H 
BRANCH 130 133
ATOM    133  CG  HEK d   1      20.623  66.245  18.010  0.00  0.00    -0.061 C 
ATOM    134  H75 HEK d   1      19.799  66.114  17.293  0.00  0.00     0.033 H 
ATOM    135  H76 HEK d   1      21.407  66.869  17.557  0.00  0.00     0.033 H 
BRANCH 133 136
ATOM    136  CD  HEK d   1      20.091  66.940  19.265  0.00  0.00    -0.043 C 
ATOM    137  H77 HEK d   1      20.696  66.617  20.125  0.00  0.00     0.035 H 
ATOM    138  H78 HEK d   1      19.046  66.633  19.416  0.00  0.00     0.035 H 
BRANCH 136 139
ATOM    139  CE  HEK d   1      20.140  68.446  19.186  0.00  0.00     0.080 C 
ATOM    140  H79 HEK d   1      19.599  68.773  18.286  0.00  0.00     0.075 H 
ATOM    141  H80 HEK d   1      21.190  68.765  19.119  0.00  0.00     0.075 H 
BRANCH 139 142
ATOM    142  NZ  HEK d   1      19.519  69.080  20.379  0.00  0.00    -0.079 N 
ATOM    143  H81 HEK d   1      19.570  70.083  20.291  0.00  0.00     0.274 HD
ATOM    144  H82 HEK d   1      20.012  68.790  21.209  0.00  0.00     0.274 HD
ATOM    145  H83 HEK d   1      18.554  68.797  20.446  0.00  0.00     0.274 HD
ENDBRANCH 139 142
ENDBRANCH 136 139
ENDBRANCH 133 136
ENDBRANCH 130 133
ENDBRANCH  45 130
BRANCH  41 146
ATOM    146  CB  HEK d   1      18.487  60.583  15.838  0.00  0.00    -0.014 C 
ATOM    147  H64 HEK d   1      18.994  60.472  16.808  0.00  0.00     0.043 H 
ATOM    148  H65 HEK d   1      19.108  60.138  15.047  0.00  0.00     0.043 H 
BRANCH 146 149
ATOM    149  CG  HEK d   1      17.203  59.790  15.905  0.00  0.00    -0.056 A 
ATOM    150  CD1 HEK d   1      16.461  59.734  17.079  0.00  0.00    -0.077 A 
ATOM    151  CE1 HEK d   1      15.299  58.959  17.154  0.00  0.00    -0.082 A 
ATOM    152  H66 HEK d   1      16.787  60.297  17.946  0.00  0.00     0.084 H 
ATOM    153  CZ  HEK d   1      14.892  58.230  16.064  0.00  0.00    -0.083 A 
ATOM    154  H68 HEK d   1      14.721  58.934  18.071  0.00  0.00     0.083 H 
ATOM    155  CE2 HEK d   1      15.622  58.253  14.902  0.00  0.00    -0.082 A 
ATOM    156  H70 HEK d   1      13.989  57.633  16.122  0.00  0.00     0.083 H 
ATOM    157  CD2 HEK d   1      16.786  59.022  14.825  0.00  0.00    -0.077 A 
ATOM    158  H69 HEK d   1      15.296  57.675  14.045  0.00  0.00     0.083 H 
ATOM    159  H67 HEK d   1      17.370  59.019  13.912  0.00  0.00     0.084 H 
ENDBRANCH 146 149
ENDBRANCH  41 146
BRANCH   3 160
ATOM    160  N1  HEK d   1      24.472  67.147  11.376  0.00  0.00    -0.345 N 
ATOM    161  C3  HEK d   1      24.314  67.379  10.068  0.00  0.00     0.236 C 
ATOM    162  O1  HEK d   1      25.047  66.889   9.210  0.00  0.00    -0.272 OA
ATOM    163  H9  HEK d   1      24.009  67.742  12.033  0.00  0.00     0.163 HD
BRANCH 161 164
ATOM    164  C2  HEK d   1      23.159  68.281   9.670  0.00  0.00     0.069 C 
ATOM    165  H1  HEK d   1      22.693  67.844   8.775  0.00  0.00     0.078 H 
ATOM    166  H2  HEK d   1      23.581  69.265   9.420  0.00  0.00     0.078 H 
BRANCH 164 167
ATOM    167  N   HEK d   1      22.108  68.495  10.645  0.00  0.00    -0.353 N 
ATOM    168  C1  HEK d   1      21.529  69.690  10.798  0.00  0.00     0.213 C 
ATOM    169  O   HEK d   1      21.861  70.668  10.128  0.00  0.00    -0.274 OA
ATOM    170  H11 HEK d   1      21.809  67.731  11.216  0.00  0.00     0.162 HD
BRANCH 168 171
ATOM    171  C24 HEK d   1      20.455  69.774  11.840  0.00  0.00    -0.003 C 
ATOM    172  H12 HEK d   1      20.056  70.799  11.874  0.00  0.00     0.040 H 
ATOM    173  H13 HEK d   1      20.875  69.512  12.822  0.00  0.00     0.040 H 
ATOM    174  H14 HEK d   1      19.645  69.073  11.589  0.00  0.00     0.040 H 
ENDBRANCH 168 171
ENDBRANCH 164 167
ENDBRANCH 161 164
ENDBRANCH   3 160
BRANCH  25 175
ATOM    175  CB  HEK d   1      20.659  65.443  12.730  0.00  0.00    -0.036 C 
ATOM    176  H28 HEK d   1      19.755  64.842  12.551  0.00  0.00     0.036 H 
ATOM    177  H29 HEK d   1      20.805  66.144  11.895  0.00  0.00     0.036 H 
BRANCH 175 178
ATOM    178  CG  HEK d   1      20.452  66.251  14.002  0.00  0.00    -0.048 C 
ATOM    179  H30 HEK d   1      21.245  67.009  14.082  0.00  0.00     0.035 H 
ATOM    180  H31 HEK d   1      20.500  65.577  14.870  0.00  0.00     0.035 H 
BRANCH 178 181
ATOM    181  CD  HEK d   1      19.108  66.940  13.983  0.00  0.00     0.009 C 
ATOM    182  H32 HEK d   1      18.349  66.245  14.371  0.00  0.00     0.064 H 
ATOM    183  H33 HEK d   1      18.863  67.208  12.945  0.00  0.00     0.064 H 
BRANCH 181 184
ATOM    184  NE  HEK d   1      19.094  68.156  14.799  0.00  0.00    -0.227 N 
ATOM    185  CZ  HEK d   1      18.324  68.335  15.867  0.00  0.00     0.665 C 
ATOM    186  NH1 HEK d   1      18.367  69.478  16.537  0.00  0.00    -0.235 N 
ATOM    187  NH2 HEK d   1      17.494  67.378  16.265  0.00  0.00    -0.235 N 
ATOM    188  H35 HEK d   1      17.768  69.613  17.364  0.00  0.00     0.174 HD
ATOM    189  H36 HEK d   1      18.999  70.231  16.230  0.00  0.00     0.174 HD
ATOM    190  H37 HEK d   1      17.453  66.486  15.752  0.00  0.00     0.174 HD
ATOM    191  H38 HEK d   1      16.892  67.528  17.087  0.00  0.00     0.174 HD
ATOM    192  H34 HEK d   1      19.724  68.924  14.527  0.00  0.00     0.177 HD
ENDBRANCH 181 184
ENDBRANCH 178 181
ENDBRANCH 175 178
ENDBRANCH  25 175
BRANCH  33 193
ATOM    193  CB  HEK d   1      17.192  59.057  10.236  0.00  0.00    -0.014 C 
ATOM    194  H52 HEK d   1      16.100  58.960  10.326  0.00  0.00     0.043 H 
ATOM    195  H53 HEK d   1      17.673  58.627  11.127  0.00  0.00     0.043 H 
BRANCH 193 196
ATOM    196  CG  HEK d   1      17.637  58.258   9.031  0.00  0.00    -0.056 A 
ATOM    197  CD1 HEK d   1      17.016  58.418   7.795  0.00  0.00    -0.074 A 
ATOM    198  CE1 HEK d   1      17.405  57.666   6.687  0.00  0.00    -0.051 A 
ATOM    199  H54 HEK d   1      16.215  59.141   7.692  0.00  0.00     0.084 H 
ATOM    200  CZ  HEK d   1      18.401  56.709   6.819  0.00  0.00     0.065 A 
ATOM    201  H56 HEK d   1      16.931  57.828   5.726  0.00  0.00     0.087 H 
ATOM    202  CE2 HEK d   1      19.001  56.503   8.051  0.00  0.00    -0.051 A 
ATOM    203  CD2 HEK d   1      18.613  57.271   9.148  0.00  0.00    -0.074 A 
ATOM    204  H57 HEK d   1      19.770  55.747   8.162  0.00  0.00     0.087 H 
ATOM    205  H55 HEK d   1      19.080  57.097  10.111  0.00  0.00     0.084 H 
BRANCH 200 206
ATOM    206  OH  HEK d   1      18.784  55.956   5.732  0.00  0.00    -0.361 OA
ATOM    207  H58 HEK d   1      18.280  56.220   4.971  0.00  0.00     0.217 HD
ENDBRANCH 200 206
ENDBRANCH 193 196
ENDBRANCH  33 193
BRANCH  29 208
ATOM    208  CB  HEK d   1      22.179  59.865  11.631  0.00  0.00    -0.035 C 
ATOM    209  H41 HEK d   1      22.050  59.613  12.694  0.00  0.00     0.037 H 
ATOM    210  H42 HEK d   1      23.199  60.242  11.464  0.00  0.00     0.037 H 
BRANCH 208 211
ATOM    211  CG  HEK d   1      22.035  58.555  10.827  0.00  0.00    -0.059 C 
ATOM    212  H43 HEK d   1      21.039  58.138  11.038  0.00  0.00     0.038 H 
BRANCH 211 213
ATOM    213  CD1 HEK d   1      22.141  58.787   9.314  0.00  0.00    -0.073 C 
ATOM    214  H44 HEK d   1      22.032  57.827   8.787  0.00  0.00     0.028 H 
ATOM    215  H45 HEK d   1      23.122  59.226   9.078  0.00  0.00     0.028 H 
ATOM    216  H46 HEK d   1      21.345  59.474   8.992  0.00  0.00     0.028 H 
ENDBRANCH 211 213
BRANCH 211 217
ATOM    217  CD2 HEK d   1      23.070  57.551  11.262  0.00  0.00    -0.073 C 
ATOM    218  H47 HEK d   1      22.990  57.388  12.347  0.00  0.00     0.028 H 
ATOM    219  H48 HEK d   1      24.074  57.931  11.021  0.00  0.00     0.028 H 
ATOM    220  H49 HEK d   1      22.902  56.600  10.735  0.00  0.00     0.028 H 
ENDBRANCH 211 217
ENDBRANCH 208 211
ENDBRANCH  29 208
TORSDOF 34
