REMARK  4 active torsions:
REMARK  status: ('A' for Active; 'I' for Inactive)
REMARK       I    between atoms: CAN_2  and  N_3 
REMARK    1  A    between atoms: CA_5  and  C_6 
REMARK       I    between atoms: C_6  and  NAA_8 
REMARK    2  A    between atoms: CAO_11  and  NAK_12 
REMARK    3  A    between atoms: NAK_12  and  OAL_13 
REMARK    4  A    between atoms: OAL_13  and  SAR_14 
ROOT
ATOM      1  OAC NXL d   1       3.845  24.508  -1.454  0.00  0.00    -0.284 OA
ATOM      2  CAN NXL d   1       3.701  24.768  -2.614  0.00  0.00     0.171 C 
ATOM      3  N   NXL d   1       4.346  25.897  -3.181  0.00  0.00    -0.344 N 
ATOM      4  CAJ NXL d   1       4.254  26.204  -4.652  0.00  0.00     0.027 C 
ATOM      5  CA  NXL d   1       5.239  26.762  -2.396  0.00  0.00     0.091 C 
ATOM      6  CB  NXL d   1       6.595  26.851  -3.049  0.00  0.00    -0.036 C 
ATOM      7  CAH NXL d   1       6.544  27.041  -4.552  0.00  0.00    -0.032 C 
ATOM      8  CAO NXL d   1       5.618  26.177  -5.321  0.00  0.00     0.147 C 
ATOM      9  H1  NXL d   1       3.071  24.134  -3.237  0.00  0.00     0.180 H 
ATOM     10  H2  NXL d   1       3.814  27.204  -4.780  0.00  0.00     0.067 H 
ATOM     11  H3  NXL d   1       3.607  25.455  -5.132  0.00  0.00     0.067 H 
ATOM     12  H4  NXL d   1       5.364  26.326  -1.394  0.00  0.00     0.087 H 
ATOM     13  H7  NXL d   1       7.143  25.921  -2.836  0.00  0.00     0.036 H 
ATOM     14  H8  NXL d   1       7.135  27.703  -2.611  0.00  0.00     0.036 H 
ATOM     15  H9  NXL d   1       7.558  26.865  -4.941  0.00  0.00     0.036 H 
ATOM     16  H10 NXL d   1       6.255  28.085  -4.742  0.00  0.00     0.036 H 
ATOM     17  H11 NXL d   1       5.491  26.580  -6.337  0.00  0.00     0.091 H 
ENDROOT
BRANCH   8  18
ATOM     18  NAK NXL d   1       6.317  24.848  -5.435  0.00  0.00     0.061 N 
ATOM     19  H12 NXL d   1       7.295  24.971  -5.226  0.00  0.00     0.316 HD
ATOM     20  H13 NXL d   1       6.215  24.501  -6.376  0.00  0.00     0.316 HD
BRANCH  18  21
ATOM     21  OAL NXL d   1       5.782  23.938  -4.560  0.00  0.00    -0.054 OA
BRANCH  21  22
ATOM     22  SAR NXL d   1       6.761  22.614  -4.561  0.00  0.00     0.279 S 
ATOM     23  OAD NXL d   1       8.067  22.700  -5.344  0.00  0.00    -0.571 OA
ATOM     24  OAE NXL d   1       6.005  21.560  -5.100  0.00  0.00    -0.571 OA
ATOM     25  OAG NXL d   1       7.196  22.320  -3.250  0.00  0.00    -0.571 OA
ENDBRANCH  21  22
ENDBRANCH  18  21
ENDBRANCH   8  18
BRANCH   5  26
ATOM     26  C   NXL d   1       4.595  28.155  -2.251  0.00  0.00     0.238 C 
ATOM     27  O   NXL d   1       3.567  28.390  -1.642  0.00  0.00    -0.271 OA
ATOM     28  NAA NXL d   1       5.292  29.306  -2.804  0.00  0.00    -0.368 N 
ATOM     29  H5  NXL d   1       4.893  30.219  -2.722  0.00  0.00     0.159 HD
ATOM     30  H6  NXL d   1       6.170  29.184  -3.267  0.00  0.00     0.159 HD
ENDBRANCH   5  26
TORSDOF 4
