REMARK  6 active torsions:
REMARK  status: ('A' for Active; 'I' for Inactive)
REMARK    1  A    between atoms: C05_3  and  C16_13 
REMARK    2  A    between atoms: C09_6  and  C08_5 
REMARK    3  A    between atoms: C08_5  and  N02_20 
REMARK    4  A    between atoms: C10_7  and  C09_6 
REMARK    5  A    between atoms: N04_21  and  C12_9 
REMARK    6  A    between atoms: N06_22  and  C15_12 
ROOT
ATOM      1  C08 HJQ d   1      57.424  19.226 -13.806  0.00  0.00     0.085 C 
ATOM      2  H8  HJQ d   1      58.165  19.802 -14.379  0.00  0.00     0.076 H 
ATOM      3  H9  HJQ d   1      57.102  18.354 -14.394  0.00  0.00     0.076 H 
ENDROOT
BRANCH   1   4
ATOM      4  C09 HJQ d   1      56.178  20.138 -13.516  0.00  0.00    -0.014 C 
ATOM      5  H10 HJQ d   1      56.142  20.940 -14.268  0.00  0.00     0.038 H 
ATOM      6  H11 HJQ d   1      56.285  20.579 -12.514  0.00  0.00     0.038 H 
BRANCH   4   7
ATOM      7  C10 HJQ d   1      54.797  19.304 -13.575  0.00  0.00     0.128 C 
ATOM      8  C11 HJQ d   1      54.951  17.871 -14.145  0.00  0.00     0.110 C 
ATOM      9  N04 HJQ d   1      53.634  17.170 -14.125  0.00  0.00    -0.071 N 
ATOM     10  H13 HJQ d   1      55.672  17.310 -13.531  0.00  0.00     0.079 H 
ATOM     11  H14 HJQ d   1      55.318  17.928 -15.181  0.00  0.00     0.079 H 
ATOM     12  C13 HJQ d   1      52.562  17.891 -14.915  0.00  0.00     0.105 C 
ATOM     13  H30 HJQ d   1      53.313  17.125 -13.171  0.00  0.00     0.279 HD
ATOM     14  C14 HJQ d   1      52.349  19.285 -14.300  0.00  0.00     0.106 C 
ATOM     15  H18 HJQ d   1      52.880  17.994 -15.963  0.00  0.00     0.078 H 
ATOM     16  H19 HJQ d   1      51.623  17.320 -14.871  0.00  0.00     0.078 H 
ATOM     17  N06 HJQ d   1      53.621  20.095 -14.220  0.00  0.00    -0.067 N 
ATOM     18  H20 HJQ d   1      51.947  19.162 -13.283  0.00  0.00     0.078 H 
ATOM     19  H21 HJQ d   1      51.623  19.833 -14.918  0.00  0.00     0.078 H 
ATOM     20  H31 HJQ d   1      53.422  20.843 -13.575  0.00  0.00     0.280 HD
ATOM     21  H12 HJQ d   1      54.505  19.163 -12.524  0.00  0.00     0.087 H 
BRANCH   9  22
ATOM     22  C12 HJQ d   1      53.887  15.829 -14.578  0.00  0.00     0.066 C 
ATOM     23  H15 HJQ d   1      52.945  15.260 -14.584  0.00  0.00     0.068 H 
ATOM     24  H16 HJQ d   1      54.605  15.342 -13.901  0.00  0.00     0.068 H 
ATOM     25  H17 HJQ d   1      54.304  15.858 -15.595  0.00  0.00     0.068 H 
ENDBRANCH   9  22
BRANCH  17  26
ATOM     26  C15 HJQ d   1      53.947  20.740 -15.446  0.00  0.00     0.067 C 
ATOM     27  H22 HJQ d   1      54.879  21.311 -15.323  0.00  0.00     0.068 H 
ATOM     28  H23 HJQ d   1      53.133  21.424 -15.729  0.00  0.00     0.068 H 
ATOM     29  H24 HJQ d   1      54.081  19.984 -16.234  0.00  0.00     0.068 H 
ENDBRANCH  17  26
ENDBRANCH   4   7
ENDBRANCH   1   4
BRANCH   1  30
ATOM     30  N02 HJQ d   1      58.053  18.751 -12.529  0.00  0.00    -0.070 N 
ATOM     31  C01 HJQ d   1      59.478  19.157 -12.413  0.00  0.00     0.084 C 
ATOM     32  C03 HJQ d   1      60.337  17.958 -12.772  0.00  0.00    -0.034 C 
ATOM     33  H1  HJQ d   1      59.687  19.987 -13.104  0.00  0.00     0.076 H 
ATOM     34  H2  HJQ d   1      59.693  19.475 -11.382  0.00  0.00     0.076 H 
ATOM     35  C05 HJQ d   1      59.401  16.716 -12.740  0.00  0.00    -0.004 C 
ATOM     36  H3  HJQ d   1      61.149  17.840 -12.040  0.00  0.00     0.036 H 
ATOM     37  H4  HJQ d   1      60.765  18.085 -13.777  0.00  0.00     0.036 H 
ATOM     38  C07 HJQ d   1      57.992  17.258 -12.405  0.00  0.00     0.090 C 
ATOM     39  H5  HJQ d   1      59.722  16.097 -11.890  0.00  0.00     0.050 H 
ATOM     40  H6  HJQ d   1      57.713  16.976 -11.379  0.00  0.00     0.077 H 
ATOM     41  H7  HJQ d   1      57.253  16.851 -13.111  0.00  0.00     0.077 H 
ATOM     42  H29 HJQ d   1      57.540  19.160 -11.763  0.00  0.00     0.279 HD
BRANCH  35  43
ATOM     43  C16 HJQ d   1      59.456  15.782 -13.961  0.00  0.00    -0.052 A 
ATOM     44  C17 HJQ d   1      60.671  15.224 -14.346  0.00  0.00    -0.074 A 
ATOM     45  C18 HJQ d   1      60.779  14.377 -15.431  0.00  0.00    -0.045 A 
ATOM     46  H25 HJQ d   1      61.562  15.462 -13.776  0.00  0.00     0.084 H 
ATOM     47  C19 HJQ d   1      59.639  14.056 -16.164  0.00  0.00     0.116 A 
ATOM     48  H26 HJQ d   1      61.742  13.966 -15.710  0.00  0.00     0.088 H 
ATOM     49  C20 HJQ d   1      58.381  14.595 -15.809  0.00  0.00    -0.045 A 
ATOM     50  F22 HJQ d   1      59.758  13.237 -17.213  0.00  0.00    -0.206 F 
ATOM     51  C21 HJQ d   1      58.293  15.455 -14.710  0.00  0.00    -0.074 A 
ATOM     52  H27 HJQ d   1      57.495  14.345 -16.382  0.00  0.00     0.088 H 
ATOM     53  H28 HJQ d   1      57.334  15.874 -14.428  0.00  0.00     0.084 H 
ENDBRANCH  35  43
ENDBRANCH   1  30
TORSDOF 6
