REMARK  9 active torsions:
REMARK  status: ('A' for Active; 'I' for Inactive)
REMARK    1  A    between atoms: N12_15  and  C3_2 
REMARK    2  A    between atoms: C13_3  and  C15_4 
REMARK    3  A    between atoms: C19_5  and  C13_3 
REMARK    4  A    between atoms: C13_3  and  N12_15 
REMARK    5  A    between atoms: O21_17  and  C19_5 
REMARK    6  A    between atoms: C22_6  and  C24_7 
REMARK    7  A    between atoms: C22_6  and  C28_8 
REMARK    8  A    between atoms: C22_6  and  O21_17 
REMARK       I    between atoms: N12_15  and  C32_18 
REMARK    9  A    between atoms: C32_18  and  C34_20 
ROOT
ATOM      1  N12 HKE d   1       4.445 -35.122  -9.130  0.00  0.00    -0.295 N 
ATOM      2  C32 HKE d   1       5.507 -35.975  -8.996  0.00  0.00     0.283 C 
ATOM      3  O33 HKE d   1       5.348 -37.151  -9.275  0.00  0.00    -0.265 OA
ENDROOT
BRANCH   1   4
ATOM      4  C3  HKE d   1       4.621 -33.748  -8.799  0.00  0.00     0.082 A 
ATOM      5  C2  HKE d   1       5.086 -32.823  -9.756  0.00  0.00     0.062 A 
ATOM      6 CL1  HKE d   1       5.420 -33.346 -11.393  0.00  0.00    -0.082 Cl
ATOM      7  C9  HKE d   1       5.274 -31.477  -9.400  0.00  0.00    -0.060 A 
ATOM      8  C7  HKE d   1       4.992 -31.066  -8.082  0.00  0.00    -0.080 A 
ATOM      9  H14 HKE d   1       5.632 -30.762 -10.132  0.00  0.00     0.086 H 
ATOM     10  C5  HKE d   1       4.531 -31.992  -7.127  0.00  0.00    -0.060 A 
ATOM     11  H13 HKE d   1       5.131 -30.028  -7.801  0.00  0.00     0.083 H 
ATOM     12  C4  HKE d   1       4.353 -33.332  -7.484  0.00  0.00     0.062 A 
ATOM     13  H12 HKE d   1       4.314 -31.666  -6.116  0.00  0.00     0.086 H 
ATOM     14 CL2  HKE d   1       3.784 -34.523  -6.332  0.00  0.00    -0.082 Cl
ENDBRANCH   1   4
BRANCH   1  15
ATOM     15  C13 HKE d   1       3.132 -35.653  -9.582  0.00  0.00     0.100 C 
ATOM     16  H1  HKE d   1       2.743 -36.283  -8.769  0.00  0.00     0.088 H 
BRANCH  15  17
ATOM     17  C15 HKE d   1       2.100 -34.520  -9.831  0.00  0.00    -0.048 C 
ATOM     18  H2  HKE d   1       1.147 -34.958 -10.163  0.00  0.00     0.030 H 
ATOM     19  H3  HKE d   1       2.481 -33.841 -10.608  0.00  0.00     0.030 H 
ATOM     20  H4  HKE d   1       1.940 -33.958  -8.899  0.00  0.00     0.030 H 
ENDBRANCH  15  17
BRANCH  15  21
ATOM     21  C19 HKE d   1       3.248 -36.524 -10.816  0.00  0.00     0.282 C 
ATOM     22  O20 HKE d   1       3.974 -36.197 -11.747  0.00  0.00    -0.263 OA
BRANCH  21  23
ATOM     23  O21 HKE d   1       2.499 -37.638 -10.739  0.00  0.00    -0.315 OA
BRANCH  23  24
ATOM     24  C22 HKE d   1       2.611 -38.621 -11.796  0.00  0.00     0.041 C 
ATOM     25  H5  HKE d   1       3.565 -38.492 -12.328  0.00  0.00     0.083 H 
BRANCH  24  26
ATOM     26  C24 HKE d   1       1.441 -38.517 -12.819  0.00  0.00    -0.052 C 
ATOM     27  H6  HKE d   1       1.568 -39.281 -13.601  0.00  0.00     0.030 H 
ATOM     28  H7  HKE d   1       1.444 -37.518 -13.279  0.00  0.00     0.030 H 
ATOM     29  H8  HKE d   1       0.485 -38.679 -12.300  0.00  0.00     0.030 H 
ENDBRANCH  24  26
BRANCH  24  30
ATOM     30  C28 HKE d   1       2.570 -39.998 -11.087  0.00  0.00    -0.052 C 
ATOM     31  H9  HKE d   1       3.399 -40.064 -10.367  0.00  0.00     0.030 H 
ATOM     32  H10 HKE d   1       2.670 -40.799 -11.835  0.00  0.00     0.030 H 
ATOM     33  H11 HKE d   1       1.613 -40.109 -10.556  0.00  0.00     0.030 H 
ENDBRANCH  24  30
ENDBRANCH  23  24
ENDBRANCH  21  23
ENDBRANCH  15  21
ENDBRANCH   1  15
BRANCH   2  34
ATOM     34  C34 HKE d   1       6.891 -35.685  -8.530  0.00  0.00     0.143 A 
ATOM     35  O35 HKE d   1       7.772 -36.697  -8.496  0.00  0.00    -0.317 OA
ATOM     36  C36 HKE d   1       8.877 -36.106  -8.021  0.00  0.00     0.020 A 
ATOM     37  C38 HKE d   1       8.761 -34.806  -7.754  0.00  0.00    -0.059 A 
ATOM     38  H15 HKE d   1       9.806 -36.651  -7.864  0.00  0.00     0.123 H 
ATOM     39  C40 HKE d   1       7.369 -34.515  -8.103  0.00  0.00    -0.043 A 
ATOM     40  H16 HKE d   1       9.518 -34.124  -7.369  0.00  0.00     0.086 H 
ATOM     41  H17 HKE d   1       6.845 -33.563  -8.031  0.00  0.00     0.088 H 
ENDBRANCH   2  34
TORSDOF 9
