REMARK  4 active torsions:
REMARK  status: ('A' for Active; 'I' for Inactive)
REMARK    1  A    between atoms: C4_2  and  N1_1 
REMARK    2  A    between atoms: N1_1  and  S_11 
REMARK    3  A    between atoms: S_11  and  C5_3 
REMARK    4  A    between atoms: C11_20  and  C2_17 
ROOT
ATOM      1  C4  HKQ d   1     -10.244 -30.361  22.691  0.00  0.00     0.084 A 
ATOM      2  C   HKQ d   1     -11.337 -29.882  23.423  0.00  0.00     0.152 A 
ATOM      3 CL   HKQ d   1     -12.934 -30.099  22.785  0.00  0.00    -0.060 Cl
ATOM      4  C3  HKQ d   1      -8.995 -30.231  23.299  0.00  0.00    -0.041 A 
ATOM      5  C2  HKQ d   1      -8.874 -29.637  24.557  0.00  0.00    -0.006 A 
ATOM      6  C1  HKQ d   1     -10.046 -29.169  25.148  0.00  0.00     0.015 A 
ATOM      7  N   HKQ d   1     -11.259 -29.297  24.602  0.00  0.00    -0.246 NA
ATOM      8  H9  HKQ d   1      -8.110 -30.595  22.790  0.00  0.00     0.088 H 
ATOM      9  H10 HKQ d   1      -9.969 -28.671  26.108  0.00  0.00     0.116 H 
ENDROOT
BRANCH   1  10
ATOM     10  N1  HKQ d   1     -10.372 -30.909  21.386  0.00  0.00    -0.277 N 
ATOM     11  H1  HKQ d   1     -11.169 -30.617  20.858  0.00  0.00     0.179 HD
BRANCH  10  12
ATOM     12  S   HKQ d   1      -9.363 -31.962  20.654  0.00  0.00     0.263 S 
ATOM     13  O1  HKQ d   1      -8.121 -31.282  20.430  0.00  0.00    -0.200 OA
ATOM     14  O   HKQ d   1     -10.089 -32.491  19.542  0.00  0.00    -0.200 OA
BRANCH  12  15
ATOM     15  C5  HKQ d   1      -9.073 -33.280  21.792  0.00  0.00     0.079 A 
ATOM     16  C6  HKQ d   1     -10.140 -34.066  22.211  0.00  0.00    -0.060 A 
ATOM     17  C7  HKQ d   1      -9.890 -35.169  23.015  0.00  0.00    -0.082 A 
ATOM     18  H2  HKQ d   1     -11.153 -33.821  21.914  0.00  0.00     0.085 H 
ATOM     19  C8  HKQ d   1      -8.598 -35.469  23.416  0.00  0.00    -0.083 A 
ATOM     20  H3  HKQ d   1     -10.712 -35.801  23.332  0.00  0.00     0.083 H 
ATOM     21  C9  HKQ d   1      -7.547 -34.662  23.017  0.00  0.00    -0.082 A 
ATOM     22  H4  HKQ d   1      -8.411 -36.334  24.041  0.00  0.00     0.083 H 
ATOM     23  C10 HKQ d   1      -7.774 -33.564  22.200  0.00  0.00    -0.060 A 
ATOM     24  H8  HKQ d   1      -6.539 -34.889  23.345  0.00  0.00     0.083 H 
ATOM     25  H5  HKQ d   1      -6.949 -32.935  21.884  0.00  0.00     0.085 H 
ENDBRANCH  12  15
ENDBRANCH  10  12
ENDBRANCH   1  10
BRANCH   5  26
ATOM     26  C11 HKQ d   1      -7.555 -29.570  25.255  0.00  0.00    -0.025 A 
ATOM     27  C16 HKQ d   1      -7.238 -28.500  26.095  0.00  0.00    -0.072 A 
ATOM     28  C15 HKQ d   1      -6.030 -28.463  26.770  0.00  0.00    -0.082 A 
ATOM     29  H11 HKQ d   1      -7.946 -27.689  26.220  0.00  0.00     0.084 H 
ATOM     30  C14 HKQ d   1      -5.109 -29.476  26.608  0.00  0.00    -0.083 A 
ATOM     31  H7  HKQ d   1      -5.807 -27.633  27.430  0.00  0.00     0.083 H 
ATOM     32  C13 HKQ d   1      -5.397 -30.536  25.773  0.00  0.00    -0.082 A 
ATOM     33  H12 HKQ d   1      -4.162 -29.440  27.135  0.00  0.00     0.083 H 
ATOM     34  C12 HKQ d   1      -6.612 -30.590  25.105  0.00  0.00    -0.072 A 
ATOM     35  H6  HKQ d   1      -4.671 -31.330  25.638  0.00  0.00     0.083 H 
ATOM     36  H13 HKQ d   1      -6.832 -31.433  24.460  0.00  0.00     0.084 H 
ENDBRANCH   5  26
TORSDOF 4
