REMARK  4 active torsions:
REMARK  status: ('A' for Active; 'I' for Inactive)
REMARK    1  A    between atoms: C6_4  and  C3_15 
REMARK    2  A    between atoms: C1_9  and  N_10 
REMARK    3  A    between atoms: N_10  and  S_11 
REMARK    4  A    between atoms: S_11  and  C_14 
ROOT
ATOM      1  N1  HKK d   1     -11.370 -29.238  24.563  0.00  0.00    -0.246 NA
ATOM      2  C4  HKK d   1     -10.177 -29.077  25.140  0.00  0.00     0.014 A 
ATOM      3  C5  HKK d   1     -11.415 -29.947  23.455  0.00  0.00     0.152 A 
ATOM      4 CL   HKK d   1     -13.003 -30.222  22.807  0.00  0.00    -0.060 Cl
ATOM      5  C1  HKK d   1     -10.310 -30.527  22.820  0.00  0.00     0.083 A 
ATOM      6  C3  HKK d   1      -9.001 -29.621  24.638  0.00  0.00    -0.010 A 
ATOM      7  C2  HKK d   1      -9.074 -30.352  23.452  0.00  0.00    -0.042 A 
ATOM      8  H1  HKK d   1     -10.123 -28.490  26.050  0.00  0.00     0.116 H 
ATOM      9  H11 HKK d   1      -8.177 -30.783  23.022  0.00  0.00     0.088 H 
ENDROOT
BRANCH   6  10
ATOM     10  C6  HKK d   1      -7.692 -29.409  25.339  0.00  0.00    -0.046 C 
ATOM     11  C7  HKK d   1      -6.600 -30.232  25.181  0.00  0.00    -0.074 C 
ATOM     12  C8  HKK d   1      -5.346 -29.971  25.945  0.00  0.00     0.035 C 
ATOM     13  H2  HKK d   1      -6.652 -31.077  24.496  0.00  0.00     0.081 H 
ATOM     14  O2  HKK d   1      -5.269 -28.635  26.434  0.00  0.00    -0.387 OA
ATOM     15  H3  HKK d   1      -4.486 -30.154  25.284  0.00  0.00     0.080 H 
ATOM     16  H4  HKK d   1      -5.304 -30.662  26.800  0.00  0.00     0.080 H 
ATOM     17  C9  HKK d   1      -6.445 -28.283  27.179  0.00  0.00     0.024 C 
ATOM     18  C10 HKK d   1      -7.617 -28.203  26.270  0.00  0.00    -0.021 C 
ATOM     19  H12 HKK d   1      -6.632 -29.047  27.948  0.00  0.00     0.074 H 
ATOM     20  H13 HKK d   1      -6.291 -27.307  27.662  0.00  0.00     0.074 H 
ATOM     21  H5  HKK d   1      -8.535 -28.162  26.875  0.00  0.00     0.043 H 
ATOM     22  H6  HKK d   1      -7.536 -27.289  25.663  0.00  0.00     0.043 H 
ENDBRANCH   6  10
BRANCH   5  23
ATOM     23  N   HKK d   1     -10.457 -31.259  21.605  0.00  0.00    -0.282 N 
ATOM     24  H7  HKK d   1     -11.396 -31.361  21.275  0.00  0.00     0.178 HD
BRANCH  23  25
ATOM     25  S   HKK d   1      -9.312 -31.951  20.681  0.00  0.00     0.227 S 
ATOM     26  O   HKK d   1      -8.206 -31.047  20.585  0.00  0.00    -0.206 OA
ATOM     27  O1  HKK d   1      -9.967 -32.361  19.481  0.00  0.00    -0.206 OA
BRANCH  25  28
ATOM     28  C   HKK d   1      -8.783 -33.385  21.538  0.00  0.00     0.033 C 
ATOM     29  H8  HKK d   1      -8.003 -33.895  20.953  0.00  0.00     0.051 H 
ATOM     30  H9  HKK d   1      -9.637 -34.063  21.680  0.00  0.00     0.051 H 
ATOM     31  H10 HKK d   1      -8.376 -33.097  22.519  0.00  0.00     0.051 H 
ENDBRANCH  25  28
ENDBRANCH  23  25
ENDBRANCH   5  23
TORSDOF 4
