REMARK  9 active torsions:
REMARK  status: ('A' for Active; 'I' for Inactive)
REMARK    1  A    between atoms: N1_1  and  C5_4 
REMARK    2  A    between atoms: S_15  and  N1_1 
REMARK    3  A    between atoms: C6_5  and  S_15 
REMARK    4  A    between atoms: C8_7  and  N2_27 
REMARK    5  A    between atoms: C9_28  and  C8_7 
REMARK    6  A    between atoms: C15_10  and  C16_26 
REMARK    7  A    between atoms: C3_17  and  C17_11 
REMARK    8  A    between atoms: C1_23  and  O_24 
REMARK    9  A    between atoms: O_24  and  C_25 
ROOT
ATOM      1  N1  HKN d   1     -10.481 -30.772  20.960  0.00  0.00    -0.275 N 
ATOM      2  H1  HKN d   1     -11.213 -30.391  20.395  0.00  0.00     0.179 HD
ENDROOT
BRANCH   1   3
ATOM      3  C5  HKN d   1     -10.364 -30.324  22.305  0.00  0.00     0.096 A 
ATOM      4  C4  HKN d   1      -9.131 -30.203  22.939  0.00  0.00    -0.041 A 
ATOM      5  C3  HKN d   1      -9.064 -29.622  24.202  0.00  0.00    -0.010 A 
ATOM      6  H2  HKN d   1      -8.230 -30.558  22.453  0.00  0.00     0.088 H 
ATOM      7  C2  HKN d   1     -10.254 -29.172  24.766  0.00  0.00     0.015 A 
ATOM      8  N   HKN d   1     -11.461 -29.294  24.190  0.00  0.00    -0.234 NA
ATOM      9  H15 HKN d   1     -10.203 -28.690  25.736  0.00  0.00     0.116 H 
ATOM     10  C1  HKN d   1     -11.526 -29.876  23.005  0.00  0.00     0.191 A 
BRANCH   5  11
ATOM     11  C17 HKN d   1      -7.744 -29.511  24.923  0.00  0.00    -0.046 C 
ATOM     12  C21 HKN d   1      -7.548 -28.353  25.916  0.00  0.00    -0.021 C 
ATOM     13  C20 HKN d   1      -6.480 -28.711  26.899  0.00  0.00     0.024 C 
ATOM     14  H10 HKN d   1      -8.491 -28.166  26.451  0.00  0.00     0.043 H 
ATOM     15  H11 HKN d   1      -7.252 -27.447  25.368  0.00  0.00     0.043 H 
ATOM     16  O3  HKN d   1      -5.294 -29.092  26.198  0.00  0.00    -0.387 OA
ATOM     17  H8  HKN d   1      -6.822 -29.550  27.523  0.00  0.00     0.074 H 
ATOM     18  H9  HKN d   1      -6.264 -27.842  27.539  0.00  0.00     0.074 H 
ATOM     19  C19 HKN d   1      -5.458 -30.342  25.535  0.00  0.00     0.035 C 
ATOM     20  C18 HKN d   1      -6.723 -30.421  24.744  0.00  0.00    -0.074 C 
ATOM     21  H12 HKN d   1      -5.466 -31.141  26.291  0.00  0.00     0.080 H 
ATOM     22  H13 HKN d   1      -4.608 -30.491  24.853  0.00  0.00     0.080 H 
ATOM     23  H14 HKN d   1      -6.842 -31.216  24.009  0.00  0.00     0.081 H 
ENDBRANCH   5  11
BRANCH  10  24
ATOM     24  O   HKN d   1     -12.711 -30.146  22.414  0.00  0.00    -0.338 OA
BRANCH  24  25
ATOM     25  C   HKN d   1     -13.874 -29.492  22.910  0.00  0.00     0.012 C 
ATOM     26  H16 HKN d   1     -14.751 -29.814  22.330  0.00  0.00     0.067 H 
ATOM     27  H17 HKN d   1     -13.751 -28.403  22.815  0.00  0.00     0.067 H 
ATOM     28  H18 HKN d   1     -14.019 -29.754  23.969  0.00  0.00     0.067 H 
ENDBRANCH  24  25
ENDBRANCH  10  24
ENDBRANCH   1   3
BRANCH   1  29
ATOM     29  S   HKN d   1      -9.488 -31.870  20.296  0.00  0.00     0.282 S 
ATOM     30  O2  HKN d   1      -8.174 -31.306  20.293  0.00  0.00    -0.199 OA
ATOM     31  O1  HKN d   1     -10.076 -32.295  19.067  0.00  0.00    -0.199 OA
BRANCH  29  32
ATOM     32  C6  HKN d   1      -9.500 -33.258  21.416  0.00  0.00     0.189 A 
ATOM     33  N3  HKN d   1     -10.673 -33.802  21.863  0.00  0.00    -0.221 NA
ATOM     34  C15 HKN d   1     -10.288 -34.820  22.595  0.00  0.00     0.103 A 
ATOM     35  N2  HKN d   1      -8.912 -34.923  22.632  0.00  0.00    -0.338 N 
ATOM     36  C7  HKN d   1      -8.401 -33.920  21.864  0.00  0.00     0.022 A 
ATOM     37  H3  HKN d   1      -7.355 -33.700  21.657  0.00  0.00     0.116 H 
BRANCH  34  38
ATOM     38  C16 HKN d   1     -11.193 -35.754  23.316  0.00  0.00    -0.021 C 
ATOM     39  H19 HKN d   1     -12.239 -35.466  23.132  0.00  0.00     0.037 H 
ATOM     40  H20 HKN d   1     -10.984 -35.707  24.395  0.00  0.00     0.037 H 
ATOM     41  H21 HKN d   1     -11.026 -36.779  22.954  0.00  0.00     0.037 H 
ENDBRANCH  34  38
BRANCH  35  42
ATOM     42  C8  HKN d   1      -8.103 -35.882  23.401  0.00  0.00     0.024 C 
ATOM     43  H4  HKN d   1      -8.215 -36.876  22.943  0.00  0.00     0.072 H 
ATOM     44  H5  HKN d   1      -8.484 -35.909  24.433  0.00  0.00     0.072 H 
BRANCH  42  45
ATOM     45  C9  HKN d   1      -6.631 -35.540  23.445  0.00  0.00    -0.040 A 
ATOM     46  C10 HKN d   1      -5.702 -36.326  22.766  0.00  0.00    -0.075 A 
ATOM     47  C11 HKN d   1      -4.339 -36.102  22.913  0.00  0.00    -0.082 A 
ATOM     48  H6  HKN d   1      -6.047 -37.121  22.116  0.00  0.00     0.084 H 
ATOM     49  C12 HKN d   1      -3.887 -35.085  23.732  0.00  0.00    -0.083 A 
ATOM     50  H24 HKN d   1      -3.628 -36.727  22.384  0.00  0.00     0.083 H 
ATOM     51  C13 HKN d   1      -4.798 -34.271  24.383  0.00  0.00    -0.082 A 
ATOM     52  H23 HKN d   1      -2.823 -34.925  23.864  0.00  0.00     0.083 H 
ATOM     53  C14 HKN d   1      -6.161 -34.495  24.240  0.00  0.00    -0.075 A 
ATOM     54  H7  HKN d   1      -4.447 -33.457  25.006  0.00  0.00     0.083 H 
ATOM     55  H22 HKN d   1      -6.867 -33.851  24.752  0.00  0.00     0.084 H 
ENDBRANCH  42  45
ENDBRANCH  35  42
ENDBRANCH  29  32
ENDBRANCH   1  29
TORSDOF 9
