REMARK  5 active torsions:
REMARK  status: ('A' for Active; 'I' for Inactive)
REMARK    1  A    between atoms: N12_19  and  C3_2 
REMARK    2  A    between atoms: C13_4  and  C35_23 
REMARK    3  A    between atoms: C15_5  and  C21_8 
REMARK    4  A    between atoms: C16_6  and  C17_7 
REMARK    5  A    between atoms: C21_8  and  C24_9 
ROOT
ATOM      1  C13 HKZ d   1       5.574 -35.516  -8.575  0.00  0.00     0.169 A 
ATOM      2  C15 HKZ d   1       3.763 -36.584  -9.250  0.00  0.00     0.064 A 
ATOM      3  C16 HKZ d   1       3.501 -35.264  -9.064  0.00  0.00     0.040 A 
ATOM      4  N12 HKZ d   1       4.605 -34.643  -8.673  0.00  0.00    -0.293 N 
ATOM      5  N14 HKZ d   1       5.143 -36.651  -8.898  0.00  0.00    -0.230 NA
ENDROOT
BRANCH   2   6
ATOM      6  C21 HKZ d   1       2.945 -37.786  -9.666  0.00  0.00     0.001 C 
ATOM      7  H5  HKZ d   1       1.963 -37.730  -9.174  0.00  0.00     0.049 H 
ATOM      8  H6  HKZ d   1       3.468 -38.697  -9.339  0.00  0.00     0.049 H 
BRANCH   6   9
ATOM      9  C24 HKZ d   1       2.729 -37.863 -11.182  0.00  0.00    -0.052 A 
ATOM     10  C25 HKZ d   1       1.747 -38.741 -11.676  0.00  0.00    -0.076 A 
ATOM     11  C27 HKZ d   1       1.522 -38.846 -13.059  0.00  0.00    -0.082 A 
ATOM     12  H7  HKZ d   1       1.162 -39.339 -10.987  0.00  0.00     0.084 H 
ATOM     13  C29 HKZ d   1       2.273 -38.066 -13.951  0.00  0.00    -0.083 A 
ATOM     14  H8  HKZ d   1       0.769 -39.529 -13.436  0.00  0.00     0.083 H 
ATOM     15  C31 HKZ d   1       3.249 -37.191 -13.461  0.00  0.00    -0.082 A 
ATOM     16  H9  HKZ d   1       2.098 -38.141 -15.018  0.00  0.00     0.083 H 
ATOM     17  C33 HKZ d   1       3.476 -37.088 -12.082  0.00  0.00    -0.076 A 
ATOM     18  H13 HKZ d   1       3.832 -36.591 -14.151  0.00  0.00     0.083 H 
ATOM     19  H14 HKZ d   1       4.232 -36.407 -11.709  0.00  0.00     0.084 H 
ENDBRANCH   6   9
ENDBRANCH   2   6
BRANCH   3  20
ATOM     20  C17 HKZ d   1       2.191 -34.539  -9.266  0.00  0.00    -0.035 C 
ATOM     21  H2  HKZ d   1       1.421 -35.255  -9.589  0.00  0.00     0.035 H 
ATOM     22  H3  HKZ d   1       2.316 -33.763 -10.036  0.00  0.00     0.035 H 
ATOM     23  H4  HKZ d   1       1.881 -34.071  -8.320  0.00  0.00     0.035 H 
ENDBRANCH   3  20
BRANCH   4  24
ATOM     24  C3  HKZ d   1       4.749 -33.325  -8.366  0.00  0.00     0.084 A 
ATOM     25  C2  HKZ d   1       5.158 -32.379  -9.319  0.00  0.00     0.063 A 
ATOM     26 CL1  HKZ d   1       5.452 -32.853 -10.987  0.00  0.00    -0.082 Cl
ATOM     27  C9  HKZ d   1       5.317 -31.037  -8.948  0.00  0.00    -0.060 A 
ATOM     28  C7  HKZ d   1       5.080 -30.640  -7.618  0.00  0.00    -0.080 A 
ATOM     29  H12 HKZ d   1       5.623 -30.304  -9.686  0.00  0.00     0.086 H 
ATOM     30  C5  HKZ d   1       4.675 -31.588  -6.667  0.00  0.00    -0.060 A 
ATOM     31  H11 HKZ d   1       5.210 -29.603  -7.330  0.00  0.00     0.083 H 
ATOM     32  C4  HKZ d   1       4.518 -32.928  -7.038  0.00  0.00     0.063 A 
ATOM     33  H10 HKZ d   1       4.484 -31.283  -5.645  0.00  0.00     0.086 H 
ATOM     34 CL2  HKZ d   1       3.996 -34.112  -5.847  0.00  0.00    -0.082 Cl
ENDBRANCH   4  24
BRANCH   1  35
ATOM     35  C35 HKZ d   1       6.998 -35.334  -8.162  0.00  0.00     0.121 A 
ATOM     36  C41 HKZ d   1       7.564 -34.206  -7.704  0.00  0.00    -0.045 A 
ATOM     37  C39 HKZ d   1       8.951 -34.583  -7.450  0.00  0.00    -0.059 A 
ATOM     38  H1  HKZ d   1       7.096 -33.234  -7.556  0.00  0.00     0.088 H 
ATOM     39  C37 HKZ d   1       8.978 -35.870  -7.796  0.00  0.00     0.019 A 
ATOM     40  H16 HKZ d   1       9.764 -33.965  -7.071  0.00  0.00     0.086 H 
ATOM     41  O36 HKZ d   1       7.826 -36.386  -8.233  0.00  0.00    -0.319 OA
ATOM     42  H15 HKZ d   1       9.887 -36.466  -7.726  0.00  0.00     0.123 H 
ENDBRANCH   1  35
TORSDOF 5
