REMARK  6 active torsions:
REMARK  status: ('A' for Active; 'I' for Inactive)
REMARK    1  A    between atoms: C11_4  and  C14_7 
REMARK    2  A    between atoms: C12_5  and  C31_31 
REMARK    3  A    between atoms: C9_20  and  C13_6 
REMARK    4  A    between atoms: C24_12  and  C26_14 
REMARK    5  A    between atoms: N7_18  and  C4_15 
REMARK    6  A    between atoms: C6_17  and  N22_26 
ROOT
ATOM      1  C1  HL8 d   1      -2.706  32.105  -6.429  0.00  0.00    -0.054 A 
ATOM      2  C2  HL8 d   1      -1.941  32.997  -5.665  0.00  0.00    -0.057 A 
ATOM      3  C3  HL8 d   1      -1.577  34.219  -6.227  0.00  0.00     0.063 A 
ATOM      4  C4  HL8 d   1      -1.954  34.529  -7.536  0.00  0.00     0.087 A 
ATOM      5  C5  HL8 d   1      -2.727  33.641  -8.302  0.00  0.00     0.089 A 
ATOM      6  C6  HL8 d   1      -3.107  32.389  -7.754  0.00  0.00     0.054 A 
ATOM      7 CL8  HL8 d   1      -3.113  34.194  -9.938  0.00  0.00    -0.079 Cl
ATOM      8 CL4  HL8 d   1      -0.632  35.368  -5.317  0.00  0.00    -0.082 Cl
ATOM      9  H1  HL8 d   1      -3.002  31.161  -5.986  0.00  0.00     0.087 H 
ATOM     10  H2  HL8 d   1      -1.638  32.741  -4.656  0.00  0.00     0.086 H 
ENDROOT
BRANCH   4  11
ATOM     11  N7  HL8 d   1      -1.626  35.743  -8.044  0.00  0.00    -0.292 N 
ATOM     12  C12 HL8 d   1      -0.515  36.118  -8.660  0.00  0.00     0.049 A 
ATOM     13  C11 HL8 d   1      -0.627  37.420  -9.004  0.00  0.00     0.165 A 
ATOM     14  N10 HL8 d   1      -1.922  37.757  -8.507  0.00  0.00    -0.221 NA
ATOM     15  C9  HL8 d   1      -2.447  36.769  -7.966  0.00  0.00     0.170 A 
BRANCH  12  16
ATOM     16  C31 HL8 d   1       0.656  35.216  -8.933  0.00  0.00    -0.035 C 
ATOM     17  H10 HL8 d   1       1.441  35.782  -9.456  0.00  0.00     0.035 H 
ATOM     18  H11 HL8 d   1       0.331  34.374  -9.562  0.00  0.00     0.035 H 
ATOM     19  H12 HL8 d   1       1.053  34.832  -7.982  0.00  0.00     0.035 H 
ENDBRANCH  12  16
BRANCH  13  20
ATOM     20  C14 HL8 d   1       0.274  38.389  -9.700  0.00  0.00     0.436 C 
ATOM     21  F15 HL8 d   1      -0.507  39.313 -10.296  0.00  0.00    -0.165 F 
ATOM     22  F29 HL8 d   1       1.039  38.980  -8.770  0.00  0.00    -0.165 F 
ATOM     23  F30 HL8 d   1       1.078  37.838 -10.639  0.00  0.00    -0.165 F 
ENDBRANCH  13  20
BRANCH  15  24
ATOM     24  C13 HL8 d   1      -3.809  36.877  -7.384  0.00  0.00     0.123 A 
ATOM     25  C16 HL8 d   1      -4.434  35.981  -6.615  0.00  0.00    -0.043 A 
ATOM     26  C17 HL8 d   1      -5.738  36.587  -6.338  0.00  0.00    -0.036 A 
ATOM     27  H3  HL8 d   1      -4.059  35.018  -6.272  0.00  0.00     0.088 H 
ATOM     28  C18 HL8 d   1      -5.653  37.747  -6.995  0.00  0.00     0.145 A 
ATOM     29  H4  HL8 d   1      -6.564  36.193  -5.748  0.00  0.00     0.089 H 
ATOM     30  O19 HL8 d   1      -4.511  37.981  -7.637  0.00  0.00    -0.295 OA
ATOM     31 CL3  HL8 d   1      -6.949  38.933  -7.030  0.00  0.00    -0.057 Cl
ENDBRANCH  15  24
ENDBRANCH   4  11
BRANCH   6  32
ATOM     32  N22 HL8 d   1      -3.895  31.468  -8.385  0.00  0.00    -0.378 N 
ATOM     33  C23 HL8 d   1      -4.587  31.499  -9.655  0.00  0.00     0.009 C 
ATOM     34  C24 HL8 d   1      -5.453  30.397  -8.954  0.00  0.00     0.061 C 
ATOM     35  H5  HL8 d   1      -5.107  32.438  -9.896  0.00  0.00     0.065 H 
ATOM     36  H6  HL8 d   1      -4.004  31.169 -10.527  0.00  0.00     0.065 H 
ATOM     37  C25 HL8 d   1      -4.386  30.227  -7.826  0.00  0.00     0.009 C 
ATOM     38  H7  HL8 d   1      -5.550  29.497  -9.580  0.00  0.00     0.061 H 
ATOM     39  H8  HL8 d   1      -3.718  29.359  -7.925  0.00  0.00     0.065 H 
ATOM     40  H9  HL8 d   1      -4.765  30.282  -6.795  0.00  0.00     0.065 H 
BRANCH  34  41
ATOM     41  C26 HL8 d   1      -6.852  30.764  -8.473  0.00  0.00     0.180 C 
ATOM     42  O27 HL8 d   1      -7.270  30.577  -7.323  0.00  0.00    -0.648 OA
ATOM     43  O28 HL8 d   1      -7.627  31.296  -9.434  0.00  0.00    -0.648 OA
ENDBRANCH  34  41
ENDBRANCH   6  32
TORSDOF 6
