REMARK  5 active torsions:
REMARK  status: ('A' for Active; 'I' for Inactive)
REMARK    1  A    between atoms: C04_5  and  C17_3 
REMARK    2  A    between atoms: C02_4  and  N01_18 
REMARK    3  A    between atoms: N07_20  and  C06_7 
REMARK    4  A    between atoms: C08_8  and  C09_9 
REMARK    5  A    between atoms: C08_8  and  N07_20 
ROOT
ATOM      1  N07 HLK d   1     -32.837 -23.649   5.159  0.00  0.00    -0.386 N 
ATOM      2  H11 HLK d   1     -33.197 -22.753   5.518  0.00  0.00     0.160 HD
ENDROOT
BRANCH   1   3
ATOM      3  C06 HLK d   1     -32.258 -23.715   3.828  0.00  0.00     0.034 A 
ATOM      4  C05 HLK d   1     -32.204 -22.593   3.015  0.00  0.00    -0.025 A 
ATOM      5  C04 HLK d   1     -31.641 -22.685   1.754  0.00  0.00     0.144 A 
ATOM      6  H3  HLK d   1     -32.601 -21.647   3.366  0.00  0.00     0.090 H 
ATOM      7  N03 HLK d   1     -31.157 -23.837   1.328  0.00  0.00    -0.227 NA
ATOM      8  C02 HLK d   1     -31.193 -24.920   2.082  0.00  0.00     0.123 A 
ATOM      9  C16 HLK d   1     -31.739 -24.906   3.349  0.00  0.00    -0.014 A 
ATOM     10  H8  HLK d   1     -31.761 -25.805   3.954  0.00  0.00     0.092 H 
BRANCH   5  11
ATOM     11  C17 HLK d   1     -31.591 -21.446   0.871  0.00  0.00     0.434 C 
ATOM     12  F18 HLK d   1     -32.626 -20.619   1.194  0.00  0.00    -0.165 F 
ATOM     13  F19 HLK d   1     -31.695 -21.811  -0.439  0.00  0.00    -0.165 F 
ATOM     14  F20 HLK d   1     -30.413 -20.795   1.087  0.00  0.00    -0.165 F 
ENDBRANCH   5  11
BRANCH   8  15
ATOM     15  N01 HLK d   1     -30.656 -26.176   1.597  0.00  0.00    -0.384 N 
ATOM     16  H9  HLK d   1     -30.239 -26.229   0.656  0.00  0.00     0.157 HD
ATOM     17  H10 HLK d   1     -30.691 -27.015   2.193  0.00  0.00     0.157 HD
ENDBRANCH   8  15
ENDBRANCH   1   3
BRANCH   1  18
ATOM     18  C08 HLK d   1     -32.911 -24.843   5.988  0.00  0.00     0.016 C 
ATOM     19  H4  HLK d   1     -31.971 -25.410   5.913  0.00  0.00     0.071 H 
ATOM     20  H5  HLK d   1     -33.086 -24.561   7.037  0.00  0.00     0.071 H 
BRANCH  18  21
ATOM     21  C09 HLK d   1     -34.070 -25.690   5.479  0.00  0.00    -0.040 A 
ATOM     22  C10 HLK d   1     -33.970 -27.059   5.251  0.00  0.00    -0.072 A 
ATOM     23  C11 HLK d   1     -35.074 -27.765   4.781  0.00  0.00    -0.045 A 
ATOM     24  H1  HLK d   1     -33.035 -27.574   5.439  0.00  0.00     0.084 H 
ATOM     25  C12 HLK d   1     -36.264 -27.093   4.538  0.00  0.00     0.116 A 
ATOM     26  H6  HLK d   1     -35.005 -28.832   4.606  0.00  0.00     0.088 H 
ATOM     27  C14 HLK d   1     -36.337 -25.736   4.766  0.00  0.00    -0.045 A 
ATOM     28  F13 HLK d   1     -37.379 -27.730   4.076  0.00  0.00    -0.206 F 
ATOM     29  C15 HLK d   1     -35.252 -25.033   5.232  0.00  0.00    -0.072 A 
ATOM     30  H7  HLK d   1     -37.267 -25.213   4.574  0.00  0.00     0.088 H 
ATOM     31  H2  HLK d   1     -35.328 -23.965   5.404  0.00  0.00     0.084 H 
ENDBRANCH  18  21
ENDBRANCH   1  18
TORSDOF 5
