REMARK  7 active torsions:
REMARK  status: ('A' for Active; 'I' for Inactive)
REMARK    1  A    between atoms: C10_1  and  C09_11 
REMARK    2  A    between atoms: N11_20  and  C10_1 
REMARK    3  A    between atoms: C08_10  and  C03_6 
REMARK    4  A    between atoms: C09_11  and  C08_10 
REMARK    5  A    between atoms: C12_12  and  N11_20 
REMARK    6  A    between atoms: C14_13  and  C19_15 
REMARK    7  A    between atoms: C16_14  and  N18_22 
ROOT
ATOM      1  C10 HLQ d   1      95.546  45.679  10.973  0.00  0.00    -0.007 C 
ATOM      2  H1  HLQ d   1      96.043  45.467  11.931  0.00  0.00     0.064 H 
ATOM      3  H2  HLQ d   1      96.047  45.121  10.168  0.00  0.00     0.064 H 
ENDROOT
BRANCH   1   4
ATOM      4  C09 HLQ d   1      95.630  47.179  10.679  0.00  0.00    -0.047 C 
ATOM      5  H11 HLQ d   1      94.741  47.669  11.103  0.00  0.00     0.035 H 
ATOM      6  H12 HLQ d   1      95.643  47.322   9.588  0.00  0.00     0.035 H 
BRANCH   4   7
ATOM      7  C08 HLQ d   1      96.874  47.836  11.269  0.00  0.00    -0.040 C 
ATOM      8  H9  HLQ d   1      96.556  48.698  11.874  0.00  0.00     0.040 H 
ATOM      9  H10 HLQ d   1      97.380  47.102  11.914  0.00  0.00     0.040 H 
BRANCH   7  10
ATOM     10  C03 HLQ d   1      97.873  48.326  10.224  0.00  0.00    -0.058 A 
ATOM     11  C02 HLQ d   1      97.467  49.144   9.181  0.00  0.00    -0.074 A 
ATOM     12  C01 HLQ d   1      98.388  49.581   8.244  0.00  0.00    -0.045 A 
ATOM     13  H6  HLQ d   1      96.428  49.442   9.099  0.00  0.00     0.084 H 
ATOM     14  C06 HLQ d   1      99.716  49.206   8.352  0.00  0.00     0.116 A 
ATOM     15  H5  HLQ d   1      98.069  50.217   7.426  0.00  0.00     0.088 H 
ATOM     16  C05 HLQ d   1     100.123  48.393   9.396  0.00  0.00    -0.045 A 
ATOM     17  F07 HLQ d   1     100.626  49.636   7.432  0.00  0.00    -0.206 F 
ATOM     18  C04 HLQ d   1      99.203  47.956  10.332  0.00  0.00    -0.074 A 
ATOM     19  H8  HLQ d   1     101.163  48.099   9.480  0.00  0.00     0.088 H 
ATOM     20  H7  HLQ d   1      99.524  47.323  11.151  0.00  0.00     0.084 H 
ENDBRANCH   7  10
ENDBRANCH   4   7
ENDBRANCH   1   4
BRANCH   1  21
ATOM     21  N11 HLQ d   1      94.157  45.267  11.051  0.00  0.00    -0.390 N 
ATOM     22  H13 HLQ d   1      93.736  45.061  11.968  0.00  0.00     0.159 HD
BRANCH  21  23
ATOM     23  C12 HLQ d   1      93.353  45.142   9.840  0.00  0.00     0.033 A 
ATOM     24  C13 HLQ d   1      93.056  43.894   9.313  0.00  0.00    -0.025 A 
ATOM     25  C14 HLQ d   1      92.281  43.832   8.164  0.00  0.00     0.144 A 
ATOM     26  H3  HLQ d   1      93.420  42.990   9.787  0.00  0.00     0.090 H 
ATOM     27  N15 HLQ d   1      91.831  44.926   7.575  0.00  0.00    -0.227 NA
ATOM     28  C16 HLQ d   1      92.103  46.121   8.064  0.00  0.00     0.123 A 
ATOM     29  C17 HLQ d   1      92.868  46.278   9.209  0.00  0.00    -0.014 A 
ATOM     30  H4  HLQ d   1      93.082  47.265   9.602  0.00  0.00     0.092 H 
BRANCH  25  31
ATOM     31  C19 HLQ d   1      91.940  42.474   7.555  0.00  0.00     0.434 C 
ATOM     32  F20 HLQ d   1      92.409  41.480   8.361  0.00  0.00    -0.165 F 
ATOM     33  F21 HLQ d   1      92.521  42.370   6.324  0.00  0.00    -0.165 F 
ATOM     34  F22 HLQ d   1      90.586  42.360   7.426  0.00  0.00    -0.165 F 
ENDBRANCH  25  31
BRANCH  28  35
ATOM     35  N18 HLQ d   1      91.590  47.300   7.388  0.00  0.00    -0.384 N 
ATOM     36  H14 HLQ d   1      91.020  47.198   6.536  0.00  0.00     0.157 HD
ATOM     37  H15 HLQ d   1      91.796  48.238   7.761  0.00  0.00     0.157 HD
ENDBRANCH  28  35
ENDBRANCH  21  23
ENDBRANCH   1  21
TORSDOF 7
