REMARK  14 active torsions:
REMARK  status: ('A' for Active; 'I' for Inactive)
REMARK       I    between atoms: N2_6  and  C1_1 
REMARK    1  A    between atoms: C1_1  and  CA_22 
REMARK    2  A    between atoms: S1_4  and  N2_6 
REMARK    3  A    between atoms: O5_14  and  S1_4 
REMARK    4  A    between atoms: C22_27  and  O2_7 
REMARK    5  A    between atoms: C23_28  and  O3_9 
REMARK    6  A    between atoms: CA_22  and  N4_11 
REMARK    7  A    between atoms: C25_30  and  O5_14 
REMARK    8  A    between atoms: C6_15  and  N6_16 
REMARK    9  A    between atoms: C9_20  and  C7_17 
REMARK   10  A    between atoms: C7_17  and  C10_23 
REMARK   11  A    between atoms: C7_17  and  C11_24 
REMARK   12  A    between atoms: CA_22  and  C9_20 
REMARK   13  A    between atoms: C21_26  and  N9_21 
REMARK   14  A    between atoms: C24_29  and  C25_30 
ROOT
ATOM      1  C25 LSS d   1      -5.271  -6.829 -29.600  0.00  0.00     0.066 C 
ATOM      2  H25 LSS d   1      -5.001  -7.888 -29.726  0.00  0.00     0.080 H 
ATOM      3  H26 LSS d   1      -4.461  -6.195 -29.990  0.00  0.00     0.080 H 
ENDROOT
BRANCH   1   4
ATOM      4  O5  LSS d   1      -5.503  -6.533 -28.178  0.00  0.00    -0.257 OA
BRANCH   4   5
ATOM      5  S1  LSS d   1      -4.232  -6.515 -27.215  0.00  0.00     0.364 S 
ATOM      6  O1A LSS d   1      -4.714  -5.943 -26.009  0.00  0.00    -0.175 OA
ATOM      7  O2A LSS d   1      -3.711  -7.838 -27.250  0.00  0.00    -0.175 OA
BRANCH   5   8
ATOM      8  N2  LSS d   1      -3.077  -5.633 -27.875  0.00  0.00    -0.230 N 
ATOM      9  C1  LSS d   1      -3.157  -4.211 -28.059  0.00  0.00     0.263 C 
ATOM     10  O1  LSS d   1      -4.195  -3.688 -27.675  0.00  0.00    -0.270 OA
ATOM     11  H2  LSS d   1      -2.246  -6.099 -28.179  0.00  0.00     0.183 HD
BRANCH   9  12
ATOM     12  CA  LSS d   1      -1.981  -3.482 -28.671  0.00  0.00     0.177 C 
ATOM     13  H14 LSS d   1      -1.743  -2.603 -28.054  0.00  0.00     0.099 H 
BRANCH  12  14
ATOM     14  N4  LSS d   1      -0.843  -4.416 -28.631  0.00  0.00    -0.066 N 
ATOM     15  H5  LSS d   1      -0.030  -3.973 -29.030  0.00  0.00     0.275 HD
ATOM     16  H6  LSS d   1      -1.069  -5.244 -29.160  0.00  0.00     0.275 HD
ATOM     17  H7  LSS d   1      -0.651  -4.671 -27.675  0.00  0.00     0.275 HD
ENDBRANCH  12  14
BRANCH  12  18
ATOM     18  C9  LSS d   1      -2.285  -2.991 -30.091  0.00  0.00    -0.028 C 
ATOM     19  H12 LSS d   1      -2.216  -3.845 -30.781  0.00  0.00     0.037 H 
ATOM     20  H13 LSS d   1      -3.307  -2.585 -30.111  0.00  0.00     0.037 H 
BRANCH  18  21
ATOM     21  C7  LSS d   1      -1.317  -1.902 -30.562  0.00  0.00    -0.059 C 
ATOM     22  H10 LSS d   1      -0.295  -2.287 -30.430  0.00  0.00     0.038 H 
BRANCH  21  23
ATOM     23  C10 LSS d   1      -1.498  -1.583 -32.045  0.00  0.00    -0.073 C 
ATOM     24  H15 LSS d   1      -0.786  -0.799 -32.341  0.00  0.00     0.028 H 
ATOM     25  H16 LSS d   1      -2.525  -1.231 -32.222  0.00  0.00     0.028 H 
ATOM     26  H17 LSS d   1      -1.313  -2.489 -32.640  0.00  0.00     0.028 H 
ENDBRANCH  21  23
BRANCH  21  27
ATOM     27  C11 LSS d   1      -1.452  -0.641 -29.704  0.00  0.00    -0.073 C 
ATOM     28  H18 LSS d   1      -1.317  -0.902 -28.644  0.00  0.00     0.028 H 
ATOM     29  H19 LSS d   1      -2.451  -0.204 -29.849  0.00  0.00     0.028 H 
ATOM     30  H20 LSS d   1      -0.685   0.089 -30.002  0.00  0.00     0.028 H 
ENDBRANCH  21  27
ENDBRANCH  18  21
ENDBRANCH  12  18
ENDBRANCH   9  12
ENDBRANCH   5   8
ENDBRANCH   4   5
ENDBRANCH   1   4
BRANCH   1  31
ATOM     31  C24 LSS d   1      -6.559  -6.533 -30.333  0.00  0.00     0.090 C 
ATOM     32  O4  LSS d   1      -7.602  -7.426 -29.865  0.00  0.00    -0.353 OA
ATOM     33  C21 LSS d   1      -8.765  -6.679 -29.573  0.00  0.00     0.139 C 
ATOM     34  C22 LSS d   1      -8.264  -5.284 -29.197  0.00  0.00     0.105 C 
ATOM     35  H21 LSS d   1      -9.415  -6.614 -30.458  0.00  0.00     0.122 H 
ATOM     36  C23 LSS d   1      -7.104  -5.102 -30.173  0.00  0.00     0.091 C 
ATOM     37  H22 LSS d   1      -7.912  -5.249 -28.155  0.00  0.00     0.093 H 
ATOM     38  H23 LSS d   1      -6.338  -4.425 -29.767  0.00  0.00     0.091 H 
ATOM     39  H24 LSS d   1      -6.379  -6.712 -31.403  0.00  0.00     0.090 H 
BRANCH  33  40
ATOM     40  N9  LSS d   1      -9.494  -7.333 -28.499  0.00  0.00    -0.294 N 
ATOM     41  C4  LSS d   1     -10.827  -7.668 -28.475  0.00  0.00     0.167 A 
ATOM     42  N3  LSS d   1     -11.695  -7.600 -29.493  0.00  0.00    -0.222 NA
ATOM     43  C5  LSS d   1     -11.103  -8.072 -27.176  0.00  0.00     0.149 A 
ATOM     44  C2  LSS d   1     -12.920  -7.960 -29.100  0.00  0.00     0.091 A 
ATOM     45  N1  LSS d   1     -13.333  -8.355 -27.892  0.00  0.00    -0.222 NA
ATOM     46  H1  LSS d   1     -13.685  -7.927 -29.867  0.00  0.00     0.146 H 
ATOM     47  C6  LSS d   1     -12.432  -8.427 -26.891  0.00  0.00     0.155 A 
ATOM     48  N7  LSS d   1      -9.956  -8.015 -26.404  0.00  0.00    -0.236 NA
ATOM     49  C8  LSS d   1      -9.034  -7.589 -27.224  0.00  0.00     0.071 A 
ATOM     50  H11 LSS d   1      -7.995  -7.448 -26.928  0.00  0.00     0.144 H 
BRANCH  47  51
ATOM     51  N6  LSS d   1     -12.855  -8.811 -25.679  0.00  0.00    -0.382 N 
ATOM     52  H8  LSS d   1     -12.188  -8.874 -24.897  0.00  0.00     0.157 HD
ATOM     53  H9  LSS d   1     -13.847  -9.043 -25.529  0.00  0.00     0.157 HD
ENDBRANCH  47  51
ENDBRANCH  33  40
BRANCH  34  54
ATOM     54  O2  LSS d   1      -9.292  -4.323 -29.376  0.00  0.00    -0.388 OA
ATOM     55  H3  LSS d   1      -8.965  -3.463 -29.139  0.00  0.00     0.210 HD
ENDBRANCH  34  54
BRANCH  36  56
ATOM     56  O3  LSS d   1      -7.586  -4.601 -31.416  0.00  0.00    -0.390 OA
ATOM     57  H4  LSS d   1      -8.210  -5.216 -31.783  0.00  0.00     0.210 HD
ENDBRANCH  36  56
ENDBRANCH   1  31
TORSDOF 14
