REMARK  14 active torsions:
REMARK  status: ('A' for Active; 'I' for Inactive)
REMARK    1  A    between atoms: C4_2  and  N4_21 
REMARK    2  A    between atoms: CA_6  and  N_5 
REMARK    3  A    between atoms: C_7  and  CA_6 
REMARK    4  A    between atoms: CA_6  and  CB_9 
REMARK       I    between atoms: N3S_20  and  C_7 
REMARK    5  A    between atoms: CB_9  and  CG_10 
REMARK    6  A    between atoms: CG_10  and  CD1_11 
REMARK    7  A    between atoms: CG_10  and  CD2_12 
REMARK    8  A    between atoms: C1'_13  and  N1_18 
REMARK    9  A    between atoms: C2'_14  and  O2'_24 
REMARK   10  A    between atoms: C3'_15  and  O3'_26 
REMARK   11  A    between atoms: C5'_17  and  C4'_16 
REMARK   12  A    between atoms: O5'_28  and  C5'_17 
REMARK   13  A    between atoms: S_29  and  N3S_20 
REMARK   14  A    between atoms: O5'_28  and  S_29 
ROOT
ATOM      1  C5' HQ5 d   1      -4.304  -3.433 -29.687  0.00  0.00     0.066 C 
ATOM      2  H20 HQ5 d   1      -3.593  -2.657 -30.007  0.00  0.00     0.080 H 
ATOM      3  H21 HQ5 d   1      -3.916  -4.424 -29.967  0.00  0.00     0.080 H 
ENDROOT
BRANCH   1   4
ATOM      4  C4' HQ5 d   1      -5.649  -3.202 -30.354  0.00  0.00     0.090 C 
ATOM      5  C3' HQ5 d   1      -6.315  -1.851 -30.093  0.00  0.00     0.091 C 
ATOM      6  C2' HQ5 d   1      -7.236  -2.162 -28.912  0.00  0.00     0.105 C 
ATOM      7  H18 HQ5 d   1      -5.568  -1.088 -29.829  0.00  0.00     0.091 H 
ATOM      8  C1' HQ5 d   1      -7.700  -3.570 -29.273  0.00  0.00     0.141 C 
ATOM      9  H17 HQ5 d   1      -6.694  -2.139 -27.955  0.00  0.00     0.093 H 
ATOM     10  O4' HQ5 d   1      -6.610  -4.196 -29.926  0.00  0.00    -0.353 OA
ATOM     11  H16 HQ5 d   1      -8.563  -3.506 -29.951  0.00  0.00     0.123 H 
ATOM     12  H19 HQ5 d   1      -5.490  -3.298 -31.438  0.00  0.00     0.090 H 
BRANCH   5  13
ATOM     13  O3' HQ5 d   1      -7.078  -1.401 -31.211  0.00  0.00    -0.390 OA
ATOM     14  H26 HQ5 d   1      -7.760  -2.034 -31.403  0.00  0.00     0.210 HD
ENDBRANCH   5  13
BRANCH   6  15
ATOM     15  O2' HQ5 d   1      -8.344  -1.271 -28.860  0.00  0.00    -0.388 OA
ATOM     16  H25 HQ5 d   1      -8.028  -0.380 -28.767  0.00  0.00     0.210 HD
ENDBRANCH   6  15
BRANCH   8  17
ATOM     17  N1  HQ5 d   1      -8.076  -4.375 -28.099  0.00  0.00    -0.280 N 
ATOM     18  C2  HQ5 d   1      -9.434  -4.584 -27.839  0.00  0.00     0.330 A 
ATOM     19  N3  HQ5 d   1      -9.791  -5.273 -26.723  0.00  0.00    -0.293 N 
ATOM     20  O2  HQ5 d   1     -10.269  -4.131 -28.624  0.00  0.00    -0.246 OA
ATOM     21  C4  HQ5 d   1      -8.853  -5.748 -25.891  0.00  0.00     0.125 A 
ATOM     22  H22 HQ5 d   1     -10.758  -5.426 -26.521  0.00  0.00     0.172 HD
ATOM     23  C5  HQ5 d   1      -7.463  -5.554 -26.143  0.00  0.00    -0.024 A 
ATOM     24  C6  HQ5 d   1      -7.123  -4.871 -27.248  0.00  0.00    -0.009 A 
ATOM     25  H1  HQ5 d   1      -6.706  -5.945 -25.465  0.00  0.00     0.091 H 
ATOM     26  H2  HQ5 d   1      -6.070  -4.708 -27.472  0.00  0.00     0.112 H 
BRANCH  21  27
ATOM     27  N4  HQ5 d   1      -9.257  -6.424 -24.816  0.00  0.00    -0.284 NA
ATOM     28  H24 HQ5 d   1      -8.578  -6.795 -24.169  0.00  0.00     0.188 HD
ENDBRANCH  21  27
ENDBRANCH   8  17
ENDBRANCH   1   4
BRANCH   1  29
ATOM     29  O5' HQ5 d   1      -4.489  -3.366 -28.232  0.00  0.00    -0.257 OA
BRANCH  29  30
ATOM     30  S   HQ5 d   1      -3.228  -3.352 -27.245  0.00  0.00     0.364 S 
ATOM     31  O1S HQ5 d   1      -2.668  -4.655 -27.240  0.00  0.00    -0.175 OA
ATOM     32  O2S HQ5 d   1      -3.744  -2.774 -26.054  0.00  0.00    -0.175 OA
BRANCH  30  33
ATOM     33  N3S HQ5 d   1      -2.150  -2.335 -27.838  0.00  0.00    -0.230 N 
ATOM     34  C   HQ5 d   1      -2.349  -0.949 -28.024  0.00  0.00     0.263 C 
ATOM     35  O   HQ5 d   1      -3.427  -0.455 -27.707  0.00  0.00    -0.270 OA
ATOM     36  H23 HQ5 d   1      -1.261  -2.710 -28.099  0.00  0.00     0.183 HD
BRANCH  34  37
ATOM     37  CA  HQ5 d   1      -1.165  -0.214 -28.623  0.00  0.00     0.177 C 
ATOM     38  H6  HQ5 d   1      -0.863   0.626 -27.980  0.00  0.00     0.099 H 
BRANCH  37  39
ATOM     39  N   HQ5 d   1      -0.129  -1.261 -28.593  0.00  0.00    -0.066 N 
ATOM     40  H3  HQ5 d   1       0.730  -0.895 -28.973  0.00  0.00     0.275 HD
ATOM     41  H4  HQ5 d   1      -0.431  -2.049 -29.145  0.00  0.00     0.275 HD
ATOM     42  H5  HQ5 d   1       0.023  -1.556 -27.641  0.00  0.00     0.275 HD
ENDBRANCH  37  39
BRANCH  37  43
ATOM     43  CB  HQ5 d   1      -1.501   0.350 -30.006  0.00  0.00    -0.028 C 
ATOM     44  H7  HQ5 d   1      -2.505   0.796 -29.961  0.00  0.00     0.037 H 
ATOM     45  H8  HQ5 d   1      -1.501  -0.482 -30.726  0.00  0.00     0.037 H 
BRANCH  43  46
ATOM     46  CG  HQ5 d   1      -0.528   1.415 -30.508  0.00  0.00    -0.059 C 
ATOM     47  H9  HQ5 d   1       0.490   0.998 -30.487  0.00  0.00     0.038 H 
BRANCH  46  48
ATOM     48  CD1 HQ5 d   1      -0.877   1.792 -31.947  0.00  0.00    -0.073 C 
ATOM     49  H10 HQ5 d   1      -0.175   2.559 -32.306  0.00  0.00     0.028 H 
ATOM     50  H11 HQ5 d   1      -1.903   2.188 -31.984  0.00  0.00     0.028 H 
ATOM     51  H12 HQ5 d   1      -0.805   0.901 -32.587  0.00  0.00     0.028 H 
ENDBRANCH  46  48
BRANCH  46  52
ATOM     52  CD2 HQ5 d   1      -0.562   2.653 -29.620  0.00  0.00    -0.073 C 
ATOM     53  H13 HQ5 d   1      -0.309   2.370 -28.587  0.00  0.00     0.028 H 
ATOM     54  H14 HQ5 d   1      -1.570   3.094 -29.644  0.00  0.00     0.028 H 
ATOM     55  H15 HQ5 d   1       0.169   3.388 -29.988  0.00  0.00     0.028 H 
ENDBRANCH  46  52
ENDBRANCH  43  46
ENDBRANCH  37  43
ENDBRANCH  34  37
ENDBRANCH  30  33
ENDBRANCH  29  30
ENDBRANCH   1  29
TORSDOF 14
