REMARK  14 active torsions:
REMARK  status: ('A' for Active; 'I' for Inactive)
REMARK    1  A    between atoms: CA_2  and  N_1 
REMARK    2  A    between atoms: C_3  and  CA_2 
REMARK    3  A    between atoms: CA_2  and  CB_5 
REMARK       I    between atoms: N3S_21  and  C_3 
REMARK    4  A    between atoms: CB_5  and  CG_6 
REMARK    5  A    between atoms: CG_6  and  CD1_7 
REMARK    6  A    between atoms: CG_6  and  CD2_8 
REMARK    7  A    between atoms: C1'_9  and  N1_19 
REMARK    8  A    between atoms: C2'_11  and  O2'_24 
REMARK    9  A    between atoms: C3'_12  and  O3'_26 
REMARK   10  A    between atoms: N3_20  and  C3U_13 
REMARK   11  A    between atoms: C5'_17  and  C4'_15 
REMARK   12  A    between atoms: O5'_29  and  C5'_17 
REMARK   13  A    between atoms: S_30  and  N3S_21 
REMARK   14  A    between atoms: O5'_29  and  S_30 
ROOT
ATOM      1  C5' L3U d   1      -4.790  -5.675 -29.469  0.00  0.00     0.066 C 
ATOM      2  H22 L3U d   1      -3.958  -5.092 -29.889  0.00  0.00     0.080 H 
ATOM      3  H23 L3U d   1      -4.564  -6.748 -29.552  0.00  0.00     0.080 H 
ENDROOT
BRANCH   1   4
ATOM      4  C4' L3U d   1      -6.075  -5.352 -30.193  0.00  0.00     0.090 C 
ATOM      5  C3' L3U d   1      -6.547  -3.901 -30.045  0.00  0.00     0.091 C 
ATOM      6  C2' L3U d   1      -7.722  -4.015 -29.064  0.00  0.00     0.105 C 
ATOM      7  H16 L3U d   1      -5.755  -3.270 -29.615  0.00  0.00     0.091 H 
ATOM      8  C1' L3U d   1      -8.282  -5.371 -29.460  0.00  0.00     0.141 C 
ATOM      9  H15 L3U d   1      -7.368  -3.995 -28.023  0.00  0.00     0.093 H 
ATOM     10  O4' L3U d   1      -7.150  -6.184 -29.689  0.00  0.00    -0.353 OA
ATOM     11  H14 L3U d   1      -8.880  -5.273 -30.378  0.00  0.00     0.123 H 
ATOM     12  H20 L3U d   1      -5.920  -5.561 -31.262  0.00  0.00     0.090 H 
BRANCH   5  13
ATOM     13  O3' L3U d   1      -6.905  -3.382 -31.322  0.00  0.00    -0.390 OA
ATOM     14  H27 L3U d   1      -7.606  -3.906 -31.691  0.00  0.00     0.210 HD
ENDBRANCH   5  13
BRANCH   6  15
ATOM     15  O2' L3U d   1      -8.744  -3.045 -29.234  0.00  0.00    -0.388 OA
ATOM     16  H26 L3U d   1      -8.377  -2.176 -29.119  0.00  0.00     0.210 HD
ENDBRANCH   6  15
BRANCH   8  17
ATOM     17  N1  L3U d   1      -9.113  -5.984 -28.412  0.00  0.00    -0.279 N 
ATOM     18  C2  L3U d   1     -10.457  -6.113 -28.697  0.00  0.00     0.333 A 
ATOM     19  N3  L3U d   1     -11.248  -6.578 -27.655  0.00  0.00    -0.271 N 
ATOM     20  O2  L3U d   1     -10.929  -5.889 -29.797  0.00  0.00    -0.246 OA
ATOM     21  C4  L3U d   1     -10.768  -6.941 -26.392  0.00  0.00     0.252 A 
ATOM     22  C5  L3U d   1      -9.352  -6.818 -26.213  0.00  0.00    -0.002 A 
ATOM     23  O4  L3U d   1     -11.558  -7.286 -25.518  0.00  0.00    -0.268 OA
ATOM     24  C6  L3U d   1      -8.579  -6.344 -27.202  0.00  0.00    -0.008 A 
ATOM     25  H21 L3U d   1      -8.899  -7.112 -25.267  0.00  0.00     0.094 H 
ATOM     26  H24 L3U d   1      -7.507  -6.243 -27.040  0.00  0.00     0.112 H 
BRANCH  19  27
ATOM     27  C3U L3U d   1     -12.689  -6.676 -27.907  0.00  0.00    -0.007 C 
ATOM     28  H17 L3U d   1     -12.903  -6.357 -28.938  0.00  0.00     0.057 H 
ATOM     29  H18 L3U d   1     -13.229  -6.027 -27.203  0.00  0.00     0.057 H 
ATOM     30  H19 L3U d   1     -13.015  -7.718 -27.770  0.00  0.00     0.057 H 
ENDBRANCH  19  27
ENDBRANCH   8  17
ENDBRANCH   1   4
BRANCH   1  31
ATOM     31  O5' L3U d   1      -5.010  -5.312 -28.082  0.00  0.00    -0.257 OA
BRANCH  31  32
ATOM     32  S   L3U d   1      -3.766  -5.287 -27.085  0.00  0.00     0.364 S 
ATOM     33  O1S L3U d   1      -4.404  -4.834 -25.904  0.00  0.00    -0.175 OA
ATOM     34  O2S L3U d   1      -3.093  -6.535 -27.136  0.00  0.00    -0.175 OA
BRANCH  32  35
ATOM     35  N3S L3U d   1      -2.664  -4.280 -27.647  0.00  0.00    -0.230 N 
ATOM     36  C   L3U d   1      -2.809  -2.880 -27.879  0.00  0.00     0.263 C 
ATOM     37  O   L3U d   1      -3.854  -2.331 -27.535  0.00  0.00    -0.270 OA
ATOM     38  H25 L3U d   1      -1.770  -4.675 -27.861  0.00  0.00     0.183 HD
BRANCH  36  39
ATOM     39  CA  L3U d   1      -1.596  -2.170 -28.509  0.00  0.00     0.177 C 
ATOM     40  H4  L3U d   1      -1.285  -1.342 -27.855  0.00  0.00     0.099 H 
BRANCH  39  41
ATOM     41  N   L3U d   1      -0.503  -3.162 -28.591  0.00  0.00    -0.066 N 
ATOM     42  H1  L3U d   1       0.311  -2.732 -29.000  0.00  0.00     0.275 HD
ATOM     43  H2  L3U d   1      -0.796  -3.938 -29.163  0.00  0.00     0.275 HD
ATOM     44  H3  L3U d   1      -0.279  -3.493 -27.665  0.00  0.00     0.275 HD
ENDBRANCH  39  41
BRANCH  39  45
ATOM     45  CB  L3U d   1      -1.925  -1.594 -29.886  0.00  0.00    -0.028 C 
ATOM     46  H5  L3U d   1      -2.896  -1.081 -29.826  0.00  0.00     0.037 H 
ATOM     47  H6  L3U d   1      -1.993  -2.425 -30.604  0.00  0.00     0.037 H 
BRANCH  45  48
ATOM     48  CG  L3U d   1      -0.885  -0.600 -30.396  0.00  0.00    -0.059 C 
ATOM     49  H7  L3U d   1       0.105  -1.079 -30.378  0.00  0.00     0.038 H 
BRANCH  48  50
ATOM     50  CD1 L3U d   1      -0.859   0.614 -29.481  0.00  0.00    -0.073 C 
ATOM     51  H8  L3U d   1      -0.110   1.332 -29.846  0.00  0.00     0.028 H 
ATOM     52  H9  L3U d   1      -0.597   0.298 -28.460  0.00  0.00     0.028 H 
ATOM     53  H10 L3U d   1      -1.851   1.090 -29.475  0.00  0.00     0.028 H 
ENDBRANCH  48  50
BRANCH  48  54
ATOM     54  CD2 L3U d   1      -1.202  -0.195 -31.825  0.00  0.00    -0.073 C 
ATOM     55  H11 L3U d   1      -1.215  -1.089 -32.465  0.00  0.00     0.028 H 
ATOM     56  H12 L3U d   1      -0.434   0.504 -32.187  0.00  0.00     0.028 H 
ATOM     57  H13 L3U d   1      -2.187   0.293 -31.858  0.00  0.00     0.028 H 
ENDBRANCH  48  54
ENDBRANCH  45  48
ENDBRANCH  39  45
ENDBRANCH  36  39
ENDBRANCH  32  35
ENDBRANCH  31  32
ENDBRANCH   1  31
TORSDOF 14
