REMARK  13 active torsions:
REMARK  status: ('A' for Active; 'I' for Inactive)
REMARK    1  A    between atoms: CA_2  and  N_1 
REMARK    2  A    between atoms: C_3  and  CA_2 
REMARK    3  A    between atoms: CA_2  and  CB_5 
REMARK       I    between atoms: N3S_20  and  C_3 
REMARK    4  A    between atoms: CB_5  and  CG_6 
REMARK    5  A    between atoms: CG_6  and  CD1_7 
REMARK    6  A    between atoms: CG_6  and  CD2_8 
REMARK    7  A    between atoms: C1'_9  and  N1_18 
REMARK    8  A    between atoms: C2'_11  and  O2'_23 
REMARK    9  A    between atoms: C3'_12  and  O3'_25 
REMARK   10  A    between atoms: C5'_16  and  C4'_14 
REMARK   11  A    between atoms: O5'_28  and  C5'_16 
REMARK   12  A    between atoms: S_29  and  N3S_20 
REMARK   13  A    between atoms: O5'_28  and  S_29 
ROOT
ATOM      1  C5' LSU d   1      -4.829  -5.959 -29.745  0.00  0.00     0.066 C 
ATOM      2  H19 LSU d   1      -4.076  -5.220 -30.055  0.00  0.00     0.080 H 
ATOM      3  H20 LSU d   1      -4.445  -6.973 -29.929  0.00  0.00     0.080 H 
ENDROOT
BRANCH   1   4
ATOM      4  C4' LSU d   1      -6.105  -5.745 -30.507  0.00  0.00     0.090 C 
ATOM      5  C3' LSU d   1      -6.792  -4.405 -30.302  0.00  0.00     0.091 C 
ATOM      6  C2' LSU d   1      -7.849  -4.732 -29.270  0.00  0.00     0.105 C 
ATOM      7  H16 LSU d   1      -6.088  -3.644 -29.934  0.00  0.00     0.091 H 
ATOM      8  C1' LSU d   1      -8.248  -6.129 -29.687  0.00  0.00     0.141 C 
ATOM      9  H15 LSU d   1      -7.444  -4.699 -28.248  0.00  0.00     0.093 H 
ATOM     10  O4' LSU d   1      -7.068  -6.746 -30.138  0.00  0.00    -0.353 OA
ATOM     11  H14 LSU d   1      -9.013  -6.098 -30.477  0.00  0.00     0.123 H 
ATOM     12  H17 LSU d   1      -5.868  -5.846 -31.576  0.00  0.00     0.090 H 
BRANCH   5  13
ATOM     13  O3' LSU d   1      -7.399  -3.960 -31.496  0.00  0.00    -0.390 OA
ATOM     14  H25 LSU d   1      -8.047  -4.596 -31.776  0.00  0.00     0.210 HD
ENDBRANCH   5  13
BRANCH   6  15
ATOM     15  O2' LSU d   1      -8.968  -3.887 -29.377  0.00  0.00    -0.388 OA
ATOM     16  H24 LSU d   1      -8.696  -2.986 -29.249  0.00  0.00     0.210 HD
ENDBRANCH   6  15
BRANCH   8  17
ATOM     17  N1  LSU d   1      -8.722  -6.880 -28.555  0.00  0.00    -0.280 N 
ATOM     18  C2  LSU d   1     -10.070  -6.900 -28.284  0.00  0.00     0.331 A 
ATOM     19  N3  LSU d   1     -10.408  -7.480 -27.097  0.00  0.00    -0.275 N 
ATOM     20  O2  LSU d   1     -10.908  -6.490 -29.062  0.00  0.00    -0.246 OA
ATOM     21  C4  LSU d   1      -9.551  -8.066 -26.193  0.00  0.00     0.250 A 
ATOM     22  H22 LSU d   1     -11.379  -7.480 -26.858  0.00  0.00     0.173 HD
ATOM     23  C5  LSU d   1      -8.180  -8.042 -26.563  0.00  0.00    -0.002 A 
ATOM     24  O4  LSU d   1     -10.004  -8.581 -25.169  0.00  0.00    -0.268 OA
ATOM     25  C6  LSU d   1      -7.816  -7.460 -27.709  0.00  0.00    -0.008 A 
ATOM     26  H18 LSU d   1      -7.430  -8.495 -25.916  0.00  0.00     0.094 H 
ATOM     27  H21 LSU d   1      -6.761  -7.447 -27.980  0.00  0.00     0.112 H 
ENDBRANCH   8  17
ENDBRANCH   1   4
BRANCH   1  28
ATOM     28  O5' LSU d   1      -5.137  -5.795 -28.357  0.00  0.00    -0.257 OA
BRANCH  28  29
ATOM     29  S   LSU d   1      -3.935  -5.872 -27.341  0.00  0.00     0.364 S 
ATOM     30  O1S LSU d   1      -3.375  -7.156 -27.454  0.00  0.00    -0.175 OA
ATOM     31  O2S LSU d   1      -4.538  -5.448 -26.142  0.00  0.00    -0.175 OA
BRANCH  29  32
ATOM     32  N3S LSU d   1      -2.831  -4.851 -27.841  0.00  0.00    -0.230 N 
ATOM     33  C   LSU d   1      -2.886  -3.509 -28.124  0.00  0.00     0.263 C 
ATOM     34  O   LSU d   1      -3.911  -2.914 -27.866  0.00  0.00    -0.270 OA
ATOM     35  H23 LSU d   1      -1.928  -5.260 -27.975  0.00  0.00     0.183 HD
BRANCH  33  36
ATOM     36  CA  LSU d   1      -1.680  -2.821 -28.755  0.00  0.00     0.177 C 
ATOM     37  H4  LSU d   1      -1.304  -2.030 -28.090  0.00  0.00     0.099 H 
BRANCH  36  38
ATOM     38  N   LSU d   1      -0.656  -3.838 -28.909  0.00  0.00    -0.066 N 
ATOM     39  H1  LSU d   1       0.165  -3.428 -29.325  0.00  0.00     0.275 HD
ATOM     40  H2  LSU d   1      -1.001  -4.575 -29.504  0.00  0.00     0.275 HD
ATOM     41  H3  LSU d   1      -0.421  -4.218 -28.005  0.00  0.00     0.275 HD
ENDBRANCH  36  38
BRANCH  36  42
ATOM     42  CB  LSU d   1      -2.120  -2.185 -30.070  0.00  0.00    -0.028 C 
ATOM     43  H5  LSU d   1      -3.088  -1.695 -29.891  0.00  0.00     0.037 H 
ATOM     44  H6  LSU d   1      -2.250  -2.997 -30.801  0.00  0.00     0.037 H 
BRANCH  42  45
ATOM     45  CG  LSU d   1      -1.199  -1.155 -30.695  0.00  0.00    -0.059 C 
ATOM     46  H7  LSU d   1      -0.182  -1.575 -30.705  0.00  0.00     0.038 H 
BRANCH  45  47
ATOM     47  CD1 LSU d   1      -1.152   0.132 -29.904  0.00  0.00    -0.073 C 
ATOM     48  H8  LSU d   1      -0.472   0.842 -30.399  0.00  0.00     0.028 H 
ATOM     49  H9  LSU d   1      -0.788  -0.076 -28.887  0.00  0.00     0.028 H 
ATOM     50  H10 LSU d   1      -2.161   0.567 -29.851  0.00  0.00     0.028 H 
ENDBRANCH  45  47
BRANCH  45  51
ATOM     51  CD2 LSU d   1      -1.612  -0.902 -32.117  0.00  0.00    -0.073 C 
ATOM     52  H11 LSU d   1      -1.637  -1.855 -32.666  0.00  0.00     0.028 H 
ATOM     53  H12 LSU d   1      -0.890  -0.223 -32.593  0.00  0.00     0.028 H 
ATOM     54  H13 LSU d   1      -2.612  -0.443 -32.132  0.00  0.00     0.028 H 
ENDBRANCH  45  51
ENDBRANCH  42  45
ENDBRANCH  36  42
ENDBRANCH  33  36
ENDBRANCH  29  32
ENDBRANCH  28  29
ENDBRANCH   1  28
TORSDOF 13
