REMARK  6 active torsions:
REMARK  status: ('A' for Active; 'I' for Inactive)
REMARK    1  A    between atoms: N_1  and  C_2 
REMARK    2  A    between atoms: C9_13  and  N3_16 
REMARK    3  A    between atoms: N3_16  and  C10_17 
REMARK    4  A    between atoms: C10_17  and  C11_18 
REMARK    5  A    between atoms: C11_18  and  C12_19 
REMARK    6  A    between atoms: C12_19  and  N4_20 
ROOT
ATOM      1  N3  FG9 d   1     -11.472  10.658  14.833  0.00  0.00    -0.222 N 
ATOM      2  H8  FG9 d   1     -10.979  11.524  15.093  0.00  0.00     0.177 HD
ENDROOT
BRANCH   1   3
ATOM      3  C9  FG9 d   1     -12.652  10.492  15.460  0.00  0.00     0.722 A 
ATOM      4  N5  FG9 d   1     -12.913  11.431  16.353  0.00  0.00    -0.060 NA
ATOM      5  C17 FG9 d   1     -14.058  11.320  17.032  0.00  0.00     0.114 A 
ATOM      6  C   FG9 d   1     -14.294  12.349  17.916  0.00  0.00     0.067 A 
ATOM      7  C7  FG9 d   1     -14.981  10.264  16.850  0.00  0.00     0.015 A 
ATOM      8  C1  FG9 d   1     -15.477  12.371  18.663  0.00  0.00     0.005 A 
ATOM      9  C5  FG9 d   1     -16.398  11.300  18.538  0.00  0.00    -0.005 A 
ATOM     10  C2  FG9 d   1     -15.784  13.391  19.589  0.00  0.00    -0.053 A 
ATOM     11  C6  FG9 d   1     -16.130  10.270  17.639  0.00  0.00    -0.057 A 
ATOM     12  C4  FG9 d   1     -17.538  11.337  19.363  0.00  0.00     0.013 A 
ATOM     13  H3  FG9 d   1     -16.834   9.451  17.551  0.00  0.00     0.086 H 
ATOM     14  N1  FG9 d   1     -17.795  12.298  20.239  0.00  0.00    -0.272 NA
ATOM     15  H4  FG9 d   1     -18.253  10.527  19.276  0.00  0.00     0.116 H 
ATOM     16  C3  FG9 d   1     -16.920  13.304  20.327  0.00  0.00     0.003 A 
ATOM     17  H5  FG9 d   1     -17.130  14.100  21.032  0.00  0.00     0.114 H 
ATOM     18  H6  FG9 d   1     -15.118  14.237  19.710  0.00  0.00     0.087 H 
ATOM     19  C8  FG9 d   1     -14.550   9.338  15.846  0.00  0.00     0.033 A 
ATOM     20  N2  FG9 d   1     -13.426   9.432  15.167  0.00  0.00    -0.074 NA
ATOM     21  H7  FG9 d   1     -15.198   8.496  15.629  0.00  0.00     0.117 H 
BRANCH   6  22
ATOM     22  N   FG9 d   1     -13.400  13.330  18.041  0.00  0.00    -0.396 N 
ATOM     23  H1  FG9 d   1     -12.531  13.308  17.488  0.00  0.00     0.156 HD
ATOM     24  H2  FG9 d   1     -13.578  14.110  18.690  0.00  0.00     0.156 HD
ENDBRANCH   6  22
ENDBRANCH   1   3
BRANCH   1  25
ATOM     25  C10 FG9 d   1     -10.767   9.851  13.864  0.00  0.00     0.011 C 
ATOM     26  H9  FG9 d   1     -11.089  10.112  12.845  0.00  0.00     0.064 H 
ATOM     27  H10 FG9 d   1     -10.958   8.783  14.047  0.00  0.00     0.064 H 
BRANCH  25  28
ATOM     28  C11 FG9 d   1      -9.308  10.156  14.042  0.00  0.00    -0.027 C 
ATOM     29  H11 FG9 d   1      -8.828  10.173  13.053  0.00  0.00     0.037 H 
ATOM     30  H12 FG9 d   1      -8.854   9.364  14.657  0.00  0.00     0.037 H 
BRANCH  28  31
ATOM     31  C12 FG9 d   1      -9.074  11.490  14.718  0.00  0.00     0.085 C 
ATOM     32  H13 FG9 d   1     -10.039  11.878  15.077  0.00  0.00     0.076 H 
ATOM     33  H14 FG9 d   1      -8.649  12.189  13.983  0.00  0.00     0.076 H 
BRANCH  31  34
ATOM     34  N4  FG9 d   1      -8.156  11.387  15.854  0.00  0.00    -0.067 N 
ATOM     35  C16 FG9 d   1      -6.789  11.032  15.425  0.00  0.00     0.103 C 
ATOM     36  C15 FG9 d   1      -6.080  12.237  14.869  0.00  0.00     0.042 C 
ATOM     37  H16 FG9 d   1      -6.844  10.255  14.649  0.00  0.00     0.079 H 
ATOM     38  H17 FG9 d   1      -6.227  10.648  16.289  0.00  0.00     0.079 H 
ATOM     39  O   FG9 d   1      -6.002  13.268  15.829  0.00  0.00    -0.388 OA
ATOM     40  H18 FG9 d   1      -6.631  12.605  13.991  0.00  0.00     0.076 H 
ATOM     41  H19 FG9 d   1      -5.062  11.948  14.569  0.00  0.00     0.076 H 
ATOM     42  C14 FG9 d   1      -7.323  13.702  16.095  0.00  0.00     0.042 C 
ATOM     43  C13 FG9 d   1      -8.162  12.599  16.704  0.00  0.00     0.103 C 
ATOM     44  H20 FG9 d   1      -7.789  14.025  15.152  0.00  0.00     0.076 H 
ATOM     45  H21 FG9 d   1      -7.286  14.550  16.795  0.00  0.00     0.076 H 
ATOM     46  H22 FG9 d   1      -7.755  12.345  17.694  0.00  0.00     0.079 H 
ATOM     47  H23 FG9 d   1      -9.197  12.955  16.813  0.00  0.00     0.079 H 
ATOM     48  H15 FG9 d   1      -8.489  10.628  16.428  0.00  0.00     0.280 HD
ENDBRANCH  31  34
ENDBRANCH  28  31
ENDBRANCH  25  28
ENDBRANCH   1  25
TORSDOF 6
