REMARK  2 active torsions:
REMARK  status: ('A' for Active; 'I' for Inactive)
REMARK    1  A    between atoms: C8_8  and  N1_13 
REMARK    2  A    between atoms: N3_17  and  C10_10 
ROOT
ATOM      1  C1  HQB d   1     -13.588   4.263  36.533  0.00  0.00    -0.053 A 
ATOM      2  C2  HQB d   1     -13.475   4.677  37.824  0.00  0.00     0.003 A 
ATOM      3  C3  HQB d   1     -13.233   2.556  38.613  0.00  0.00     0.013 A 
ATOM      4  C4  HQB d   1     -13.335   1.989  37.321  0.00  0.00    -0.005 A 
ATOM      5  C5  HQB d   1     -13.251   0.619  37.082  0.00  0.00    -0.057 A 
ATOM      6  C6  HQB d   1     -13.308   0.057  35.804  0.00  0.00     0.015 A 
ATOM      7  C7  HQB d   1     -13.477   0.927  34.698  0.00  0.00     0.121 A 
ATOM      8  C8  HQB d   1     -13.590   2.333  34.941  0.00  0.00     0.144 A 
ATOM      9  C9  HQB d   1     -13.346  -0.858  33.255  0.00  0.00     0.722 A 
ATOM     10  C11 HQB d   1     -13.179  -1.309  35.452  0.00  0.00     0.033 A 
ATOM     11  C   HQB d   1     -13.514   2.881  36.235  0.00  0.00     0.012 A 
ATOM     12  N2  HQB d   1     -13.501   0.464  33.415  0.00  0.00    -0.060 NA
ATOM     13  N3  HQB d   1     -13.295  -1.308  31.996  0.00  0.00    -0.227 N 
ATOM     14  N4  HQB d   1     -13.195  -1.771  34.223  0.00  0.00    -0.074 NA
ATOM     15  N   HQB d   1     -13.297   3.853  38.865  0.00  0.00    -0.272 NA
ATOM     16  H1  HQB d   1     -13.734   4.986  35.739  0.00  0.00     0.087 H 
ATOM     17  H2  HQB d   1     -13.533   5.741  38.023  0.00  0.00     0.114 H 
ATOM     18  H3  HQB d   1     -13.093   1.883  39.452  0.00  0.00     0.116 H 
ATOM     19  H4  HQB d   1     -13.136  -0.045  37.931  0.00  0.00     0.086 H 
ATOM     20  H8  HQB d   1     -13.058  -2.026  36.256  0.00  0.00     0.117 H 
ATOM     21  H9  HQB d   1     -13.183  -2.321  31.846  0.00  0.00     0.177 HD
ENDROOT
BRANCH  13  22
ATOM     22  C10 HQB d   1     -13.388  -0.452  30.836  0.00  0.00    -0.005 C 
ATOM     23  H5  HQB d   1     -13.320  -1.062  29.924  0.00  0.00     0.057 H 
ATOM     24  H6  HQB d   1     -12.565   0.277  30.852  0.00  0.00     0.057 H 
ATOM     25  H7  HQB d   1     -14.350   0.081  30.850  0.00  0.00     0.057 H 
ENDBRANCH  13  22
BRANCH   8  26
ATOM     26  N1  HQB d   1     -13.767   3.219  33.822  0.00  0.00    -0.112 N 
ATOM     27  O1  HQB d   1     -14.618   4.089  33.910  0.00  0.00    -0.532 OA
ATOM     28  O   HQB d   1     -13.046   3.074  32.849  0.00  0.00    -0.532 OA
ENDBRANCH   8  26
TORSDOF 2
