REMARK  11 active torsions:
REMARK  status: ('A' for Active; 'I' for Inactive)
REMARK    1  A    between atoms: C3_2  and  N15_28 
REMARK    2  A    between atoms: C10_26  and  C11_3 
REMARK    3  A    between atoms: C10_26  and  C12_4 
REMARK    4  A    between atoms: O13_27  and  C14_5 
REMARK    5  A    between atoms: N15_28  and  C16_6 
REMARK    6  A    between atoms: C21_10  and  C23_11 
REMARK    7  A    between atoms: N15_28  and  C29_17 
REMARK    8  A    between atoms: C5_21  and  O13_27 
REMARK    9  A    between atoms: N7_23  and  C6_22 
REMARK   10  A    between atoms: C9_25  and  C10_26 
REMARK   11  A    between atoms: C32_32  and  N20_29 
ROOT
ATOM      1  C23 HRE d   1     -15.884  -2.848   6.800  0.00  0.00    -0.030 A 
ATOM      2  C24 HRE d   1     -16.483  -2.174   5.721  0.00  0.00    -0.073 A 
ATOM      3  C25 HRE d   1     -17.729  -4.181   5.157  0.00  0.00     0.044 A 
ATOM      4  C26 HRE d   1     -17.124  -4.863   6.214  0.00  0.00    -0.062 A 
ATOM      5  C27 HRE d   1     -17.415  -2.836   4.901  0.00  0.00    -0.062 A 
ATOM      6  C28 HRE d   1     -16.190  -4.202   7.024  0.00  0.00    -0.073 A 
ATOM      7  C30 HRE d   1     -18.670  -4.881   4.330  0.00  0.00     0.099 C 
ATOM      8  N31 HRE d   1     -19.425  -5.444   3.665  0.00  0.00    -0.191 NA
ATOM      9  H15 HRE d   1     -16.226  -1.140   5.520  0.00  0.00     0.084 H 
ATOM     10  H16 HRE d   1     -17.375  -5.899   6.408  0.00  0.00     0.085 H 
ATOM     11  H17 HRE d   1     -17.887  -2.312   4.078  0.00  0.00     0.085 H 
ATOM     12  H18 HRE d   1     -15.700  -4.739   7.829  0.00  0.00     0.084 H 
ENDROOT
BRANCH   1  13
ATOM     13  C21 HRE d   1     -14.812  -2.135   7.652  0.00  0.00     0.075 A 
ATOM     14  C17 HRE d   1     -14.894  -2.305   9.151  0.00  0.00     0.031 A 
ATOM     15  C18 HRE d   1     -13.703  -2.922   9.621  0.00  0.00     0.156 A 
ATOM     16  C9  HRE d   1     -15.637  -2.061  10.261  0.00  0.00     0.051 A 
ATOM     17  C19 HRE d   1     -12.836  -3.209   8.498  0.00  0.00     0.280 A 
ATOM     18  N8  HRE d   1     -13.757  -3.054  10.867  0.00  0.00    -0.161 NA
ATOM     19  N20 HRE d   1     -13.474  -2.800   7.373  0.00  0.00    -0.294 N 
ATOM     20  O22 HRE d   1     -11.748  -3.743   8.651  0.00  0.00    -0.265 OA
ATOM     21  N7  HRE d   1     -14.936  -2.536  11.279  0.00  0.00    -0.231 N 
ATOM     22  H14 HRE d   1     -14.806  -1.066   7.391  0.00  0.00     0.089 H 
BRANCH  19  23
ATOM     23  C32 HRE d   1     -12.886  -2.856   6.135  0.00  0.00     0.108 A 
ATOM     24  C33 HRE d   1     -11.952  -1.733   5.852  0.00  0.00     0.272 A 
ATOM     25  N36 HRE d   1     -11.290  -1.638   4.671  0.00  0.00    -0.330 N 
ATOM     26  O38 HRE d   1     -11.793  -0.880   6.721  0.00  0.00    -0.266 OA
ATOM     27  C34 HRE d   1     -11.439  -2.554   3.687  0.00  0.00     0.001 A 
ATOM     28  H24 HRE d   1     -10.672  -0.866   4.524  0.00  0.00     0.168 HD
ATOM     29  C35 HRE d   1     -12.247  -3.610   3.880  0.00  0.00     0.051 A 
ATOM     30  H23 HRE d   1     -10.907  -2.436   2.744  0.00  0.00     0.114 H 
ATOM     31  C37 HRE d   1     -12.993  -3.777   5.150  0.00  0.00    -0.029 A 
ATOM     32 CL   HRE d   1     -12.436  -4.794   2.604  0.00  0.00    -0.083 Cl
ATOM     33  H25 HRE d   1     -13.632  -4.647   5.291  0.00  0.00     0.089 H 
ENDBRANCH  19  23
BRANCH  21  34
ATOM     34  C6  HRE d   1     -15.313  -2.477  12.581  0.00  0.00     0.130 A 
ATOM     35  C1  HRE d   1     -14.726  -1.521  13.418  0.00  0.00     0.053 A 
ATOM     36  N2  HRE d   1     -15.108  -1.434  14.715  0.00  0.00    -0.073 NA
ATOM     37  H1  HRE d   1     -13.967  -0.852  13.029  0.00  0.00     0.119 H 
ATOM     38  C3  HRE d   1     -16.059  -2.265  15.221  0.00  0.00     0.726 A 
ATOM     39  N4  HRE d   1     -16.643  -3.185  14.412  0.00  0.00    -0.036 NA
ATOM     40  C5  HRE d   1     -16.297  -3.311  13.112  0.00  0.00     0.213 A 
BRANCH  38  41
ATOM     41  N15 HRE d   1     -16.457  -2.163  16.519  0.00  0.00    -0.223 N 
BRANCH  41  42
ATOM     42  C16 HRE d   1     -17.375  -3.155  17.083  0.00  0.00    -0.003 C 
ATOM     43  H11 HRE d   1     -17.580  -2.909  18.135  0.00  0.00     0.057 H 
ATOM     44  H12 HRE d   1     -16.918  -4.154  17.023  0.00  0.00     0.057 H 
ATOM     45  H13 HRE d   1     -18.317  -3.148  16.515  0.00  0.00     0.057 H 
ENDBRANCH  41  42
BRANCH  41  46
ATOM     46  C29 HRE d   1     -15.987  -1.032  17.337  0.00  0.00    -0.003 C 
ATOM     47  H19 HRE d   1     -15.310  -0.403  16.739  0.00  0.00     0.057 H 
ATOM     48  H20 HRE d   1     -15.450  -1.415  18.218  0.00  0.00     0.057 H 
ATOM     49  H21 HRE d   1     -16.849  -0.433  17.665  0.00  0.00     0.057 H 
ENDBRANCH  41  46
ENDBRANCH  38  41
BRANCH  40  50
ATOM     50  O13 HRE d   1     -16.897  -4.252  12.285  0.00  0.00    -0.337 OA
BRANCH  50  51
ATOM     51  C14 HRE d   1     -17.939  -5.040  12.885  0.00  0.00     0.012 C 
ATOM     52  H8  HRE d   1     -18.338  -5.746  12.142  0.00  0.00     0.067 H 
ATOM     53  H9  HRE d   1     -18.746  -4.378  13.232  0.00  0.00     0.067 H 
ATOM     54  H10 HRE d   1     -17.530  -5.599  13.740  0.00  0.00     0.067 H 
ENDBRANCH  50  51
ENDBRANCH  40  50
ENDBRANCH  21  34
BRANCH  16  55
ATOM     55  C10 HRE d   1     -17.014  -1.413  10.333  0.00  0.00    -0.018 C 
ATOM     56  H22 HRE d   1     -17.217  -1.275  11.405  0.00  0.00     0.048 H 
BRANCH  55  57
ATOM     57  C11 HRE d   1     -17.036   0.010   9.711  0.00  0.00    -0.068 C 
ATOM     58  H2  HRE d   1     -18.050   0.429   9.790  0.00  0.00     0.028 H 
ATOM     59  H3  HRE d   1     -16.745  -0.048   8.652  0.00  0.00     0.028 H 
ATOM     60  H4  HRE d   1     -16.329   0.657  10.251  0.00  0.00     0.028 H 
ENDBRANCH  55  57
BRANCH  55  61
ATOM     61  C12 HRE d   1     -18.173  -2.309   9.802  0.00  0.00    -0.068 C 
ATOM     62  H5  HRE d   1     -18.113  -3.302  10.271  0.00  0.00     0.028 H 
ATOM     63  H6  HRE d   1     -18.085  -2.413   8.710  0.00  0.00     0.028 H 
ATOM     64  H7  HRE d   1     -19.139  -1.844  10.050  0.00  0.00     0.028 H 
ENDBRANCH  55  61
ENDBRANCH  16  55
ENDBRANCH   1  13
TORSDOF 11
