REMARK  6 active torsions:
REMARK  status: ('A' for Active; 'I' for Inactive)
REMARK    1  A    between atoms: C33_22  and  C42_3 
REMARK    2  A    between atoms: C32_21  and  C12_4 
REMARK    3  A    between atoms: C19_7  and  C20_8 
REMARK    4  A    between atoms: C20_8  and  C22_9 
REMARK    5  A    between atoms: C20_8  and  C26_10 
REMARK    6  A    between atoms: N11_17  and  C10_16 
ROOT
ATOM      1  C12 HRH d   1       6.320  12.257   0.851  0.00  0.00     0.076 A 
ATOM      2  C14 HRH d   1       7.752  12.456   1.217  0.00  0.00     0.030 A 
ATOM      3  C15 HRH d   1       8.073  11.951   2.394  0.00  0.00     0.129 A 
ATOM      4  C19 HRH d   1       8.990  13.012   0.679  0.00  0.00     0.069 A 
ATOM      5  C30 HRH d   1       6.880  11.360   2.988  0.00  0.00     0.278 A 
ATOM      6  N11 HRH d   1       5.896  11.544   2.085  0.00  0.00    -0.296 N 
ATOM      7  N16 HRH d   1       9.322  12.140   2.654  0.00  0.00    -0.272 N 
ATOM      8  N18 HRH d   1       9.854  12.783   1.587  0.00  0.00    -0.178 NA
ATOM      9  O31 HRH d   1       6.814  10.814   4.077  0.00  0.00    -0.265 OA
ATOM     10  H4  HRH d   1       6.245  11.618  -0.041  0.00  0.00     0.089 H 
ATOM     11  H15 HRH d   1       9.820  11.856   3.510  0.00  0.00     0.189 HD
ENDROOT
BRANCH   1  12
ATOM     12  C32 HRH d   1       5.425  13.493   0.621  0.00  0.00    -0.024 A 
ATOM     13  C33 HRH d   1       4.391  13.501  -0.340  0.00  0.00    -0.052 A 
ATOM     14  C34 HRH d   1       3.570  14.625  -0.464  0.00  0.00    -0.056 A 
ATOM     15  C36 HRH d   1       3.743  15.727   0.377  0.00  0.00     0.034 A 
ATOM     16  H16 HRH d   1       2.792  14.642  -1.219  0.00  0.00     0.086 H 
ATOM     17  C37 HRH d   1       4.747  15.716   1.343  0.00  0.00    -0.061 A 
ATOM     18 CL1  HRH d   1       2.687  17.114   0.231  0.00  0.00    -0.084 Cl
ATOM     19  C39 HRH d   1       5.578  14.600   1.475  0.00  0.00    -0.072 A 
ATOM     20  H17 HRH d   1       4.884  16.573   1.992  0.00  0.00     0.086 H 
ATOM     21  H18 HRH d   1       6.345  14.588   2.240  0.00  0.00     0.084 H 
BRANCH  13  22
ATOM     22  C42 HRH d   1       4.131  12.328  -1.294  0.00  0.00    -0.051 C 
ATOM     23  H1  HRH d   1       3.278  12.568  -1.946  0.00  0.00     0.033 H 
ATOM     24  H2  HRH d   1       3.904  11.424  -0.710  0.00  0.00     0.033 H 
ATOM     25  H3  HRH d   1       5.025  12.152  -1.910  0.00  0.00     0.033 H 
ENDBRANCH  13  22
ENDBRANCH   1  12
BRANCH   6  26
ATOM     26  C10 HRH d   1       4.548  11.099   2.296  0.00  0.00     0.079 A 
ATOM     27  C2  HRH d   1       3.629  11.848   3.047  0.00  0.00     0.165 A 
ATOM     28  C3  HRH d   1       2.315  11.399   3.226  0.00  0.00     0.074 A 
ATOM     29  F1  HRH d   1       3.982  12.993   3.603  0.00  0.00    -0.202 F 
ATOM     30  C4  HRH d   1       1.904  10.185   2.653  0.00  0.00    -0.059 A 
ATOM     31 CL2  HRH d   1       1.180  12.348   4.172  0.00  0.00    -0.081 Cl
ATOM     32  C6  HRH d   1       2.805   9.424   1.899  0.00  0.00    -0.079 A 
ATOM     33  H12 HRH d   1       0.887   9.836   2.795  0.00  0.00     0.086 H 
ATOM     34  C8  HRH d   1       4.116   9.883   1.730  0.00  0.00    -0.054 A 
ATOM     35  H13 HRH d   1       2.490   8.489   1.451  0.00  0.00     0.083 H 
ATOM     36  H14 HRH d   1       4.815   9.290   1.151  0.00  0.00     0.087 H 
ENDBRANCH   6  26
BRANCH   4  37
ATOM     37  C20 HRH d   1       9.223  13.703  -0.634  0.00  0.00    -0.016 C 
ATOM     38  H5  HRH d   1      10.291  13.627  -0.887  0.00  0.00     0.048 H 
BRANCH  37  39
ATOM     39  C22 HRH d   1       8.399  13.003  -1.752  0.00  0.00    -0.068 C 
ATOM     40  H6  HRH d   1       8.574  13.514  -2.711  0.00  0.00     0.028 H 
ATOM     41  H7  HRH d   1       7.329  13.049  -1.502  0.00  0.00     0.028 H 
ATOM     42  H8  HRH d   1       8.712  11.952  -1.834  0.00  0.00     0.028 H 
ENDBRANCH  37  39
BRANCH  37  43
ATOM     43  C26 HRH d   1       8.852  15.202  -0.528  0.00  0.00    -0.068 C 
ATOM     44  H9  HRH d   1       9.448  15.672   0.268  0.00  0.00     0.028 H 
ATOM     45  H10 HRH d   1       7.782  15.299  -0.291  0.00  0.00     0.028 H 
ATOM     46  H11 HRH d   1       9.062  15.700  -1.486  0.00  0.00     0.028 H 
ENDBRANCH  37  43
ENDBRANCH   4  37
TORSDOF 6
