REMARK  10 active torsions:
REMARK  status: ('A' for Active; 'I' for Inactive)
REMARK    1  A    between atoms: C49_7  and  C52_8 
REMARK    2  A    between atoms: C40_33  and  C49_7 
REMARK       I    between atoms: C52_8  and  N54_36 
REMARK    3  A    between atoms: C56_9  and  C57_10 
REMARK    4  A    between atoms: N54_36  and  C56_9 
REMARK    5  A    between atoms: C56_9  and  C61_37 
REMARK    6  A    between atoms: C56_9  and  C65_38 
REMARK    7  A    between atoms: C11_11  and  C6_21 
REMARK    8  A    between atoms: C13_12  and  C22_15 
REMARK    9  A    between atoms: C15_13  and  C16_14 
REMARK   10  A    between atoms: N12_24  and  C39_32 
ROOT
ATOM      1  C11 HU8 d   1      10.585   7.601  12.568  0.00  0.00     0.084 A 
ATOM      2  C13 HU8 d   1      10.995   8.913  10.903  0.00  0.00     0.116 A 
ATOM      3  C15 HU8 d   1       9.989   8.796  12.845  0.00  0.00     0.135 A 
ATOM      4  N12 HU8 d   1      11.214   7.683  11.386  0.00  0.00    -0.295 N 
ATOM      5  N14 HU8 d   1      10.301   9.604  11.713  0.00  0.00    -0.228 NA
ENDROOT
BRANCH   4   6
ATOM      6  C39 HU8 d   1      11.949   6.664  10.770  0.00  0.00     0.049 A 
ATOM      7  C46 HU8 d   1      11.342   5.892   9.751  0.00  0.00    -0.035 A 
ATOM      8  C45 HU8 d   1      12.072   4.873   9.133  0.00  0.00     0.036 A 
ATOM      9  H3  HU8 d   1      10.319   6.090   9.452  0.00  0.00     0.089 H 
ATOM     10  C43 HU8 d   1      13.391   4.614   9.508  0.00  0.00    -0.061 A 
ATOM     11 CL1  HU8 d   1      11.317   3.875   7.931  0.00  0.00    -0.084 Cl
ATOM     12  C41 HU8 d   1      13.992   5.373  10.513  0.00  0.00    -0.073 A 
ATOM     13  H2  HU8 d   1      13.948   3.824   9.019  0.00  0.00     0.086 H 
ATOM     14  C40 HU8 d   1      13.268   6.393  11.159  0.00  0.00    -0.022 A 
ATOM     15  H1  HU8 d   1      15.020   5.177  10.797  0.00  0.00     0.084 H 
BRANCH  14  16
ATOM     16  C49 HU8 d   1      13.908   7.200  12.279  0.00  0.00     0.035 C 
ATOM     17  H4  HU8 d   1      13.343   8.138  12.382  0.00  0.00     0.054 H 
ATOM     18  H5  HU8 d   1      13.820   6.615  13.207  0.00  0.00     0.054 H 
BRANCH  16  19
ATOM     19  C52 HU8 d   1      15.342   7.551  12.097  0.00  0.00     0.222 C 
ATOM     20  O53 HU8 d   1      16.217   6.691  12.147  0.00  0.00    -0.273 OA
ATOM     21  N54 HU8 d   1      15.528   8.858  11.887  0.00  0.00    -0.353 N 
ATOM     22  H24 HU8 d   1      14.714   9.432  11.795  0.00  0.00     0.163 HD
BRANCH  21  23
ATOM     23  C56 HU8 d   1      16.834   9.513  11.781  0.00  0.00     0.022 C 
BRANCH  23  24
ATOM     24  C57 HU8 d   1      16.565  10.987  11.392  0.00  0.00    -0.054 C 
ATOM     25  H6  HU8 d   1      17.521  11.522  11.300  0.00  0.00     0.030 H 
ATOM     26  H7  HU8 d   1      15.950  11.465  12.169  0.00  0.00     0.030 H 
ATOM     27  H8  HU8 d   1      16.032  11.021  10.430  0.00  0.00     0.030 H 
ENDBRANCH  23  24
BRANCH  23  28
ATOM     28  C61 HU8 d   1      17.493   9.495  13.193  0.00  0.00    -0.054 C 
ATOM     29  H25 HU8 d   1      17.694   8.455  13.491  0.00  0.00     0.030 H 
ATOM     30  H26 HU8 d   1      16.812   9.960  13.921  0.00  0.00     0.030 H 
ATOM     31  H27 HU8 d   1      18.438  10.057  13.164  0.00  0.00     0.030 H 
ENDBRANCH  23  28
BRANCH  23  32
ATOM     32  C65 HU8 d   1      17.758   8.871  10.713  0.00  0.00    -0.054 C 
ATOM     33  H28 HU8 d   1      17.955   7.822  10.981  0.00  0.00     0.030 H 
ATOM     34  H29 HU8 d   1      18.708   9.423  10.671  0.00  0.00     0.030 H 
ATOM     35  H30 HU8 d   1      17.266   8.912   9.730  0.00  0.00     0.030 H 
ENDBRANCH  23  32
ENDBRANCH  21  23
ENDBRANCH  16  19
ENDBRANCH  14  16
ENDBRANCH   4   6
BRANCH   1  36
ATOM     36  C6  HU8 d   1      10.656   6.375  13.450  0.00  0.00    -0.005 A 
ATOM     37  C4  HU8 d   1      10.296   5.112  12.982  0.00  0.00    -0.047 A 
ATOM     38  C3  HU8 d   1      10.407   4.005  13.821  0.00  0.00     0.073 A 
ATOM     39  H16 HU8 d   1       9.931   4.992  11.969  0.00  0.00     0.087 H 
ATOM     40  C2  HU8 d   1      10.862   4.156  15.131  0.00  0.00     0.138 A 
ATOM     41 CL2  HU8 d   1       9.946   2.433  13.275  0.00  0.00    -0.081 Cl
ATOM     42  F1  HU8 d   1      10.951   3.072  15.913  0.00  0.00    -0.204 F 
ATOM     43  C9  HU8 d   1      11.250   5.403  15.604  0.00  0.00    -0.043 A 
ATOM     44  C7  HU8 d   1      11.154   6.508  14.753  0.00  0.00    -0.068 A 
ATOM     45  H18 HU8 d   1      11.621   5.518  16.616  0.00  0.00     0.088 H 
ATOM     46  H17 HU8 d   1      11.470   7.483  15.107  0.00  0.00     0.085 H 
ENDBRANCH   1  36
BRANCH   2  47
ATOM     47  C22 HU8 d   1      11.508   9.410   9.560  0.00  0.00     0.004 C 
ATOM     48  C24 HU8 d   1      10.880  10.780   9.177  0.00  0.00    -0.055 C 
ATOM     49  C27 HU8 d   1      11.325  11.167   7.743  0.00  0.00    -0.064 C 
ATOM     50  H10 HU8 d   1      11.218  11.550   9.886  0.00  0.00     0.034 H 
ATOM     51  H11 HU8 d   1       9.783  10.704   9.213  0.00  0.00     0.034 H 
ATOM     52  C30 HU8 d   1      12.867  11.233   7.653  0.00  0.00    -0.065 C 
ATOM     53  H12 HU8 d   1      10.905  12.151   7.487  0.00  0.00     0.033 H 
ATOM     54  H13 HU8 d   1      10.953  10.414   7.033  0.00  0.00     0.033 H 
ATOM     55  C33 HU8 d   1      13.499   9.884   8.066  0.00  0.00    -0.064 C 
ATOM     56  H14 HU8 d   1      13.234  12.024   8.324  0.00  0.00     0.033 H 
ATOM     57  H15 HU8 d   1      13.158  11.466   6.618  0.00  0.00     0.033 H 
ATOM     58  C36 HU8 d   1      13.060   9.485   9.497  0.00  0.00    -0.055 C 
ATOM     59  H20 HU8 d   1      14.595   9.976   8.037  0.00  0.00     0.033 H 
ATOM     60  H21 HU8 d   1      13.178   9.104   7.360  0.00  0.00     0.033 H 
ATOM     61  H22 HU8 d   1      13.485   8.503   9.751  0.00  0.00     0.034 H 
ATOM     62  H23 HU8 d   1      13.420  10.237  10.214  0.00  0.00     0.034 H 
ATOM     63  H9  HU8 d   1      11.188   8.678   8.804  0.00  0.00     0.052 H 
ENDBRANCH   2  47
BRANCH   3  64
ATOM     64  C16 HU8 d   1       9.115   9.266  13.925  0.00  0.00     0.189 A 
ATOM     65  N17 HU8 d   1       8.523   8.460  14.761  0.00  0.00    -0.140 NA
ATOM     66  N19 HU8 d   1       7.761   9.234  15.539  0.00  0.00     0.018 NA
ATOM     67  N20 HU8 d   1       7.875  10.493  15.125  0.00  0.00    -0.005 NA
ATOM     68  N21 HU8 d   1       8.754  10.500  14.028  0.00  0.00    -0.267 N 
ATOM     69  H19 HU8 d   1       9.041  11.300  13.446  0.00  0.00     0.185 HD
ENDBRANCH   3  64
TORSDOF 10
