REMARK  10 active torsions:
REMARK  status: ('A' for Active; 'I' for Inactive)
REMARK    1  A    between atoms: C8_25  and  C49_7 
REMARK       I    between atoms: C49_7  and  N51_36 
REMARK    2  A    between atoms: C53_8  and  C56_9 
REMARK    3  A    between atoms: N51_36  and  C53_8 
REMARK    4  A    between atoms: C56_9  and  N59_37 
REMARK    5  A    between atoms: C15_13  and  C9_26 
REMARK    6  A    between atoms: C20_15  and  C21_16 
REMARK    7  A    between atoms: C32_30  and  N16_28 
REMARK    8  A    between atoms: C32_30  and  C34_31 
REMARK    9  A    between atoms: C32_30  and  C38_32 
REMARK   10  A    between atoms: N66_39  and  C73_42 
ROOT
ATOM      1  C2  HUE d   1      38.507   1.622  16.351  0.00  0.00     0.036 A 
ATOM      2  C3  HUE d   1      38.230   1.033  17.587  0.00  0.00    -0.035 A 
ATOM      3  C11 HUE d   1      37.617  -0.276  15.115  0.00  0.00    -0.068 A 
ATOM      4  C13 HUE d   1      38.207   0.990  15.128  0.00  0.00    -0.061 A 
ATOM      5 CL1  HUE d   1      39.243   3.195  16.355  0.00  0.00    -0.084 Cl
ATOM      6  C5  HUE d   1      37.642  -0.228  17.548  0.00  0.00     0.045 A 
ATOM      7  N6  HUE d   1      37.284  -1.004  18.574  0.00  0.00    -0.350 N 
ATOM      8  C8  HUE d   1      36.751  -2.119  18.154  0.00  0.00     0.114 A 
ATOM      9  C9  HUE d   1      36.721  -2.146  16.802  0.00  0.00     0.038 A 
ATOM     10  C10 HUE d   1      37.345  -0.857  16.352  0.00  0.00     0.006 A 
ATOM     11  H1  HUE d   1      38.460   1.530  18.523  0.00  0.00     0.089 H 
ATOM     12  H11 HUE d   1      37.382  -0.783  14.186  0.00  0.00     0.085 H 
ATOM     13  H12 HUE d   1      38.435   1.488  14.193  0.00  0.00     0.086 H 
ATOM     14  H19 HUE d   1      37.411  -0.756  19.565  0.00  0.00     0.166 HD
ENDROOT
BRANCH   8  15
ATOM     15  C49 HUE d   1      36.266  -3.162  19.061  0.00  0.00     0.269 C 
ATOM     16  O50 HUE d   1      36.609  -3.055  20.233  0.00  0.00    -0.266 OA
ATOM     17  N51 HUE d   1      35.485  -4.150  18.575  0.00  0.00    -0.354 N 
ATOM     18  H25 HUE d   1      35.258  -4.128  17.601  0.00  0.00     0.162 HD
BRANCH  17  19
ATOM     19  C53 HUE d   1      34.949  -5.247  19.373  0.00  0.00     0.018 C 
ATOM     20  H5  HUE d   1      35.746  -5.699  19.981  0.00  0.00     0.066 H 
ATOM     21  H6  HUE d   1      34.148  -4.881  20.032  0.00  0.00     0.066 H 
BRANCH  19  22
ATOM     22  C56 HUE d   1      34.384  -6.289  18.372  0.00  0.00     0.098 C 
ATOM     23  H7  HUE d   1      33.921  -7.114  18.934  0.00  0.00     0.078 H 
ATOM     24  H8  HUE d   1      35.208  -6.681  17.758  0.00  0.00     0.078 H 
BRANCH  22  25
ATOM     25  N59 HUE d   1      33.360  -5.672  17.479  0.00  0.00    -0.066 N 
ATOM     26  C60 HUE d   1      33.179  -6.347  16.163  0.00  0.00     0.106 C 
ATOM     27  C63 HUE d   1      32.150  -5.625  15.246  0.00  0.00     0.106 C 
ATOM     28  H9  HUE d   1      32.829  -7.375  16.341  0.00  0.00     0.078 H 
ATOM     29  H10 HUE d   1      34.150  -6.375  15.647  0.00  0.00     0.078 H 
ATOM     30  N66 HUE d   1      30.899  -5.258  15.976  0.00  0.00    -0.064 N 
ATOM     31  H27 HUE d   1      31.890  -6.293  14.412  0.00  0.00     0.078 H 
ATOM     32  H28 HUE d   1      32.611  -4.708  14.851  0.00  0.00     0.078 H 
ATOM     33  C67 HUE d   1      31.179  -4.591  17.270  0.00  0.00     0.106 C 
ATOM     34  H29 HUE d   1      30.515  -6.158  16.219  0.00  0.00     0.280 HD
ATOM     35  C70 HUE d   1      32.058  -5.487  18.160  0.00  0.00     0.106 C 
ATOM     36  H30 HUE d   1      30.229  -4.389  17.786  0.00  0.00     0.078 H 
ATOM     37  H31 HUE d   1      31.703  -3.642  17.082  0.00  0.00     0.078 H 
ATOM     38  H32 HUE d   1      32.213  -5.006  19.137  0.00  0.00     0.078 H 
ATOM     39  H33 HUE d   1      31.570  -6.462  18.305  0.00  0.00     0.078 H 
ATOM     40  H26 HUE d   1      33.705  -4.748  17.269  0.00  0.00     0.280 HD
BRANCH  30  41
ATOM     41  C73 HUE d   1      29.746  -4.563  15.312  0.00  0.00     0.104 C 
ATOM     42  C75 HUE d   1      30.188  -3.809  14.020  0.00  0.00    -0.038 C 
ATOM     43  C78 HUE d   1      29.065  -2.844  13.542  0.00  0.00    -0.063 C 
ATOM     44  H35 HUE d   1      30.398  -4.542  13.227  0.00  0.00     0.036 H 
ATOM     45  H36 HUE d   1      31.098  -3.229  14.233  0.00  0.00     0.036 H 
ATOM     46  C81 HUE d   1      27.691  -3.560  13.382  0.00  0.00    -0.065 C 
ATOM     47  H37 HUE d   1      29.356  -2.418  12.570  0.00  0.00     0.033 H 
ATOM     48  H38 HUE d   1      28.957  -2.035  14.280  0.00  0.00     0.033 H 
ATOM     49  C84 HUE d   1      27.325  -4.480  14.583  0.00  0.00    -0.063 C 
ATOM     50  H39 HUE d   1      27.723  -4.175  12.470  0.00  0.00     0.033 H 
ATOM     51  H40 HUE d   1      26.909  -2.793  13.280  0.00  0.00     0.033 H 
ATOM     52  C87 HUE d   1      28.492  -5.430  14.973  0.00  0.00    -0.038 C 
ATOM     53  H41 HUE d   1      26.450  -5.088  14.310  0.00  0.00     0.033 H 
ATOM     54  H42 HUE d   1      27.077  -3.849  15.450  0.00  0.00     0.033 H 
ATOM     55  H43 HUE d   1      28.206  -6.028  15.851  0.00  0.00     0.036 H 
ATOM     56  H44 HUE d   1      28.721  -6.101  14.132  0.00  0.00     0.036 H 
ATOM     57  H34 HUE d   1      29.407  -3.804  16.032  0.00  0.00     0.084 H 
ENDBRANCH  30  41
ENDBRANCH  22  25
ENDBRANCH  19  22
ENDBRANCH  17  19
ENDBRANCH   8  15
BRANCH   9  58
ATOM     58  C15 HUE d   1      36.292  -3.176  15.834  0.00  0.00     0.079 A 
ATOM     59  C20 HUE d   1      35.243  -3.145  14.978  0.00  0.00     0.096 A 
ATOM     60  N19 HUE d   1      35.373  -4.391  14.290  0.00  0.00    -0.241 NA
ATOM     61  C17 HUE d   1      36.377  -5.005  14.710  0.00  0.00     0.068 A 
ATOM     62  N16 HUE d   1      36.961  -4.316  15.649  0.00  0.00    -0.330 N 
ATOM     63  H13 HUE d   1      36.714  -5.974  14.345  0.00  0.00     0.143 H 
BRANCH  59  64
ATOM     64  C21 HUE d   1      34.125  -2.163  14.718  0.00  0.00    -0.005 A 
ATOM     65  C22 HUE d   1      33.643  -1.286  15.709  0.00  0.00    -0.071 A 
ATOM     66  C24 HUE d   1      32.592  -0.398  15.411  0.00  0.00    -0.082 A 
ATOM     67  H14 HUE d   1      34.081  -1.295  16.701  0.00  0.00     0.084 H 
ATOM     68  C26 HUE d   1      32.030  -0.403  14.129  0.00  0.00    -0.083 A 
ATOM     69  H15 HUE d   1      32.221   0.284  16.168  0.00  0.00     0.083 H 
ATOM     70  C28 HUE d   1      32.507  -1.275  13.140  0.00  0.00    -0.082 A 
ATOM     71  H16 HUE d   1      31.216   0.275  13.898  0.00  0.00     0.083 H 
ATOM     72  C30 HUE d   1      33.551  -2.154  13.435  0.00  0.00    -0.071 A 
ATOM     73  H17 HUE d   1      32.067  -1.267  12.149  0.00  0.00     0.083 H 
ATOM     74  H18 HUE d   1      33.920  -2.831  12.673  0.00  0.00     0.084 H 
ENDBRANCH  59  64
BRANCH  62  75
ATOM     75  C32 HUE d   1      38.197  -4.734  16.343  0.00  0.00     0.040 C 
ATOM     76  H20 HUE d   1      38.006  -4.679  17.425  0.00  0.00     0.080 H 
BRANCH  75  77
ATOM     77  C34 HUE d   1      38.602  -6.211  16.062  0.00  0.00    -0.053 C 
ATOM     78  H21 HUE d   1      39.526  -6.448  16.609  0.00  0.00     0.030 H 
ATOM     79  H22 HUE d   1      38.770  -6.346  14.983  0.00  0.00     0.030 H 
ATOM     80  H23 HUE d   1      37.796  -6.882  16.395  0.00  0.00     0.030 H 
ENDBRANCH  75  77
BRANCH  75  81
ATOM     81  C38 HUE d   1      39.252  -3.668  16.016  0.00  0.00    -0.035 A 
ATOM     82  C46 HUE d   1      39.869  -3.017  17.094  0.00  0.00    -0.073 A 
ATOM     83  C44 HUE d   1      40.817  -2.019  16.854  0.00  0.00    -0.061 A 
ATOM     84  H4  HUE d   1      39.611  -3.288  18.111  0.00  0.00     0.084 H 
ATOM     85  C43 HUE d   1      41.145  -1.679  15.538  0.00  0.00     0.034 A 
ATOM     86  H3  HUE d   1      41.296  -1.511  17.683  0.00  0.00     0.086 H 
ATOM     87  C41 HUE d   1      40.531  -2.318  14.456  0.00  0.00    -0.061 A 
ATOM     88 CL2  HUE d   1      42.334  -0.438  15.254  0.00  0.00    -0.084 Cl
ATOM     89  C39 HUE d   1      39.579  -3.307  14.699  0.00  0.00    -0.073 A 
ATOM     90  H2  HUE d   1      40.792  -2.047  13.440  0.00  0.00     0.086 H 
ATOM     91  H24 HUE d   1      39.089  -3.800  13.867  0.00  0.00     0.084 H 
ENDBRANCH  75  81
ENDBRANCH  62  75
ENDBRANCH   9  58
TORSDOF 10
