REMARK  10 active torsions:
REMARK  status: ('A' for Active; 'I' for Inactive)
REMARK    1  A    between atoms: C12_11  and  C3_2 
REMARK    2  A    between atoms: C44_4  and  C47_6 
REMARK    3  A    between atoms: C58_9  and  N66_43 
REMARK    4  A    between atoms: N14_28  and  C12_11 
REMARK    5  A    between atoms: C12_11  and  C90_56 
REMARK    6  A    between atoms: C18_13  and  C79_50 
REMARK    7  A    between atoms: C20_15  and  C19_14 
REMARK    8  A    between atoms: C34_33  and  C21_16 
REMARK       I    between atoms: N36_35  and  C34_33 
REMARK    9  A    between atoms: C38_36  and  N36_35 
REMARK   10  A    between atoms: C39_37  and  N51_41 
ROOT
ATOM      1  C20 HRN d   1      53.326 -20.380 -73.101  0.00  0.00     0.038 A 
ATOM      2  C21 HRN d   1      54.214 -20.241 -74.119  0.00  0.00     0.115 A 
ATOM      3  C24 HRN d   1      54.301 -18.354 -73.001  0.00  0.00     0.045 A 
ATOM      4  C25 HRN d   1      53.367 -19.103 -72.312  0.00  0.00     0.006 A 
ATOM      5  C26 HRN d   1      52.727 -18.638 -71.158  0.00  0.00    -0.068 A 
ATOM      6  C28 HRN d   1      53.073 -17.354 -70.724  0.00  0.00    -0.061 A 
ATOM      7  C30 HRN d   1      54.013 -16.576 -71.427  0.00  0.00     0.036 A 
ATOM      8  N22 HRN d   1      54.740 -19.049 -74.063  0.00  0.00    -0.350 N 
ATOM      9  C31 HRN d   1      54.652 -17.067 -72.584  0.00  0.00    -0.035 A 
ATOM     10 CL3  HRN d   1      54.410 -14.962 -70.861  0.00  0.00    -0.084 Cl
ATOM     11  H12 HRN d   1      52.000 -19.242 -70.627  0.00  0.00     0.085 H 
ATOM     12  H13 HRN d   1      52.609 -16.951 -69.831  0.00  0.00     0.086 H 
ATOM     13  H17 HRN d   1      55.413 -18.684 -74.752  0.00  0.00     0.166 HD
ATOM     14  H18 HRN d   1      55.381 -16.474 -73.125  0.00  0.00     0.089 H 
ENDROOT
BRANCH   2  15
ATOM     15  C34 HRN d   1      54.461 -21.194 -75.227  0.00  0.00     0.273 C 
ATOM     16  O35 HRN d   1      55.118 -20.805 -76.182  0.00  0.00    -0.266 OA
ATOM     17  N36 HRN d   1      53.858 -22.398 -75.191  0.00  0.00    -0.320 N 
ATOM     18  H19 HRN d   1      53.372 -22.598 -74.340  0.00  0.00     0.169 HD
BRANCH  17  19
ATOM     19  C38 HRN d   1      53.801 -23.418 -76.155  0.00  0.00     0.062 A 
ATOM     20  C45 HRN d   1      53.546 -23.090 -77.495  0.00  0.00    -0.038 A 
ATOM     21  C44 HRN d   1      53.410 -24.087 -78.471  0.00  0.00     0.043 A 
ATOM     22  H2  HRN d   1      53.453 -22.048 -77.780  0.00  0.00     0.088 H 
ATOM     23  C42 HRN d   1      53.491 -25.436 -78.096  0.00  0.00    -0.064 A 
ATOM     24  C40 HRN d   1      53.716 -25.769 -76.749  0.00  0.00    -0.054 A 
ATOM     25  H1  HRN d   1      53.381 -26.217 -78.840  0.00  0.00     0.085 H 
ATOM     26  C39 HRN d   1      53.844 -24.751 -75.782  0.00  0.00     0.057 A 
ATOM     27  H20 HRN d   1      53.791 -26.809 -76.454  0.00  0.00     0.087 H 
BRANCH  21  28
ATOM     28  C47 HRN d   1      53.150 -23.699 -79.911  0.00  0.00     0.209 C 
ATOM     29  O48 HRN d   1      53.223 -22.529 -80.240  0.00  0.00    -0.644 OA
ATOM     30  O49 HRN d   1      52.793 -24.641 -80.791  0.00  0.00    -0.644 OA
ENDBRANCH  21  28
BRANCH  26  31
ATOM     31  N51 HRN d   1      54.067 -25.056 -74.433  0.00  0.00    -0.379 N 
ATOM     32  C52 HRN d   1      55.472 -25.417 -74.091  0.00  0.00    -0.003 C 
ATOM     33  C55 HRN d   1      55.686 -25.608 -72.573  0.00  0.00    -0.031 C 
ATOM     34  H3  HRN d   1      55.729 -26.356 -74.603  0.00  0.00     0.064 H 
ATOM     35  H4  HRN d   1      56.137 -24.614 -74.442  0.00  0.00     0.064 H 
ATOM     36  C58 HRN d   1      54.588 -26.543 -72.016  0.00  0.00     0.019 C 
ATOM     37  H5  HRN d   1      55.629 -24.632 -72.068  0.00  0.00     0.038 H 
ATOM     38  H6  HRN d   1      56.675 -26.056 -72.395  0.00  0.00     0.038 H 
ATOM     39  C60 HRN d   1      53.197 -25.893 -72.255  0.00  0.00    -0.031 C 
ATOM     40  H7  HRN d   1      54.617 -27.493 -72.570  0.00  0.00     0.073 H 
ATOM     41  C63 HRN d   1      52.951 -25.785 -73.774  0.00  0.00    -0.003 C 
ATOM     42  H8  HRN d   1      53.176 -24.889 -71.805  0.00  0.00     0.038 H 
ATOM     43  H9  HRN d   1      52.414 -26.516 -71.798  0.00  0.00     0.038 H 
ATOM     44  H21 HRN d   1      52.011 -25.243 -73.951  0.00  0.00     0.064 H 
ATOM     45  H22 HRN d   1      52.877 -26.796 -74.201  0.00  0.00     0.064 H 
BRANCH  36  46
ATOM     46  N66 HRN d   1      54.871 -26.837 -70.606  0.00  0.00    -0.323 N 
ATOM     47  C67 HRN d   1      54.585 -25.871 -69.529  0.00  0.00     0.002 C 
ATOM     48  C70 HRN d   1      55.184 -26.245 -68.158  0.00  0.00    -0.029 C 
ATOM     49  H23 HRN d   1      53.493 -25.794 -69.417  0.00  0.00     0.064 H 
ATOM     50  H24 HRN d   1      54.993 -24.894 -69.827  0.00  0.00     0.064 H 
ATOM     51  C73 HRN d   1      55.002 -27.762 -67.999  0.00  0.00     0.032 C 
ATOM     52  H25 HRN d   1      54.654 -25.713 -67.354  0.00  0.00     0.038 H 
ATOM     53  H26 HRN d   1      56.252 -25.986 -68.127  0.00  0.00     0.038 H 
ATOM     54  O76 HRN d   1      55.693 -28.464 -69.055  0.00  0.00    -0.304 OA
ATOM     55  H27 HRN d   1      53.930 -28.005 -68.043  0.00  0.00     0.075 H 
ATOM     56  H28 HRN d   1      55.410 -28.076 -67.027  0.00  0.00     0.075 H 
ATOM     57  C77 HRN d   1      55.398 -28.068 -70.314  0.00  0.00     0.363 C 
ATOM     58  O78 HRN d   1      55.626 -28.895 -71.192  0.00  0.00    -0.238 OA
ENDBRANCH  36  46
ENDBRANCH  26  31
ENDBRANCH  17  19
ENDBRANCH   2  15
BRANCH   1  59
ATOM     59  C19 HRN d   1      52.413 -21.476 -72.721  0.00  0.00     0.079 A 
ATOM     60  C18 HRN d   1      52.444 -22.223 -71.604  0.00  0.00     0.096 A 
ATOM     61  N17 HRN d   1      51.329 -23.106 -71.796  0.00  0.00    -0.241 NA
ATOM     62  C15 HRN d   1      50.756 -22.850 -72.866  0.00  0.00     0.068 A 
ATOM     63  N14 HRN d   1      51.382 -21.872 -73.458  0.00  0.00    -0.330 N 
ATOM     64  H11 HRN d   1      49.873 -23.360 -73.249  0.00  0.00     0.143 H 
BRANCH  60  65
ATOM     65  C79 HRN d   1      53.366 -22.324 -70.408  0.00  0.00    -0.005 A 
ATOM     66  C80 HRN d   1      52.821 -22.762 -69.194  0.00  0.00    -0.071 A 
ATOM     67  C82 HRN d   1      53.630 -22.903 -68.054  0.00  0.00    -0.082 A 
ATOM     68  H29 HRN d   1      51.764 -22.995 -69.134  0.00  0.00     0.084 H 
ATOM     69  C84 HRN d   1      55.003 -22.624 -68.128  0.00  0.00    -0.083 A 
ATOM     70  H30 HRN d   1      53.193 -23.228 -67.117  0.00  0.00     0.083 H 
ATOM     71  C86 HRN d   1      55.559 -22.204 -69.346  0.00  0.00    -0.082 A 
ATOM     72  H31 HRN d   1      55.630 -22.732 -67.250  0.00  0.00     0.083 H 
ATOM     73  C88 HRN d   1      54.749 -22.059 -70.485  0.00  0.00    -0.071 A 
ATOM     74  H32 HRN d   1      56.620 -21.990 -69.409  0.00  0.00     0.083 H 
ATOM     75  H33 HRN d   1      55.188 -21.743 -71.424  0.00  0.00     0.084 H 
ENDBRANCH  60  65
BRANCH  63  76
ATOM     76  C12 HRN d   1      50.981 -21.280 -74.746  0.00  0.00     0.041 C 
ATOM     77  H10 HRN d   1      51.871 -21.288 -75.393  0.00  0.00     0.080 H 
BRANCH  76  78
ATOM     78  C3  HRN d   1      50.605 -19.811 -74.500  0.00  0.00    -0.013 A 
ATOM     79  C2  HRN d   1      51.062 -18.825 -75.386  0.00  0.00     0.044 A 
ATOM     80 CL1  HRN d   1      52.006 -19.230 -76.806  0.00  0.00    -0.084 Cl
ATOM     81  C9  HRN d   1      50.745 -17.489 -75.174  0.00  0.00    -0.040 A 
ATOM     82  C8  HRN d   1      49.979 -17.136 -74.062  0.00  0.00     0.035 A 
ATOM     83  H16 HRN d   1      51.089 -16.728 -75.865  0.00  0.00     0.088 H 
ATOM     84  C6  HRN d   1      49.534 -18.101 -73.155  0.00  0.00    -0.061 A 
ATOM     85 CL2  HRN d   1      49.589 -15.455 -73.811  0.00  0.00    -0.084 Cl
ATOM     86  C4  HRN d   1      49.853 -19.441 -73.373  0.00  0.00    -0.072 A 
ATOM     87  H15 HRN d   1      48.947 -17.811 -72.291  0.00  0.00     0.086 H 
ATOM     88  H14 HRN d   1      49.520 -20.198 -72.672  0.00  0.00     0.084 H 
ENDBRANCH  76  78
BRANCH  76  89
ATOM     89  C90 HRN d   1      49.890 -22.053 -75.514  0.00  0.00    -0.053 C 
ATOM     90  H34 HRN d   1      49.665 -21.531 -76.456  0.00  0.00     0.030 H 
ATOM     91  H35 HRN d   1      48.980 -22.110 -74.899  0.00  0.00     0.030 H 
ATOM     92  H36 HRN d   1      50.248 -23.070 -75.735  0.00  0.00     0.030 H 
ENDBRANCH  76  89
ENDBRANCH  63  76
ENDBRANCH   1  59
TORSDOF 10
