REMARK WARNING: 32 MAX_TORS EXCEEDED!!!
REMARK  70 active torsions:
REMARK  status: ('A' for Active; 'I' for Inactive)
REMARK       I    between atoms: C2_2  and  N3_9 
REMARK       I    between atoms: N_41  and  C2_2 
REMARK    1  A    between atoms: C4_3  and  C5_4 
REMARK    2  A    between atoms: N3_9  and  C4_3 
REMARK    3  A    between atoms: C5_4  and  C6_5 
REMARK    4  A    between atoms: C6_5  and  C7_6 
REMARK    5  A    between atoms: C7_6  and  O7_10 
REMARK    6  A    between atoms: O7_10  and  C8_7 
REMARK    7  A    between atoms: C12_14  and  C14_15 
REMARK    8  A    between atoms: C14_15  and  N15_16 
REMARK       I    between atoms: N15_16  and  C16_17 
REMARK    9  A    between atoms: C16_17  and  C18_19 
REMARK   10  A    between atoms: C21_22  and  S24_23 
REMARK   11  A    between atoms: S24_23  and  N26_26 
REMARK   12  A    between atoms: C2_29  and  N_41 
REMARK   13  A    between atoms: C8_34  and  OB_42 
REMARK   14  A    between atoms: C_38  and  C10_36 
REMARK       I    between atoms: N_56  and  C_38 
REMARK   15  A    between atoms: OB_42  and  CG_43 
REMARK   16  A    between atoms: CG_43  and  CD_44 
REMARK   17  A    between atoms: CD_44  and  CE2_45 
REMARK   18  A    between atoms: CD_44  and  CE1_46 
REMARK   19  A    between atoms: C_48  and  C10_49 
REMARK       I    between atoms: N_70  and  C_48 
REMARK   20  A    between atoms: C7_54  and  C2_55 
REMARK   21  A    between atoms: C2_55  and  N_56 
REMARK   22  A    between atoms: C8_58  and  OB_57 
REMARK   23  A    between atoms: C_61  and  C10_60 
REMARK       I    between atoms: N_77  and  C_61 
REMARK   24  A    between atoms: C2_69  and  N_70 
REMARK   25  A    between atoms: C_72  and  C10_73 
REMARK       I    between atoms: N_98  and  C_72 
REMARK   26  A    between atoms: C2_76  and  N_77 
REMARK   27  A    between atoms: C8_79  and  OB_84 
REMARK   28  A    between atoms: OB_84  and  CG_85 
REMARK   29  A    between atoms: CG_85  and  CD_86 
REMARK   30  A    between atoms: CD_86  and  CE_87 
REMARK   31  A    between atoms: CE_87  and  N1_88 
REMARK   32  A    between atoms: C_90  and  C10_91 
REMARK       I    between atoms: N_105  and  C_90 
REMARK   33  A    between atoms: C7_96  and  C2_97 
REMARK   34  A    between atoms: C2_97  and  N_98 
REMARK   35  A    between atoms: C_100  and  C10_101 
REMARK       I    between atoms: N_126  and  C_100 
REMARK   36  A    between atoms: C2_104  and  N_105 
REMARK   37  A    between atoms: C8_107  and  OB_108 
REMARK   38  A    between atoms: OB_108  and  CG_109 
REMARK   39  A    between atoms: CG_109  and  CD_110 
REMARK   40  A    between atoms: C_118  and  C10_119 
REMARK       I    between atoms: N_136  and  C_118 
REMARK   41  A    between atoms: C7_124  and  C2_125 
REMARK   42  A    between atoms: C2_125  and  N_126 
REMARK   43  A    between atoms: C_128  and  C10_129 
REMARK       I    between atoms: N_150  and  C_128 
REMARK   44  A    between atoms: C7_134  and  C2_135 
REMARK   45  A    between atoms: C2_135  and  N_136 
REMARK   46  A    between atoms: C8_138  and  OB_137 
REMARK   47  A    between atoms: C_141  and  C10_140 
REMARK       I    between atoms: N_160  and  C_141 
REMARK   48  A    between atoms: C2_149  and  N_150 
REMARK   49  A    between atoms: C_152  and  C10_153 
REMARK       I    between atoms: N_177  and  C_152 
REMARK   50  A    between atoms: C7_158  and  C2_159 
REMARK   51  A    between atoms: C2_159  and  N_160 
REMARK   52  A    between atoms: CB_164  and  CG_162 
REMARK   53  A    between atoms: C8_165  and  CB_164 
REMARK   54  A    between atoms: C_168  and  C10_167 
REMARK       I    between atoms: N_187  and  C_168 
REMARK   55  A    between atoms: C2_176  and  N_177 
REMARK   56  A    between atoms: C_179  and  C10_180 
REMARK       I    between atoms: N_194  and  C_179 
REMARK   57  A    between atoms: C7_185  and  C2_186 
REMARK   58  A    between atoms: C2_186  and  N_187 
REMARK   59  A    between atoms: C_189  and  C10_190 
REMARK       I    between atoms: N_212  and  C_189 
REMARK   60  A    between atoms: C2_193  and  N_194 
REMARK   61  A    between atoms: C8_196  and  OB_197 
REMARK   62  A    between atoms: OB_197  and  CG_198 
REMARK   63  A    between atoms: CG_198  and  CD_199 
REMARK   64  A    between atoms: C10_208  and  C_207 
REMARK   65  A    between atoms: C2_211  and  N_212 
REMARK   66  A    between atoms: C8_214  and  OB_219 
REMARK   67  A    between atoms: OB_219  and  CG_220 
REMARK   68  A    between atoms: CG_220  and  CD_221 
REMARK   69  A    between atoms: CD_221  and  CE_222 
REMARK   70  A    between atoms: CE_222  and  N1_224 
ROOT
ATOM      1  C10 MOL d   1      33.016  75.968 -22.052  0.00  0.00     0.127 A 
ATOM      2  N11 MOL d   1      32.509  76.883 -22.910  0.00  0.00    -0.240 NA
ATOM      3  C7  MOL d   1      32.542  76.693 -24.235  0.00  0.00     0.097 A 
ATOM      4  C2  MOL d   1      31.939  77.630 -25.088  0.00  0.00     0.065 A 
ATOM      5  C9  MOL d   1      33.567  74.801 -22.543  0.00  0.00    -0.017 A 
ATOM      6  C8  MOL d   1      33.611  74.608 -23.905  0.00  0.00     0.084 A 
ATOM      7  C6  MOL d   1      33.117  75.541 -24.777  0.00  0.00     0.028 A 
ATOM      8  C5  MOL d   1      33.105  75.361 -26.160  0.00  0.00    -0.068 A 
ATOM      9  C4  MOL d   1      32.526  76.297 -27.024  0.00  0.00    -0.080 A 
ATOM     10  C3  MOL d   1      31.963  77.433 -26.475  0.00  0.00    -0.055 A 
ATOM     11  H70 MOL d   1      33.958  74.049 -21.867  0.00  0.00     0.091 H 
ATOM     12  H73 MOL d   1      33.558  74.469 -26.578  0.00  0.00     0.085 H 
ATOM     13  H74 MOL d   1      32.519  76.135 -28.096  0.00  0.00     0.083 H 
ATOM     14  H75 MOL d   1      31.533  78.184 -27.128  0.00  0.00     0.087 H 
ENDROOT
BRANCH   1  15
ATOM     15  C   MOL d   1      32.937  76.185 -20.665  0.00  0.00     0.270 C 
ATOM     16  O   MOL d   1      33.566  75.544 -19.852  0.00  0.00    -0.266 OA
ATOM     17  N   MOL d   1      32.049  77.183 -20.301  0.00  0.00    -0.350 N 
ATOM     18  H81 MOL d   1      31.559  77.648 -21.038  0.00  0.00     0.163 HD
BRANCH  17  19
ATOM     19  C2  MOL d   1      31.760  77.624 -18.912  0.00  0.00     0.035 C 
ATOM     20  H79 MOL d   1      31.509  76.760 -18.279  0.00  0.00     0.073 H 
ATOM     21  H80 MOL d   1      32.628  78.149 -18.487  0.00  0.00     0.073 H 
BRANCH  19  22
ATOM     22  C7  MOL d   1      30.665  78.492 -19.012  0.00  0.00     0.053 A 
ATOM     23  N11 MOL d   1      30.036  78.708 -20.186  0.00  0.00    -0.246 NA
ATOM     24  C10 MOL d   1      28.941  79.536 -20.295  0.00  0.00     0.124 A 
ATOM     25  C9  MOL d   1      28.475  80.208 -19.132  0.00  0.00    -0.050 A 
ATOM     26  C8  MOL d   1      29.113  80.051 -17.923  0.00  0.00    -0.079 A 
ATOM     27  H76 MOL d   1      27.606  80.852 -19.199  0.00  0.00     0.087 H 
ATOM     28  C6  MOL d   1      30.202  79.178 -17.886  0.00  0.00    -0.057 A 
ATOM     29  H77 MOL d   1      28.784  80.582 -17.037  0.00  0.00     0.083 H 
ATOM     30  H78 MOL d   1      30.711  79.025 -16.941  0.00  0.00     0.086 H 
BRANCH  24  31
ATOM     31  C   MOL d   1      28.229  79.680 -21.523  0.00  0.00     0.270 C 
ATOM     32  O   MOL d   1      27.463  80.643 -21.712  0.00  0.00    -0.266 OA
ATOM     33  N   MOL d   1      28.396  78.671 -22.420  0.00  0.00    -0.350 N 
ATOM     34  H87 MOL d   1      29.033  77.945 -22.161  0.00  0.00     0.163 HD
BRANCH  33  35
ATOM     35  C2  MOL d   1      27.725  78.529 -23.760  0.00  0.00     0.035 C 
ATOM     36  H85 MOL d   1      26.637  78.438 -23.629  0.00  0.00     0.073 H 
ATOM     37  H86 MOL d   1      27.947  79.405 -24.387  0.00  0.00     0.073 H 
BRANCH  35  38
ATOM     38  C7  MOL d   1      28.233  77.374 -24.356  0.00  0.00     0.053 A 
ATOM     39  N11 MOL d   1      28.880  76.416 -23.568  0.00  0.00    -0.246 NA
ATOM     40  C10 MOL d   1      29.405  75.274 -24.082  0.00  0.00     0.125 A 
ATOM     41  C9  MOL d   1      29.457  75.042 -25.471  0.00  0.00    -0.050 A 
ATOM     42  C8  MOL d   1      28.830  75.994 -26.338  0.00  0.00    -0.079 A 
ATOM     43  H82 MOL d   1      29.957  74.168 -25.872  0.00  0.00     0.087 H 
ATOM     44  C6  MOL d   1      28.208  77.184 -25.766  0.00  0.00    -0.057 A 
ATOM     45  H83 MOL d   1      28.817  75.832 -27.410  0.00  0.00     0.083 H 
ATOM     46  H84 MOL d   1      27.732  77.916 -26.409  0.00  0.00     0.086 H 
BRANCH  40  47
ATOM     47  C   MOL d   1      29.914  74.409 -23.184  0.00  0.00     0.274 C 
ATOM     48  O   MOL d   1      30.497  73.428 -23.601  0.00  0.00    -0.266 OA
ATOM     49  N   MOL d   1      29.795  74.712 -21.877  0.00  0.00    -0.320 N 
ATOM     50  H93 MOL d   1      29.262  75.529 -21.658  0.00  0.00     0.169 HD
BRANCH  49  51
ATOM     51  C2  MOL d   1      30.328  74.019 -20.800  0.00  0.00     0.065 A 
ATOM     52  C7  MOL d   1      29.920  74.479 -19.504  0.00  0.00     0.097 A 
ATOM     53  N11 MOL d   1      29.033  75.486 -19.344  0.00  0.00    -0.240 NA
ATOM     54  C6  MOL d   1      30.405  73.919 -18.373  0.00  0.00     0.028 A 
ATOM     55  C10 MOL d   1      28.511  75.942 -18.203  0.00  0.00     0.127 A 
ATOM     56  C9  MOL d   1      28.982  75.398 -17.050  0.00  0.00    -0.017 A 
ATOM     57  C8  MOL d   1      29.953  74.413 -17.144  0.00  0.00     0.080 A 
ATOM     58  H89 MOL d   1      28.610  75.725 -16.086  0.00  0.00     0.091 H 
ATOM     59  C5  MOL d   1      31.337  72.896 -18.486  0.00  0.00    -0.068 A 
ATOM     60  C4  MOL d   1      31.788  72.452 -19.737  0.00  0.00    -0.080 A 
ATOM     61  H90 MOL d   1      31.724  72.430 -17.587  0.00  0.00     0.085 H 
ATOM     62  C3  MOL d   1      31.296  73.010 -20.906  0.00  0.00    -0.055 A 
ATOM     63  H91 MOL d   1      32.530  71.663 -19.790  0.00  0.00     0.083 H 
ATOM     64  H92 MOL d   1      31.649  72.676 -21.875  0.00  0.00     0.087 H 
BRANCH  55  65
ATOM     65  C   MOL d   1      27.515  76.966 -18.306  0.00  0.00     0.270 C 
ATOM     66  O   MOL d   1      27.188  77.706 -17.368  0.00  0.00    -0.266 OA
ATOM     67  N   MOL d   1      26.945  77.071 -19.514  0.00  0.00    -0.350 N 
ATOM     68  H99 MOL d   1      27.263  76.468 -20.246  0.00  0.00     0.163 HD
BRANCH  67  69
ATOM     69  C2  MOL d   1      25.871  78.035 -19.813  0.00  0.00     0.035 C 
ATOM     70  H97 MOL d   1      25.070  77.940 -19.065  0.00  0.00     0.073 H 
ATOM     71  H98 MOL d   1      26.275  79.058 -19.790  0.00  0.00     0.073 H 
BRANCH  69  72
ATOM     72  C7  MOL d   1      25.365  77.763 -21.074  0.00  0.00     0.053 A 
ATOM     73  N11 MOL d   1      25.616  76.609 -21.732  0.00  0.00    -0.246 NA
ATOM     74  C10 MOL d   1      25.113  76.252 -22.944  0.00  0.00     0.125 A 
ATOM     75  C9  MOL d   1      24.292  77.212 -23.557  0.00  0.00    -0.050 A 
ATOM     76  C8  MOL d   1      23.982  78.417 -22.893  0.00  0.00    -0.079 A 
ATOM     77  H94 MOL d   1      23.894  77.026 -24.548  0.00  0.00     0.087 H 
ATOM     78  C6  MOL d   1      24.513  78.691 -21.639  0.00  0.00    -0.057 A 
ATOM     79  H95 MOL d   1      23.323  79.136 -23.366  0.00  0.00     0.083 H 
ATOM     80  H96 MOL d   1      24.265  79.609 -21.118  0.00  0.00     0.086 H 
BRANCH  74  81
ATOM     81  C   MOL d   1      25.508  75.011 -23.582  0.00  0.00     0.274 C 
ATOM     82  O   MOL d   1      25.240  74.839 -24.803  0.00  0.00    -0.266 OA
ATOM     83  N   MOL d   1      26.213  74.144 -22.799  0.00  0.00    -0.320 N 
ATOM     84 6H10 MOL d   1      26.304  74.401 -21.837  0.00  0.00     0.169 HD
BRANCH  83  85
ATOM     85  C2  MOL d   1      26.813  72.966 -23.162  0.00  0.00     0.065 A 
ATOM     86  C7  MOL d   1      27.328  72.223 -22.097  0.00  0.00     0.095 A 
ATOM     87  N11 MOL d   1      27.099  72.705 -20.892  0.00  0.00    -0.240 NA
ATOM     88  C6  MOL d   1      28.033  71.009 -22.248  0.00  0.00     0.002 A 
ATOM     89  C10 MOL d   1      27.463  72.109 -19.766  0.00  0.00     0.125 A 
ATOM     90  C9  MOL d   1      28.146  70.882 -19.841  0.00  0.00    -0.042 A 
ATOM     91  C8  MOL d   1      28.471  70.304 -21.080  0.00  0.00    -0.033 A 
ATOM     92 2H10 MOL d   1      28.427  70.373 -18.926  0.00  0.00     0.088 H 
ATOM     93  C5  MOL d   1      28.253  70.567 -23.544  0.00  0.00    -0.070 A 
ATOM     94  C4  MOL d   1      27.786  71.307 -24.603  0.00  0.00    -0.080 A 
ATOM     95 3H10 MOL d   1      28.791  69.642 -23.720  0.00  0.00     0.084 H 
ATOM     96  C3  MOL d   1      27.086  72.514 -24.446  0.00  0.00    -0.055 A 
ATOM     97 4H10 MOL d   1      27.966  70.942 -25.608  0.00  0.00     0.083 H 
ATOM     98 5H10 MOL d   1      26.765  73.082 -25.311  0.00  0.00     0.087 H 
BRANCH  89  99
ATOM     99  C   MOL d   1      27.111  72.763 -18.552  0.00  0.00     0.270 C 
ATOM    100  O   MOL d   1      27.575  72.388 -17.464  0.00  0.00    -0.266 OA
ATOM    101  N   MOL d   1      26.270  73.779 -18.683  0.00  0.00    -0.350 N 
ATOM    102 2H11 MOL d   1      26.040  74.036 -19.622  0.00  0.00     0.163 HD
BRANCH 101 103
ATOM    103  C2  MOL d   1      25.613  74.601 -17.592  0.00  0.00     0.035 C 
ATOM    104 0H11 MOL d   1      25.280  73.924 -16.791  0.00  0.00     0.073 H 
ATOM    105 1H11 MOL d   1      26.352  75.310 -17.190  0.00  0.00     0.073 H 
BRANCH 103 106
ATOM    106  C7  MOL d   1      24.507  75.321 -18.063  0.00  0.00     0.053 A 
ATOM    107  N11 MOL d   1      24.016  75.217 -19.308  0.00  0.00    -0.246 NA
ATOM    108  C10 MOL d   1      22.910  75.910 -19.729  0.00  0.00     0.125 A 
ATOM    109  C9  MOL d   1      22.251  76.782 -18.842  0.00  0.00    -0.050 A 
ATOM    110  C8  MOL d   1      22.735  76.912 -17.548  0.00  0.00    -0.079 A 
ATOM    111 7H10 MOL d   1      21.381  77.342 -19.164  0.00  0.00     0.087 H 
ATOM    112  C6  MOL d   1      23.854  76.180 -17.194  0.00  0.00    -0.057 A 
ATOM    113 8H10 MOL d   1      22.250  77.569 -16.835  0.00  0.00     0.083 H 
ATOM    114 9H10 MOL d   1      24.239  76.284 -16.186  0.00  0.00     0.086 H 
BRANCH 108 115
ATOM    115  C   MOL d   1      22.453  75.708 -21.080  0.00  0.00     0.274 C 
ATOM    116  O   MOL d   1      21.920  76.634 -21.749  0.00  0.00    -0.266 OA
ATOM    117  N   MOL d   1      22.611  74.434 -21.523  0.00  0.00    -0.320 N 
ATOM    118 3H11 MOL d   1      22.953  73.772 -20.856  0.00  0.00     0.169 HD
BRANCH 117 119
ATOM    119  C2  MOL d   1      22.362  73.966 -22.746  0.00  0.00     0.065 A 
ATOM    120  C7  MOL d   1      22.917  72.687 -22.905  0.00  0.00     0.097 A 
ATOM    121  N11 MOL d   1      23.640  72.092 -21.875  0.00  0.00    -0.240 NA
ATOM    122  C6  MOL d   1      22.801  72.067 -24.146  0.00  0.00     0.028 A 
ATOM    123  C10 MOL d   1      24.225  70.873 -21.998  0.00  0.00     0.128 A 
ATOM    124  C9  MOL d   1      24.124  70.231 -23.211  0.00  0.00    -0.017 A 
ATOM    125  C8  MOL d   1      23.462  70.833 -24.281  0.00  0.00     0.084 A 
ATOM    126 4H11 MOL d   1      24.563  69.248 -23.336  0.00  0.00     0.091 H 
ATOM    127  C5  MOL d   1      22.151  72.693 -25.252  0.00  0.00    -0.068 A 
ATOM    128  C4  MOL d   1      21.608  73.985 -25.085  0.00  0.00    -0.080 A 
ATOM    129 7H11 MOL d   1      22.076  72.184 -26.206  0.00  0.00     0.085 H 
ATOM    130  C3  MOL d   1      21.729  74.632 -23.827  0.00  0.00    -0.055 A 
ATOM    131 8H11 MOL d   1      21.104  74.478 -25.908  0.00  0.00     0.083 H 
ATOM    132 9H11 MOL d   1      21.338  75.634 -23.693  0.00  0.00     0.087 H 
BRANCH 123 133
ATOM    133  C   MOL d   1      24.801  70.230 -20.922  0.00  0.00     0.275 C 
ATOM    134  O   MOL d   1      25.517  69.257 -21.092  0.00  0.00    -0.266 OA
ATOM    135  N   MOL d   1      24.439  70.707 -19.714  0.00  0.00    -0.320 N 
ATOM    136 0H12 MOL d   1      23.809  71.483 -19.728  0.00  0.00     0.169 HD
BRANCH 135 137
ATOM    137  C2  MOL d   1      24.811  70.280 -18.485  0.00  0.00     0.065 A 
ATOM    138  C7  MOL d   1      24.134  70.945 -17.461  0.00  0.00     0.097 A 
ATOM    139  N11 MOL d   1      23.202  71.875 -17.763  0.00  0.00    -0.239 NA
ATOM    140  C6  MOL d   1      24.389  70.636 -16.137  0.00  0.00     0.028 A 
ATOM    141  C10 MOL d   1      22.452  72.538 -16.854  0.00  0.00     0.136 A 
ATOM    142  C9  MOL d   1      22.684  72.275 -15.512  0.00  0.00    -0.015 A 
ATOM    143  C8  MOL d   1      23.669  71.327 -15.157  0.00  0.00     0.083 A 
ATOM    144 1H12 MOL d   1      22.117  72.790 -14.745  0.00  0.00     0.091 H 
ATOM    145  C5  MOL d   1      25.322  69.602 -15.842  0.00  0.00    -0.068 A 
ATOM    146  C4  MOL d   1      26.012  68.956 -16.856  0.00  0.00    -0.080 A 
ATOM    147 2H12 MOL d   1      25.495  69.316 -14.811  0.00  0.00     0.085 H 
ATOM    148  C3  MOL d   1      25.770  69.295 -18.189  0.00  0.00    -0.055 A 
ATOM    149 3H12 MOL d   1      26.739  68.189 -16.614  0.00  0.00     0.083 H 
ATOM    150 4H12 MOL d   1      26.316  68.804 -18.987  0.00  0.00     0.087 H 
BRANCH 141 151
ATOM    151  C   MOL d   1      21.410  73.390 -17.269  0.00  0.00     0.229 C 
ATOM    152  O   MOL d   1      20.692  73.209 -18.261  0.00  0.00    -0.643 OA
ATOM    153  OXT MOL d   1      21.189  74.460 -16.643  0.00  0.00    -0.643 OA
ENDBRANCH 141 151
BRANCH 143 154
ATOM    154  OB  MOL d   1      23.954  70.979 -13.858  0.00  0.00    -0.350 OA
BRANCH 154 155
ATOM    155  CG  MOL d   1      22.997  71.447 -12.723  0.00  0.00     0.028 C 
ATOM    156 5H12 MOL d   1      21.983  71.070 -12.923  0.00  0.00     0.075 H 
ATOM    157 6H12 MOL d   1      22.980  72.546 -12.691  0.00  0.00     0.075 H 
BRANCH 155 158
ATOM    158  CD  MOL d   1      23.488  70.901 -11.357  0.00  0.00    -0.022 C 
ATOM    159 7H12 MOL d   1      22.739  70.199 -10.961  0.00  0.00     0.038 H 
ATOM    160 8H12 MOL d   1      23.609  71.741 -10.658  0.00  0.00     0.038 H 
BRANCH 158 161
ATOM    161  CE  MOL d   1      24.836  70.169 -11.500  0.00  0.00     0.082 C 
ATOM    162 9H12 MOL d   1      24.698  69.263 -12.109  0.00  0.00     0.075 H 
ATOM    163 0H13 MOL d   1      25.208  69.888 -10.504  0.00  0.00     0.075 H 
BRANCH 161 164
ATOM    164  N1  MOL d   1      25.809  71.054 -12.153  0.00  0.00    -0.079 N 
ATOM    165 1H13 MOL d   1      26.690  70.574 -12.246  0.00  0.00     0.274 HD
ATOM    166 2H13 MOL d   1      25.936  71.884 -11.595  0.00  0.00     0.274 HD
ATOM    167 3H13 MOL d   1      25.469  71.312 -13.066  0.00  0.00     0.274 HD
ENDBRANCH 161 164
ENDBRANCH 158 161
ENDBRANCH 155 158
ENDBRANCH 154 155
ENDBRANCH 143 154
ENDBRANCH 135 137
ENDBRANCH 123 133
BRANCH 125 168
ATOM    168  OB  MOL d   1      23.216  70.250 -25.465  0.00  0.00    -0.340 OA
BRANCH 168 169
ATOM    169  CG  MOL d   1      24.385  69.629 -26.086  0.00  0.00     0.105 C 
ATOM    170 5H11 MOL d   1      24.859  68.918 -25.393  0.00  0.00     0.091 H 
ATOM    171 6H11 MOL d   1      25.117  70.394 -26.384  0.00  0.00     0.091 H 
BRANCH 169 172
ATOM    172  CD  MOL d   1      23.808  68.859 -27.385  0.00  0.00     0.198 C 
ATOM    173  OE2 MOL d   1      24.706  68.234 -28.013  0.00  0.00    -0.646 OA
ATOM    174  OE1 MOL d   1      22.519  68.813 -27.627  0.00  0.00    -0.646 OA
ENDBRANCH 169 172
ENDBRANCH 168 169
ENDBRANCH 125 168
ENDBRANCH 117 119
ENDBRANCH 108 115
ENDBRANCH 103 106
ENDBRANCH 101 103
ENDBRANCH  89  99
BRANCH  91 175
ATOM    175  CB  MOL d   1      29.155  69.055 -21.073  0.00  0.00     0.040 C 
ATOM    176 0H10 MOL d   1      28.943  68.522 -20.135  0.00  0.00     0.056 H 
ATOM    177 1H10 MOL d   1      28.821  68.445 -21.925  0.00  0.00     0.056 H 
BRANCH 175 178
ATOM    178  CG  MOL d   1      30.634  69.315 -21.185  0.00  0.00     0.176 C 
ATOM    179  OD1 MOL d   1      31.095  69.390 -22.343  0.00  0.00    -0.648 OA
ATOM    180  OD2 MOL d   1      31.354  69.285 -20.161  0.00  0.00    -0.648 OA
ENDBRANCH 175 178
ENDBRANCH  91 175
ENDBRANCH  83  85
ENDBRANCH  74  81
ENDBRANCH  69  72
ENDBRANCH  67  69
ENDBRANCH  55  65
BRANCH  57 181
ATOM    181  OB  MOL d   1      30.480  73.808 -16.024  0.00  0.00    -0.360 OA
ATOM    182  H88 MOL d   1      31.127  73.164 -16.288  0.00  0.00     0.217 HD
ENDBRANCH  57 181
ENDBRANCH  49  51
ENDBRANCH  40  47
ENDBRANCH  35  38
ENDBRANCH  33  35
ENDBRANCH  24  31
ENDBRANCH  19  22
ENDBRANCH  17  19
ENDBRANCH   1  15
BRANCH   6 183
ATOM    183  OB  MOL d   1      34.105  73.494 -24.438  0.00  0.00    -0.340 OA
BRANCH 183 184
ATOM    184  CG  MOL d   1      35.492  73.588 -24.522  0.00  0.00     0.105 C 
ATOM    185  H71 MOL d   1      35.879  74.439 -23.942  0.00  0.00     0.091 H 
ATOM    186  H72 MOL d   1      35.833  73.669 -25.565  0.00  0.00     0.091 H 
BRANCH 184 187
ATOM    187  CD  MOL d   1      35.887  72.257 -23.902  0.00  0.00     0.198 C 
ATOM    188  OE2 MOL d   1      34.959  71.388 -23.867  0.00  0.00    -0.646 OA
ATOM    189  OE1 MOL d   1      37.103  72.149 -23.451  0.00  0.00    -0.646 OA
ENDBRANCH 184 187
ENDBRANCH 183 184
ENDBRANCH   6 183
BRANCH   4 190
ATOM    190  N   MOL d   1      31.460  78.753 -24.416  0.00  0.00    -0.320 N 
ATOM    191  C   MOL d   1      30.695  79.816 -24.900  0.00  0.00     0.274 C 
ATOM    192  O   MOL d   1      30.190  79.856 -26.047  0.00  0.00    -0.266 OA
ATOM    193  H69 MOL d   1      31.699  78.805 -23.446  0.00  0.00     0.169 HD
BRANCH 191 194
ATOM    194  C10 MOL d   1      30.486  80.880 -23.949  0.00  0.00     0.125 A 
ATOM    195  N11 MOL d   1      31.098  80.810 -22.724  0.00  0.00    -0.246 NA
ATOM    196  C7  MOL d   1      30.979  81.798 -21.768  0.00  0.00     0.053 A 
ATOM    197  C6  MOL d   1      30.170  82.928 -22.022  0.00  0.00    -0.057 A 
ATOM    198  C8  MOL d   1      29.526  83.069 -23.267  0.00  0.00    -0.079 A 
ATOM    199  H65 MOL d   1      30.045  83.687 -21.258  0.00  0.00     0.086 H 
ATOM    200  C9  MOL d   1      29.698  82.043 -24.222  0.00  0.00    -0.050 A 
ATOM    201  H64 MOL d   1      28.917  83.939 -23.485  0.00  0.00     0.083 H 
ATOM    202  H63 MOL d   1      29.219  82.139 -25.190  0.00  0.00     0.087 H 
BRANCH 196 203
ATOM    203  C2  MOL d   1      31.602  81.695 -20.552  0.00  0.00     0.035 C 
ATOM    204  H66 MOL d   1      30.888  81.356 -19.787  0.00  0.00     0.073 H 
ATOM    205  H67 MOL d   1      32.022  82.668 -20.257  0.00  0.00     0.073 H 
BRANCH 203 206
ATOM    206  N   MOL d   1      32.693  80.692 -20.719  0.00  0.00    -0.350 N 
ATOM    207  C   MOL d   1      33.573  80.371 -19.739  0.00  0.00     0.270 C 
ATOM    208  O   MOL d   1      33.508  80.875 -18.577  0.00  0.00    -0.266 OA
ATOM    209  H68 MOL d   1      32.780  80.231 -21.602  0.00  0.00     0.163 HD
BRANCH 207 210
ATOM    210  C10 MOL d   1      34.539  79.358 -20.062  0.00  0.00     0.127 A 
ATOM    211  N11 MOL d   1      34.840  79.079 -21.353  0.00  0.00    -0.240 NA
ATOM    212  C7  MOL d   1      35.676  78.133 -21.748  0.00  0.00     0.097 A 
ATOM    213  C2  MOL d   1      35.854  77.932 -23.104  0.00  0.00     0.065 A 
ATOM    214  C6  MOL d   1      36.234  77.342 -20.811  0.00  0.00     0.028 A 
ATOM    215  C3  MOL d   1      36.621  76.900 -23.539  0.00  0.00    -0.055 A 
ATOM    216  C4  MOL d   1      37.259  76.078 -22.600  0.00  0.00    -0.080 A 
ATOM    217  H53 MOL d   1      36.739  76.714 -24.600  0.00  0.00     0.087 H 
ATOM    218  C5  MOL d   1      37.068  76.322 -21.239  0.00  0.00    -0.068 A 
ATOM    219  H52 MOL d   1      37.894  75.262 -22.927  0.00  0.00     0.083 H 
ATOM    220  H51 MOL d   1      37.579  75.706 -20.508  0.00  0.00     0.085 H 
ATOM    221  C8  MOL d   1      36.072  77.617 -19.468  0.00  0.00     0.083 A 
ATOM    222  C9  MOL d   1      35.209  78.653 -19.080  0.00  0.00    -0.017 A 
ATOM    223  H50 MOL d   1      35.071  78.895 -18.032  0.00  0.00     0.091 H 
BRANCH 213 224
ATOM    224  N   MOL d   1      35.144  78.757 -23.907  0.00  0.00    -0.320 N 
ATOM    225  C   MOL d   1      35.079  78.772 -25.271  0.00  0.00     0.275 C 
ATOM    226  O   MOL d   1      35.583  77.890 -25.987  0.00  0.00    -0.266 OA
ATOM    227  H49 MOL d   1      34.593  79.448 -23.439  0.00  0.00     0.169 HD
BRANCH 225 228
ATOM    228  C10 MOL d   1      34.359  79.870 -25.805  0.00  0.00     0.128 A 
ATOM    229  C9  MOL d   1      33.856  79.908 -27.098  0.00  0.00    -0.017 A 
ATOM    230  C8  MOL d   1      33.108  81.035 -27.486  0.00  0.00     0.080 A 
ATOM    231  H44 MOL d   1      34.034  79.093 -27.790  0.00  0.00     0.091 H 
ATOM    232  C6  MOL d   1      32.889  82.088 -26.617  0.00  0.00     0.028 A 
ATOM    233  C7  MOL d   1      33.415  82.026 -25.330  0.00  0.00     0.097 A 
ATOM    234  C5  MOL d   1      32.142  83.172 -27.027  0.00  0.00    -0.068 A 
ATOM    235  N11 MOL d   1      34.134  80.934 -24.978  0.00  0.00    -0.240 NA
ATOM    236  C2  MOL d   1      33.181  83.043 -24.408  0.00  0.00     0.065 A 
ATOM    237  C3  MOL d   1      32.479  84.168 -24.811  0.00  0.00    -0.055 A 
ATOM    238  C4  MOL d   1      31.951  84.185 -26.101  0.00  0.00    -0.080 A 
ATOM    239  H47 MOL d   1      32.344  85.010 -24.142  0.00  0.00     0.087 H 
ATOM    240  H46 MOL d   1      31.356  85.041 -26.397  0.00  0.00     0.083 H 
ATOM    241  H45 MOL d   1      31.724  83.229 -28.026  0.00  0.00     0.085 H 
BRANCH 230 242
ATOM    242  OB  MOL d   1      32.539  81.184 -28.726  0.00  0.00    -0.360 OA
ATOM    243  H43 MOL d   1      32.084  82.017 -28.766  0.00  0.00     0.217 HD
ENDBRANCH 230 242
BRANCH 236 244
ATOM    244  N   MOL d   1      33.843  82.913 -23.248  0.00  0.00    -0.320 N 
ATOM    245  C   MOL d   1      33.833  83.722 -22.159  0.00  0.00     0.274 C 
ATOM    246  O   MOL d   1      33.034  84.650 -21.993  0.00  0.00    -0.266 OA
ATOM    247  H48 MOL d   1      34.427  82.104 -23.176  0.00  0.00     0.169 HD
BRANCH 245 248
ATOM    248  C10 MOL d   1      34.779  83.406 -21.167  0.00  0.00     0.125 A 
ATOM    249  N11 MOL d   1      35.798  82.513 -21.425  0.00  0.00    -0.246 NA
ATOM    250  C7  MOL d   1      36.680  82.144 -20.490  0.00  0.00     0.053 A 
ATOM    251  C6  MOL d   1      36.611  82.783 -19.260  0.00  0.00    -0.057 A 
ATOM    252  C8  MOL d   1      35.632  83.733 -18.983  0.00  0.00    -0.079 A 
ATOM    253  H39 MOL d   1      37.338  82.536 -18.495  0.00  0.00     0.086 H 
ATOM    254  C9  MOL d   1      34.707  84.061 -19.934  0.00  0.00    -0.050 A 
ATOM    255  H38 MOL d   1      35.603  84.213 -18.012  0.00  0.00     0.083 H 
ATOM    256  H37 MOL d   1      33.943  84.805 -19.739  0.00  0.00     0.087 H 
BRANCH 250 257
ATOM    257  C2  MOL d   1      37.697  81.179 -20.679  0.00  0.00     0.035 C 
ATOM    258  H40 MOL d   1      37.422  80.232 -20.191  0.00  0.00     0.073 H 
ATOM    259  H41 MOL d   1      38.650  81.541 -20.267  0.00  0.00     0.073 H 
BRANCH 257 260
ATOM    260  N   MOL d   1      37.807  80.991 -22.139  0.00  0.00    -0.350 N 
ATOM    261  C   MOL d   1      38.551  80.035 -22.712  0.00  0.00     0.270 C 
ATOM    262  O   MOL d   1      39.228  79.224 -22.069  0.00  0.00    -0.266 OA
ATOM    263  H42 MOL d   1      37.297  81.612 -22.734  0.00  0.00     0.163 HD
BRANCH 261 264
ATOM    264  C10 MOL d   1      38.455  79.987 -24.096  0.00  0.00     0.127 A 
ATOM    265  C9  MOL d   1      38.936  78.867 -24.767  0.00  0.00    -0.017 A 
ATOM    266  C8  MOL d   1      38.778  78.825 -26.165  0.00  0.00     0.083 A 
ATOM    267  H26 MOL d   1      39.416  78.055 -24.232  0.00  0.00     0.091 H 
ATOM    268  C6  MOL d   1      38.154  79.873 -26.857  0.00  0.00     0.028 A 
ATOM    269  C5  MOL d   1      38.004  79.874 -28.230  0.00  0.00    -0.068 A 
ATOM    270  C7  MOL d   1      37.696  80.941 -26.121  0.00  0.00     0.097 A 
ATOM    271  C4  MOL d   1      37.356  80.937 -28.885  0.00  0.00    -0.080 A 
ATOM    272  H25 MOL d   1      38.391  79.044 -28.811  0.00  0.00     0.085 H 
ATOM    273  C3  MOL d   1      36.875  82.033 -28.171  0.00  0.00    -0.055 A 
ATOM    274  H24 MOL d   1      37.229  80.903 -29.961  0.00  0.00     0.083 H 
ATOM    275  C2  MOL d   1      37.051  82.010 -26.763  0.00  0.00     0.066 A 
ATOM    276  H23 MOL d   1      36.389  82.865 -28.668  0.00  0.00     0.087 H 
ATOM    277  N11 MOL d   1      37.833  80.987 -24.789  0.00  0.00    -0.240 NA
BRANCH 266 278
ATOM    278  OB  MOL d   1      39.266  77.777 -26.914  0.00  0.00    -0.350 OA
BRANCH 278 279
ATOM    279  CG  MOL d   1      38.887  76.427 -26.474  0.00  0.00     0.029 C 
ATOM    280  H28 MOL d   1      37.946  76.113 -26.948  0.00  0.00     0.075 H 
ATOM    281  H29 MOL d   1      38.776  76.391 -25.380  0.00  0.00     0.075 H 
BRANCH 279 282
ATOM    282  CD  MOL d   1      40.026  75.556 -26.923  0.00  0.00    -0.040 C 
ATOM    283  H30 MOL d   1      40.956  75.862 -26.422  0.00  0.00     0.042 H 
BRANCH 282 284
ATOM    284  CE2 MOL d   1      40.203  75.724 -28.450  0.00  0.00    -0.071 C 
ATOM    285  H31 MOL d   1      41.035  75.092 -28.794  0.00  0.00     0.028 H 
ATOM    286  H32 MOL d   1      40.423  76.777 -28.680  0.00  0.00     0.028 H 
ATOM    287  H33 MOL d   1      39.277  75.423 -28.962  0.00  0.00     0.028 H 
ENDBRANCH 282 284
BRANCH 282 288
ATOM    288  CE1 MOL d   1      39.680  74.118 -26.510  0.00  0.00    -0.071 C 
ATOM    289  H34 MOL d   1      39.568  74.067 -25.417  0.00  0.00     0.028 H 
ATOM    290  H35 MOL d   1      40.487  73.441 -26.828  0.00  0.00     0.028 H 
ATOM    291  H36 MOL d   1      38.737  73.816 -26.989  0.00  0.00     0.028 H 
ENDBRANCH 282 288
ENDBRANCH 279 282
ENDBRANCH 278 279
ENDBRANCH 266 278
BRANCH 275 292
ATOM    292  N   MOL d   1      36.691  82.941 -25.865  0.00  0.00    -0.307 N 
ATOM    293  C2  MOL d   1      36.137  84.134 -26.147  0.00  0.00     0.320 C 
ATOM    294  O1  MOL d   1      35.639  84.387 -27.245  0.00  0.00    -0.247 OA
ATOM    295  N3  MOL d   1      36.122  85.033 -25.114  0.00  0.00    -0.343 N 
ATOM    296  H10 MOL d   1      36.587  84.793 -24.262  0.00  0.00     0.164 HD
ATOM    297  H27 MOL d   1      36.849  82.729 -24.901  0.00  0.00     0.170 HD
BRANCH 295 298
ATOM    298  C4  MOL d   1      35.449  86.337 -25.207  0.00  0.00    -0.003 C 
ATOM    299  H1  MOL d   1      35.980  86.978 -25.926  0.00  0.00     0.064 H 
ATOM    300  H2  MOL d   1      34.410  86.196 -25.540  0.00  0.00     0.064 H 
BRANCH 298 301
ATOM    301  C5  MOL d   1      35.464  86.990 -23.823  0.00  0.00    -0.048 C 
ATOM    302  H3  MOL d   1      36.506  87.117 -23.493  0.00  0.00     0.035 H 
ATOM    303  H4  MOL d   1      34.930  86.344 -23.111  0.00  0.00     0.035 H 
BRANCH 301 304
ATOM    304  C6  MOL d   1      34.767  88.385 -23.874  0.00  0.00    -0.043 C 
ATOM    305  H5  MOL d   1      34.922  88.833 -24.867  0.00  0.00     0.036 H 
ATOM    306  H6  MOL d   1      35.204  89.038 -23.105  0.00  0.00     0.036 H 
BRANCH 304 307
ATOM    307  C7  MOL d   1      33.282  88.236 -23.619  0.00  0.00     0.026 C 
ATOM    308  H7  MOL d   1      32.878  89.099 -23.069  0.00  0.00     0.075 H 
ATOM    309  H8  MOL d   1      33.058  87.312 -23.066  0.00  0.00     0.075 H 
BRANCH 307 310
ATOM    310  O7  MOL d   1      32.798  88.185 -24.904  0.00  0.00    -0.351 OA
BRANCH 310 311
ATOM    311  C8  MOL d   1      31.530  87.925 -25.252  0.00  0.00     0.069 A 
ATOM    312  C9  MOL d   1      30.539  87.350 -24.537  0.00  0.00    -0.051 A 
ATOM    313  C10 MOL d   1      29.303  87.173 -25.199  0.00  0.00    -0.080 A 
ATOM    314  H9  MOL d   1      30.684  87.040 -23.508  0.00  0.00     0.087 H 
ATOM    315  C11 MOL d   1      29.080  87.540 -26.537  0.00  0.00    -0.075 A 
ATOM    316  H12 MOL d   1      28.483  86.730 -24.645  0.00  0.00     0.083 H 
ATOM    317  C12 MOL d   1      30.136  88.141 -27.206  0.00  0.00    -0.038 A 
ATOM    318  H13 MOL d   1      28.128  87.362 -27.023  0.00  0.00     0.084 H 
ATOM    319  C13 MOL d   1      31.308  88.285 -26.548  0.00  0.00    -0.043 A 
ATOM    320  H11 MOL d   1      32.137  88.721 -27.094  0.00  0.00     0.088 H 
BRANCH 317 321
ATOM    321  C14 MOL d   1      30.217  88.594 -28.500  0.00  0.00     0.019 C 
ATOM    322  H14 MOL d   1      30.814  87.868 -29.071  0.00  0.00     0.071 H 
ATOM    323  H15 MOL d   1      30.737  89.563 -28.482  0.00  0.00     0.071 H 
BRANCH 321 324
ATOM    324  N15 MOL d   1      28.968  88.781 -29.202  0.00  0.00    -0.353 N 
ATOM    325  C16 MOL d   1      28.137  89.786 -28.896  0.00  0.00     0.251 C 
ATOM    326  O17 MOL d   1      28.324  90.572 -27.953  0.00  0.00    -0.268 OA
ATOM    327  H16 MOL d   1      28.718  88.146 -29.933  0.00  0.00     0.163 HD
BRANCH 325 328
ATOM    328  C18 MOL d   1      27.001  89.915 -29.694  0.00  0.00     0.032 A 
ATOM    329  C19 MOL d   1      26.575  89.007 -30.632  0.00  0.00    -0.066 A 
ATOM    330  C20 MOL d   1      25.411  89.233 -31.353  0.00  0.00    -0.059 A 
ATOM    331  H17 MOL d   1      27.152  88.107 -30.811  0.00  0.00     0.085 H 
ATOM    332  C21 MOL d   1      24.671  90.383 -31.182  0.00  0.00     0.079 A 
ATOM    333  H18 MOL d   1      25.076  88.489 -32.066  0.00  0.00     0.085 H 
ATOM    334  C22 MOL d   1      25.109  91.292 -30.281  0.00  0.00    -0.059 A 
ATOM    335  C23 MOL d   1      26.247  91.049 -29.525  0.00  0.00    -0.066 A 
ATOM    336  H21 MOL d   1      24.565  92.220 -30.148  0.00  0.00     0.085 H 
ATOM    337  H22 MOL d   1      26.549  91.776 -28.780  0.00  0.00     0.085 H 
BRANCH 332 338
ATOM    338  S24 MOL d   1      23.281  90.715 -32.069  0.00  0.00     0.256 S 
ATOM    339  O27 MOL d   1      22.797  92.139 -31.783  0.00  0.00    -0.201 OA
ATOM    340  O25 MOL d   1      22.178  89.673 -31.974  0.00  0.00    -0.201 OA
BRANCH 338 341
ATOM    341  N26 MOL d   1      23.766  90.508 -33.629  0.00  0.00    -0.324 N 
ATOM    342  H19 MOL d   1      23.117  90.647 -34.377  0.00  0.00     0.169 HD
ATOM    343  H20 MOL d   1      24.710  90.243 -33.828  0.00  0.00     0.169 HD
ENDBRANCH 338 341
ENDBRANCH 332 338
ENDBRANCH 325 328
ENDBRANCH 321 324
ENDBRANCH 317 321
ENDBRANCH 310 311
ENDBRANCH 307 310
ENDBRANCH 304 307
ENDBRANCH 301 304
ENDBRANCH 298 301
ENDBRANCH 295 298
ENDBRANCH 275 292
ENDBRANCH 261 264
ENDBRANCH 257 260
ENDBRANCH 250 257
ENDBRANCH 245 248
ENDBRANCH 236 244
ENDBRANCH 225 228
ENDBRANCH 213 224
BRANCH 221 344
ATOM    344  OB  MOL d   1      36.680  76.841 -18.522  0.00  0.00    -0.350 OA
BRANCH 344 345
ATOM    345  CG  MOL d   1      36.384  77.041 -17.075  0.00  0.00     0.028 C 
ATOM    346  H54 MOL d   1      35.300  76.927 -16.926  0.00  0.00     0.075 H 
ATOM    347  H55 MOL d   1      36.686  78.062 -16.800  0.00  0.00     0.075 H 
BRANCH 345 348
ATOM    348  CD  MOL d   1      37.100  76.063 -16.144  0.00  0.00    -0.022 C 
ATOM    349  H56 MOL d   1      36.372  75.368 -15.700  0.00  0.00     0.038 H 
ATOM    350  H57 MOL d   1      37.614  76.616 -15.344  0.00  0.00     0.038 H 
BRANCH 348 351
ATOM    351  CE  MOL d   1      38.122  75.283 -16.977  0.00  0.00     0.082 C 
ATOM    352  H58 MOL d   1      39.055  75.175 -16.405  0.00  0.00     0.075 H 
ATOM    353  H59 MOL d   1      38.325  75.827 -17.911  0.00  0.00     0.075 H 
BRANCH 351 354
ATOM    354  N1  MOL d   1      37.583  73.948 -17.294  0.00  0.00    -0.079 N 
ATOM    355  H60 MOL d   1      38.256  73.435 -17.842  0.00  0.00     0.274 HD
ATOM    356  H61 MOL d   1      36.728  74.047 -17.819  0.00  0.00     0.274 HD
ATOM    357  H62 MOL d   1      37.397  73.449 -16.438  0.00  0.00     0.274 HD
ENDBRANCH 351 354
ENDBRANCH 348 351
ENDBRANCH 345 348
ENDBRANCH 344 345
ENDBRANCH 221 344
ENDBRANCH 207 210
ENDBRANCH 203 206
ENDBRANCH 196 203
ENDBRANCH 191 194
ENDBRANCH   4 190
TORSDOF 70
