REMARK  11 active torsions:
REMARK  status: ('A' for Active; 'I' for Inactive)
REMARK    1  A    between atoms: C3_2  and  N15_28 
REMARK    2  A    between atoms: C10_26  and  C11_3 
REMARK    3  A    between atoms: C10_26  and  C12_4 
REMARK    4  A    between atoms: O13_27  and  C14_5 
REMARK    5  A    between atoms: N15_28  and  C16_6 
REMARK    6  A    between atoms: C21_10  and  C23_11 
REMARK    7  A    between atoms: N15_28  and  C29_17 
REMARK    8  A    between atoms: C5_21  and  O13_27 
REMARK    9  A    between atoms: N7_23  and  C6_22 
REMARK   10  A    between atoms: C9_25  and  C10_26 
REMARK   11  A    between atoms: C32_32  and  N20_29 
ROOT
ATOM      1  C23 HRE d   1      -6.296  -4.057   2.291  0.00  0.00    -0.030 A 
ATOM      2  C24 HRE d   1      -5.888  -4.669   1.090  0.00  0.00    -0.073 A 
ATOM      3  C25 HRE d   1      -7.126  -6.668   1.716  0.00  0.00     0.044 A 
ATOM      4  C26 HRE d   1      -7.520  -6.066   2.917  0.00  0.00    -0.062 A 
ATOM      5  C27 HRE d   1      -6.314  -5.979   0.799  0.00  0.00    -0.062 A 
ATOM      6  C28 HRE d   1      -7.100  -4.767   3.198  0.00  0.00    -0.073 A 
ATOM      7  C30 HRE d   1      -7.595  -8.004   1.476  0.00  0.00     0.099 C 
ATOM      8  N31 HRE d   1      -7.978  -9.078   1.293  0.00  0.00    -0.191 NA
ATOM      9  H15 HRE d   1      -5.250  -4.135   0.395  0.00  0.00     0.084 H 
ATOM     10  H16 HRE d   1      -8.145  -6.604   3.621  0.00  0.00     0.085 H 
ATOM     11  H17 HRE d   1      -6.017  -6.454  -0.129  0.00  0.00     0.085 H 
ATOM     12  H18 HRE d   1      -7.398  -4.298   4.129  0.00  0.00     0.084 H 
ENDROOT
BRANCH   1  13
ATOM     13  C21 HRE d   1      -5.854  -2.643   2.687  0.00  0.00     0.075 A 
ATOM     14  C17 HRE d   1      -7.057  -1.739   2.794  0.00  0.00     0.031 A 
ATOM     15  C18 HRE d   1      -7.258  -1.368   4.148  0.00  0.00     0.156 A 
ATOM     16  C9  HRE d   1      -8.037  -1.127   2.101  0.00  0.00     0.051 A 
ATOM     17  C19 HRE d   1      -6.229  -1.991   4.948  0.00  0.00     0.280 A 
ATOM     18  N8  HRE d   1      -8.261  -0.619   4.234  0.00  0.00    -0.161 NA
ATOM     19  N20 HRE d   1      -5.412  -2.710   4.111  0.00  0.00    -0.294 N 
ATOM     20  O22 HRE d   1      -6.196  -1.820   6.151  0.00  0.00    -0.265 OA
ATOM     21  N7  HRE d   1      -8.756  -0.474   2.990  0.00  0.00    -0.231 N 
ATOM     22  H14 HRE d   1      -5.084  -2.251   2.006  0.00  0.00     0.089 H 
BRANCH  19  23
ATOM     23  C32 HRE d   1      -4.309  -3.436   4.518  0.00  0.00     0.108 A 
ATOM     24  C33 HRE d   1      -2.932  -3.363   3.909  0.00  0.00     0.272 A 
ATOM     25  N36 HRE d   1      -1.912  -4.100   4.427  0.00  0.00    -0.330 N 
ATOM     26  O38 HRE d   1      -2.675  -2.663   2.937  0.00  0.00    -0.266 OA
ATOM     27  C34 HRE d   1      -2.048  -4.912   5.497  0.00  0.00     0.001 A 
ATOM     28  H24 HRE d   1      -1.014  -4.037   3.992  0.00  0.00     0.168 HD
ATOM     29  C35 HRE d   1      -3.244  -5.016   6.075  0.00  0.00     0.051 A 
ATOM     30  H23 HRE d   1      -1.196  -5.471   5.880  0.00  0.00     0.114 H 
ATOM     31  C37 HRE d   1      -4.392  -4.257   5.575  0.00  0.00    -0.029 A 
ATOM     32 CL   HRE d   1      -3.494  -6.021   7.477  0.00  0.00    -0.083 Cl
ATOM     33  H25 HRE d   1      -5.350  -4.363   6.081  0.00  0.00     0.089 H 
ENDBRANCH  19  23
BRANCH  21  34
ATOM     34  C6  HRE d   1      -9.832   0.292   2.722  0.00  0.00     0.130 A 
ATOM     35  C1  HRE d   1      -9.617   1.647   2.502  0.00  0.00     0.053 A 
ATOM     36  N2  HRE d   1     -10.661   2.448   2.232  0.00  0.00    -0.073 NA
ATOM     37  H1  HRE d   1      -8.614   2.055   2.548  0.00  0.00     0.119 H 
ATOM     38  C3  HRE d   1     -11.918   1.976   2.169  0.00  0.00     0.726 A 
ATOM     39  N4  HRE d   1     -12.143   0.655   2.386  0.00  0.00    -0.036 NA
ATOM     40  C5  HRE d   1     -11.136  -0.209   2.656  0.00  0.00     0.213 A 
BRANCH  38  41
ATOM     41  N15 HRE d   1     -12.932   2.834   1.885  0.00  0.00    -0.223 N 
BRANCH  41  42
ATOM     42  C16 HRE d   1     -14.244   2.327   1.515  0.00  0.00    -0.003 C 
ATOM     43  H11 HRE d   1     -14.923   3.171   1.325  0.00  0.00     0.057 H 
ATOM     44  H12 HRE d   1     -14.644   1.712   2.334  0.00  0.00     0.057 H 
ATOM     45  H13 HRE d   1     -14.157   1.715   0.605  0.00  0.00     0.057 H 
ENDBRANCH  41  42
BRANCH  41  46
ATOM     46  C29 HRE d   1     -12.718   4.284   1.925  0.00  0.00    -0.003 C 
ATOM     47  H19 HRE d   1     -11.679   4.493   2.221  0.00  0.00     0.057 H 
ATOM     48  H20 HRE d   1     -13.405   4.736   2.655  0.00  0.00     0.057 H 
ATOM     49  H21 HRE d   1     -12.909   4.710   0.929  0.00  0.00     0.057 H 
ENDBRANCH  41  46
ENDBRANCH  38  41
BRANCH  40  50
ATOM     50  O13 HRE d   1     -11.356  -1.569   2.887  0.00  0.00    -0.337 OA
BRANCH  50  51
ATOM     51  C14 HRE d   1     -12.516  -2.182   2.303  0.00  0.00     0.012 C 
ATOM     52  H8  HRE d   1     -12.545  -3.247   2.577  0.00  0.00     0.067 H 
ATOM     53  H9  HRE d   1     -12.470  -2.086   1.208  0.00  0.00     0.067 H 
ATOM     54  H10 HRE d   1     -13.422  -1.683   2.677  0.00  0.00     0.067 H 
ENDBRANCH  50  51
ENDBRANCH  40  50
ENDBRANCH  21  34
BRANCH  16  55
ATOM     55  C10 HRE d   1      -8.322  -1.188   0.607  0.00  0.00    -0.018 C 
ATOM     56  H22 HRE d   1      -8.921  -0.291   0.389  0.00  0.00     0.048 H 
BRANCH  55  57
ATOM     57  C11 HRE d   1      -7.057  -1.055  -0.270  0.00  0.00    -0.068 C 
ATOM     58  H2  HRE d   1      -7.340  -1.108  -1.332  0.00  0.00     0.028 H 
ATOM     59  H3  HRE d   1      -6.360  -1.873  -0.035  0.00  0.00     0.028 H 
ATOM     60  H4  HRE d   1      -6.570  -0.089  -0.068  0.00  0.00     0.028 H 
ENDBRANCH  55  57
BRANCH  55  61
ATOM     61  C12 HRE d   1      -9.221  -2.388   0.212  0.00  0.00    -0.068 C 
ATOM     62  H5  HRE d   1     -10.099  -2.422   0.874  0.00  0.00     0.028 H 
ATOM     63  H6  HRE d   1      -8.650  -3.323   0.312  0.00  0.00     0.028 H 
ATOM     64  H7  HRE d   1      -9.552  -2.271  -0.830  0.00  0.00     0.028 H 
ENDBRANCH  55  61
ENDBRANCH  16  55
ENDBRANCH   1  13
TORSDOF 11
