REMARK  6 active torsions:
REMARK  status: ('A' for Active; 'I' for Inactive)
REMARK    1  A    between atoms: C3_3  and  O10_23 
REMARK    2  A    between atoms: O10_23  and  C11_4 
REMARK    3  A    between atoms: C9_22  and  C12_5 
REMARK       I    between atoms: C12_5  and  N13_24 
REMARK    4  A    between atoms: N13_24  and  C15_6 
REMARK    5  A    between atoms: N17_26  and  C20_10 
REMARK    6  A    between atoms: C23_13  and  C26_16 
ROOT
ATOM      1  C15 HRQ d   1      -5.266   8.807 -14.343  0.00  0.00     0.029 C 
ATOM      2  C16 HRQ d   1      -3.815   9.256 -14.106  0.00  0.00     0.014 C 
ATOM      3  C18 HRQ d   1      -3.860   7.102 -15.255  0.00  0.00    -0.003 C 
ATOM      4  C19 HRQ d   1      -5.147   7.875 -15.562  0.00  0.00    -0.030 C 
ATOM      5  N17 HRQ d   1      -3.089   8.049 -14.451  0.00  0.00    -0.379 N 
ATOM      6  H6  HRQ d   1      -5.630   8.248 -13.468  0.00  0.00     0.075 H 
ATOM      7  H7  HRQ d   1      -3.647   9.542 -13.057  0.00  0.00     0.067 H 
ATOM      8  H8  HRQ d   1      -3.540  10.094 -14.763  0.00  0.00     0.067 H 
ATOM      9  H9  HRQ d   1      -3.325   6.842 -16.180  0.00  0.00     0.064 H 
ATOM     10  H10 HRQ d   1      -4.076   6.185 -14.687  0.00  0.00     0.064 H 
ATOM     11  H11 HRQ d   1      -5.054   8.449 -16.495  0.00  0.00     0.038 H 
ATOM     12  H12 HRQ d   1      -6.011   7.198 -15.632  0.00  0.00     0.038 H 
ENDROOT
BRANCH   1  13
ATOM     13  N13 HRQ d   1      -6.197   9.901 -14.603  0.00  0.00    -0.351 N 
ATOM     14  C12 HRQ d   1      -6.841  10.522 -13.599  0.00  0.00     0.254 C 
ATOM     15  O14 HRQ d   1      -6.616  10.247 -12.417  0.00  0.00    -0.268 OA
ATOM     16  H23 HRQ d   1      -6.359  10.194 -15.545  0.00  0.00     0.163 HD
BRANCH  14  17
ATOM     17  C9  HRQ d   1      -7.830  11.551 -13.955  0.00  0.00     0.059 A 
ATOM     18  C5  HRQ d   1      -8.662  11.546 -15.204  0.00  0.00     0.010 A 
ATOM     19  C4  HRQ d   1      -8.819  10.706 -16.313  0.00  0.00    -0.070 A 
ATOM     20  C6  HRQ d   1      -9.451  12.687 -15.079  0.00  0.00     0.077 A 
ATOM     21  C1  HRQ d   1      -9.765  11.033 -17.282  0.00  0.00    -0.079 A 
ATOM     22  H20 HRQ d   1      -8.213   9.813 -16.416  0.00  0.00     0.084 H 
ATOM     23  C2  HRQ d   1     -10.549  12.173 -17.150  0.00  0.00    -0.049 A 
ATOM     24  H1  HRQ d   1      -9.891  10.392 -18.147  0.00  0.00     0.083 H 
ATOM     25  C3  HRQ d   1     -10.411  13.020 -16.044  0.00  0.00     0.095 A 
ATOM     26  H2  HRQ d   1     -11.279  12.410 -17.916  0.00  0.00     0.087 H 
ATOM     27  N7  HRQ d   1      -9.169  13.327 -13.900  0.00  0.00    -0.362 N 
ATOM     28  C8  HRQ d   1      -8.222  12.645 -13.250  0.00  0.00    -0.006 A 
ATOM     29  H21 HRQ d   1      -9.615  14.194 -13.569  0.00  0.00     0.165 HD
ATOM     30  H22 HRQ d   1      -7.816  12.929 -12.280  0.00  0.00     0.112 H 
BRANCH  25  31
ATOM     31  O10 HRQ d   1     -11.138  14.181 -15.844  0.00  0.00    -0.354 OA
BRANCH  31  32
ATOM     32  C11 HRQ d   1     -12.041  14.604 -16.882  0.00  0.00     0.010 C 
ATOM     33  H3  HRQ d   1     -12.541  15.535 -16.576  0.00  0.00     0.066 H 
ATOM     34  H4  HRQ d   1     -12.796  13.822 -17.053  0.00  0.00     0.066 H 
ATOM     35  H5  HRQ d   1     -11.477  14.778 -17.810  0.00  0.00     0.066 H 
ENDBRANCH  31  32
ENDBRANCH  25  31
ENDBRANCH  14  17
ENDBRANCH   1  13
BRANCH   5  36
ATOM     36  C20 HRQ d   1      -1.893   7.687 -13.880  0.00  0.00     0.030 A 
ATOM     37  C21 HRQ d   1      -1.366   6.388 -14.050  0.00  0.00    -0.057 A 
ATOM     38  C22 HRQ d   1      -0.186   5.999 -13.419  0.00  0.00    -0.075 A 
ATOM     39  H13 HRQ d   1      -1.889   5.680 -14.683  0.00  0.00     0.086 H 
ATOM     40  C23 HRQ d   1       0.521   6.879 -12.606  0.00  0.00    -0.062 A 
ATOM     41  H14 HRQ d   1       0.188   4.992 -13.564  0.00  0.00     0.084 H 
ATOM     42  C24 HRQ d   1       0.012   8.160 -12.428  0.00  0.00    -0.075 A 
ATOM     43  C25 HRQ d   1      -1.168   8.568 -13.053  0.00  0.00    -0.057 A 
ATOM     44  H15 HRQ d   1       0.543   8.857 -11.790  0.00  0.00     0.084 H 
ATOM     45  H16 HRQ d   1      -1.532   9.578 -12.900  0.00  0.00     0.086 H 
BRANCH  40  46
ATOM     46  C26 HRQ d   1       1.825   6.429 -11.936  0.00  0.00    -0.051 C 
ATOM     47  H17 HRQ d   1       2.038   5.386 -12.212  0.00  0.00     0.033 H 
ATOM     48  H18 HRQ d   1       1.721   6.505 -10.844  0.00  0.00     0.033 H 
ATOM     49  H19 HRQ d   1       2.651   7.073 -12.272  0.00  0.00     0.033 H 
ENDBRANCH  40  46
ENDBRANCH   5  36
TORSDOF 6
