REMARK  11 active torsions:
REMARK  status: ('A' for Active; 'I' for Inactive)
REMARK    1  A    between atoms: N24_24  and  C25_8 
REMARK    2  A    between atoms: C25_8  and  C26_26 
REMARK    3  A    between atoms: C13_17  and  C02_9 
REMARK       I    between atoms: C02_9  and  N03_22 
REMARK    4  A    between atoms: C04_10  and  C05_11 
REMARK    5  A    between atoms: N03_22  and  C04_10 
REMARK    6  A    between atoms: C05_11  and  C06_12 
REMARK    7  A    between atoms: C14_18  and  C13_17 
REMARK    8  A    between atoms: C13_17  and  N24_24 
REMARK    9  A    between atoms: C14_18  and  C15_19 
REMARK   10  A    between atoms: C26_26  and  C27_27 
REMARK   11  A    between atoms: C27_27  and  C28_28 
ROOT
ATOM      1  C13 HUN d   1      16.689  44.567  40.085  0.00  0.00     0.181 C 
ATOM      2  H23 HUN d   1      15.894  44.832  40.797  0.00  0.00     0.100 H 
ENDROOT
BRANCH   1   3
ATOM      3  C02 HUN d   1      18.001  44.278  40.882  0.00  0.00     0.248 C 
ATOM      4  N03 HUN d   1      18.152  44.092  42.275  0.00  0.00    -0.359 N 
ATOM      5  H28 HUN d   1      17.352  44.161  42.870  0.00  0.00     0.162 HD
ATOM      6  O01 HUN d   1      19.073  44.189  40.189  0.00  0.00    -0.271 OA
BRANCH   4   7
ATOM      7  C04 HUN d   1      19.469  43.798  42.863  0.00  0.00    -0.004 C 
ATOM      8  H10 HUN d   1      20.191  44.562  42.538  0.00  0.00     0.064 H 
ATOM      9  H11 HUN d   1      19.388  43.813  43.960  0.00  0.00     0.064 H 
BRANCH   7  10
ATOM     10  C05 HUN d   1      19.967  42.386  42.401  0.00  0.00    -0.047 C 
ATOM     11  H12 HUN d   1      20.162  42.439  41.320  0.00  0.00     0.035 H 
ATOM     12  H13 HUN d   1      19.156  41.668  42.593  0.00  0.00     0.035 H 
BRANCH  10  13
ATOM     13  C06 HUN d   1      21.251  41.838  43.083  0.00  0.00    -0.053 C 
ATOM     14  C07 HUN d   1      22.509  42.271  42.275  0.00  0.00    -0.062 C 
ATOM     15  C08 HUN d   1      23.816  42.434  43.117  0.00  0.00    -0.065 C 
ATOM     16  H15 HUN d   1      22.290  43.237  41.796  0.00  0.00     0.033 H 
ATOM     17  H16 HUN d   1      22.695  41.511  41.501  0.00  0.00     0.033 H 
ATOM     18  C09 HUN d   1      24.448  41.127  43.662  0.00  0.00    -0.065 C 
ATOM     19  H17 HUN d   1      23.582  43.078  43.978  0.00  0.00     0.033 H 
ATOM     20  H18 HUN d   1      24.565  42.929  42.481  0.00  0.00     0.033 H 
ATOM     21  C10 HUN d   1      23.727  39.824  43.157  0.00  0.00    -0.065 C 
ATOM     22  H19 HUN d   1      25.500  41.089  43.342  0.00  0.00     0.033 H 
ATOM     23  H20 HUN d   1      24.399  41.148  44.761  0.00  0.00     0.033 H 
ATOM     24  C11 HUN d   1      22.356  39.575  43.814  0.00  0.00    -0.065 C 
ATOM     25  H1  HUN d   1      23.580  39.909  42.070  0.00  0.00     0.033 H 
ATOM     26  H2  HUN d   1      24.376  38.963  43.373  0.00  0.00     0.033 H 
ATOM     27  C12 HUN d   1      21.154  40.276  43.118  0.00  0.00    -0.062 C 
ATOM     28  H3  HUN d   1      22.405  39.934  44.852  0.00  0.00     0.033 H 
ATOM     29  H4  HUN d   1      22.168  38.491  43.809  0.00  0.00     0.033 H 
ATOM     30  H21 HUN d   1      20.235  40.000  43.656  0.00  0.00     0.033 H 
ATOM     31  H22 HUN d   1      21.095  39.911  42.082  0.00  0.00     0.033 H 
ATOM     32  H14 HUN d   1      21.323  42.229  44.108  0.00  0.00     0.040 H 
ENDBRANCH  10  13
ENDBRANCH   7  10
ENDBRANCH   4   7
ENDBRANCH   1   3
BRANCH   1  33
ATOM     33  C14 HUN d   1      16.211  43.281  39.271  0.00  0.00    -0.004 C 
ATOM     34  H24 HUN d   1      16.746  43.277  38.310  0.00  0.00     0.044 H 
ATOM     35  H25 HUN d   1      15.131  43.384  39.090  0.00  0.00     0.044 H 
BRANCH  33  36
ATOM     36  C15 HUN d   1      16.442  41.921  39.935  0.00  0.00    -0.028 A 
ATOM     37  C16 HUN d   1      17.671  41.173  39.826  0.00  0.00    -0.015 A 
ATOM     38  N17 HUN d   1      17.496  40.029  40.593  0.00  0.00    -0.365 N 
ATOM     39  H5  HUN d   1      18.557  41.450  39.257  0.00  0.00     0.112 H 
ATOM     40  C18 HUN d   1      16.244  39.972  41.195  0.00  0.00     0.042 A 
ATOM     41  H29 HUN d   1      18.216  39.301  40.704  0.00  0.00     0.165 HD
ATOM     42  C19 HUN d   1      15.572  41.115  40.809  0.00  0.00    -0.002 A 
ATOM     43  C23 HUN d   1      15.660  38.957  42.055  0.00  0.00    -0.056 A 
ATOM     44  C20 HUN d   1      14.230  41.371  41.268  0.00  0.00    -0.070 A 
ATOM     45  C21 HUN d   1      13.627  40.386  42.140  0.00  0.00    -0.082 A 
ATOM     46  H6  HUN d   1      13.694  42.265  40.972  0.00  0.00     0.084 H 
ATOM     47  C22 HUN d   1      14.320  39.205  42.511  0.00  0.00    -0.081 A 
ATOM     48  H7  HUN d   1      12.625  40.554  42.518  0.00  0.00     0.083 H 
ATOM     49  H26 HUN d   1      13.831  38.478  43.149  0.00  0.00     0.083 H 
ATOM     50  H27 HUN d   1      16.204  38.063  42.337  0.00  0.00     0.086 H 
ENDBRANCH  33  36
ENDBRANCH   1  33
BRANCH   1  51
ATOM     51  N24 HUN d   1      16.949  45.784  39.158  0.00  0.00    -0.062 N 
ATOM     52  H30 HUN d   1      16.194  46.441  39.275  0.00  0.00     0.278 HD
ATOM     53  H31 HUN d   1      17.816  46.216  39.435  0.00  0.00     0.278 HD
BRANCH  51  54
ATOM     54  C25 HUN d   1      17.043  45.418  37.690  0.00  0.00     0.083 C 
ATOM     55  H8  HUN d   1      16.220  45.916  37.157  0.00  0.00     0.075 H 
ATOM     56  H9  HUN d   1      16.933  44.327  37.598  0.00  0.00     0.075 H 
BRANCH  54  57
ATOM     57  C26 HUN d   1      18.359  45.825  37.028  0.00  0.00    -0.043 C 
ATOM     58  H32 HUN d   1      18.854  46.602  37.629  0.00  0.00     0.035 H 
ATOM     59  H33 HUN d   1      18.163  46.213  36.017  0.00  0.00     0.035 H 
BRANCH  57  60
ATOM     60  C27 HUN d   1      19.255  44.588  36.943  0.00  0.00    -0.067 C 
ATOM     61  H34 HUN d   1      19.519  44.416  35.889  0.00  0.00     0.032 H 
ATOM     62  H35 HUN d   1      18.697  43.721  37.327  0.00  0.00     0.032 H 
BRANCH  60  63
ATOM     63  C28 HUN d   1      20.499  44.734  37.725  0.00  0.00    -0.076 C 
ATOM     64  H36 HUN d   1      21.102  43.819  37.628  0.00  0.00     0.027 H 
ATOM     65  H37 HUN d   1      20.250  44.898  38.784  0.00  0.00     0.027 H 
ATOM     66  H38 HUN d   1      21.072  45.593  37.346  0.00  0.00     0.027 H 
ENDBRANCH  60  63
ENDBRANCH  57  60
ENDBRANCH  54  57
ENDBRANCH  51  54
ENDBRANCH   1  51
TORSDOF 11
