REMARK  13 active torsions:
REMARK  status: ('A' for Active; 'I' for Inactive)
REMARK    1  A    between atoms: C02_2  and  C01_1 
REMARK    2  A    between atoms: C03_3  and  C02_2 
REMARK    3  A    between atoms: C04_4  and  C03_3 
REMARK    4  A    between atoms: N05_27  and  C04_4 
REMARK    5  A    between atoms: N05_27  and  C06_5 
REMARK    6  A    between atoms: N05_27  and  C07_6 
REMARK    7  A    between atoms: C09_8  and  C08_7 
REMARK    8  A    between atoms: C08_7  and  C21_18 
REMARK    9  A    between atoms: C08_7  and  N05_27 
REMARK       I    between atoms: N10_28  and  C09_8 
REMARK   10  A    between atoms: C11_9  and  C12_10 
REMARK   11  A    between atoms: C11_9  and  N10_28 
REMARK   12  A    between atoms: C12_10  and  C13_11 
REMARK   13  A    between atoms: C21_18  and  C22_19 
ROOT
ATOM      1  C08 HUQ d   1      44.325  16.315  88.216  0.00  0.00     0.184 C 
ATOM      2  H16 HUQ d   1      44.195  15.714  87.304  0.00  0.00     0.100 H 
ENDROOT
BRANCH   1   3
ATOM      3  C09 HUQ d   1      44.228  17.823  87.768  0.00  0.00     0.249 C 
ATOM      4  N10 HUQ d   1      43.887  18.213  86.498  0.00  0.00    -0.359 N 
ATOM      5  H41 HUQ d   1      43.720  17.486  85.832  0.00  0.00     0.162 HD
ATOM      6  O20 HUQ d   1      44.422  18.683  88.668  0.00  0.00    -0.271 OA
BRANCH   4   7
ATOM      7  C11 HUQ d   1      43.743  19.598  86.021  0.00  0.00    -0.004 C 
ATOM      8  H17 HUQ d   1      43.837  20.282  86.877  0.00  0.00     0.064 H 
ATOM      9  H18 HUQ d   1      44.540  19.810  85.293  0.00  0.00     0.064 H 
BRANCH   7  10
ATOM     10  C12 HUQ d   1      42.361  19.827  85.340  0.00  0.00    -0.047 C 
ATOM     11  H19 HUQ d   1      41.858  18.852  85.269  0.00  0.00     0.035 H 
ATOM     12  H20 HUQ d   1      42.547  20.218  84.329  0.00  0.00     0.035 H 
BRANCH  10  13
ATOM     13  C13 HUQ d   1      41.397  20.801  86.048  0.00  0.00    -0.053 C 
ATOM     14  C14 HUQ d   1      42.176  22.096  86.411  0.00  0.00    -0.062 C 
ATOM     15  C15 HUQ d   1      42.329  23.142  85.303  0.00  0.00    -0.065 C 
ATOM     16  H22 HUQ d   1      43.186  21.799  86.730  0.00  0.00     0.033 H 
ATOM     17  H23 HUQ d   1      41.652  22.575  87.251  0.00  0.00     0.033 H 
ATOM     18  C16 HUQ d   1      41.201  24.199  85.305  0.00  0.00    -0.065 C 
ATOM     19  H24 HUQ d   1      42.323  22.626  84.332  0.00  0.00     0.033 H 
ATOM     20  H25 HUQ d   1      43.291  23.657  85.439  0.00  0.00     0.033 H 
ATOM     21  C17 HUQ d   1      39.881  23.669  84.757  0.00  0.00    -0.065 C 
ATOM     22  H26 HUQ d   1      41.519  25.051  84.687  0.00  0.00     0.033 H 
ATOM     23  H27 HUQ d   1      41.040  24.536  86.340  0.00  0.00     0.033 H 
ATOM     24  C18 HUQ d   1      39.386  22.415  85.479  0.00  0.00    -0.065 C 
ATOM     25  H28 HUQ d   1      40.017  23.428  83.692  0.00  0.00     0.033 H 
ATOM     26  H29 HUQ d   1      39.119  24.455  84.861  0.00  0.00     0.033 H 
ATOM     27  C19 HUQ d   1      40.153  21.110  85.144  0.00  0.00    -0.062 C 
ATOM     28  H30 HUQ d   1      38.329  22.265  85.214  0.00  0.00     0.033 H 
ATOM     29  H31 HUQ d   1      39.471  22.590  86.562  0.00  0.00     0.033 H 
ATOM     30  H32 HUQ d   1      39.449  20.270  85.239  0.00  0.00     0.033 H 
ATOM     31  H33 HUQ d   1      40.501  21.180  84.103  0.00  0.00     0.033 H 
ATOM     32  H21 HUQ d   1      41.039  20.333  86.977  0.00  0.00     0.040 H 
ENDBRANCH  10  13
ENDBRANCH   7  10
ENDBRANCH   4   7
ENDBRANCH   1   3
BRANCH   1  33
ATOM     33  C21 HUQ d   1      43.177  15.866  89.185  0.00  0.00    -0.003 C 
ATOM     34  H34 HUQ d   1      43.237  16.446  90.118  0.00  0.00     0.044 H 
ATOM     35  H35 HUQ d   1      43.287  14.795  89.411  0.00  0.00     0.044 H 
BRANCH  33  36
ATOM     36  C22 HUQ d   1      41.860  16.102  88.541  0.00  0.00    -0.028 A 
ATOM     37  C23 HUQ d   1      41.147  17.331  88.632  0.00  0.00    -0.015 A 
ATOM     38  N24 HUQ d   1      39.973  17.208  87.868  0.00  0.00    -0.365 N 
ATOM     39  H36 HUQ d   1      41.456  18.211  89.194  0.00  0.00     0.112 H 
ATOM     40  C25 HUQ d   1      39.908  15.953  87.274  0.00  0.00     0.042 A 
ATOM     41  H42 HUQ d   1      39.261  17.945  87.763  0.00  0.00     0.165 HD
ATOM     42  C26 HUQ d   1      41.067  15.250  87.661  0.00  0.00    -0.002 A 
ATOM     43  C30 HUQ d   1      38.902  15.364  86.422  0.00  0.00    -0.056 A 
ATOM     44  C27 HUQ d   1      41.251  13.922  87.189  0.00  0.00    -0.070 A 
ATOM     45  C28 HUQ d   1      40.283  13.340  86.351  0.00  0.00    -0.082 A 
ATOM     46  H37 HUQ d   1      42.133  13.360  87.474  0.00  0.00     0.084 H 
ATOM     47  C29 HUQ d   1      39.120  14.051  85.974  0.00  0.00    -0.081 A 
ATOM     48  H38 HUQ d   1      40.431  12.329  85.988  0.00  0.00     0.083 H 
ATOM     49  H39 HUQ d   1      38.388  13.576  85.331  0.00  0.00     0.083 H 
ATOM     50  H40 HUQ d   1      38.012  15.915  86.139  0.00  0.00     0.086 H 
ENDBRANCH  33  36
ENDBRANCH   1  33
BRANCH   1  51
ATOM     51  N05 HUQ d   1      45.750  15.995  88.748  0.00  0.00    -0.062 N 
BRANCH  51  52
ATOM     52  C04 HUQ d   1      46.817  16.815  87.928  0.00  0.00     0.086 C 
ATOM     53  H8  HUQ d   1      46.338  17.168  87.003  0.00  0.00     0.076 H 
ATOM     54  H9  HUQ d   1      47.123  17.679  88.536  0.00  0.00     0.076 H 
BRANCH  52  55
ATOM     55  C03 HUQ d   1      48.084  16.033  87.540  0.00  0.00    -0.042 C 
ATOM     56  H6  HUQ d   1      48.496  15.559  88.443  0.00  0.00     0.035 H 
ATOM     57  H7  HUQ d   1      47.809  15.256  86.811  0.00  0.00     0.035 H 
BRANCH  55  58
ATOM     58  C02 HUQ d   1      49.166  16.930  86.918  0.00  0.00    -0.067 C 
ATOM     59  H4  HUQ d   1      48.692  17.864  86.583  0.00  0.00     0.032 H 
ATOM     60  H5  HUQ d   1      49.916  17.156  87.691  0.00  0.00     0.032 H 
BRANCH  58  61
ATOM     61  C01 HUQ d   1      49.881  16.296  85.723  0.00  0.00    -0.076 C 
ATOM     62  H1  HUQ d   1      50.637  16.995  85.335  0.00  0.00     0.027 H 
ATOM     63  H2  HUQ d   1      49.148  16.073  84.933  0.00  0.00     0.027 H 
ATOM     64  H3  HUQ d   1      50.372  15.365  86.041  0.00  0.00     0.027 H 
ENDBRANCH  58  61
ENDBRANCH  55  58
ENDBRANCH  52  55
ENDBRANCH  51  52
BRANCH  51  65
ATOM     65  C06 HUQ d   1      45.973  14.488  88.560  0.00  0.00     0.069 C 
ATOM     66  H10 HUQ d   1      45.221  13.931  89.138  0.00  0.00     0.068 H 
ATOM     67  H11 HUQ d   1      46.980  14.219  88.913  0.00  0.00     0.068 H 
ATOM     68  H12 HUQ d   1      45.878  14.233  87.494  0.00  0.00     0.068 H 
ENDBRANCH  51  65
BRANCH  51  69
ATOM     69  C07 HUQ d   1      45.881  16.378  90.228  0.00  0.00     0.069 C 
ATOM     70  H13 HUQ d   1      45.718  17.460  90.343  0.00  0.00     0.068 H 
ATOM     71  H14 HUQ d   1      46.888  16.119  90.586  0.00  0.00     0.068 H 
ATOM     72  H15 HUQ d   1      45.130  15.830  90.816  0.00  0.00     0.068 H 
ENDBRANCH  51  69
ENDBRANCH   1  51
TORSDOF 13
