REMARK  12 active torsions:
REMARK  status: ('A' for Active; 'I' for Inactive)
REMARK    1  A    between atoms: C02_2  and  C01_1 
REMARK    2  A    between atoms: C03_3  and  C02_2 
REMARK    3  A    between atoms: C04_4  and  C03_3 
REMARK    4  A    between atoms: N05_26  and  C04_4 
REMARK    5  A    between atoms: C06_5  and  C07_6 
REMARK    6  A    between atoms: C17_15  and  C06_5 
REMARK    7  A    between atoms: C06_5  and  N05_26 
REMARK    8  A    between atoms: C07_6  and  C08_7 
REMARK       I    between atoms: N18_28  and  C17_15 
REMARK    9  A    between atoms: C19_16  and  C20_17 
REMARK   10  A    between atoms: C19_16  and  N18_28 
REMARK   11  A    between atoms: C20_17  and  C21_18 
REMARK   12  A    between atoms: C21_18  and  C22_19 
ROOT
ATOM      1  C06 HUT d   1      15.359  43.985  39.595  0.00  0.00     0.181 C 
ATOM      2  H10 HUT d   1      14.903  43.721  40.560  0.00  0.00     0.100 H 
ENDROOT
BRANCH   1   3
ATOM      3  C07 HUT d   1      15.587  42.712  38.780  0.00  0.00    -0.004 C 
ATOM      4  H11 HUT d   1      16.394  42.894  38.055  0.00  0.00     0.044 H 
ATOM      5  H12 HUT d   1      14.660  42.464  38.242  0.00  0.00     0.044 H 
BRANCH   3   6
ATOM      6  C08 HUT d   1      15.956  41.589  39.618  0.00  0.00    -0.028 A 
ATOM      7  C09 HUT d   1      17.210  41.001  39.653  0.00  0.00    -0.015 A 
ATOM      8  N10 HUT d   1      17.196  39.964  40.597  0.00  0.00    -0.365 N 
ATOM      9  H13 HUT d   1      18.066  41.296  39.047  0.00  0.00     0.112 H 
ATOM     10  C11 HUT d   1      15.900  39.917  41.162  0.00  0.00     0.042 A 
ATOM     11  H39 HUT d   1      17.986  39.348  40.836  0.00  0.00     0.165 HD
ATOM     12  C12 HUT d   1      15.127  40.932  40.555  0.00  0.00    -0.002 A 
ATOM     13  C16 HUT d   1      15.374  39.032  42.140  0.00  0.00    -0.056 A 
ATOM     14  C13 HUT d   1      13.793  41.073  40.966  0.00  0.00    -0.070 A 
ATOM     15  C14 HUT d   1      13.275  40.212  41.934  0.00  0.00    -0.082 A 
ATOM     16  H14 HUT d   1      13.168  41.846  40.534  0.00  0.00     0.084 H 
ATOM     17  C15 HUT d   1      14.043  39.199  42.512  0.00  0.00    -0.081 A 
ATOM     18  H15 HUT d   1      12.244  40.333  42.247  0.00  0.00     0.083 H 
ATOM     19  H16 HUT d   1      13.602  38.541  43.252  0.00  0.00     0.083 H 
ATOM     20  H17 HUT d   1      15.987  38.254  42.581  0.00  0.00     0.086 H 
ENDBRANCH   3   6
ENDBRANCH   1   3
BRANCH   1  21
ATOM     21  C17 HUT d   1      16.749  44.663  39.821  0.00  0.00     0.248 C 
ATOM     22  N18 HUT d   1      17.148  44.809  41.142  0.00  0.00    -0.359 N 
ATOM     23  H40 HUT d   1      16.561  44.474  41.879  0.00  0.00     0.162 HD
ATOM     24  O29 HUT d   1      17.474  45.061  38.897  0.00  0.00    -0.271 OA
BRANCH  22  25
ATOM     25  C19 HUT d   1      18.414  45.446  41.459  0.00  0.00    -0.005 C 
ATOM     26  H18 HUT d   1      18.936  45.685  40.520  0.00  0.00     0.064 H 
ATOM     27  H19 HUT d   1      18.215  46.374  42.014  0.00  0.00     0.064 H 
BRANCH  25  28
ATOM     28  C20 HUT d   1      19.318  44.544  42.312  0.00  0.00    -0.050 C 
ATOM     29  H20 HUT d   1      18.729  44.120  43.138  0.00  0.00     0.035 H 
ATOM     30  H21 HUT d   1      20.144  45.144  42.721  0.00  0.00     0.035 H 
BRANCH  28  31
ATOM     31  C21 HUT d   1      19.898  43.398  41.466  0.00  0.00    -0.060 C 
ATOM     32  H22 HUT d   1      20.532  43.831  40.678  0.00  0.00     0.033 H 
ATOM     33  H23 HUT d   1      19.065  42.847  41.005  0.00  0.00     0.033 H 
BRANCH  31  34
ATOM     34  C22 HUT d   1      20.737  42.417  42.280  0.00  0.00    -0.054 C 
ATOM     35  C23 HUT d   1      22.136  43.000  42.719  0.00  0.00    -0.062 C 
ATOM     36  C24 HUT d   1      23.426  42.379  42.159  0.00  0.00    -0.065 C 
ATOM     37  H25 HUT d   1      22.189  42.913  43.814  0.00  0.00     0.033 H 
ATOM     38  H26 HUT d   1      22.143  44.062  42.434  0.00  0.00     0.033 H 
ATOM     39  C25 HUT d   1      23.786  41.025  42.753  0.00  0.00    -0.065 C 
ATOM     40  H27 HUT d   1      24.256  43.073  42.359  0.00  0.00     0.033 H 
ATOM     41  H28 HUT d   1      23.304  42.256  41.073  0.00  0.00     0.033 H 
ATOM     42  C26 HUT d   1      22.605  40.378  43.480  0.00  0.00    -0.065 C 
ATOM     43  H29 HUT d   1      24.611  41.160  43.468  0.00  0.00     0.033 H 
ATOM     44  H30 HUT d   1      24.110  40.357  41.941  0.00  0.00     0.033 H 
ATOM     45  C27 HUT d   1      21.472  39.923  42.544  0.00  0.00    -0.065 C 
ATOM     46  H31 HUT d   1      22.194  41.109  44.192  0.00  0.00     0.033 H 
ATOM     47  H32 HUT d   1      22.975  39.499  44.029  0.00  0.00     0.033 H 
ATOM     48  C28 HUT d   1      20.855  41.018  41.655  0.00  0.00    -0.062 C 
ATOM     49  H33 HUT d   1      20.669  39.502  43.167  0.00  0.00     0.033 H 
ATOM     50  H34 HUT d   1      21.874  39.140  41.884  0.00  0.00     0.033 H 
ATOM     51  H35 HUT d   1      21.477  41.106  40.752  0.00  0.00     0.033 H 
ATOM     52  H36 HUT d   1      19.843  40.690  41.373  0.00  0.00     0.033 H 
ATOM     53  H24 HUT d   1      20.176  42.269  43.215  0.00  0.00     0.040 H 
ENDBRANCH  31  34
ENDBRANCH  28  31
ENDBRANCH  25  28
ENDBRANCH  22  25
ENDBRANCH   1  21
BRANCH   1  54
ATOM     54  N05 HUT d   1      14.504  44.946  38.906  0.00  0.00    -0.062 N 
ATOM     55  H37 HUT d   1      14.963  45.218  38.051  0.00  0.00     0.278 HD
ATOM     56  H38 HUT d   1      13.632  44.490  38.688  0.00  0.00     0.278 HD
BRANCH  54  57
ATOM     57  C04 HUT d   1      14.208  46.150  39.662  0.00  0.00     0.083 C 
ATOM     58  H8  HUT d   1      13.669  45.875  40.581  0.00  0.00     0.075 H 
ATOM     59  H9  HUT d   1      15.151  46.651  39.926  0.00  0.00     0.075 H 
BRANCH  57  60
ATOM     60  C03 HUT d   1      13.333  47.121  38.832  0.00  0.00    -0.043 C 
ATOM     61  H6  HUT d   1      13.682  47.109  37.789  0.00  0.00     0.035 H 
ATOM     62  H7  HUT d   1      12.288  46.780  38.873  0.00  0.00     0.035 H 
BRANCH  60  63
ATOM     63  C02 HUT d   1      13.406  48.575  39.368  0.00  0.00    -0.067 C 
ATOM     64  H4  HUT d   1      13.512  48.536  40.462  0.00  0.00     0.032 H 
ATOM     65  H5  HUT d   1      14.291  49.061  38.931  0.00  0.00     0.032 H 
BRANCH  63  66
ATOM     66  C01 HUT d   1      12.175  49.424  39.033  0.00  0.00    -0.076 C 
ATOM     67  H1  HUT d   1      12.304  50.435  39.446  0.00  0.00     0.027 H 
ATOM     68  H2  HUT d   1      11.279  48.960  39.472  0.00  0.00     0.027 H 
ATOM     69  H3  HUT d   1      12.058  49.486  37.941  0.00  0.00     0.027 H 
ENDBRANCH  63  66
ENDBRANCH  60  63
ENDBRANCH  57  60
ENDBRANCH  54  57
ENDBRANCH   1  54
TORSDOF 12
