REMARK  14 active torsions:
REMARK  status: ('A' for Active; 'I' for Inactive)
REMARK    1  A    between atoms: C15_7  and  N26_4 
REMARK    2  A    between atoms: N26_4  and  C27_23 
REMARK    3  A    between atoms: C15_7  and  C16_8 
REMARK    4  A    between atoms: C02_12  and  C15_7 
REMARK    5  A    between atoms: C16_8  and  C17_19 
REMARK    6  A    between atoms: N10_28  and  C12_10 
REMARK    7  A    between atoms: N10_28  and  C11_11 
REMARK       I    between atoms: N03_27  and  C02_12 
REMARK    8  A    between atoms: C05_14  and  C04_13 
REMARK    9  A    between atoms: C04_13  and  N03_27 
REMARK   10  A    between atoms: C06_15  and  C05_14 
REMARK   11  A    between atoms: C09_18  and  N10_28 
REMARK   12  A    between atoms: C27_23  and  C28_24 
REMARK   13  A    between atoms: C28_24  and  C29_25 
REMARK   14  A    between atoms: C29_25  and  C30_26 
ROOT
ATOM      1  C15 HUZ d   1      14.210  45.351  39.888  0.00  0.00     0.181 C 
ATOM      2  H8  HUZ d   1      14.026  44.819  40.833  0.00  0.00     0.100 H 
ENDROOT
BRANCH   1   3
ATOM      3  N26 HUZ d   1      12.973  46.140  39.558  0.00  0.00    -0.062 N 
ATOM      4  H4  HUZ d   1      12.386  46.142  40.377  0.00  0.00     0.278 HD
ATOM      5  H5  HUZ d   1      12.500  45.664  38.806  0.00  0.00     0.278 HD
BRANCH   3   6
ATOM      6  C27 HUZ d   1      13.167  47.543  39.145  0.00  0.00     0.083 C 
ATOM      7  H31 HUZ d   1      12.624  47.706  38.202  0.00  0.00     0.075 H 
ATOM      8  H32 HUZ d   1      14.242  47.712  38.983  0.00  0.00     0.075 H 
BRANCH   6   9
ATOM      9  C28 HUZ d   1      12.669  48.560  40.170  0.00  0.00    -0.043 C 
ATOM     10  H33 HUZ d   1      13.373  49.405  40.199  0.00  0.00     0.035 H 
ATOM     11  H34 HUZ d   1      12.634  48.077  41.158  0.00  0.00     0.035 H 
BRANCH   9  12
ATOM     12  C29 HUZ d   1      11.276  49.094  39.836  0.00  0.00    -0.067 C 
ATOM     13  H35 HUZ d   1      10.547  48.285  39.995  0.00  0.00     0.032 H 
ATOM     14  H36 HUZ d   1      11.265  49.396  38.778  0.00  0.00     0.032 H 
BRANCH  12  15
ATOM     15  C30 HUZ d   1      10.860  50.283  40.676  0.00  0.00    -0.076 C 
ATOM     16  H37 HUZ d   1       9.852  50.608  40.378  0.00  0.00     0.027 H 
ATOM     17  H38 HUZ d   1      11.571  51.108  40.522  0.00  0.00     0.027 H 
ATOM     18  H39 HUZ d   1      10.854  49.997  41.738  0.00  0.00     0.027 H 
ENDBRANCH  12  15
ENDBRANCH   9  12
ENDBRANCH   6   9
ENDBRANCH   3   6
ENDBRANCH   1   3
BRANCH   1  19
ATOM     19  C16 HUZ d   1      14.556  44.307  38.787  0.00  0.00    -0.004 C 
ATOM     20  H9  HUZ d   1      15.086  44.807  37.963  0.00  0.00     0.044 H 
ATOM     21  H10 HUZ d   1      13.628  43.857  38.406  0.00  0.00     0.044 H 
BRANCH  19  22
ATOM     22  C17 HUZ d   1      15.417  43.250  39.355  0.00  0.00    -0.028 A 
ATOM     23  C21 HUZ d   1      15.073  42.281  40.362  0.00  0.00    -0.002 A 
ATOM     24  C20 HUZ d   1      16.214  41.485  40.622  0.00  0.00     0.042 A 
ATOM     25  C22 HUZ d   1      13.916  41.971  41.084  0.00  0.00    -0.070 A 
ATOM     26  C25 HUZ d   1      16.239  40.431  41.543  0.00  0.00    -0.056 A 
ATOM     27  N19 HUZ d   1      17.249  41.962  39.799  0.00  0.00    -0.365 N 
ATOM     28  C24 HUZ d   1      15.070  40.167  42.225  0.00  0.00    -0.081 A 
ATOM     29  H3  HUZ d   1      17.137  39.848  41.712  0.00  0.00     0.086 H 
ATOM     30  C23 HUZ d   1      13.913  40.939  41.992  0.00  0.00    -0.082 A 
ATOM     31  H2  HUZ d   1      15.040  39.359  42.947  0.00  0.00     0.083 H 
ATOM     32  H1  HUZ d   1      13.005  40.714  42.539  0.00  0.00     0.083 H 
ATOM     33  C18 HUZ d   1      16.736  43.037  39.055  0.00  0.00    -0.015 A 
ATOM     34  H42 HUZ d   1      18.209  41.591  39.751  0.00  0.00     0.165 HD
ATOM     35  H29 HUZ d   1      17.309  43.622  38.337  0.00  0.00     0.112 H 
ATOM     36  H30 HUZ d   1      13.013  42.550  40.926  0.00  0.00     0.084 H 
ENDBRANCH  19  22
ENDBRANCH   1  19
BRANCH   1  37
ATOM     37  C02 HUZ d   1      15.481  46.281  40.067  0.00  0.00     0.248 C 
ATOM     38  N03 HUZ d   1      16.021  46.447  41.364  0.00  0.00    -0.359 N 
ATOM     39  H40 HUZ d   1      15.570  45.982  42.126  0.00  0.00     0.162 HD
ATOM     40  O01 HUZ d   1      16.020  46.807  39.111  0.00  0.00    -0.271 OA
BRANCH  38  41
ATOM     41  C04 HUZ d   1      17.225  47.276  41.659  0.00  0.00    -0.004 C 
ATOM     42  H19 HUZ d   1      17.008  48.321  41.392  0.00  0.00     0.064 H 
ATOM     43  H20 HUZ d   1      17.443  47.210  42.735  0.00  0.00     0.064 H 
BRANCH  41  44
ATOM     44  C05 HUZ d   1      18.489  46.805  40.860  0.00  0.00    -0.047 C 
ATOM     45  H21 HUZ d   1      19.113  47.691  40.671  0.00  0.00     0.035 H 
ATOM     46  H22 HUZ d   1      18.142  46.390  39.902  0.00  0.00     0.035 H 
BRANCH  44  47
ATOM     47  C06 HUZ d   1      19.393  45.728  41.542  0.00  0.00    -0.053 C 
ATOM     48  C14 HUZ d   1      19.852  44.670  40.534  0.00  0.00    -0.060 C 
ATOM     49  C13 HUZ d   1      20.683  43.541  41.148  0.00  0.00    -0.038 C 
ATOM     50  H6  HUZ d   1      18.960  44.228  40.067  0.00  0.00     0.033 H 
ATOM     51  H7  HUZ d   1      20.460  45.167  39.764  0.00  0.00     0.033 H 
ATOM     52  C09 HUZ d   1      19.950  42.808  42.303  0.00  0.00     0.103 C 
ATOM     53  H11 HUZ d   1      21.618  43.967  41.541  0.00  0.00     0.036 H 
ATOM     54  H12 HUZ d   1      20.916  42.809  40.361  0.00  0.00     0.036 H 
ATOM     55  C08 HUZ d   1      19.478  43.853  43.336  0.00  0.00    -0.038 C 
ATOM     56  H28 HUZ d   1      19.062  42.309  41.888  0.00  0.00     0.084 H 
ATOM     57  C07 HUZ d   1      18.681  45.003  42.706  0.00  0.00    -0.060 C 
ATOM     58  H26 HUZ d   1      18.840  43.349  44.077  0.00  0.00     0.036 H 
ATOM     59  H27 HUZ d   1      20.362  44.273  43.838  0.00  0.00     0.036 H 
ATOM     60  H24 HUZ d   1      17.734  44.593  42.325  0.00  0.00     0.033 H 
ATOM     61  H25 HUZ d   1      18.471  45.743  43.492  0.00  0.00     0.033 H 
ATOM     62  H23 HUZ d   1      20.280  46.240  41.943  0.00  0.00     0.040 H 
BRANCH  52  63
ATOM     63  N10 HUZ d   1      20.846  41.718  42.945  0.00  0.00    -0.074 N 
ATOM     64  H41 HUZ d   1      20.318  40.860  42.973  0.00  0.00     0.279 HD
BRANCH  63  65
ATOM     65  C12 HUZ d   1      21.249  42.080  44.332  0.00  0.00     0.066 C 
ATOM     66  H13 HUZ d   1      21.882  41.283  44.750  0.00  0.00     0.068 H 
ATOM     67  H14 HUZ d   1      20.351  42.200  44.955  0.00  0.00     0.068 H 
ATOM     68  H15 HUZ d   1      21.812  43.025  44.315  0.00  0.00     0.068 H 
ENDBRANCH  63  65
BRANCH  63  69
ATOM     69  C11 HUZ d   1      22.096  41.486  42.166  0.00  0.00     0.066 C 
ATOM     70  H16 HUZ d   1      21.838  41.215  41.132  0.00  0.00     0.068 H 
ATOM     71  H17 HUZ d   1      22.669  40.668  42.627  0.00  0.00     0.068 H 
ATOM     72  H18 HUZ d   1      22.703  42.404  42.164  0.00  0.00     0.068 H 
ENDBRANCH  63  69
ENDBRANCH  52  63
ENDBRANCH  44  47
ENDBRANCH  41  44
ENDBRANCH  38  41
ENDBRANCH   1  37
TORSDOF 14
