REMARK  14 active torsions:
REMARK  status: ('A' for Active; 'I' for Inactive)
REMARK    1  A    between atoms: N09_28  and  C10_1 
REMARK    2  A    between atoms: C12_2  and  C13_3 
REMARK    3  A    between atoms: C11_22  and  C12_2 
REMARK    4  A    between atoms: C07_20  and  C20_8 
REMARK    5  A    between atoms: C20_8  and  C21_24 
REMARK    6  A    between atoms: C02_16  and  C01_15 
REMARK    7  A    between atoms: C03_17  and  C02_16 
REMARK    8  A    between atoms: C04_18  and  C03_17 
REMARK    9  A    between atoms: N05_27  and  C04_18 
REMARK   10  A    between atoms: N05_27  and  C06_19 
REMARK   11  A    between atoms: C08_21  and  C07_20 
REMARK   12  A    between atoms: C07_20  and  N05_27 
REMARK   13  A    between atoms: N09_28  and  C08_21 
REMARK   14  A    between atoms: C11_22  and  N09_28 
ROOT
ATOM      1  C07 HUK d   1     136.395 110.138  38.896  0.00  0.00     0.130 C 
ATOM      2  H34 HUK d   1     137.223 109.639  38.371  0.00  0.00     0.087 H 
ENDROOT
BRANCH   1   3
ATOM      3  C20 HUK d   1     136.655 111.693  38.754  0.00  0.00    -0.010 C 
ATOM      4  H15 HUK d   1     135.815 112.240  39.208  0.00  0.00     0.043 H 
ATOM      5  H16 HUK d   1     136.725 111.948  37.686  0.00  0.00     0.043 H 
BRANCH   3   6
ATOM      6  C21 HUK d   1     137.912 112.093  39.429  0.00  0.00    -0.028 A 
ATOM      7  C22 HUK d   1     139.129 111.441  39.296  0.00  0.00    -0.015 A 
ATOM      8  N23 HUK d   1     140.084 112.060  40.075  0.00  0.00    -0.365 N 
ATOM      9  H17 HUK d   1     139.305 110.568  38.669  0.00  0.00     0.112 H 
ATOM     10  C24 HUK d   1     139.501 113.135  40.748  0.00  0.00     0.042 A 
ATOM     11  H45 HUK d   1     141.071 111.774  40.148  0.00  0.00     0.165 HD
ATOM     12  C25 HUK d   1     138.126 113.175  40.364  0.00  0.00    -0.002 A 
ATOM     13  C29 HUK d   1     140.103 114.034  41.641  0.00  0.00    -0.056 A 
ATOM     14  C26 HUK d   1     137.352 114.201  40.941  0.00  0.00    -0.070 A 
ATOM     15  C27 HUK d   1     137.936 115.088  41.818  0.00  0.00    -0.082 A 
ATOM     16  H19 HUK d   1     136.300 114.292  40.696  0.00  0.00     0.084 H 
ATOM     17  C28 HUK d   1     139.305 115.014  42.174  0.00  0.00    -0.081 A 
ATOM     18  H41 HUK d   1     137.325 115.872  42.252  0.00  0.00     0.083 H 
ATOM     19  H18 HUK d   1     139.723 115.733  42.869  0.00  0.00     0.083 H 
ATOM     20  H42 HUK d   1     141.153 113.957  41.899  0.00  0.00     0.086 H 
ENDBRANCH   3   6
ENDBRANCH   1   3
BRANCH   1  21
ATOM     21  C08 HUK d   1     136.464 109.688  40.416  0.00  0.00     0.110 C 
ATOM     22  H35 HUK d   1     137.184 110.353  40.916  0.00  0.00     0.079 H 
ATOM     23  H36 HUK d   1     136.847 108.657  40.429  0.00  0.00     0.079 H 
BRANCH  21  24
ATOM     24  N09 HUK d   1     135.159 109.701  41.275  0.00  0.00    -0.073 N 
ATOM     25  H44 HUK d   1     135.444 109.752  42.240  0.00  0.00     0.279 HD
BRANCH  24  26
ATOM     26  C10 HUK d   1     134.419 108.397  41.078  0.00  0.00     0.066 C 
ATOM     27  H1  HUK d   1     135.104 107.556  41.258  0.00  0.00     0.068 H 
ATOM     28  H2  HUK d   1     134.037 108.344  40.048  0.00  0.00     0.068 H 
ATOM     29  H3  HUK d   1     133.578 108.343  41.784  0.00  0.00     0.068 H 
ENDBRANCH  24  26
BRANCH  24  30
ATOM     30  C11 HUK d   1     134.179 110.948  41.017  0.00  0.00     0.084 C 
ATOM     31  H37 HUK d   1     134.514 111.787  41.644  0.00  0.00     0.075 H 
ATOM     32  H38 HUK d   1     134.251 111.231  39.956  0.00  0.00     0.075 H 
BRANCH  30  33
ATOM     33  C12 HUK d   1     132.698 110.659  41.344  0.00  0.00    -0.039 C 
ATOM     34  H4  HUK d   1     132.121 110.705  40.408  0.00  0.00     0.035 H 
ATOM     35  H5  HUK d   1     132.628 109.647  41.769  0.00  0.00     0.035 H 
BRANCH  33  36
ATOM     36  C13 HUK d   1     132.065 111.670  42.366  0.00  0.00    -0.053 C 
ATOM     37  C14 HUK d   1     132.754 113.051  42.277  0.00  0.00    -0.062 C 
ATOM     38  C15 HUK d   1     132.182 114.087  43.252  0.00  0.00    -0.065 C 
ATOM     39  H7  HUK d   1     132.634 113.434  41.253  0.00  0.00     0.033 H 
ATOM     40  H8  HUK d   1     133.824 112.921  42.497  0.00  0.00     0.033 H 
ATOM     41  C16 HUK d   1     130.957 114.837  42.738  0.00  0.00    -0.065 C 
ATOM     42  H9  HUK d   1     132.969 114.824  43.469  0.00  0.00     0.033 H 
ATOM     43  H10 HUK d   1     131.901 113.566  44.179  0.00  0.00     0.033 H 
ATOM     44  C17 HUK d   1     129.642 114.076  42.927  0.00  0.00    -0.065 C 
ATOM     45  H11 HUK d   1     131.094 115.031  41.664  0.00  0.00     0.033 H 
ATOM     46  H12 HUK d   1     130.885 115.793  43.277  0.00  0.00     0.033 H 
ATOM     47  C18 HUK d   1     129.803 112.589  43.236  0.00  0.00    -0.065 C 
ATOM     48  H13 HUK d   1     129.055 114.172  42.002  0.00  0.00     0.033 H 
ATOM     49  H14 HUK d   1     129.094 114.541  43.759  0.00  0.00     0.033 H 
ATOM     50  C19 HUK d   1     130.544 111.802  42.149  0.00  0.00    -0.062 C 
ATOM     51  H20 HUK d   1     128.802 112.151  43.358  0.00  0.00     0.033 H 
ATOM     52  H21 HUK d   1     130.364 112.490  44.177  0.00  0.00     0.033 H 
ATOM     53  H39 HUK d   1     130.115 110.790  42.108  0.00  0.00     0.033 H 
ATOM     54  H40 HUK d   1     130.379 112.309  41.187  0.00  0.00     0.033 H 
ATOM     55  H6  HUK d   1     132.229 111.274  43.379  0.00  0.00     0.040 H 
ENDBRANCH  33  36
ENDBRANCH  30  33
ENDBRANCH  24  30
ENDBRANCH  21  24
ENDBRANCH   1  21
BRANCH   1  56
ATOM     56  N05 HUK d   1     135.059 109.611  38.225  0.00  0.00    -0.069 N 
ATOM     57  H43 HUK d   1     134.421 109.382  38.971  0.00  0.00     0.280 HD
BRANCH  56  58
ATOM     58  C04 HUK d   1     135.325 108.285  37.414  0.00  0.00     0.084 C 
ATOM     59  H29 HUK d   1     136.413 108.146  37.330  0.00  0.00     0.076 H 
ATOM     60  H30 HUK d   1     134.890 107.445  37.976  0.00  0.00     0.076 H 
BRANCH  58  61
ATOM     61  C03 HUK d   1     134.727 108.274  35.992  0.00  0.00    -0.043 C 
ATOM     62  H27 HUK d   1     133.672 107.967  36.048  0.00  0.00     0.035 H 
ATOM     63  H28 HUK d   1     134.792 109.287  35.567  0.00  0.00     0.035 H 
BRANCH  61  64
ATOM     64  C02 HUK d   1     135.489 107.294  35.077  0.00  0.00    -0.067 C 
ATOM     65  H25 HUK d   1     135.022 107.308  34.081  0.00  0.00     0.032 H 
ATOM     66  H26 HUK d   1     136.534 107.629  34.997  0.00  0.00     0.032 H 
BRANCH  64  67
ATOM     67  C01 HUK d   1     135.475 105.857  35.603  0.00  0.00    -0.076 C 
ATOM     68  H22 HUK d   1     136.032 105.208  34.911  0.00  0.00     0.027 H 
ATOM     69  H23 HUK d   1     134.436 105.505  35.680  0.00  0.00     0.027 H 
ATOM     70  H24 HUK d   1     135.947 105.825  36.596  0.00  0.00     0.027 H 
ENDBRANCH  64  67
ENDBRANCH  61  64
ENDBRANCH  58  61
ENDBRANCH  56  58
BRANCH  56  71
ATOM     71  C06 HUK d   1     134.379 110.681  37.368  0.00  0.00     0.067 C 
ATOM     72  H31 HUK d   1     134.214 111.585  37.973  0.00  0.00     0.068 H 
ATOM     73  H32 HUK d   1     133.413 110.301  37.005  0.00  0.00     0.068 H 
ATOM     74  H33 HUK d   1     135.022 110.927  36.510  0.00  0.00     0.068 H 
ENDBRANCH  56  71
ENDBRANCH   1  56
TORSDOF 14
