REMARK  12 active torsions:
REMARK  status: ('A' for Active; 'I' for Inactive)
REMARK    1  A    between atoms: C17_2  and  C18_3 
REMARK       I    between atoms: C17_2  and  N2_6 
REMARK    2  A    between atoms: C18_3  and  N20_4 
REMARK    3  A    between atoms: C18_3  and  C19_5 
REMARK    4  A    between atoms: C4_8  and  N13_9 
REMARK    5  A    between atoms: C4_8  and  C14_10 
REMARK    6  A    between atoms: C5_13  and  C6_15 
REMARK    7  A    between atoms: C6_15  and  C7_16 
REMARK    8  A    between atoms: C7_16  and  C8_17 
REMARK    9  A    between atoms: C8_17  and  B9_18 
REMARK   10  A    between atoms: B9_18  and  O12_19 
REMARK   11  A    between atoms: B9_18  and  O10_21 
REMARK   12  A    between atoms: B9_18  and  O11_20 
ROOT
ATOM      1  O21 XC3 d   1       5.752 -21.849   7.422  0.00  0.00    -0.271 OA
ATOM      2  C17 XC3 d   1       5.819 -23.069   7.280  0.00  0.00     0.250 C 
ATOM      3  N2  XC3 d   1       5.080 -23.671   6.358  0.00  0.00    -0.347 N 
ATOM      4  C3  XC3 d   1       5.546 -24.811   5.564  0.00  0.00     0.039 C 
ATOM      5  C4  XC3 d   1       4.318 -25.225   4.766  0.00  0.00     0.231 C 
ATOM      6  C5  XC3 d   1       3.262 -24.144   5.005  0.00  0.00     0.005 C 
ATOM      7  C1  XC3 d   1       3.616 -23.513   6.337  0.00  0.00     0.004 C 
ATOM      8  H8  XC3 d   1       5.884 -25.630   6.216  0.00  0.00     0.069 H 
ATOM      9  H9  XC3 d   1       6.366 -24.513   4.894  0.00  0.00     0.069 H 
ATOM     10  H13 XC3 d   1       3.336 -23.384   4.214  0.00  0.00     0.047 H 
ATOM     11  H14 XC3 d   1       3.326 -22.452   6.369  0.00  0.00     0.065 H 
ATOM     12  H15 XC3 d   1       3.142 -24.048   7.173  0.00  0.00     0.065 H 
ENDROOT
BRANCH   6  13
ATOM     13  C6  XC3 d   1       1.842 -24.708   4.984  0.00  0.00    -0.058 C 
ATOM     14  H16 XC3 d   1       1.736 -25.429   5.808  0.00  0.00     0.033 H 
ATOM     15  H17 XC3 d   1       1.679 -25.221   4.024  0.00  0.00     0.033 H 
BRANCH  13  16
ATOM     16  C7  XC3 d   1       0.776 -23.613   5.146  0.00  0.00    -0.074 C 
ATOM     17  H18 XC3 d   1       0.942 -22.868   4.354  0.00  0.00     0.032 H 
ATOM     18  H19 XC3 d   1       0.929 -23.143   6.129  0.00  0.00     0.032 H 
BRANCH  16  19
ATOM     19  C8  XC3 d   1      -0.680 -24.051   5.068  0.00  0.00    -0.109 C 
ATOM     20  H20 XC3 d   1      -1.050 -23.912   4.042  0.00  0.00     0.020 H 
ATOM     21  H22 XC3 d   1      -0.759 -25.113   5.346  0.00  0.00     0.020 H 
BRANCH  19  22
ATOM     22  B9  XC3 d   1      -1.749 -22.906   4.819  0.00  0.00     0.082 B 
BRANCH  22  23
ATOM     23  O12 XC3 d   1      -1.582 -22.270   3.504  0.00  0.00     0.000 OA
ATOM     24  H23 XC3 d   1      -1.702 -22.920   2.822  0.00  0.00     0.000 HD
ATOM     25  H24 XC3 d   1      -1.702 -22.920   2.822  0.00  0.00     0.000 HD
ENDBRANCH  22  23
BRANCH  22  26
ATOM     26  O10 XC3 d   1      -3.129 -23.422   4.763  0.00  0.00     0.000 OA
ATOM     27  H27 XC3 d   1      -3.731 -22.700   4.627  0.00  0.00     0.000 HD
ATOM     28  H28 XC3 d   1      -3.731 -22.700   4.627  0.00  0.00     0.000 HD
ENDBRANCH  22  26
BRANCH  22  29
ATOM     29  O11 XC3 d   1      -1.627 -21.879   5.880  0.00  0.00     0.000 OA
ATOM     30  H25 XC3 d   1      -0.769 -21.473   5.829  0.00  0.00     0.000 HD
ATOM     31  H26 XC3 d   1      -0.769 -21.473   5.829  0.00  0.00     0.000 HD
ENDBRANCH  22  29
ENDBRANCH  19  22
ENDBRANCH  16  19
ENDBRANCH  13  16
ENDBRANCH   6  13
BRANCH   5  32
ATOM     32  N13 XC3 d   1       4.693 -25.203   3.332  0.00  0.00    -0.058 N 
ATOM     33  H10 XC3 d   1       3.899 -25.473   2.773  0.00  0.00     0.276 HD
ATOM     34  H11 XC3 d   1       5.451 -25.848   3.173  0.00  0.00     0.276 HD
ATOM     35  H12 XC3 d   1       4.984 -24.273   3.075  0.00  0.00     0.276 HD
ENDBRANCH   5  32
BRANCH   5  36
ATOM     36  C14 XC3 d   1       3.882 -26.628   5.155  0.00  0.00     0.212 C 
ATOM     37  O16 XC3 d   1       3.713 -26.885   6.383  0.00  0.00    -0.646 OA
ATOM     38  O15 XC3 d   1       3.734 -27.503   4.227  0.00  0.00    -0.646 OA
ENDBRANCH   5  36
BRANCH   2  39
ATOM     39  C18 XC3 d   1       6.715 -23.929   8.139  0.00  0.00     0.172 C 
ATOM     40  H1  XC3 d   1       6.696 -24.963   7.765  0.00  0.00     0.098 H 
BRANCH  39  41
ATOM     41  N20 XC3 d   1       8.090 -23.401   8.042  0.00  0.00    -0.067 N 
ATOM     42  H2  XC3 d   1       8.706 -23.962   8.609  0.00  0.00     0.275 HD
ATOM     43  H3  XC3 d   1       8.108 -22.448   8.369  0.00  0.00     0.275 HD
ATOM     44  H4  XC3 d   1       8.395 -23.433   7.082  0.00  0.00     0.275 HD
ENDBRANCH  39  41
BRANCH  39  45
ATOM     45  C19 XC3 d   1       6.230 -23.920   9.589  0.00  0.00    -0.042 C 
ATOM     46  H5  XC3 d   1       5.205 -24.317   9.635  0.00  0.00     0.030 H 
ATOM     47  H6  XC3 d   1       6.242 -22.889   9.973  0.00  0.00     0.030 H 
ATOM     48  H7  XC3 d   1       6.894 -24.547  10.202  0.00  0.00     0.030 H 
ENDBRANCH  39  45
ENDBRANCH   2  39
TORSDOF 12
