REMARK  9 active torsions:
REMARK  status: ('A' for Active; 'I' for Inactive)
REMARK    1  A    between atoms: C10_9  and  C11_5 
REMARK    2  A    between atoms: C10_9  and  C9_8 
REMARK    3  A    between atoms: C17_26  and  N2_13 
REMARK    4  A    between atoms: C23_32  and  N3_15 
REMARK    5  A    between atoms: C2_17  and  N_18 
REMARK    6  A    between atoms: N_18  and  S_19 
REMARK    7  A    between atoms: S_19  and  C1_22 
REMARK    8  A    between atoms: C1_22  and  C_23 
REMARK    9  A    between atoms: C20_29  and  C23_32 
ROOT
ATOM      1  C10 FE7 d   1     -32.215   8.043 -74.484  0.00  0.00     0.059 C 
ATOM      2  N2  FE7 d   1     -32.041   6.738 -74.673  0.00  0.00    -0.355 N 
ATOM      3  H7  FE7 d   1     -31.362   6.475 -75.402  0.00  0.00     0.166 HD
ENDROOT
BRANCH   1   4
ATOM      4  C11 FE7 d   1     -33.052   8.517 -73.353  0.00  0.00    -0.008 A 
ATOM      5  C12 FE7 d   1     -34.330   9.012 -73.592  0.00  0.00    -0.071 A 
ATOM      6  C13 FE7 d   1     -34.959   9.824 -72.656  0.00  0.00    -0.082 A 
ATOM      7  H4  FE7 d   1     -34.839   8.762 -74.516  0.00  0.00     0.084 H 
ATOM      8  C14 FE7 d   1     -34.350  10.103 -71.461  0.00  0.00    -0.083 A 
ATOM      9  H5  FE7 d   1     -35.937  10.239 -72.873  0.00  0.00     0.083 H 
ATOM     10  C15 FE7 d   1     -33.124   9.547 -71.174  0.00  0.00    -0.082 A 
ATOM     11  H1  FE7 d   1     -34.831  10.759 -70.745  0.00  0.00     0.083 H 
ATOM     12  C16 FE7 d   1     -32.476   8.754 -72.111  0.00  0.00    -0.071 A 
ATOM     13  H17 FE7 d   1     -32.662   9.729 -70.211  0.00  0.00     0.083 H 
ATOM     14  H16 FE7 d   1     -31.514   8.316 -71.872  0.00  0.00     0.084 H 
ENDBRANCH   1   4
BRANCH   1  15
ATOM     15  C9  FE7 d   1     -31.625   8.927 -75.367  0.00  0.00     0.072 A 
ATOM     16  C4  FE7 d   1     -31.760  10.337 -75.347  0.00  0.00     0.011 A 
ATOM     17  C5  FE7 d   1     -30.725  10.879 -76.123  0.00  0.00     0.046 A 
ATOM     18  C3  FE7 d   1     -32.557  11.156 -74.636  0.00  0.00    -0.043 A 
ATOM     19  C6  FE7 d   1     -30.467  12.243 -76.143  0.00  0.00    -0.054 A 
ATOM     20  N1  FE7 d   1     -30.031   9.839 -76.678  0.00  0.00    -0.322 N 
ATOM     21  C7  FE7 d   1     -31.255  13.059 -75.326  0.00  0.00    -0.054 A 
ATOM     22  H2  FE7 d   1     -29.685  12.659 -76.768  0.00  0.00     0.087 H 
ATOM     23  C2  FE7 d   1     -32.297  12.499 -74.563  0.00  0.00     0.043 A 
ATOM     24  H3  FE7 d   1     -31.063  14.125 -75.280  0.00  0.00     0.087 H 
ATOM     25  C8  FE7 d   1     -30.520   8.644 -76.265  0.00  0.00     0.259 A 
ATOM     26  H6  FE7 d   1     -29.262   9.947 -77.308  0.00  0.00     0.169 HD
ATOM     27  O2  FE7 d   1     -30.086   7.555 -76.576  0.00  0.00    -0.267 OA
ATOM     28  H8  FE7 d   1     -33.415  10.748 -74.115  0.00  0.00     0.088 H 
BRANCH  23  29
ATOM     29  N   FE7 d   1     -33.067  13.162 -73.576  0.00  0.00    -0.285 N 
ATOM     30  H10 FE7 d   1     -33.834  12.643 -73.200  0.00  0.00     0.178 HD
BRANCH  29  31
ATOM     31  S   FE7 d   1     -32.875  14.564 -73.015  0.00  0.00     0.230 S 
ATOM     32  O   FE7 d   1     -34.171  15.172 -73.030  0.00  0.00    -0.206 OA
ATOM     33  O1  FE7 d   1     -31.798  15.171 -73.749  0.00  0.00    -0.206 OA
BRANCH  31  34
ATOM     34  C1  FE7 d   1     -32.384  14.332 -71.338  0.00  0.00     0.043 C 
ATOM     35  H11 FE7 d   1     -33.223  13.892 -70.779  0.00  0.00     0.058 H 
ATOM     36  H12 FE7 d   1     -32.126  15.309 -70.903  0.00  0.00     0.058 H 
BRANCH  34  37
ATOM     37  C   FE7 d   1     -31.192  13.420 -71.228  0.00  0.00    -0.062 C 
ATOM     38  H13 FE7 d   1     -30.918  13.301 -70.169  0.00  0.00     0.028 H 
ATOM     39  H14 FE7 d   1     -30.345  13.855 -71.779  0.00  0.00     0.028 H 
ATOM     40  H15 FE7 d   1     -31.442  12.437 -71.655  0.00  0.00     0.028 H 
ENDBRANCH  34  37
ENDBRANCH  31  34
ENDBRANCH  29  31
ENDBRANCH  23  29
ENDBRANCH   1  15
BRANCH   2  41
ATOM     41  C17 FE7 d   1     -32.672   5.663 -73.998  0.00  0.00     0.032 A 
ATOM     42  C22 FE7 d   1     -33.703   5.880 -73.087  0.00  0.00    -0.057 A 
ATOM     43  C21 FE7 d   1     -34.267   4.815 -72.411  0.00  0.00    -0.073 A 
ATOM     44  H18 FE7 d   1     -34.064   6.886 -72.908  0.00  0.00     0.086 H 
ATOM     45  C20 FE7 d   1     -33.843   3.515 -72.641  0.00  0.00    -0.032 A 
ATOM     46  H19 FE7 d   1     -35.054   4.999 -71.689  0.00  0.00     0.084 H 
ATOM     47  C19 FE7 d   1     -32.812   3.308 -73.548  0.00  0.00    -0.073 A 
ATOM     48  C18 FE7 d   1     -32.240   4.364 -74.232  0.00  0.00    -0.057 A 
ATOM     49  H20 FE7 d   1     -32.450   2.301 -73.722  0.00  0.00     0.084 H 
ATOM     50  H21 FE7 d   1     -31.452   4.178 -74.953  0.00  0.00     0.086 H 
BRANCH  45  51
ATOM     51  C23 FE7 d   1     -34.553   2.349 -72.003  0.00  0.00     0.107 C 
ATOM     52  H22 FE7 d   1     -35.202   2.731 -71.201  0.00  0.00     0.083 H 
ATOM     53  H23 FE7 d   1     -35.169   1.853 -72.768  0.00  0.00     0.083 H 
BRANCH  51  54
ATOM     54  N3  FE7 d   1     -33.635   1.358 -71.429  0.00  0.00    -0.067 N 
ATOM     55  C28 FE7 d   1     -33.019   1.866 -70.197  0.00  0.00     0.084 C 
ATOM     56  C27 FE7 d   1     -31.853   1.011 -69.787  0.00  0.00    -0.042 C 
ATOM     57  H24 FE7 d   1     -33.769   1.863 -69.392  0.00  0.00     0.076 H 
ATOM     58  H25 FE7 d   1     -32.669   2.895 -70.367  0.00  0.00     0.076 H 
ATOM     59  C26 FE7 d   1     -32.111  -0.440 -70.101  0.00  0.00    -0.062 C 
ATOM     60  H26 FE7 d   1     -31.689   1.121 -68.705  0.00  0.00     0.035 H 
ATOM     61  H27 FE7 d   1     -30.955   1.342 -70.330  0.00  0.00     0.035 H 
ATOM     62  C25 FE7 d   1     -33.603  -0.735 -70.086  0.00  0.00    -0.042 C 
ATOM     63  H28 FE7 d   1     -31.611  -1.067 -69.348  0.00  0.00     0.033 H 
ATOM     64  H29 FE7 d   1     -31.707  -0.671 -71.098  0.00  0.00     0.033 H 
ATOM     65  C24 FE7 d   1     -34.341   0.102 -71.129  0.00  0.00     0.084 C 
ATOM     66  H30 FE7 d   1     -34.005  -0.502 -69.089  0.00  0.00     0.035 H 
ATOM     67  H31 FE7 d   1     -33.760  -1.802 -70.305  0.00  0.00     0.035 H 
ATOM     68  H32 FE7 d   1     -34.432  -0.484 -72.055  0.00  0.00     0.076 H 
ATOM     69  H33 FE7 d   1     -35.344   0.341 -70.747  0.00  0.00     0.076 H 
ATOM     70  H9  FE7 d   1     -32.908   1.170 -72.102  0.00  0.00     0.280 HD
ENDBRANCH  51  54
ENDBRANCH  45  51
ENDBRANCH   2  41
TORSDOF 9
