REMARK WARNING: 32 MAX_TORS EXCEEDED!!!
REMARK  57 active torsions:
REMARK  status: ('A' for Active; 'I' for Inactive)
REMARK    1  A    between atoms: N_1  and  CA_2 
REMARK    2  A    between atoms: CA_2  and  C_3 
REMARK    3  A    between atoms: CA_2  and  CB_5 
REMARK       I    between atoms: C_3  and  N_7 
REMARK    4  A    between atoms: CB_5  and  OG_6 
REMARK    5  A    between atoms: N_7  and  CA_8 
REMARK    6  A    between atoms: CA_8  and  C_9 
REMARK    7  A    between atoms: CA_8  and  CB_11 
REMARK       I    between atoms: C_9  and  N_15 
REMARK    8  A    between atoms: CB_11  and  CG_12 
REMARK    9  A    between atoms: CG_12  and  SD_13 
REMARK   10  A    between atoms: SD_13  and  CE_14 
REMARK   11  A    between atoms: N_15  and  CA_16 
REMARK   12  A    between atoms: CA_16  and  C_17 
REMARK   13  A    between atoms: CA_16  and  CB_19 
REMARK       I    between atoms: C_17  and  N_26 
REMARK   14  A    between atoms: CB_19  and  CG_20 
REMARK   15  A    between atoms: CG_20  and  CD_21 
REMARK   16  A    between atoms: CD_21  and  NE_22 
REMARK       I    between atoms: NE_22  and  CZ_23 
REMARK       I    between atoms: CZ_23  and  NH1_24 
REMARK       I    between atoms: CZ_23  and  NH2_25 
REMARK   17  A    between atoms: N_26  and  CA_27 
REMARK   18  A    between atoms: CA_27  and  C_28 
REMARK   19  A    between atoms: CA_27  and  CB_30 
REMARK       I    between atoms: C_28  and  N_35 
REMARK   20  A    between atoms: CB_30  and  CG_31 
REMARK   21  A    between atoms: CG_31  and  CD_32 
REMARK   22  A    between atoms: CD_32  and  CE_33 
REMARK   23  A    between atoms: CE_33  and  NZ_34 
REMARK   24  A    between atoms: N_35  and  CA_36 
REMARK   25  A    between atoms: CA_36  and  C_37 
REMARK   26  A    between atoms: CA_36  and  CB_39 
REMARK       I    between atoms: C_37  and  N_43 
REMARK   27  A    between atoms: CB_39  and  CG1_40 
REMARK   28  A    between atoms: CB_39  and  CG2_41 
REMARK   29  A    between atoms: CG1_40  and  CD1_42 
REMARK   30  A    between atoms: N_43  and  CA_44 
REMARK   31  A    between atoms: CA_44  and  C_45 
REMARK   32  A    between atoms: CA_44  and  CB_47 
REMARK       I    between atoms: C_45  and  N_49 
REMARK   33  A    between atoms: CB_47  and  SG_48 
REMARK   34  A    between atoms: N_49  and  CA_50 
REMARK   35  A    between atoms: CA_50  and  C_51 
REMARK   36  A    between atoms: CA_50  and  CB_53 
REMARK       I    between atoms: C_51  and  N_56 
REMARK   37  A    between atoms: CB_53  and  OG1_54 
REMARK   38  A    between atoms: CB_53  and  CG2_55 
REMARK   39  A    between atoms: N_56  and  CA_57 
REMARK   40  A    between atoms: CA_57  and  C_58 
REMARK   41  A    between atoms: CA_57  and  CB_60 
REMARK       I    between atoms: C_58  and  N_68 
REMARK   42  A    between atoms: CB_60  and  CG_61 
REMARK   43  A    between atoms: CZ_66  and  OH_67 
REMARK   44  A    between atoms: N_68  and  CA_69 
REMARK   45  A    between atoms: CA_69  and  C_70 
REMARK   46  A    between atoms: CA_69  and  CB_72 
REMARK       I    between atoms: C_70  and  N_79 
REMARK   47  A    between atoms: CB_72  and  CG_73 
REMARK   48  A    between atoms: N_79  and  CA_80 
REMARK   49  A    between atoms: CA_80  and  C_81 
REMARK   50  A    between atoms: CA_80  and  CB_83 
REMARK       I    between atoms: C_81  and  N_89 
REMARK   51  A    between atoms: CB_83  and  CG_84 
REMARK   52  A    between atoms: N_89  and  CA_90 
REMARK   53  A    between atoms: CA_90  and  C_91 
REMARK   54  A    between atoms: CA_90  and  CB_93 
REMARK   55  A    between atoms: CB_93  and  CG_94 
REMARK   56  A    between atoms: CG_94  and  CD_95 
REMARK   57  A    between atoms: CD_95  and  NE_96 
REMARK       I    between atoms: NE_96  and  CZ_97 
REMARK       I    between atoms: CZ_97  and  NH1_98 
ROOT
ATOM      1  CA  SER d   1      62.253   6.805 -36.546  0.00  0.00     0.097 C 
ATOM      2  H55 SER d   1      63.129   6.721 -35.886  0.00  0.00     0.088 H 
ENDROOT
BRANCH   1   3
ATOM      3  N   SER d   1      61.253   7.706 -35.906  0.00  0.00    -0.345 N 
ATOM      4  C   SER d   1      61.409   9.033 -35.831  0.00  0.00     0.241 C 
ATOM      5  O   SER d   1      62.522   9.601 -36.010  0.00  0.00    -0.271 OA
ATOM      6  H54 SER d   1      60.427   7.300 -35.514  0.00  0.00     0.163 HD
BRANCH   4   7
ATOM      7  CA  SER d   1      60.168   9.932 -35.639  0.00  0.00     0.092 C 
ATOM      8  H44 SER d   1      60.118  10.588 -36.520  0.00  0.00     0.088 H 
BRANCH   7   9
ATOM      9  N   SER d   1      58.929   9.086 -35.684  0.00  0.00    -0.346 N 
ATOM     10  C   SER d   1      58.440   8.629 -36.839  0.00  0.00     0.241 C 
ATOM     11  O   SER d   1      58.960   8.897 -37.917  0.00  0.00    -0.271 OA
ATOM     12  H43 SER d   1      58.460   8.860 -34.830  0.00  0.00     0.163 HD
BRANCH  10  13
ATOM     13  CA  SER d   1      57.167   7.780 -36.859  0.00  0.00     0.089 C 
ATOM     14  H31 SER d   1      56.620   7.923 -35.916  0.00  0.00     0.087 H 
BRANCH  13  15
ATOM     15  N   SER d   1      56.321   8.243 -37.997  0.00  0.00    -0.346 N 
ATOM     16  C   SER d   1      55.216   8.994 -37.886  0.00  0.00     0.241 C 
ATOM     17  O   SER d   1      54.684   9.289 -36.813  0.00  0.00    -0.271 OA
ATOM     18  H30 SER d   1      56.601   7.971 -38.918  0.00  0.00     0.163 HD
BRANCH  16  19
ATOM     19  CA  SER d   1      54.522   9.463 -39.172  0.00  0.00     0.089 C 
ATOM     20  H18 SER d   1      54.151   8.573 -39.702  0.00  0.00     0.087 H 
BRANCH  19  21
ATOM     21  N   SER d   1      53.343  10.327 -38.853  0.00  0.00    -0.346 N 
ATOM     22  C   SER d   1      52.060   9.917 -38.857  0.00  0.00     0.241 C 
ATOM     23  O   SER d   1      51.733   8.733 -38.994  0.00  0.00    -0.271 OA
ATOM     24  H17 SER d   1      53.521  11.283 -38.619  0.00  0.00     0.163 HD
BRANCH  22  25
ATOM     25  CA  SER d   1      50.943  10.957 -38.607  0.00  0.00     0.090 C 
ATOM     26  H9  SER d   1      51.382  11.960 -38.711  0.00  0.00     0.087 H 
BRANCH  25  27
ATOM     27  N   SER d   1      49.806  10.848 -39.599  0.00  0.00    -0.346 N 
ATOM     28  C   SER d   1      48.504  10.554 -39.341  0.00  0.00     0.251 C 
ATOM     29  O   SER d   1      48.095  10.026 -38.308  0.00  0.00    -0.271 OA
ATOM     30  H8  SER d   1      50.040  11.011 -40.557  0.00  0.00     0.163 HD
BRANCH  28  31
ATOM     31  CA  SER d   1      47.434  10.716 -40.432  0.00  0.00     0.195 C 
ATOM     32  H4  SER d   1      46.753   9.857 -40.344  0.00  0.00     0.102 H 
BRANCH  31  33
ATOM     33  N   SER d   1      46.592  11.954 -40.212  0.00  0.00    -0.064 N 
ATOM     34  H1  SER d   1      45.904  12.027 -40.945  0.00  0.00     0.275 HD
ATOM     35  H2  SER d   1      47.184  12.770 -40.225  0.00  0.00     0.275 HD
ATOM     36  H3  SER d   1      46.127  11.890 -39.320  0.00  0.00     0.275 HD
ENDBRANCH  31  33
BRANCH  31  37
ATOM     37  CB  SER d   1      48.050  10.639 -41.805  0.00  0.00     0.051 C 
ATOM     38  H5  SER d   1      47.861  11.580 -42.342  0.00  0.00     0.077 H 
ATOM     39  H6  SER d   1      47.598   9.804 -42.360  0.00  0.00     0.077 H 
BRANCH  37  40
ATOM     40  OG  SER d   1      49.455  10.430 -41.700  0.00  0.00    -0.398 OA
ATOM     41  H7  SER d   1      49.833  10.383 -42.570  0.00  0.00     0.209 HD
ENDBRANCH  37  40
ENDBRANCH  31  37
ENDBRANCH  28  31
ENDBRANCH  25  27
BRANCH  25  42
ATOM     42  CB  SER d   1      50.430  10.798 -37.168  0.00  0.00    -0.030 C 
ATOM     43  H10 SER d   1      50.016   9.784 -37.069  0.00  0.00     0.037 H 
ATOM     44  H11 SER d   1      49.631  11.537 -37.012  0.00  0.00     0.037 H 
BRANCH  42  45
ATOM     45  CG  SER d   1      51.455  10.988 -36.073  0.00  0.00    -0.021 C 
ATOM     46  H12 SER d   1      52.084  11.855 -36.324  0.00  0.00     0.049 H 
ATOM     47  H13 SER d   1      52.081  10.086 -36.014  0.00  0.00     0.049 H 
BRANCH  45  48
ATOM     48  SD  SER d   1      50.670  11.279 -34.415  0.00  0.00    -0.173 SA
BRANCH  48  49
ATOM     49  CE  SER d   1      50.671  13.074 -34.349  0.00  0.00    -0.035 C 
ATOM     50  H14 SER d   1      50.225  13.406 -33.400  0.00  0.00     0.041 H 
ATOM     51  H15 SER d   1      50.084  13.472 -35.190  0.00  0.00     0.041 H 
ATOM     52  H16 SER d   1      51.705  13.443 -34.417  0.00  0.00     0.041 H 
ENDBRANCH  48  49
ENDBRANCH  45  48
ENDBRANCH  42  45
ENDBRANCH  25  42
ENDBRANCH  22  25
ENDBRANCH  19  21
BRANCH  19  53
ATOM     53  CB  SER d   1      55.524  10.174 -40.095  0.00  0.00    -0.036 C 
ATOM     54  H19 SER d   1      56.289  10.655 -39.467  0.00  0.00     0.036 H 
ATOM     55  H20 SER d   1      54.981  10.942 -40.666  0.00  0.00     0.036 H 
BRANCH  53  56
ATOM     56  CG  SER d   1      56.230   9.253 -41.086  0.00  0.00    -0.048 C 
ATOM     57  H21 SER d   1      57.087   8.788 -40.577  0.00  0.00     0.035 H 
ATOM     58  H22 SER d   1      56.590   9.862 -41.928  0.00  0.00     0.035 H 
BRANCH  56  59
ATOM     59  CD  SER d   1      55.334   8.134 -41.646  0.00  0.00     0.009 C 
ATOM     60  H23 SER d   1      55.934   7.538 -42.349  0.00  0.00     0.064 H 
ATOM     61  H24 SER d   1      54.499   8.606 -42.185  0.00  0.00     0.064 H 
BRANCH  59  62
ATOM     62  NE  SER d   1      54.765   7.213 -40.639  0.00  0.00    -0.227 N 
ATOM     63  CZ  SER d   1      53.561   6.615 -40.684  0.00  0.00     0.665 C 
ATOM     64  NH1 SER d   1      52.738   6.800 -41.706  0.00  0.00    -0.235 N 
ATOM     65  NH2 SER d   1      53.184   5.817 -39.694  0.00  0.00    -0.235 N 
ATOM     66  H26 SER d   1      51.821   6.332 -41.720  0.00  0.00     0.174 HD
ATOM     67  H27 SER d   1      53.016   7.412 -42.487  0.00  0.00     0.174 HD
ATOM     68  H28 SER d   1      53.810   5.661 -38.891  0.00  0.00     0.174 HD
ATOM     69  H29 SER d   1      52.265   5.353 -39.728  0.00  0.00     0.174 HD
ATOM     70  H25 SER d   1      55.352   7.008 -39.818  0.00  0.00     0.177 HD
ENDBRANCH  59  62
ENDBRANCH  56  59
ENDBRANCH  53  56
ENDBRANCH  19  53
ENDBRANCH  16  19
ENDBRANCH  13  15
BRANCH  13  71
ATOM     71  CB  SER d   1      57.507   6.294 -37.012  0.00  0.00    -0.038 C 
ATOM     72  H32 SER d   1      58.303   6.052 -36.293  0.00  0.00     0.036 H 
ATOM     73  H33 SER d   1      57.877   6.134 -38.036  0.00  0.00     0.036 H 
BRANCH  71  74
ATOM     74  CG  SER d   1      56.350   5.331 -36.774  0.00  0.00    -0.061 C 
ATOM     75  H34 SER d   1      55.709   5.330 -37.668  0.00  0.00     0.033 H 
ATOM     76  H35 SER d   1      55.772   5.689 -35.909  0.00  0.00     0.033 H 
BRANCH  74  77
ATOM     77  CD  SER d   1      56.790   3.904 -36.498  0.00  0.00    -0.043 C 
ATOM     78  H36 SER d   1      57.620   3.932 -35.777  0.00  0.00     0.035 H 
ATOM     79  H37 SER d   1      57.139   3.461 -37.443  0.00  0.00     0.035 H 
BRANCH  77  80
ATOM     80  CE  SER d   1      55.695   3.017 -35.931  0.00  0.00     0.080 C 
ATOM     81  H38 SER d   1      54.975   2.778 -36.727  0.00  0.00     0.075 H 
ATOM     82  H39 SER d   1      55.180   3.552 -35.119  0.00  0.00     0.075 H 
BRANCH  80  83
ATOM     83  NZ  SER d   1      56.269   1.755 -35.397  0.00  0.00    -0.079 N 
ATOM     84  H40 SER d   1      55.529   1.180 -35.026  0.00  0.00     0.274 HD
ATOM     85  H41 SER d   1      56.928   1.969 -34.665  0.00  0.00     0.274 HD
ATOM     86  H42 SER d   1      56.739   1.260 -36.138  0.00  0.00     0.274 HD
ENDBRANCH  80  83
ENDBRANCH  77  80
ENDBRANCH  74  77
ENDBRANCH  71  74
ENDBRANCH  13  71
ENDBRANCH  10  13
ENDBRANCH   7   9
BRANCH   7  87
ATOM     87  CB  SER d   1      60.293  10.890 -34.424  0.00  0.00    -0.030 C 
ATOM     88  H45 SER d   1      61.256  11.409 -34.540  0.00  0.00     0.043 H 
BRANCH  87  89
ATOM     89  CG1 SER d   1      60.359  10.166 -33.079  0.00  0.00    -0.063 C 
ATOM     90  H46 SER d   1      60.520  10.917 -32.291  0.00  0.00     0.033 H 
ATOM     91  H47 SER d   1      61.212   9.472 -33.103  0.00  0.00     0.033 H 
BRANCH  89  92
ATOM     92  CD1 SER d   1      59.126   9.384 -32.738  0.00  0.00    -0.076 C 
ATOM     93  H51 SER d   1      59.259   8.898 -31.760  0.00  0.00     0.027 H 
ATOM     94  H52 SER d   1      58.953   8.617 -33.508  0.00  0.00     0.027 H 
ATOM     95  H53 SER d   1      58.261  10.063 -32.696  0.00  0.00     0.027 H 
ENDBRANCH  89  92
ENDBRANCH  87  89
BRANCH  87  96
ATOM     96  CG2 SER d   1      59.211  11.970 -34.442  0.00  0.00    -0.071 C 
ATOM     97  H48 SER d   1      59.200  12.462 -35.426  0.00  0.00     0.028 H 
ATOM     98  H49 SER d   1      59.424  12.715 -33.661  0.00  0.00     0.028 H 
ATOM     99  H50 SER d   1      58.230  11.510 -34.252  0.00  0.00     0.028 H 
ENDBRANCH  87  96
ENDBRANCH   7  87
ENDBRANCH   4   7
ENDBRANCH   1   3
BRANCH   1 100
ATOM    100  C   SER d   1      62.672   7.401 -37.899  0.00  0.00     0.242 C 
ATOM    101  O   SER d   1      63.896   7.447 -38.169  0.00  0.00    -0.271 OA
ATOM    102  N   SER d   1      61.682   7.823 -38.707  0.00  0.00    -0.344 N 
ATOM    103  H59 SER d   1      60.755   7.807 -38.333  0.00  0.00     0.163 HD
BRANCH 102 104
ATOM    104  CA  SER d   1      61.836   8.313 -40.109  0.00  0.00     0.113 C 
ATOM    105  H60 SER d   1      62.377   7.534 -40.666  0.00  0.00     0.091 H 
BRANCH 104 106
ATOM    106  C   SER d   1      62.668   9.593 -40.123  0.00  0.00     0.243 C 
ATOM    107  O   SER d   1      63.490   9.756 -41.074  0.00  0.00    -0.271 OA
ATOM    108  N   SER d   1      62.456  10.447 -39.114  0.00  0.00    -0.346 N 
ATOM    109  H66 SER d   1      61.905  10.125 -38.344  0.00  0.00     0.163 HD
BRANCH 108 110
ATOM    110  CA  SER d   1      62.977  11.838 -39.051  0.00  0.00     0.093 C 
ATOM    111  H67 SER d   1      63.049  12.209 -40.084  0.00  0.00     0.088 H 
BRANCH 110 112
ATOM    112  C   SER d   1      64.390  11.895 -38.450  0.00  0.00     0.241 C 
ATOM    113  O   SER d   1      64.962  12.988 -38.549  0.00  0.00    -0.271 OA
ATOM    114  N   SER d   1      64.949  10.809 -37.888  0.00  0.00    -0.346 N 
ATOM    115  H75 SER d   1      64.441   9.948 -37.902  0.00  0.00     0.163 HD
BRANCH 114 116
ATOM    116  CA  SER d   1      66.295  10.832 -37.244  0.00  0.00     0.093 C 
ATOM    117  H76 SER d   1      66.802  11.748 -37.581  0.00  0.00     0.088 H 
BRANCH 116 118
ATOM    118  C   SER d   1      67.157   9.663 -37.764  0.00  0.00     0.241 C 
ATOM    119  O   SER d   1      67.735   9.813 -38.844  0.00  0.00    -0.271 OA
ATOM    120  N   SER d   1      67.291   8.576 -37.001  0.00  0.00    -0.346 N 
ATOM    121  H84 SER d   1      66.879   8.624 -36.091  0.00  0.00     0.163 HD
BRANCH 120 122
ATOM    122  CA  SER d   1      67.982   7.295 -37.342  0.00  0.00     0.094 C 
ATOM    123  H85 SER d   1      67.629   6.546 -36.618  0.00  0.00     0.088 H 
BRANCH 122 124
ATOM    124  C   SER d   1      69.504   7.416 -37.149  0.00  0.00     0.241 C 
ATOM    125  O   SER d   1      70.126   8.205 -37.870  0.00  0.00    -0.271 OA
ATOM    126  N   SER d   1      70.008   6.702 -36.130  0.00  0.00    -0.345 N 
ATOM    127  H91 SER d   1      69.358   6.494 -35.400  0.00  0.00     0.163 HD
BRANCH 126 128
ATOM    128  CA  SER d   1      71.383   6.170 -35.915  0.00  0.00     0.096 C 
ATOM    129  H92 SER d   1      71.319   5.397 -35.135  0.00  0.00     0.089 H 
BRANCH 128 130
ATOM    130  C   SER d   1      72.337   7.245 -35.381  0.00  0.00     0.196 C 
ATOM    131  O   SER d   1      73.142   6.920 -34.512  0.00  0.00    -0.646 OA
ATOM    132  OXT SER d   1      72.248   8.377 -35.849  0.00  0.00    -0.646 OA
ENDBRANCH 128 130
BRANCH 128 133
ATOM    133  CB  SER d   1      71.859   5.475 -37.192  0.00  0.00    -0.035 C 
ATOM    134  H93 SER d   1      72.951   5.591 -37.264  0.00  0.00     0.036 H 
ATOM    135  H94 SER d   1      71.380   5.965 -38.053  0.00  0.00     0.036 H 
BRANCH 133 136
ATOM    136  CG  SER d   1      71.530   3.988 -37.242  0.00  0.00    -0.047 C 
ATOM    137  H95 SER d   1      71.800   3.599 -38.235  0.00  0.00     0.035 H 
ATOM    138  H96 SER d   1      70.450   3.859 -37.079  0.00  0.00     0.035 H 
BRANCH 136 139
ATOM    139  CD  SER d   1      72.284   3.191 -36.182  0.00  0.00     0.009 C 
ATOM    140  H97 SER d   1      71.924   3.505 -35.191  0.00  0.00     0.064 H 
ATOM    141  H98 SER d   1      73.356   3.421 -36.272  0.00  0.00     0.064 H 
BRANCH 139 142
ATOM    142  NE  SER d   1      72.112   1.737 -36.298  0.00  0.00    -0.227 N 
ATOM    143  CZ  SER d   1      71.431   0.937 -35.451  0.00  0.00     0.665 C 
ATOM    144  NH1 SER d   1      70.812   1.419 -34.382  0.00  0.00    -0.235 N 
ATOM    145  NH2 SER d   1      71.369  -0.364 -35.690  0.00  0.00    -0.235 N 
ATOM    146 0H10 SER d   1      70.300   0.784 -33.753  0.00  0.00     0.174 HD
ATOM    147 1H10 SER d   1      70.843   2.429 -34.180  0.00  0.00     0.174 HD
ATOM    148 2H10 SER d   1      71.843  -0.759 -36.515  0.00  0.00     0.174 HD
ATOM    149 3H10 SER d   1      70.847  -0.981 -35.051  0.00  0.00     0.174 HD
ATOM    150  H99 SER d   1      72.556   1.282 -37.108  0.00  0.00     0.177 HD
ENDBRANCH 139 142
ENDBRANCH 136 139
ENDBRANCH 133 136
ENDBRANCH 128 133
ENDBRANCH 126 128
ENDBRANCH 122 124
BRANCH 122 151
ATOM    151  CB  SER d   1      67.607   6.757 -38.743  0.00  0.00     0.002 C 
ATOM    152  H86 SER d   1      68.487   6.858 -39.395  0.00  0.00     0.046 H 
ATOM    153  H87 SER d   1      66.786   7.374 -39.138  0.00  0.00     0.046 H 
BRANCH 151 154
ATOM    154  CG  SER d   1      67.167   5.321 -38.771  0.00  0.00     0.030 A 
ATOM    155  ND1 SER d   1      65.812   4.953 -38.663  0.00  0.00    -0.353 N 
ATOM    156  CE1 SER d   1      65.714   3.638 -38.721  0.00  0.00     0.063 A 
ATOM    157  H88 SER d   1      65.023   5.606 -38.556  0.00  0.00     0.166 HD
ATOM    158  NE2 SER d   1      66.966   3.135 -38.866  0.00  0.00    -0.254 NA
ATOM    159  H90 SER d   1      64.793   3.060 -38.663  0.00  0.00     0.143 H 
ATOM    160  CD2 SER d   1      67.870   4.168 -38.908  0.00  0.00     0.025 A 
ATOM    161  H89 SER d   1      68.949   4.079 -39.029  0.00  0.00     0.117 H 
ENDBRANCH 151 154
ENDBRANCH 122 151
ENDBRANCH 120 122
ENDBRANCH 116 118
BRANCH 116 162
ATOM    162  CB  SER d   1      66.138  10.976 -35.717  0.00  0.00    -0.014 C 
ATOM    163  H77 SER d   1      67.143  10.992 -35.270  0.00  0.00     0.043 H 
ATOM    164  H78 SER d   1      65.586  10.100 -35.346  0.00  0.00     0.043 H 
BRANCH 162 165
ATOM    165  CG  SER d   1      65.401  12.224 -35.264  0.00  0.00    -0.056 A 
ATOM    166  CD1 SER d   1      65.813  13.492 -35.670  0.00  0.00    -0.077 A 
ATOM    167  CE1 SER d   1      65.091  14.625 -35.331  0.00  0.00    -0.082 A 
ATOM    168  H79 SER d   1      66.715  13.594 -36.262  0.00  0.00     0.084 H 
ATOM    169  CZ  SER d   1      63.982  14.515 -34.530  0.00  0.00    -0.083 A 
ATOM    170  H81 SER d   1      65.402  15.597 -35.698  0.00  0.00     0.083 H 
ATOM    171  CE2 SER d   1      63.571  13.280 -34.090  0.00  0.00    -0.082 A 
ATOM    172  H83 SER d   1      63.430  15.403 -34.244  0.00  0.00     0.083 H 
ATOM    173  CD2 SER d   1      64.280  12.144 -34.444  0.00  0.00    -0.077 A 
ATOM    174  H82 SER d   1      62.690  13.194 -33.464  0.00  0.00     0.083 H 
ATOM    175  H80 SER d   1      63.956  11.177 -34.076  0.00  0.00     0.084 H 
ENDBRANCH 162 165
ENDBRANCH 116 162
ENDBRANCH 114 116
ENDBRANCH 110 112
BRANCH 110 176
ATOM    176  CB  SER d   1      61.999  12.751 -38.303  0.00  0.00    -0.014 C 
ATOM    177  H68 SER d   1      62.505  13.708 -38.111  0.00  0.00     0.043 H 
ATOM    178  H69 SER d   1      61.748  12.270 -37.346  0.00  0.00     0.043 H 
BRANCH 176 179
ATOM    179  CG  SER d   1      60.706  13.043 -39.034  0.00  0.00    -0.056 A 
ATOM    180  CD1 SER d   1      60.691  13.617 -40.300  0.00  0.00    -0.074 A 
ATOM    181  CE1 SER d   1      59.508  13.849 -40.977  0.00  0.00    -0.051 A 
ATOM    182  H70 SER d   1      61.630  13.889 -40.768  0.00  0.00     0.084 H 
ATOM    183  CZ  SER d   1      58.304  13.526 -40.385  0.00  0.00     0.065 A 
ATOM    184  H72 SER d   1      59.526  14.283 -41.970  0.00  0.00     0.087 H 
ATOM    185  CE2 SER d   1      58.287  12.962 -39.126  0.00  0.00    -0.051 A 
ATOM    186  CD2 SER d   1      59.484  12.693 -38.479  0.00  0.00    -0.074 A 
ATOM    187  H73 SER d   1      57.343  12.730 -38.645  0.00  0.00     0.087 H 
ATOM    188  H71 SER d   1      59.464  12.197 -37.515  0.00  0.00     0.084 H 
BRANCH 183 189
ATOM    189  OH  SER d   1      57.134  13.782 -41.027  0.00  0.00    -0.361 OA
ATOM    190  H74 SER d   1      57.318  14.167 -41.876  0.00  0.00     0.217 HD
ENDBRANCH 183 189
ENDBRANCH 176 179
ENDBRANCH 110 176
ENDBRANCH 108 110
ENDBRANCH 104 106
BRANCH 104 191
ATOM    191  CB  SER d   1      60.521   8.602 -40.870  0.00  0.00     0.060 C 
ATOM    192  H61 SER d   1      60.766   8.498 -41.938  0.00  0.00     0.086 H 
BRANCH 191 193
ATOM    193  OG1 SER d   1      60.020   9.933 -40.694  0.00  0.00    -0.393 OA
ATOM    194  H62 SER d   1      59.849  10.086 -39.772  0.00  0.00     0.210 HD
ENDBRANCH 191 193
BRANCH 191 195
ATOM    195  CG2 SER d   1      59.420   7.606 -40.579  0.00  0.00    -0.050 C 
ATOM    196  H63 SER d   1      58.521   7.875 -41.153  0.00  0.00     0.031 H 
ATOM    197  H64 SER d   1      59.187   7.621 -39.504  0.00  0.00     0.031 H 
ATOM    198  H65 SER d   1      59.752   6.598 -40.868  0.00  0.00     0.031 H 
ENDBRANCH 191 195
ENDBRANCH 104 191
ENDBRANCH 102 104
ENDBRANCH   1 100
BRANCH   1 199
ATOM    199  CB  SER d   1      61.693   5.412 -36.817  0.00  0.00     0.001 C 
ATOM    200  H56 SER d   1      62.343   4.923 -37.557  0.00  0.00     0.052 H 
ATOM    201  H57 SER d   1      60.683   5.528 -37.236  0.00  0.00     0.052 H 
BRANCH 199 202
ATOM    202  SG  SER d   1      61.577   4.326 -35.369  0.00  0.00    -0.180 SA
ATOM    203  H58 SER d   1      61.198   3.435 -35.648  0.00  0.00     0.101 HD
ENDBRANCH 199 202
ENDBRANCH   1 199
TORSDOF 57
