REMARK WARNING: 32 MAX_TORS EXCEEDED!!!
REMARK  48 active torsions:
REMARK  status: ('A' for Active; 'I' for Inactive)
REMARK    1  A    between atoms: N_1  and  CA_2 
REMARK    2  A    between atoms: CA_2  and  C_3 
REMARK    3  A    between atoms: CA_2  and  CB_5 
REMARK       I    between atoms: C_3  and  N_10 
REMARK    4  A    between atoms: CB_5  and  CG_6 
REMARK    5  A    between atoms: CG_6  and  CD_7 
REMARK       I    between atoms: CD_7  and  NE2_9 
REMARK    6  A    between atoms: N_10  and  CA_11 
REMARK    7  A    between atoms: CA_11  and  C_12 
REMARK    8  A    between atoms: CA_11  and  CB_14 
REMARK       I    between atoms: C_12  and  N_21 
REMARK    9  A    between atoms: CB_14  and  CG_15 
REMARK   10  A    between atoms: CG_15  and  CD_16 
REMARK   11  A    between atoms: CD_16  and  NE_17 
REMARK       I    between atoms: NE_17  and  CZ_18 
REMARK       I    between atoms: CZ_18  and  NH1_19 
REMARK       I    between atoms: CZ_18  and  NH2_20 
REMARK   12  A    between atoms: N_21  and  CA_22 
REMARK   13  A    between atoms: CA_22  and  C_23 
REMARK   14  A    between atoms: CA_22  and  CB_25 
REMARK       I    between atoms: C_23  and  N_32 
REMARK   15  A    between atoms: CB_25  and  CG_26 
REMARK   16  A    between atoms: CG_26  and  CD_27 
REMARK   17  A    between atoms: CD_27  and  NE_28 
REMARK       I    between atoms: NE_28  and  CZ_29 
REMARK       I    between atoms: CZ_29  and  NH1_30 
REMARK       I    between atoms: CZ_29  and  NH2_31 
REMARK   18  A    between atoms: N_32  and  CA_33 
REMARK   19  A    between atoms: CA_33  and  C_34 
REMARK   20  A    between atoms: CA_33  and  CB_36 
REMARK       I    between atoms: C_34  and  N_39 
REMARK   21  A    between atoms: CB_36  and  CG1_37 
REMARK   22  A    between atoms: CB_36  and  CG2_38 
REMARK   23  A    between atoms: N_39  and  CA_40 
REMARK   24  A    between atoms: CA_40  and  C_41 
REMARK   25  A    between atoms: CA_40  and  CB_43 
REMARK       I    between atoms: C_41  and  N_46 
REMARK   26  A    between atoms: CB_43  and  OG1_44 
REMARK   27  A    between atoms: CB_43  and  CG2_45 
REMARK   28  A    between atoms: N_46  and  CA_47 
REMARK   29  A    between atoms: CA_47  and  C_48 
REMARK   30  A    between atoms: CA_47  and  CB_50 
REMARK       I    between atoms: C_48  and  N_54 
REMARK   31  A    between atoms: CB_50  and  CG_51 
REMARK   32  A    between atoms: N_54  and  CA_55 
REMARK   33  A    between atoms: CA_55  and  C_56 
REMARK   34  A    between atoms: CA_55  and  CB_58 
REMARK       I    between atoms: C_56  and  N_65 
REMARK   35  A    between atoms: CB_58  and  CG_59 
REMARK   36  A    between atoms: N_65  and  CA_66 
REMARK   37  A    between atoms: CA_66  and  C_67 
REMARK   38  A    between atoms: CA_66  and  CB_69 
REMARK       I    between atoms: C_67  and  N_76 
REMARK   39  A    between atoms: CB_69  and  CG_70 
REMARK   40  A    between atoms: N_76  and  CA_77 
REMARK   41  A    between atoms: CA_77  and  C_78 
REMARK   42  A    between atoms: CA_77  and  CB_80 
REMARK       I    between atoms: C_78  and  N_81 
REMARK   43  A    between atoms: N_81  and  CA_82 
REMARK   44  A    between atoms: CA_82  and  C_83 
REMARK   45  A    between atoms: CA_82  and  CB_85 
REMARK   46  A    between atoms: CB_85  and  CG_86 
REMARK   47  A    between atoms: CG_86  and  CD_87 
REMARK   48  A    between atoms: CD_87  and  NE_88 
REMARK       I    between atoms: NE_88  and  CZ_89 
REMARK       I    between atoms: CZ_89  and  NH1_90 
ROOT
ATOM      1  CA  GLN d   1      75.825 -33.473 206.037  0.00  0.00     0.113 C 
ATOM      2  H47 GLN d   1      76.296 -33.244 207.005  0.00  0.00     0.091 H 
ENDROOT
BRANCH   1   3
ATOM      3  N   GLN d   1      76.312 -32.501 205.027  0.00  0.00    -0.344 N 
ATOM      4  C   GLN d   1      77.579 -32.250 204.677  0.00  0.00     0.241 C 
ATOM      5  O   GLN d   1      78.607 -32.539 205.360  0.00  0.00    -0.271 OA
ATOM      6  H46 GLN d   1      75.610 -31.971 204.552  0.00  0.00     0.163 HD
BRANCH   4   7
ATOM      7  CA  GLN d   1      77.741 -31.525 203.326  0.00  0.00     0.092 C 
ATOM      8  H38 GLN d   1      78.472 -32.090 202.728  0.00  0.00     0.088 H 
BRANCH   7   9
ATOM      9  N   GLN d   1      76.428 -31.545 202.589  0.00  0.00    -0.346 N 
ATOM     10  C   GLN d   1      75.908 -32.598 201.909  0.00  0.00     0.241 C 
ATOM     11  O   GLN d   1      76.429 -33.765 201.826  0.00  0.00    -0.271 OA
ATOM     12  H37 GLN d   1      75.888 -30.703 202.602  0.00  0.00     0.163 HD
BRANCH  10  13
ATOM     13  CA  GLN d   1      74.569 -32.368 201.187  0.00  0.00     0.089 C 
ATOM     14  H25 GLN d   1      74.419 -31.286 201.059  0.00  0.00     0.087 H 
BRANCH  13  15
ATOM     15  N   GLN d   1      74.626 -33.005 199.841  0.00  0.00    -0.346 N 
ATOM     16  C   GLN d   1      75.080 -32.401 198.729  0.00  0.00     0.241 C 
ATOM     17  O   GLN d   1      75.223 -31.146 198.593  0.00  0.00    -0.271 OA
ATOM     18  H24 GLN d   1      74.304 -33.948 199.759  0.00  0.00     0.163 HD
BRANCH  16  19
ATOM     19  CA  GLN d   1      75.320 -33.296 197.496  0.00  0.00     0.089 C 
ATOM     20  H12 GLN d   1      74.504 -34.033 197.460  0.00  0.00     0.087 H 
BRANCH  19  21
ATOM     21  N   GLN d   1      75.214 -32.408 196.306  0.00  0.00    -0.346 N 
ATOM     22  C   GLN d   1      74.058 -32.017 195.750  0.00  0.00     0.249 C 
ATOM     23  O   GLN d   1      72.919 -32.481 196.039  0.00  0.00    -0.271 OA
ATOM     24  H11 GLN d   1      76.064 -32.080 195.893  0.00  0.00     0.163 HD
BRANCH  22  25
ATOM     25  CA  GLN d   1      74.155 -30.944 194.658  0.00  0.00     0.176 C 
ATOM     26  H4  GLN d   1      75.217 -30.726 194.473  0.00  0.00     0.099 H 
BRANCH  25  27
ATOM     27  N   GLN d   1      73.558 -31.493 193.383  0.00  0.00    -0.066 N 
ATOM     28  H1  GLN d   1      73.616 -30.796 192.657  0.00  0.00     0.275 HD
ATOM     29  H2  GLN d   1      72.592 -31.734 193.541  0.00  0.00     0.275 HD
ATOM     30  H3  GLN d   1      74.067 -32.316 193.100  0.00  0.00     0.275 HD
ENDBRANCH  25  27
BRANCH  25  31
ATOM     31  CB  GLN d   1      73.481 -29.642 195.119  0.00  0.00    -0.022 C 
ATOM     32  H5  GLN d   1      72.481 -29.886 195.506  0.00  0.00     0.037 H 
ATOM     33  H6  GLN d   1      73.385 -28.974 194.250  0.00  0.00     0.037 H 
BRANCH  31  34
ATOM     34  CG  GLN d   1      74.254 -28.906 196.211  0.00  0.00     0.011 C 
ATOM     35  H7  GLN d   1      74.661 -29.647 196.915  0.00  0.00     0.047 H 
ATOM     36  H8  GLN d   1      73.562 -28.236 196.743  0.00  0.00     0.047 H 
BRANCH  34  37
ATOM     37  CD  GLN d   1      75.395 -28.084 195.660  0.00  0.00     0.215 C 
ATOM     38  OE1 GLN d   1      75.185 -27.114 194.943  0.00  0.00    -0.274 OA
ATOM     39  NE2 GLN d   1      76.620 -28.453 195.995  0.00  0.00    -0.370 N 
ATOM     40  H9  GLN d   1      77.408 -27.939 195.655  0.00  0.00     0.159 HD
ATOM     41  H10 GLN d   1      76.759 -29.246 196.589  0.00  0.00     0.159 HD
ENDBRANCH  34  37
ENDBRANCH  31  34
ENDBRANCH  25  31
ENDBRANCH  22  25
ENDBRANCH  19  21
BRANCH  19  42
ATOM     42  CB  GLN d   1      76.639 -34.097 197.459  0.00  0.00    -0.036 C 
ATOM     43  H13 GLN d   1      77.422 -33.499 197.949  0.00  0.00     0.036 H 
ATOM     44  H14 GLN d   1      76.912 -34.267 196.407  0.00  0.00     0.036 H 
BRANCH  42  45
ATOM     45  CG  GLN d   1      76.558 -35.451 198.160  0.00  0.00    -0.048 C 
ATOM     46  H15 GLN d   1      75.502 -35.759 198.144  0.00  0.00     0.035 H 
ATOM     47  H16 GLN d   1      76.878 -35.294 199.201  0.00  0.00     0.035 H 
BRANCH  45  48
ATOM     48  CD  GLN d   1      77.376 -36.625 197.611  0.00  0.00     0.009 C 
ATOM     49  H17 GLN d   1      78.435 -36.334 197.549  0.00  0.00     0.064 H 
ATOM     50  H18 GLN d   1      77.008 -36.889 196.608  0.00  0.00     0.064 H 
BRANCH  48  51
ATOM     51  NE  GLN d   1      77.240 -37.794 198.506  0.00  0.00    -0.227 N 
ATOM     52  CZ  GLN d   1      78.110 -38.804 198.687  0.00  0.00     0.665 C 
ATOM     53  NH1 GLN d   1      79.263 -38.865 198.039  0.00  0.00    -0.235 N 
ATOM     54  NH2 GLN d   1      77.812 -39.762 199.548  0.00  0.00    -0.235 N 
ATOM     55  H20 GLN d   1      79.905 -39.654 198.203  0.00  0.00     0.174 HD
ATOM     56  H21 GLN d   1      79.518 -38.124 197.371  0.00  0.00     0.174 HD
ATOM     57  H22 GLN d   1      76.920 -39.733 200.062  0.00  0.00     0.174 HD
ATOM     58  H23 GLN d   1      78.472 -40.537 199.704  0.00  0.00     0.174 HD
ATOM     59  H19 GLN d   1      76.372 -37.841 199.059  0.00  0.00     0.177 HD
ENDBRANCH  48  51
ENDBRANCH  45  48
ENDBRANCH  42  45
ENDBRANCH  19  42
ENDBRANCH  16  19
ENDBRANCH  13  15
BRANCH  13  60
ATOM     60  CB  GLN d   1      73.401 -32.921 202.008  0.00  0.00    -0.036 C 
ATOM     61  H26 GLN d   1      73.750 -33.091 203.037  0.00  0.00     0.036 H 
ATOM     62  H27 GLN d   1      73.086 -33.877 201.565  0.00  0.00     0.036 H 
BRANCH  60  63
ATOM     63  CG  GLN d   1      72.197 -31.995 202.056  0.00  0.00    -0.048 C 
ATOM     64  H28 GLN d   1      72.564 -30.960 202.120  0.00  0.00     0.035 H 
ATOM     65  H29 GLN d   1      71.617 -32.235 202.959  0.00  0.00     0.035 H 
BRANCH  63  66
ATOM     66  CD  GLN d   1      71.269 -32.092 200.861  0.00  0.00     0.009 C 
ATOM     67  H30 GLN d   1      70.972 -33.139 200.702  0.00  0.00     0.064 H 
ATOM     68  H31 GLN d   1      71.776 -31.714 199.961  0.00  0.00     0.064 H 
BRANCH  66  69
ATOM     69  NE  GLN d   1      70.094 -31.282 201.144  0.00  0.00    -0.227 N 
ATOM     70  CZ  GLN d   1      69.177 -31.561 202.081  0.00  0.00     0.665 C 
ATOM     71  NH1 GLN d   1      69.276 -32.651 202.826  0.00  0.00    -0.235 N 
ATOM     72  NH2 GLN d   1      68.152 -30.745 202.271  0.00  0.00    -0.235 N 
ATOM     73  H33 GLN d   1      68.563 -32.852 203.542  0.00  0.00     0.174 HD
ATOM     74  H34 GLN d   1      70.066 -33.298 202.690  0.00  0.00     0.174 HD
ATOM     75  H35 GLN d   1      68.060 -29.893 201.700  0.00  0.00     0.174 HD
ATOM     76  H36 GLN d   1      67.447 -30.962 202.990  0.00  0.00     0.174 HD
ATOM     77  H32 GLN d   1      69.956 -30.430 200.582  0.00  0.00     0.177 HD
ENDBRANCH  66  69
ENDBRANCH  63  66
ENDBRANCH  60  63
ENDBRANCH  13  60
ENDBRANCH  10  13
ENDBRANCH   7   9
BRANCH   7  78
ATOM     78  CB  GLN d   1      78.292 -30.090 203.486  0.00  0.00    -0.033 C 
ATOM     79  H39 GLN d   1      78.397 -29.668 202.476  0.00  0.00     0.042 H 
BRANCH  78  80
ATOM     80  CG1 GLN d   1      77.353 -29.173 204.264  0.00  0.00    -0.071 C 
ATOM     81  H40 GLN d   1      77.801 -28.171 204.343  0.00  0.00     0.028 H 
ATOM     82  H41 GLN d   1      77.192 -29.583 205.272  0.00  0.00     0.028 H 
ATOM     83  H42 GLN d   1      76.389 -29.104 203.738  0.00  0.00     0.028 H 
ENDBRANCH  78  80
BRANCH  78  84
ATOM     84  CG2 GLN d   1      79.671 -30.105 204.125  0.00  0.00    -0.071 C 
ATOM     85  H43 GLN d   1      80.334 -30.770 203.552  0.00  0.00     0.028 H 
ATOM     86  H44 GLN d   1      79.592 -30.470 205.160  0.00  0.00     0.028 H 
ATOM     87  H45 GLN d   1      80.086 -29.086 204.126  0.00  0.00     0.028 H 
ENDBRANCH  78  84
ENDBRANCH   7  78
ENDBRANCH   4   7
ENDBRANCH   1   3
BRANCH   1  88
ATOM     88  C   GLN d   1      76.340 -34.859 205.611  0.00  0.00     0.243 C 
ATOM     89  O   GLN d   1      76.811 -35.562 206.501  0.00  0.00    -0.271 OA
ATOM     90  N   GLN d   1      76.360 -35.184 204.304  0.00  0.00    -0.345 N 
ATOM     91  H53 GLN d   1      76.139 -34.458 203.653  0.00  0.00     0.163 HD
BRANCH  90  92
ATOM     92  CA  GLN d   1      76.682 -36.530 203.734  0.00  0.00     0.098 C 
ATOM     93  H54 GLN d   1      76.020 -37.263 204.219  0.00  0.00     0.088 H 
BRANCH  92  94
ATOM     94  C   GLN d   1      78.142 -36.966 203.919  0.00  0.00     0.241 C 
ATOM     95  O   GLN d   1      78.372 -38.203 203.931  0.00  0.00    -0.271 OA
ATOM     96  N   GLN d   1      79.086 -36.016 203.979  0.00  0.00    -0.346 N 
ATOM     97  H57 GLN d   1      78.779 -35.066 204.041  0.00  0.00     0.163 HD
BRANCH  96  98
ATOM     98  CA  GLN d   1      80.554 -36.262 203.961  0.00  0.00     0.093 C 
ATOM     99  H58 GLN d   1      80.740 -37.199 203.415  0.00  0.00     0.088 H 
BRANCH  98 100
ATOM    100  C   GLN d   1      81.059 -36.462 205.393  0.00  0.00     0.241 C 
ATOM    101  O   GLN d   1      81.739 -37.470 205.647  0.00  0.00    -0.271 OA
ATOM    102  N   GLN d   1      80.696 -35.559 206.304  0.00  0.00    -0.346 N 
ATOM    103  H66 GLN d   1      80.155 -34.777 205.994  0.00  0.00     0.163 HD
BRANCH 102 104
ATOM    104  CA  GLN d   1      81.039 -35.632 207.752  0.00  0.00     0.093 C 
ATOM    105  H67 GLN d   1      81.724 -36.477 207.914  0.00  0.00     0.088 H 
BRANCH 104 106
ATOM    106  C   GLN d   1      79.747 -35.897 208.553  0.00  0.00     0.241 C 
ATOM    107  O   GLN d   1      78.684 -35.508 208.033  0.00  0.00    -0.271 OA
ATOM    108  N   GLN d   1      79.822 -36.526 209.749  0.00  0.00    -0.346 N 
ATOM    109  H75 GLN d   1      80.722 -36.860 210.028  0.00  0.00     0.163 HD
BRANCH 108 110
ATOM    110  CA  GLN d   1      78.687 -36.771 210.697  0.00  0.00     0.086 C 
ATOM    111  H76 GLN d   1      77.898 -36.038 210.475  0.00  0.00     0.086 H 
BRANCH 110 112
ATOM    112  C   GLN d   1      79.111 -36.583 212.192  0.00  0.00     0.240 C 
ATOM    113  O   GLN d   1      80.348 -36.529 212.515  0.00  0.00    -0.271 OA
ATOM    114  N   GLN d   1      78.101 -36.378 213.070  0.00  0.00    -0.345 N 
ATOM    115  H80 GLN d   1      77.169 -36.498 212.728  0.00  0.00     0.163 HD
BRANCH 114 116
ATOM    116  CA  GLN d   1      78.255 -35.988 214.507  0.00  0.00     0.096 C 
ATOM    117  H81 GLN d   1      78.662 -34.967 214.546  0.00  0.00     0.089 H 
BRANCH 116 118
ATOM    118  C   GLN d   1      79.247 -36.942 215.203  0.00  0.00     0.196 C 
ATOM    119  O   GLN d   1      79.429 -36.950 216.466  0.00  0.00    -0.646 OA
ATOM    120  OXT GLN d   1      79.955 -37.790 214.565  0.00  0.00    -0.646 OA
ENDBRANCH 116 118
BRANCH 116 121
ATOM    121  CB  GLN d   1      76.904 -35.998 215.249  0.00  0.00    -0.035 C 
ATOM    122  H82 GLN d   1      77.094 -35.732 216.299  0.00  0.00     0.036 H 
ATOM    123  H83 GLN d   1      76.498 -37.019 215.197  0.00  0.00     0.036 H 
BRANCH 121 124
ATOM    124  CG  GLN d   1      75.838 -35.042 214.709  0.00  0.00    -0.047 C 
ATOM    125  H84 GLN d   1      75.899 -35.032 213.611  0.00  0.00     0.035 H 
ATOM    126  H85 GLN d   1      76.042 -34.033 215.097  0.00  0.00     0.035 H 
BRANCH 124 127
ATOM    127  CD  GLN d   1      74.424 -35.444 215.115  0.00  0.00     0.009 C 
ATOM    128  H86 GLN d   1      74.217 -35.033 216.114  0.00  0.00     0.064 H 
ATOM    129  H87 GLN d   1      74.370 -36.542 215.152  0.00  0.00     0.064 H 
BRANCH 127 130
ATOM    130  NE  GLN d   1      73.395 -34.959 214.190  0.00  0.00    -0.227 N 
ATOM    131  CZ  GLN d   1      72.074 -35.142 214.333  0.00  0.00     0.665 C 
ATOM    132  NH1 GLN d   1      71.589 -35.800 215.379  0.00  0.00    -0.235 N 
ATOM    133  NH2 GLN d   1      71.242 -34.661 213.420  0.00  0.00    -0.235 N 
ATOM    134  H89 GLN d   1      70.572 -35.934 215.477  0.00  0.00     0.174 HD
ATOM    135  H90 GLN d   1      72.229 -36.177 216.092  0.00  0.00     0.174 HD
ATOM    136  H91 GLN d   1      71.611 -34.149 212.606  0.00  0.00     0.174 HD
ATOM    137  H92 GLN d   1      70.227 -34.799 213.525  0.00  0.00     0.174 HD
ATOM    138  H88 GLN d   1      73.713 -34.435 213.362  0.00  0.00     0.177 HD
ENDBRANCH 127 130
ENDBRANCH 124 127
ENDBRANCH 121 124
ENDBRANCH 116 121
ENDBRANCH 114 116
ENDBRANCH 110 112
BRANCH 110 139
ATOM    139  CB  GLN d   1      78.117 -38.159 210.490  0.00  0.00    -0.049 C 
ATOM    140  H77 GLN d   1      77.286 -38.323 211.192  0.00  0.00     0.030 H 
ATOM    141  H78 GLN d   1      78.902 -38.908 210.670  0.00  0.00     0.030 H 
ATOM    142  H79 GLN d   1      77.749 -38.254 209.458  0.00  0.00     0.030 H 
ENDBRANCH 110 139
ENDBRANCH 108 110
ENDBRANCH 104 106
BRANCH 104 143
ATOM    143  CB  GLN d   1      81.763 -34.346 208.178  0.00  0.00    -0.014 C 
ATOM    144  H68 GLN d   1      82.547 -34.632 208.894  0.00  0.00     0.043 H 
ATOM    145  H69 GLN d   1      81.025 -33.704 208.680  0.00  0.00     0.043 H 
BRANCH 143 146
ATOM    146  CG  GLN d   1      82.422 -33.516 207.090  0.00  0.00    -0.056 A 
ATOM    147  CD1 GLN d   1      81.775 -32.416 206.535  0.00  0.00    -0.077 A 
ATOM    148  CE1 GLN d   1      82.399 -31.636 205.576  0.00  0.00    -0.082 A 
ATOM    149  H70 GLN d   1      80.770 -32.167 206.857  0.00  0.00     0.084 H 
ATOM    150  CZ  GLN d   1      83.678 -31.933 205.161  0.00  0.00    -0.083 A 
ATOM    151  H72 GLN d   1      81.878 -30.787 205.149  0.00  0.00     0.083 H 
ATOM    152  CE2 GLN d   1      84.338 -33.006 205.701  0.00  0.00    -0.082 A 
ATOM    153  H74 GLN d   1      84.162 -31.320 204.409  0.00  0.00     0.083 H 
ATOM    154  CD2 GLN d   1      83.722 -33.785 206.672  0.00  0.00    -0.077 A 
ATOM    155  H73 GLN d   1      85.342 -33.247 205.370  0.00  0.00     0.083 H 
ATOM    156  H71 GLN d   1      84.262 -34.616 207.111  0.00  0.00     0.084 H 
ENDBRANCH 143 146
ENDBRANCH 104 143
ENDBRANCH 102 104
ENDBRANCH  98 100
BRANCH  98 157
ATOM    157  CB  GLN d   1      81.253 -35.140 203.191  0.00  0.00    -0.014 C 
ATOM    158  H59 GLN d   1      82.336 -35.335 203.186  0.00  0.00     0.043 H 
ATOM    159  H60 GLN d   1      81.055 -34.185 203.699  0.00  0.00     0.043 H 
BRANCH 157 160
ATOM    160  CG  GLN d   1      80.771 -35.040 201.763  0.00  0.00    -0.056 A 
ATOM    161  CD1 GLN d   1      81.335 -35.821 200.762  0.00  0.00    -0.077 A 
ATOM    162  CE1 GLN d   1      80.866 -35.748 199.458  0.00  0.00    -0.082 A 
ATOM    163  H61 GLN d   1      82.150 -36.494 201.002  0.00  0.00     0.084 H 
ATOM    164  CZ  GLN d   1      79.822 -34.906 199.143  0.00  0.00    -0.083 A 
ATOM    165  H63 GLN d   1      81.323 -36.355 198.685  0.00  0.00     0.083 H 
ATOM    166  CE2 GLN d   1      79.236 -34.146 200.128  0.00  0.00    -0.082 A 
ATOM    167  H65 GLN d   1      79.464 -34.843 198.122  0.00  0.00     0.083 H 
ATOM    168  CD2 GLN d   1      79.704 -34.218 201.431  0.00  0.00    -0.077 A 
ATOM    169  H64 GLN d   1      78.408 -33.490 199.885  0.00  0.00     0.083 H 
ATOM    170  H62 GLN d   1      79.229 -33.623 202.202  0.00  0.00     0.084 H 
ENDBRANCH 157 160
ENDBRANCH  98 157
ENDBRANCH  96  98
ENDBRANCH  92  94
BRANCH  92 171
ATOM    171  CB  GLN d   1      76.483 -36.578 202.220  0.00  0.00     0.043 C 
ATOM    172  H55 GLN d   1      76.756 -37.581 201.859  0.00  0.00     0.052 H 
ATOM    173  H56 GLN d   1      77.139 -35.829 201.753  0.00  0.00     0.052 H 
BRANCH 171 174
ATOM    174  CG  GLN d   1      75.017 -36.282 201.808  0.00  0.00     0.175 C 
ATOM    175  OD1 GLN d   1      74.119 -36.909 202.430  0.00  0.00    -0.648 OA
ATOM    176  OD2 GLN d   1      74.793 -35.636 200.901  0.00  0.00    -0.648 OA
ENDBRANCH 171 174
ENDBRANCH  92 171
ENDBRANCH  90  92
ENDBRANCH   1  88
BRANCH   1 177
ATOM    177  CB  GLN d   1      74.307 -33.267 206.232  0.00  0.00     0.060 C 
ATOM    178  H48 GLN d   1      74.086 -32.224 205.962  0.00  0.00     0.086 H 
BRANCH 177 179
ATOM    179  OG1 GLN d   1      73.948 -33.459 207.598  0.00  0.00    -0.393 OA
ATOM    180  H49 GLN d   1      73.013 -33.329 207.700  0.00  0.00     0.210 HD
ENDBRANCH 177 179
BRANCH 177 181
ATOM    181  CG2 GLN d   1      73.435 -34.152 205.369  0.00  0.00    -0.050 C 
ATOM    182  H50 GLN d   1      72.376 -33.936 205.575  0.00  0.00     0.031 H 
ATOM    183  H51 GLN d   1      73.645 -35.208 205.596  0.00  0.00     0.031 H 
ATOM    184  H52 GLN d   1      73.650 -33.956 204.308  0.00  0.00     0.031 H 
ENDBRANCH 177 181
ENDBRANCH   1 177
TORSDOF 48
