REMARK  11 active torsions:
REMARK  status: ('A' for Active; 'I' for Inactive)
REMARK    1  A    between atoms: CAT_20  and  OAB_2 
REMARK    2  A    between atoms: CAU_21  and  OAC_3 
REMARK    3  A    between atoms: CAV_22  and  OAD_4 
REMARK    4  A    between atoms: CAW_23  and  OAE_5 
REMARK    5  A    between atoms: CAX_24  and  OAF_6 
REMARK    6  A    between atoms: CAY_25  and  OAG_7 
REMARK    7  A    between atoms: CBB_28  and  OAH_8 
REMARK    8  A    between atoms: OAQ_17  and  CAS_19 
REMARK    9  A    between atoms: CBE_31  and  OAQ_17 
REMARK   10  A    between atoms: CAS_19  and  CAZ_26 
REMARK   11  A    between atoms: CBA_27  and  CBF_32 
ROOT
ATOM      1  CAK XEG d   1     -27.239  28.768  18.865  0.00  0.00    -0.018 A 
ATOM      2  CAN XEG d   1     -26.176  27.627  17.022  0.00  0.00    -0.018 A 
ATOM      3  CAP XEG d   1     -23.933  27.196  20.009  0.00  0.00    -0.008 C 
ATOM      4  OAR XEG d   1     -24.146  26.454  17.317  0.00  0.00    -0.338 OA
ATOM      5  CAT XEG d   1     -27.215  28.376  17.533  0.00  0.00     0.071 A 
ATOM      6  CAY XEG d   1     -26.197  28.366  19.698  0.00  0.00     0.077 A 
ATOM      7  CBC XEG d   1     -25.146  27.244  17.861  0.00  0.00     0.081 A 
ATOM      8  CBD XEG d   1     -25.141  27.588  19.202  0.00  0.00     0.011 A 
ATOM      9  CBE XEG d   1     -22.765  26.778  19.110  0.00  0.00     0.081 C 
ATOM     10  CBF XEG d   1     -23.311  25.660  18.272  0.00  0.00     0.096 C 
ATOM     11  H10 XEG d   1     -28.052  29.374  19.249  0.00  0.00     0.092 H 
ATOM     12  H13 XEG d   1     -26.167  27.342  15.976  0.00  0.00     0.092 H 
ATOM     13  H15 XEG d   1     -24.199  26.353  20.663  0.00  0.00     0.044 H 
ATOM     14  H16 XEG d   1     -23.621  28.053  20.624  0.00  0.00     0.044 H 
ATOM     15  H17 XEG d   1     -21.954  26.392  19.744  0.00  0.00     0.089 H 
ATOM     16  H18 XEG d   1     -22.468  25.210  17.728  0.00  0.00     0.096 H 
ENDROOT
BRANCH   9  17
ATOM     17  OAQ XEG d   1     -22.178  27.898  18.258  0.00  0.00    -0.309 OA
BRANCH  17  18
ATOM     18  CAS XEG d   1     -21.495  27.750  17.067  0.00  0.00     0.294 C 
ATOM     19  OAA XEG d   1     -21.891  27.113  16.137  0.00  0.00    -0.259 OA
BRANCH  18  20
ATOM     20  CAZ XEG d   1     -20.176  28.456  16.911  0.00  0.00     0.045 A 
ATOM     21  CAL XEG d   1     -19.446  28.083  15.771  0.00  0.00    -0.032 A 
ATOM     22  CAW XEG d   1     -18.185  28.598  15.507  0.00  0.00     0.102 A 
ATOM     23  H11 XEG d   1     -19.880  27.372  15.077  0.00  0.00     0.089 H 
ATOM     24  CBB XEG d   1     -17.640  29.526  16.377  0.00  0.00     0.132 A 
ATOM     25  CAX XEG d   1     -18.350  29.910  17.513  0.00  0.00     0.102 A 
ATOM     26  CAM XEG d   1     -19.620  29.372  17.801  0.00  0.00    -0.032 A 
ATOM     27  H12 XEG d   1     -20.154  29.665  18.698  0.00  0.00     0.089 H 
BRANCH  22  28
ATOM     28  OAE XEG d   1     -17.413  28.270  14.412  0.00  0.00    -0.358 OA
ATOM     29  H4  XEG d   1     -16.593  28.749  14.449  0.00  0.00     0.217 HD
ENDBRANCH  22  28
BRANCH  24  30
ATOM     30  OAH XEG d   1     -16.399  30.016  16.104  0.00  0.00    -0.356 OA
ATOM     31  H7  XEG d   1     -16.150  30.638  16.777  0.00  0.00     0.218 HD
ENDBRANCH  24  30
BRANCH  25  32
ATOM     32  OAF XEG d   1     -17.676  30.832  18.267  0.00  0.00    -0.358 OA
ATOM     33  H5  XEG d   1     -16.843  31.028  17.855  0.00  0.00     0.217 HD
ENDBRANCH  25  32
ENDBRANCH  18  20
ENDBRANCH  17  18
ENDBRANCH   9  17
BRANCH  10  34
ATOM     34  CBA XEG d   1     -24.057  24.464  18.910  0.00  0.00    -0.024 A 
ATOM     35  CAJ XEG d   1     -25.347  24.506  19.458  0.00  0.00    -0.071 A 
ATOM     36  CAI XEG d   1     -26.012  23.349  19.912  0.00  0.00    -0.048 A 
ATOM     37  H9  XEG d   1     -25.851  25.463  19.535  0.00  0.00     0.084 H 
ATOM     38  CAU XEG d   1     -25.417  22.094  19.820  0.00  0.00     0.098 A 
ATOM     39  H8  XEG d   1     -27.004  23.438  20.340  0.00  0.00     0.087 H 
ATOM     40  CAV XEG d   1     -24.167  22.034  19.228  0.00  0.00     0.099 A 
ATOM     41  CAO XEG d   1     -23.482  23.183  18.836  0.00  0.00    -0.040 A 
ATOM     42  H14 XEG d   1     -22.470  23.085  18.461  0.00  0.00     0.088 H 
BRANCH  38  43
ATOM     43  OAC XEG d   1     -25.987  20.888  20.182  0.00  0.00    -0.358 OA
ATOM     44  H2  XEG d   1     -25.369  20.185  20.018  0.00  0.00     0.217 HD
ENDBRANCH  38  43
BRANCH  40  45
ATOM     45  OAD XEG d   1     -23.572  20.791  19.227  0.00  0.00    -0.358 OA
ATOM     46  H3  XEG d   1     -24.198  20.141  19.525  0.00  0.00     0.217 HD
ENDBRANCH  40  45
ENDBRANCH  10  34
BRANCH   6  47
ATOM     47  OAG XEG d   1     -26.202  28.746  21.006  0.00  0.00    -0.360 OA
ATOM     48  H6  XEG d   1     -25.432  28.396  21.439  0.00  0.00     0.217 HD
ENDBRANCH   6  47
BRANCH   5  49
ATOM     49  OAB XEG d   1     -28.205  28.720  16.674  0.00  0.00    -0.361 OA
ATOM     50  H1  XEG d   1     -28.015  28.363  15.814  0.00  0.00     0.217 HD
ENDBRANCH   5  49
TORSDOF 11
