REMARK  21 active torsions:
REMARK  status: ('A' for Active; 'I' for Inactive)
REMARK    1  A    between atoms: N1_12  and  C4_1 
REMARK    2  A    between atoms: C19_21  and  C14_2 
REMARK    3  A    between atoms: C14_2  and  N6_36 
REMARK    4  A    between atoms: C1_16  and  C5_3 
REMARK    5  A    between atoms: C5_3  and  O2_41 
REMARK    6  A    between atoms: C12_10  and  C11_5 
REMARK    7  A    between atoms: C11_5  and  N5_35 
REMARK    8  A    between atoms: N5_35  and  C10_9 
REMARK    9  A    between atoms: C13_11  and  C12_10 
REMARK   10  A    between atoms: N6_36  and  C13_11 
REMARK   11  A    between atoms: C3_14  and  O4_43 
REMARK   12  A    between atoms: C15_17  and  C16_18 
REMARK   13  A    between atoms: N6_36  and  C15_17 
REMARK   14  A    between atoms: C16_18  and  C17_19 
REMARK   15  A    between atoms: C17_19  and  C18_20 
REMARK   16  A    between atoms: C17_19  and  N7_37 
REMARK   17  A    between atoms: C2_22  and  O3_42 
REMARK   18  A    between atoms: C20_23  and  O8_47 
REMARK   19  A    between atoms: C21_24  and  O9_48 
REMARK   20  A    between atoms: N8_38  and  C22_25 
REMARK   21  A    between atoms: C27_30  and  N12_33 
ROOT
ATOM      1  N6  HY8 d   1      15.875  -0.261  19.257  0.00  0.00    -0.068 N 
ATOM      2  H31 HY8 d   1      16.800   0.066  19.487  0.00  0.00     0.280 HD
ENDROOT
BRANCH   1   3
ATOM      3  C14 HY8 d   1      14.911   0.810  19.575  0.00  0.00     0.110 C 
ATOM      4  H2  HY8 d   1      14.065   0.724  18.877  0.00  0.00     0.080 H 
ATOM      5  H3  HY8 d   1      14.555   0.652  20.604  0.00  0.00     0.080 H 
BRANCH   3   6
ATOM      6  C19 HY8 d   1      15.481   2.289  19.475  0.00  0.00     0.091 C 
ATOM      7  C20 HY8 d   1      15.692   3.026  20.558  0.00  0.00     0.091 C 
ATOM      8  C21 HY8 d   1      16.737   4.229  19.983  0.00  0.00     0.105 C 
ATOM      9  H23 HY8 d   1      14.734   3.451  20.892  0.00  0.00     0.091 H 
ATOM     10  C22 HY8 d   1      16.810   4.022  18.748  0.00  0.00     0.139 C 
ATOM     11  H24 HY8 d   1      16.355   5.238  20.196  0.00  0.00     0.093 H 
ATOM     12  O7  HY8 d   1      16.743   2.411  18.617  0.00  0.00    -0.354 OA
ATOM     13  H25 HY8 d   1      17.756   4.407  18.340  0.00  0.00     0.122 H 
ATOM     14  H21 HY8 d   1      14.690   2.824  18.929  0.00  0.00     0.090 H 
BRANCH   7  15
ATOM     15  O8  HY8 d   1      16.331   2.428  21.688  0.00  0.00    -0.390 OA
ATOM     16  H38 HY8 d   1      16.481   3.090  22.352  0.00  0.00     0.210 HD
ENDBRANCH   7  15
BRANCH   8  17
ATOM     17  O9  HY8 d   1      18.041   4.029  20.612  0.00  0.00    -0.388 OA
ATOM     18  H39 HY8 d   1      17.969   4.189  21.546  0.00  0.00     0.210 HD
ENDBRANCH   8  17
BRANCH  10  19
ATOM     19  N8  HY8 d   1      15.668   4.668  18.050  0.00  0.00    -0.294 N 
ATOM     20  C23 HY8 d   1      15.472   4.642  16.712  0.00  0.00     0.167 A 
ATOM     21  C24 HY8 d   1      14.325   5.377  16.468  0.00  0.00     0.149 A 
ATOM     22  N10 HY8 d   1      16.127   4.087  15.680  0.00  0.00    -0.222 NA
ATOM     23  C27 HY8 d   1      13.905   5.513  15.129  0.00  0.00     0.155 A 
ATOM     24  N9  HY8 d   1      13.868   5.815  17.661  0.00  0.00    -0.236 NA
ATOM     25  N11 HY8 d   1      14.608   4.930  14.162  0.00  0.00    -0.222 NA
ATOM     26  C26 HY8 d   1      15.705   4.231  14.436  0.00  0.00     0.091 A 
ATOM     27  H27 HY8 d   1      16.262   3.772  13.627  0.00  0.00     0.146 H 
ATOM     28  C25 HY8 d   1      14.689   5.381  18.607  0.00  0.00     0.071 A 
ATOM     29  H26 HY8 d   1      14.581   5.576  19.673  0.00  0.00     0.144 H 
BRANCH  23  30
ATOM     30  N12 HY8 d   1      12.724   6.263  14.813  0.00  0.00    -0.382 N 
ATOM     31  H28 HY8 d   1      12.422   6.359  13.833  0.00  0.00     0.157 HD
ATOM     32  H29 HY8 d   1      12.178   6.705  15.566  0.00  0.00     0.157 HD
ENDBRANCH  23  30
ENDBRANCH  10  19
ENDBRANCH   3   6
ENDBRANCH   1   3
BRANCH   1  33
ATOM     33  C13 HY8 d   1      15.909  -0.758  17.852  0.00  0.00     0.085 C 
ATOM     34  H12 HY8 d   1      16.954  -1.007  17.615  0.00  0.00     0.076 H 
ATOM     35  H13 HY8 d   1      15.296  -1.670  17.810  0.00  0.00     0.076 H 
BRANCH  33  36
ATOM     36  C12 HY8 d   1      15.399   0.194  16.750  0.00  0.00    -0.028 C 
ATOM     37  H10 HY8 d   1      15.444   1.227  17.125  0.00  0.00     0.037 H 
ATOM     38  H11 HY8 d   1      16.049   0.095  15.868  0.00  0.00     0.037 H 
BRANCH  36  39
ATOM     39  C11 HY8 d   1      13.950  -0.120  16.336  0.00  0.00    -0.004 C 
ATOM     40  H6  HY8 d   1      13.264   0.261  17.106  0.00  0.00     0.064 H 
ATOM     41  H7  HY8 d   1      13.829  -1.209  16.244  0.00  0.00     0.064 H 
BRANCH  39  42
ATOM     42  N5  HY8 d   1      13.629   0.512  15.048  0.00  0.00    -0.373 N 
ATOM     43  H30 HY8 d   1      14.143   0.203  14.210  0.00  0.00     0.161 HD
BRANCH  42  44
ATOM     44  C10 HY8 d   1      12.599   1.577  14.892  0.00  0.00     0.157 A 
ATOM     45  C7  HY8 d   1      12.192   2.430  15.959  0.00  0.00     0.149 A 
ATOM     46  C6  HY8 d   1      11.228   3.412  15.710  0.00  0.00     0.167 A 
ATOM     47  N2  HY8 d   1      12.527   2.556  17.269  0.00  0.00    -0.236 NA
ATOM     48  N1  HY8 d   1      10.996   4.062  16.877  0.00  0.00    -0.294 N 
ATOM     49  N3  HY8 d   1      10.709   3.525  14.474  0.00  0.00    -0.222 NA
ATOM     50  C8  HY8 d   1      11.805   3.542  17.799  0.00  0.00     0.071 A 
ATOM     51  H8  HY8 d   1      11.867   3.874  18.834  0.00  0.00     0.144 H 
ATOM     52  C9  HY8 d   1      11.112   2.703  13.505  0.00  0.00     0.091 A 
ATOM     53  N4  HY8 d   1      12.034   1.753  13.697  0.00  0.00    -0.222 NA
ATOM     54  H9  HY8 d   1      10.674   2.809  12.519  0.00  0.00     0.146 H 
BRANCH  48  55
ATOM     55  C4  HY8 d   1      10.068   5.238  17.178  0.00  0.00     0.139 C 
ATOM     56  C3  HY8 d   1       8.797   5.185  17.389  0.00  0.00     0.105 C 
ATOM     57  C2  HY8 d   1       8.584   6.805  17.766  0.00  0.00     0.091 C 
ATOM     58  H14 HY8 d   1       8.539   4.497  18.208  0.00  0.00     0.093 H 
ATOM     59  C1  HY8 d   1       9.793   7.213  17.568  0.00  0.00     0.088 C 
ATOM     60  H22 HY8 d   1       8.264   6.966  18.806  0.00  0.00     0.091 H 
ATOM     61  O1  HY8 d   1      10.205   6.490  16.267  0.00  0.00    -0.353 OA
ATOM     62  H15 HY8 d   1      10.382   6.778  18.389  0.00  0.00     0.090 H 
ATOM     63  H1  HY8 d   1      10.464   5.554  18.154  0.00  0.00     0.122 H 
BRANCH  56  64
ATOM     64  O4  HY8 d   1       7.972   4.897  16.200  0.00  0.00    -0.388 OA
ATOM     65  H37 HY8 d   1       8.072   3.983  15.961  0.00  0.00     0.210 HD
ENDBRANCH  56  64
BRANCH  57  66
ATOM     66  O3  HY8 d   1       7.601   7.370  16.852  0.00  0.00    -0.390 OA
ATOM     67  H36 HY8 d   1       7.830   7.138  15.960  0.00  0.00     0.210 HD
ENDBRANCH  57  66
BRANCH  59  68
ATOM     68  C5  HY8 d   1      10.215   8.728  17.574  0.00  0.00     0.043 C 
ATOM     69  H4  HY8 d   1       9.675   9.297  18.344  0.00  0.00     0.078 H 
ATOM     70  H5  HY8 d   1      10.057   9.198  16.592  0.00  0.00     0.078 H 
BRANCH  68  71
ATOM     71  O2  HY8 d   1      11.609   8.607  17.885  0.00  0.00    -0.398 OA
ATOM     72  H35 HY8 d   1      12.001   9.472  17.921  0.00  0.00     0.209 HD
ENDBRANCH  68  71
ENDBRANCH  59  68
ENDBRANCH  48  55
ENDBRANCH  42  44
ENDBRANCH  39  42
ENDBRANCH  36  39
ENDBRANCH  33  36
ENDBRANCH   1  33
BRANCH   1  73
ATOM     73  C15 HY8 d   1      15.490  -1.396  20.159  0.00  0.00     0.086 C 
ATOM     74  H16 HY8 d   1      14.796  -1.036  20.933  0.00  0.00     0.076 H 
ATOM     75  H17 HY8 d   1      15.004  -2.189  19.571  0.00  0.00     0.076 H 
BRANCH  73  76
ATOM     76  C16 HY8 d   1      16.763  -1.948  20.821  0.00  0.00    -0.006 C 
ATOM     77  H18 HY8 d   1      17.568  -1.211  20.684  0.00  0.00     0.039 H 
ATOM     78  H19 HY8 d   1      17.034  -2.886  20.314  0.00  0.00     0.039 H 
BRANCH  76  79
ATOM     79  C17 HY8 d   1      16.629  -2.238  22.330  0.00  0.00     0.184 C 
ATOM     80  H20 HY8 d   1      17.266  -3.099  22.583  0.00  0.00     0.101 H 
BRANCH  79  81
ATOM     81  C18 HY8 d   1      17.164  -1.004  23.021  0.00  0.00     0.204 C 
ATOM     82  O5  HY8 d   1      18.183  -0.455  22.494  0.00  0.00    -0.646 OA
ATOM     83  O6  HY8 d   1      16.605  -0.554  24.077  0.00  0.00    -0.646 OA
ENDBRANCH  79  81
BRANCH  79  84
ATOM     84  N7  HY8 d   1      15.279  -2.557  22.755  0.00  0.00    -0.065 N 
ATOM     85  H32 HY8 d   1      15.272  -2.733  23.747  0.00  0.00     0.275 HD
ATOM     86  H33 HY8 d   1      14.958  -3.378  22.266  0.00  0.00     0.275 HD
ATOM     87  H34 HY8 d   1      14.669  -1.782  22.547  0.00  0.00     0.275 HD
ENDBRANCH  79  84
ENDBRANCH  76  79
ENDBRANCH  73  76
ENDBRANCH   1  73
TORSDOF 21
