REMARK  5 active torsions:
REMARK  status: ('A' for Active; 'I' for Inactive)
REMARK    1  A    between atoms: C19_10  and  C1_1 
REMARK    2  A    between atoms: C8_4  and  N9_20 
REMARK    3  A    between atoms: C12_7  and  C15_9 
REMARK    4  A    between atoms: C12_7  and  O14_21 
REMARK       I    between atoms: C15_9  and  N17_23 
REMARK    5  A    between atoms: N17_23  and  C19_10 
ROOT
ATOM      1  C10 HZK d   1      24.932  21.860  19.944  0.00  0.00     0.006 C 
ATOM      2  C11 HZK d   1      23.810  22.168  18.933  0.00  0.00    -0.004 C 
ATOM      3  C12 HZK d   1      24.571  22.386  17.609  0.00  0.00     0.221 C 
ATOM      4  C13 HZK d   1      26.005  22.017  17.892  0.00  0.00     0.268 C 
ATOM      5  N9  HZK d   1      26.178  21.738  19.190  0.00  0.00    -0.315 N 
ATOM      6  O16 HZK d   1      26.866  22.012  17.050  0.00  0.00    -0.269 OA
ATOM      7  H2  HZK d   1      24.717  20.918  20.469  0.00  0.00     0.065 H 
ATOM      8  H3  HZK d   1      25.014  22.677  20.676  0.00  0.00     0.065 H 
ATOM      9  H4  HZK d   1      23.257  23.074  19.223  0.00  0.00     0.041 H 
ATOM     10  H5  HZK d   1      23.111  21.322  18.851  0.00  0.00     0.041 H 
ENDROOT
BRANCH   3  11
ATOM     11  C15 HZK d   1      23.962  21.558  16.510  0.00  0.00     0.262 C 
ATOM     12  N17 HZK d   1      24.321  20.286  16.383  0.00  0.00    -0.354 N 
ATOM     13  H16 HZK d   1      24.985  19.900  17.023  0.00  0.00     0.162 HD
ATOM     14  O18 HZK d   1      23.156  22.029  15.749  0.00  0.00    -0.270 OA
BRANCH  12  15
ATOM     15  C19 HZK d   1      23.770  19.438  15.333  0.00  0.00     0.019 C 
ATOM     16  H6  HZK d   1      22.707  19.229  15.522  0.00  0.00     0.071 H 
ATOM     17  H7  HZK d   1      23.881  19.918  14.349  0.00  0.00     0.071 H 
BRANCH  15  18
ATOM     18  C1  HZK d   1      24.573  18.180  15.398  0.00  0.00    -0.036 A 
ATOM     19  C2  HZK d   1      25.934  18.286  15.563  0.00  0.00    -0.054 A 
ATOM     20  C3  HZK d   1      26.704  17.151  15.640  0.00  0.00     0.037 A 
ATOM     21  H1  HZK d   1      26.398  19.263  15.632  0.00  0.00     0.086 H 
ATOM     22  C4  HZK d   1      26.116  15.908  15.557  0.00  0.00    -0.025 A 
ATOM     23 CL7  HZK d   1      28.413  17.313  15.845  0.00  0.00    -0.084 Cl
ATOM     24  C5  HZK d   1      24.746  15.807  15.398  0.00  0.00     0.118 A 
ATOM     25  H13 HZK d   1      26.725  15.013  15.616  0.00  0.00     0.090 H 
ATOM     26  C6  HZK d   1      23.971  16.944  15.322  0.00  0.00    -0.038 A 
ATOM     27  F20 HZK d   1      24.167  14.600  15.319  0.00  0.00    -0.206 F 
ATOM     28  H14 HZK d   1      22.896  16.866  15.203  0.00  0.00     0.089 H 
ENDBRANCH  15  18
ENDBRANCH  12  15
ENDBRANCH   3  11
BRANCH   3  29
ATOM     29  O14 HZK d   1      24.584  23.767  17.240  0.00  0.00    -0.372 OA
ATOM     30  H15 HZK d   1      24.936  24.282  17.957  0.00  0.00     0.211 HD
ENDBRANCH   3  29
BRANCH   5  31
ATOM     31  C8  HZK d   1      27.398  21.423  19.796  0.00  0.00     0.037 A 
ATOM     32  C21 HZK d   1      27.578  20.316  20.611  0.00  0.00    -0.049 A 
ATOM     33  C25 HZK d   1      28.813  20.095  21.199  0.00  0.00    -0.029 A 
ATOM     34  H8  HZK d   1      26.759  19.628  20.787  0.00  0.00     0.087 H 
ATOM     35  C24 HZK d   1      29.852  20.992  20.996  0.00  0.00     0.041 A 
ATOM     36  C26 HZK d   1      29.031  18.886  22.070  0.00  0.00    -0.031 C 
ATOM     37  C22 HZK d   1      29.659  22.108  20.202  0.00  0.00    -0.054 A 
ATOM     38  N29 HZK d   1      31.103  20.788  21.589  0.00  0.00    -0.327 N 
ATOM     39  C23 HZK d   1      28.437  22.323  19.618  0.00  0.00    -0.055 A 
ATOM     40  H9  HZK d   1      30.470  22.809  20.042  0.00  0.00     0.087 H 
ATOM     41  H17 HZK d   1      28.282  23.207  19.010  0.00  0.00     0.087 H 
ATOM     42  C28 HZK d   1      31.447  19.600  22.109  0.00  0.00     0.222 C 
ATOM     43  H12 HZK d   1      31.755  21.545  21.626  0.00  0.00     0.169 HD
ATOM     44  C27 HZK d   1      30.497  18.434  22.060  0.00  0.00     0.013 C 
ATOM     45  O30 HZK d   1      32.543  19.467  22.615  0.00  0.00    -0.273 OA
ATOM     46  H10 HZK d   1      30.686  17.861  21.140  0.00  0.00     0.047 H 
ATOM     47  H11 HZK d   1      30.677  17.793  22.935  0.00  0.00     0.047 H 
ATOM     48  H18 HZK d   1      28.742  19.134  23.102  0.00  0.00     0.040 H 
ATOM     49  H19 HZK d   1      28.402  18.063  21.700  0.00  0.00     0.040 H 
ENDBRANCH   5  31
TORSDOF 5
