REMARK  5 active torsions:
REMARK  status: ('A' for Active; 'I' for Inactive)
REMARK    1  A    between atoms: C2_2  and  C1_1 
REMARK    2  A    between atoms: N3_15  and  C2_2 
REMARK    3  A    between atoms: N8_18  and  C11_7 
REMARK       I    between atoms: C4_16  and  N3_15 
REMARK    4  A    between atoms: C4_16  and  C6_17 
REMARK    5  A    between atoms: C6_17  and  O13_20 
ROOT
ATOM      1  C7  HZW d   1     -25.845 -22.147  17.724  0.00  0.00     0.268 C 
ATOM      2  C9  HZW d   1     -24.637 -21.822  19.737  0.00  0.00     0.006 C 
ATOM      3  C10 HZW d   1     -23.655 -22.476  18.776  0.00  0.00    -0.004 C 
ATOM      4  C6  HZW d   1     -24.401 -22.592  17.430  0.00  0.00     0.221 C 
ATOM      5  N8  HZW d   1     -25.923 -21.763  19.030  0.00  0.00    -0.315 N 
ATOM      6  O12 HZW d   1     -26.761 -22.143  16.930  0.00  0.00    -0.269 OA
ATOM      7  H3  HZW d   1     -24.298 -20.808  19.998  0.00  0.00     0.065 H 
ATOM      8  H4  HZW d   1     -24.733 -22.424  20.653  0.00  0.00     0.065 H 
ATOM      9  H5  HZW d   1     -23.367 -23.473  19.142  0.00  0.00     0.041 H 
ATOM     10  H6  HZW d   1     -22.756 -21.852  18.663  0.00  0.00     0.041 H 
ENDROOT
BRANCH   4  11
ATOM     11  C4  HZW d   1     -23.758 -21.712  16.355  0.00  0.00     0.262 C 
ATOM     12  O5  HZW d   1     -23.064 -22.195  15.477  0.00  0.00    -0.270 OA
ATOM     13  N3  HZW d   1     -23.999 -20.408  16.425  0.00  0.00    -0.354 N 
ATOM     14  H12 HZW d   1     -24.473 -20.044  17.227  0.00  0.00     0.162 HD
BRANCH  13  15
ATOM     15  C2  HZW d   1     -23.593 -19.496  15.369  0.00  0.00     0.019 C 
ATOM     16  H1  HZW d   1     -22.540 -19.217  15.521  0.00  0.00     0.071 H 
ATOM     17  H2  HZW d   1     -23.702 -20.000  14.397  0.00  0.00     0.071 H 
BRANCH  15  18
ATOM     18  C1  HZW d   1     -24.437 -18.251  15.374  0.00  0.00    -0.036 A 
ATOM     19  C19 HZW d   1     -25.811 -18.347  15.545  0.00  0.00    -0.054 A 
ATOM     20  C20 HZW d   1     -26.568 -17.202  15.644  0.00  0.00     0.037 A 
ATOM     21  H10 HZW d   1     -26.286 -19.320  15.600  0.00  0.00     0.086 H 
ATOM     22  C21 HZW d   1     -26.005 -15.948  15.567  0.00  0.00    -0.025 A 
ATOM     23 CL1  HZW d   1     -28.284 -17.344  15.896  0.00  0.00    -0.084 Cl
ATOM     24  C22 HZW d   1     -24.649 -15.892  15.392  0.00  0.00     0.118 A 
ATOM     25  H11 HZW d   1     -26.606 -15.049  15.641  0.00  0.00     0.090 H 
ATOM     26  C23 HZW d   1     -23.849 -16.997  15.285  0.00  0.00    -0.038 A 
ATOM     27  F25 HZW d   1     -24.060 -14.677  15.351  0.00  0.00    -0.206 F 
ATOM     28  H16 HZW d   1     -22.780 -16.895  15.134  0.00  0.00     0.089 H 
ENDBRANCH  15  18
ENDBRANCH  13  15
ENDBRANCH   4  11
BRANCH   4  29
ATOM     29  O13 HZW d   1     -24.602 -23.932  17.007  0.00  0.00    -0.372 OA
ATOM     30  H13 HZW d   1     -25.116 -24.395  17.658  0.00  0.00     0.211 HD
ENDBRANCH   4  29
BRANCH   5  31
ATOM     31  C11 HZW d   1     -27.113 -21.414  19.727  0.00  0.00     0.037 A 
ATOM     32  C14 HZW d   1     -28.222 -22.245  19.657  0.00  0.00    -0.057 A 
ATOM     33  C15 HZW d   1     -29.366 -21.923  20.363  0.00  0.00    -0.081 A 
ATOM     34  H7  HZW d   1     -28.191 -23.143  19.051  0.00  0.00     0.086 H 
ATOM     35  C16 HZW d   1     -29.411 -20.785  21.132  0.00  0.00    -0.083 A 
ATOM     36  H8  HZW d   1     -30.233 -22.572  20.310  0.00  0.00     0.083 H 
ATOM     37  C17 HZW d   1     -28.315 -19.959  21.201  0.00  0.00    -0.081 A 
ATOM     38  H9  HZW d   1     -30.311 -20.539  21.684  0.00  0.00     0.083 H 
ATOM     39  C18 HZW d   1     -27.163 -20.265  20.500  0.00  0.00    -0.057 A 
ATOM     40  H14 HZW d   1     -28.354 -19.062  21.809  0.00  0.00     0.083 H 
ATOM     41  H15 HZW d   1     -26.302 -19.608  20.555  0.00  0.00     0.086 H 
ENDBRANCH   5  31
TORSDOF 5
