REMARK  9 active torsions:
REMARK  status: ('A' for Active; 'I' for Inactive)
REMARK    1  A    between atoms: C09_19  and  C10_1 
REMARK    2  A    between atoms: C12_21  and  C15_3 
REMARK    3  A    between atoms: C22_7  and  O23_26 
REMARK    4  A    between atoms: O23_26  and  C24_8 
REMARK    5  A    between atoms: C24_8  and  C25_27 
REMARK    6  A    between atoms: C02_12  and  N01_11 
REMARK    7  A    between atoms: C04_14  and  C02_12 
REMARK    8  A    between atoms: N08_18  and  C07_17 
REMARK    9  A    between atoms: N08_18  and  C09_19 
ROOT
ATOM      1  C21 J08 d   1      -3.137 -14.965  65.924  0.00  0.00    -0.024 A 
ATOM      2  C22 J08 d   1      -2.150 -14.378  65.141  0.00  0.00     0.085 A 
ATOM      3  C04 J08 d   1      -1.836 -14.899  63.868  0.00  0.00     0.040 A 
ATOM      4  C05 J08 d   1      -2.566 -16.003  63.412  0.00  0.00    -0.065 A 
ATOM      5  C06 J08 d   1      -3.568 -16.567  64.176  0.00  0.00    -0.056 A 
ATOM      6  C07 J08 d   1      -3.877 -16.046  65.424  0.00  0.00     0.030 A 
ATOM      7  H4  J08 d   1      -3.335 -14.587  66.921  0.00  0.00     0.091 H 
ATOM      8  H13 J08 d   1      -2.340 -16.424  62.439  0.00  0.00     0.085 H 
ATOM      9  H14 J08 d   1      -4.117 -17.422  63.798  0.00  0.00     0.086 H 
ENDROOT
BRANCH   6  10
ATOM     10  N08 J08 d   1      -4.906 -16.613  66.148  0.00  0.00    -0.383 N 
ATOM     11  H15 J08 d   1      -5.370 -17.448  65.764  0.00  0.00     0.160 HD
BRANCH  10  12
ATOM     12  C09 J08 d   1      -5.369 -16.093  67.424  0.00  0.00     0.047 C 
ATOM     13  H16 J08 d   1      -5.127 -15.021  67.481  0.00  0.00     0.075 H 
ATOM     14  H17 J08 d   1      -6.459 -16.227  67.489  0.00  0.00     0.075 H 
BRANCH  12  15
ATOM     15  C10 J08 d   1      -4.726 -16.796  68.572  0.00  0.00     0.122 A 
ATOM     16  N11 J08 d   1      -5.141 -16.668  69.851  0.00  0.00    -0.232 NA
ATOM     17  C12 J08 d   1      -4.347 -17.497  70.590  0.00  0.00     0.084 A 
ATOM     18  C13 J08 d   1      -3.516 -18.152  69.713  0.00  0.00     0.007 A 
ATOM     19  N14 J08 d   1      -3.758 -17.695  68.440  0.00  0.00    -0.351 N 
ATOM     20  H1  J08 d   1      -2.784 -18.911  69.984  0.00  0.00     0.115 H 
ATOM     21  H18 J08 d   1      -3.289 -17.987  67.570  0.00  0.00     0.166 HD
BRANCH  17  22
ATOM     22  C15 J08 d   1      -4.495 -17.676  72.047  0.00  0.00    -0.006 A 
ATOM     23  C20 J08 d   1      -3.669 -18.562  72.739  0.00  0.00    -0.071 A 
ATOM     24  C19 J08 d   1      -3.839 -18.763  74.104  0.00  0.00    -0.082 A 
ATOM     25  H3  J08 d   1      -2.889 -19.097  72.209  0.00  0.00     0.084 H 
ATOM     26  C18 J08 d   1      -4.818 -18.069  74.796  0.00  0.00    -0.083 A 
ATOM     27  H21 J08 d   1      -3.203 -19.466  74.629  0.00  0.00     0.083 H 
ATOM     28  C17 J08 d   1      -5.671 -17.222  74.114  0.00  0.00    -0.082 A 
ATOM     29  H20 J08 d   1      -4.915 -18.190  75.869  0.00  0.00     0.083 H 
ATOM     30  C16 J08 d   1      -5.501 -17.008  72.751  0.00  0.00    -0.071 A 
ATOM     31  H2  J08 d   1      -6.475 -16.723  74.643  0.00  0.00     0.083 H 
ATOM     32  H19 J08 d   1      -6.154 -16.317  72.230  0.00  0.00     0.084 H 
ENDBRANCH  17  22
ENDBRANCH  12  15
ENDBRANCH  10  12
ENDBRANCH   6  10
BRANCH   2  33
ATOM     33  O23 J08 d   1      -1.410 -13.289  65.532  0.00  0.00    -0.346 OA
BRANCH  33  34
ATOM     34  C24 J08 d   1      -1.496 -12.781  66.868  0.00  0.00     0.051 C 
ATOM     35  H5  J08 d   1      -0.611 -12.160  67.070  0.00  0.00     0.082 H 
ATOM     36  H6  J08 d   1      -1.518 -13.627  67.570  0.00  0.00     0.082 H 
BRANCH  34  37
ATOM     37  C25 J08 d   1      -2.730 -11.950  67.070  0.00  0.00    -0.017 A 
ATOM     38  C26 J08 d   1      -3.384 -11.914  68.298  0.00  0.00    -0.072 A 
ATOM     39  C27 J08 d   1      -4.502 -11.112  68.462  0.00  0.00    -0.065 A 
ATOM     40  H7  J08 d   1      -3.019 -12.512  69.125  0.00  0.00     0.084 H 
ATOM     41  C28 J08 d   1      -4.954 -10.388  67.379  0.00  0.00     0.002 A 
ATOM     42  H22 J08 d   1      -5.009 -11.055  69.418  0.00  0.00     0.085 H 
ATOM     43  N29 J08 d   1      -4.375 -10.438  66.167  0.00  0.00    -0.272 NA
ATOM     44  H8  J08 d   1      -5.818  -9.747  67.511  0.00  0.00     0.114 H 
ATOM     45  C30 J08 d   1      -3.270 -11.193  66.044  0.00  0.00     0.010 A 
ATOM     46  H23 J08 d   1      -2.771 -11.210  65.082  0.00  0.00     0.115 H 
ENDBRANCH  34  37
ENDBRANCH  33  34
ENDBRANCH   2  33
BRANCH   3  47
ATOM     47  C02 J08 d   1      -0.831 -14.357  62.950  0.00  0.00     0.105 C 
ATOM     48  N03 J08 d   1      -0.352 -15.101  62.000  0.00  0.00    -0.385 N 
ATOM     49  H11 J08 d   1      -0.643 -16.086  61.921  0.00  0.00     0.157 HD
ATOM     50  H12 J08 d   1       0.319 -14.706  61.326  0.00  0.00     0.157 HD
BRANCH  47  51
ATOM     51  N01 J08 d   1      -0.425 -13.068  63.022  0.00  0.00    -0.385 N 
ATOM     52  H9  J08 d   1      -0.788 -12.454  63.765  0.00  0.00     0.157 HD
ATOM     53  H10 J08 d   1       0.247 -12.701  62.334  0.00  0.00     0.157 HD
ENDBRANCH  47  51
ENDBRANCH   3  47
TORSDOF 9
