REMARK  9 active torsions:
REMARK  status: ('A' for Active; 'I' for Inactive)
REMARK    1  A    between atoms: C09_19  and  C10_1 
REMARK    2  A    between atoms: C12_21  and  C15_3 
REMARK    3  A    between atoms: C22_7  and  O23_26 
REMARK    4  A    between atoms: O23_26  and  C24_8 
REMARK    5  A    between atoms: C24_8  and  C25_27 
REMARK    6  A    between atoms: C02_12  and  N01_11 
REMARK    7  A    between atoms: C04_14  and  C02_12 
REMARK    8  A    between atoms: N08_18  and  C07_17 
REMARK    9  A    between atoms: N08_18  and  C09_19 
ROOT
ATOM      1  C21 J08 d   1     -22.100   2.877 -21.263  0.00  0.00    -0.024 A 
ATOM      2  C22 J08 d   1     -22.222   4.073 -21.964  0.00  0.00     0.085 A 
ATOM      3  C04 J08 d   1     -22.227   4.089 -23.371  0.00  0.00     0.040 A 
ATOM      4  C05 J08 d   1     -22.152   2.857 -24.036  0.00  0.00    -0.065 A 
ATOM      5  C06 J08 d   1     -22.074   1.662 -23.341  0.00  0.00    -0.056 A 
ATOM      6  C07 J08 d   1     -22.055   1.659 -21.953  0.00  0.00     0.030 A 
ATOM      7  H4  J08 d   1     -22.040   2.888 -20.181  0.00  0.00     0.091 H 
ATOM      8  H13 J08 d   1     -22.155   2.840 -25.120  0.00  0.00     0.085 H 
ATOM      9  H14 J08 d   1     -22.028   0.725 -23.883  0.00  0.00     0.086 H 
ENDROOT
BRANCH   6  10
ATOM     10  N08 J08 d   1     -21.999   0.454 -21.272  0.00  0.00    -0.383 N 
ATOM     11  H15 J08 d   1     -21.899  -0.406 -21.831  0.00  0.00     0.160 HD
BRANCH  10  12
ATOM     12  C09 J08 d   1     -22.071   0.312 -19.817  0.00  0.00     0.047 C 
ATOM     13  H16 J08 d   1     -22.577   1.195 -19.399  0.00  0.00     0.075 H 
ATOM     14  H17 J08 d   1     -22.652  -0.591 -19.577  0.00  0.00     0.075 H 
BRANCH  12  15
ATOM     15  C10 J08 d   1     -20.715   0.193 -19.195  0.00  0.00     0.122 A 
ATOM     16  N11 J08 d   1     -20.495  -0.363 -17.982  0.00  0.00    -0.232 NA
ATOM     17  C12 J08 d   1     -19.143  -0.295 -17.763  0.00  0.00     0.084 A 
ATOM     18  C13 J08 d   1     -18.588   0.251 -18.895  0.00  0.00     0.007 A 
ATOM     19  N14 J08 d   1     -19.585   0.533 -19.799  0.00  0.00    -0.351 N 
ATOM     20  H1  J08 d   1     -17.526   0.432 -19.052  0.00  0.00     0.115 H 
ATOM     21  H18 J08 d   1     -19.477   0.925 -20.745  0.00  0.00     0.166 HD
BRANCH  17  22
ATOM     22  C15 J08 d   1     -18.485  -0.814 -16.551  0.00  0.00    -0.006 A 
ATOM     23  C20 J08 d   1     -19.229  -1.118 -15.410  0.00  0.00    -0.071 A 
ATOM     24  C19 J08 d   1     -18.598  -1.599 -14.267  0.00  0.00    -0.082 A 
ATOM     25  H3  J08 d   1     -20.304  -0.979 -15.414  0.00  0.00     0.084 H 
ATOM     26  C18 J08 d   1     -17.222  -1.765 -14.244  0.00  0.00    -0.083 A 
ATOM     27  H21 J08 d   1     -19.186  -1.845 -13.390  0.00  0.00     0.083 H 
ATOM     28  C17 J08 d   1     -16.472  -1.446 -15.359  0.00  0.00    -0.082 A 
ATOM     29  H20 J08 d   1     -16.736  -2.144 -13.353  0.00  0.00     0.083 H 
ATOM     30  C16 J08 d   1     -17.094  -0.968 -16.507  0.00  0.00    -0.071 A 
ATOM     31  H2  J08 d   1     -15.395  -1.569 -15.339  0.00  0.00     0.083 H 
ATOM     32  H19 J08 d   1     -16.497  -0.713 -17.375  0.00  0.00     0.084 H 
ENDBRANCH  17  22
ENDBRANCH  12  15
ENDBRANCH  10  12
ENDBRANCH   6  10
BRANCH   2  33
ATOM     33  O23 J08 d   1     -22.289   5.301 -21.340  0.00  0.00    -0.346 OA
BRANCH  33  34
ATOM     34  C24 J08 d   1     -22.218   5.368 -19.901  0.00  0.00     0.051 C 
ATOM     35  H5  J08 d   1     -22.088   6.417 -19.597  0.00  0.00     0.082 H 
ATOM     36  H6  J08 d   1     -21.356   4.777 -19.557  0.00  0.00     0.082 H 
BRANCH  34  37
ATOM     37  C25 J08 d   1     -23.468   4.826 -19.266  0.00  0.00    -0.017 A 
ATOM     38  C26 J08 d   1     -23.414   4.006 -18.144  0.00  0.00    -0.072 A 
ATOM     39  C27 J08 d   1     -24.585   3.531 -17.579  0.00  0.00    -0.065 A 
ATOM     40  H7  J08 d   1     -22.456   3.739 -17.712  0.00  0.00     0.084 H 
ATOM     41  C28 J08 d   1     -25.785   3.885 -18.163  0.00  0.00     0.002 A 
ATOM     42  H22 J08 d   1     -24.561   2.897 -16.700  0.00  0.00     0.085 H 
ATOM     43  N29 J08 d   1     -25.874   4.689 -19.235  0.00  0.00    -0.272 NA
ATOM     44  H8  J08 d   1     -26.701   3.494 -17.735  0.00  0.00     0.114 H 
ATOM     45  C30 J08 d   1     -24.724   5.130 -19.765  0.00  0.00     0.010 A 
ATOM     46  H23 J08 d   1     -24.781   5.766 -20.641  0.00  0.00     0.115 H 
ENDBRANCH  34  37
ENDBRANCH  33  34
ENDBRANCH   2  33
BRANCH   3  47
ATOM     47  C02 J08 d   1     -22.330   5.289 -24.209  0.00  0.00     0.105 C 
ATOM     48  N03 J08 d   1     -21.874   5.342 -25.422  0.00  0.00    -0.385 N 
ATOM     49  H11 J08 d   1     -21.379   4.532 -25.822  0.00  0.00     0.157 HD
ATOM     50  H12 J08 d   1     -22.007   6.194 -25.985  0.00  0.00     0.157 HD
BRANCH  47  51
ATOM     51  N01 J08 d   1     -22.972   6.384 -23.737  0.00  0.00    -0.385 N 
ATOM     52  H9  J08 d   1     -23.350   6.386 -22.779  0.00  0.00     0.157 HD
ATOM     53  H10 J08 d   1     -23.082   7.215 -24.336  0.00  0.00     0.157 HD
ENDBRANCH  47  51
ENDBRANCH   3  47
TORSDOF 9
