REMARK  9 active torsions:
REMARK  status: ('A' for Active; 'I' for Inactive)
REMARK    1  A    between atoms: C09_19  and  C10_1 
REMARK    2  A    between atoms: C12_21  and  C15_3 
REMARK    3  A    between atoms: C22_7  and  O23_26 
REMARK    4  A    between atoms: O23_26  and  C24_8 
REMARK    5  A    between atoms: C24_8  and  C25_27 
REMARK    6  A    between atoms: C02_12  and  N01_11 
REMARK    7  A    between atoms: C04_14  and  C02_12 
REMARK    8  A    between atoms: N08_18  and  C07_17 
REMARK    9  A    between atoms: N08_18  and  C09_19 
ROOT
ATOM      1  C21 J08 d   1     -22.347   2.411 -21.115  0.00  0.00    -0.024 A 
ATOM      2  C22 J08 d   1     -22.480   3.602 -21.824  0.00  0.00     0.085 A 
ATOM      3  C04 J08 d   1     -22.439   3.614 -23.234  0.00  0.00     0.040 A 
ATOM      4  C05 J08 d   1     -22.349   2.379 -23.890  0.00  0.00    -0.065 A 
ATOM      5  C06 J08 d   1     -22.235   1.192 -23.186  0.00  0.00    -0.056 A 
ATOM      6  C07 J08 d   1     -22.278   1.192 -21.798  0.00  0.00     0.030 A 
ATOM      7  H4  J08 d   1     -22.297   2.428 -20.032  0.00  0.00     0.091 H 
ATOM      8  H13 J08 d   1     -22.369   2.352 -24.974  0.00  0.00     0.085 H 
ATOM      9  H14 J08 d   1     -22.111   0.258 -23.721  0.00  0.00     0.086 H 
ENDROOT
BRANCH   6  10
ATOM     10  N08 J08 d   1     -22.205  -0.005 -21.106  0.00  0.00    -0.383 N 
ATOM     11  H15 J08 d   1     -22.102  -0.874 -21.649  0.00  0.00     0.160 HD
BRANCH  10  12
ATOM     12  C09 J08 d   1     -22.265  -0.107 -19.659  0.00  0.00     0.047 C 
ATOM     13  H16 J08 d   1     -22.774   0.782 -19.258  0.00  0.00     0.075 H 
ATOM     14  H17 J08 d   1     -22.832  -1.009 -19.387  0.00  0.00     0.075 H 
BRANCH  12  15
ATOM     15  C10 J08 d   1     -20.897  -0.194 -19.064  0.00  0.00     0.122 A 
ATOM     16  N11 J08 d   1     -20.652  -0.738 -17.852  0.00  0.00    -0.232 NA
ATOM     17  C12 J08 d   1     -19.292  -0.698 -17.678  0.00  0.00     0.084 A 
ATOM     18  C13 J08 d   1     -18.761  -0.126 -18.810  0.00  0.00     0.007 A 
ATOM     19  N14 J08 d   1     -19.760   0.165 -19.692  0.00  0.00    -0.351 N 
ATOM     20  H1  J08 d   1     -17.702   0.066 -18.977  0.00  0.00     0.115 H 
ATOM     21  H18 J08 d   1     -19.666   0.571 -20.634  0.00  0.00     0.166 HD
BRANCH  17  22
ATOM     22  C15 J08 d   1     -18.621  -1.195 -16.463  0.00  0.00    -0.006 A 
ATOM     23  C20 J08 d   1     -19.346  -1.434 -15.297  0.00  0.00    -0.071 A 
ATOM     24  C19 J08 d   1     -18.705  -1.894 -14.151  0.00  0.00    -0.082 A 
ATOM     25  H3  J08 d   1     -20.416  -1.260 -15.283  0.00  0.00     0.084 H 
ATOM     26  C18 J08 d   1     -17.335  -2.096 -14.149  0.00  0.00    -0.083 A 
ATOM     27  H21 J08 d   1     -19.281  -2.095 -13.255  0.00  0.00     0.083 H 
ATOM     28  C17 J08 d   1     -16.604  -1.851 -15.294  0.00  0.00    -0.082 A 
ATOM     29  H20 J08 d   1     -16.838  -2.445 -13.251  0.00  0.00     0.083 H 
ATOM     30  C16 J08 d   1     -17.235  -1.383 -16.441  0.00  0.00    -0.071 A 
ATOM     31  H2  J08 d   1     -15.534  -2.024 -15.299  0.00  0.00     0.083 H 
ATOM     32  H19 J08 d   1     -16.648  -1.162 -17.325  0.00  0.00     0.084 H 
ENDBRANCH  17  22
ENDBRANCH  12  15
ENDBRANCH  10  12
ENDBRANCH   6  10
BRANCH   2  33
ATOM     33  O23 J08 d   1     -22.610   4.829 -21.201  0.00  0.00    -0.346 OA
BRANCH  33  34
ATOM     34  C24 J08 d   1     -22.460   4.924 -19.770  0.00  0.00     0.051 C 
ATOM     35  H5  J08 d   1     -22.390   5.984 -19.485  0.00  0.00     0.082 H 
ATOM     36  H6  J08 d   1     -21.540   4.402 -19.469  0.00  0.00     0.082 H 
BRANCH  34  37
ATOM     37  C25 J08 d   1     -23.631   4.301 -19.064  0.00  0.00    -0.017 A 
ATOM     38  C26 J08 d   1     -23.469   3.599 -17.875  0.00  0.00    -0.072 A 
ATOM     39  C27 J08 d   1     -24.556   2.975 -17.286  0.00  0.00    -0.065 A 
ATOM     40  H7  J08 d   1     -22.492   3.540 -17.409  0.00  0.00     0.084 H 
ATOM     41  C28 J08 d   1     -25.779   3.053 -17.922  0.00  0.00     0.002 A 
ATOM     42  H22 J08 d   1     -24.449   2.439 -16.350  0.00  0.00     0.085 H 
ATOM     43  N29 J08 d   1     -25.968   3.713 -19.075  0.00  0.00    -0.272 NA
ATOM     44  H8  J08 d   1     -26.629   2.557 -17.467  0.00  0.00     0.114 H 
ATOM     45  C30 J08 d   1     -24.900   4.315 -19.616  0.00  0.00     0.010 A 
ATOM     46  H23 J08 d   1     -25.040   4.849 -20.549  0.00  0.00     0.115 H 
ENDBRANCH  34  37
ENDBRANCH  33  34
ENDBRANCH   2  33
BRANCH   3  47
ATOM     47  C02 J08 d   1     -22.544   4.811 -24.081  0.00  0.00     0.105 C 
ATOM     48  N03 J08 d   1     -21.969   4.872 -25.244  0.00  0.00    -0.385 N 
ATOM     49  H11 J08 d   1     -21.418   4.073 -25.589  0.00  0.00     0.157 HD
ATOM     50  H12 J08 d   1     -22.064   5.720 -25.822  0.00  0.00     0.157 HD
BRANCH  47  51
ATOM     51  N01 J08 d   1     -23.254   5.871 -23.664  0.00  0.00    -0.385 N 
ATOM     52  H9  J08 d   1     -23.720   5.850 -22.746  0.00  0.00     0.157 HD
ATOM     53  H10 J08 d   1     -23.332   6.706 -24.262  0.00  0.00     0.157 HD
ENDBRANCH  47  51
ENDBRANCH   3  47
TORSDOF 9
