REMARK  9 active torsions:
REMARK  status: ('A' for Active; 'I' for Inactive)
REMARK    1  A    between atoms: C09_19  and  C10_1 
REMARK    2  A    between atoms: C12_21  and  C15_3 
REMARK    3  A    between atoms: C22_7  and  O23_26 
REMARK    4  A    between atoms: O23_26  and  C24_8 
REMARK    5  A    between atoms: C24_8  and  C25_27 
REMARK    6  A    between atoms: C02_12  and  N01_11 
REMARK    7  A    between atoms: C04_14  and  C02_12 
REMARK    8  A    between atoms: N08_18  and  C07_17 
REMARK    9  A    between atoms: N08_18  and  C09_19 
ROOT
ATOM      1  C21 J08 d   1     -34.995 -23.812 -20.814  0.00  0.00    -0.024 A 
ATOM      2  C22 J08 d   1     -34.729 -25.014 -21.454  0.00  0.00     0.085 A 
ATOM      3  C04 J08 d   1     -34.716 -25.106 -22.860  0.00  0.00     0.040 A 
ATOM      4  C05 J08 d   1     -34.966 -23.934 -23.586  0.00  0.00    -0.065 A 
ATOM      5  C06 J08 d   1     -35.207 -22.729 -22.950  0.00  0.00    -0.056 A 
ATOM      6  C07 J08 d   1     -35.213 -22.657 -21.563  0.00  0.00     0.030 A 
ATOM      7  H4  J08 d   1     -35.033 -23.771 -19.731  0.00  0.00     0.091 H 
ATOM      8  H13 J08 d   1     -34.971 -23.972 -24.669  0.00  0.00     0.085 H 
ATOM      9  H14 J08 d   1     -35.392 -21.837 -23.537  0.00  0.00     0.086 H 
ENDROOT
BRANCH   6  10
ATOM     10  N08 J08 d   1     -35.408 -21.439 -20.945  0.00  0.00    -0.383 N 
ATOM     11  H15 J08 d   1     -35.681 -20.640 -21.535  0.00  0.00     0.160 HD
BRANCH  10  12
ATOM     12  C09 J08 d   1     -35.254 -21.206 -19.519  0.00  0.00     0.047 C 
ATOM     13  H16 J08 d   1     -34.647 -22.014 -19.085  0.00  0.00     0.075 H 
ATOM     14  H17 J08 d   1     -34.746 -20.242 -19.364  0.00  0.00     0.075 H 
BRANCH  12  15
ATOM     15  C10 J08 d   1     -36.578 -21.174 -18.843  0.00  0.00     0.122 A 
ATOM     16  N11 J08 d   1     -36.807 -20.580 -17.653  0.00  0.00    -0.232 NA
ATOM     17  C12 J08 d   1     -38.130 -20.793 -17.366  0.00  0.00     0.084 A 
ATOM     18  C13 J08 d   1     -38.672 -21.481 -18.431  0.00  0.00     0.007 A 
ATOM     19  N14 J08 d   1     -37.707 -21.700 -19.360  0.00  0.00    -0.351 N 
ATOM     20  H1  J08 d   1     -39.710 -21.799 -18.514  0.00  0.00     0.115 H 
ATOM     21  H18 J08 d   1     -37.815 -22.170 -20.270  0.00  0.00     0.166 HD
BRANCH  17  22
ATOM     22  C15 J08 d   1     -38.808 -20.256 -16.176  0.00  0.00    -0.006 A 
ATOM     23  C20 J08 d   1     -40.201 -20.224 -16.117  0.00  0.00    -0.071 A 
ATOM     24  C19 J08 d   1     -40.851 -19.719 -14.998  0.00  0.00    -0.082 A 
ATOM     25  H3  J08 d   1     -40.782 -20.597 -16.953  0.00  0.00     0.084 H 
ATOM     26  C18 J08 d   1     -40.118 -19.231 -13.931  0.00  0.00    -0.083 A 
ATOM     27  H21 J08 d   1     -41.934 -19.707 -14.961  0.00  0.00     0.083 H 
ATOM     28  C17 J08 d   1     -38.735 -19.256 -13.978  0.00  0.00    -0.082 A 
ATOM     29  H20 J08 d   1     -40.625 -18.830 -13.061  0.00  0.00     0.083 H 
ATOM     30  C16 J08 d   1     -38.078 -19.768 -15.090  0.00  0.00    -0.071 A 
ATOM     31  H2  J08 d   1     -38.161 -18.874 -13.142  0.00  0.00     0.083 H 
ATOM     32  H19 J08 d   1     -36.995 -19.789 -15.115  0.00  0.00     0.084 H 
ENDBRANCH  17  22
ENDBRANCH  12  15
ENDBRANCH  10  12
ENDBRANCH   6  10
BRANCH   2  33
ATOM     33  O23 J08 d   1     -34.452 -26.166 -20.751  0.00  0.00    -0.346 OA
BRANCH  33  34
ATOM     34  C24 J08 d   1     -34.513 -26.137 -19.312  0.00  0.00     0.051 C 
ATOM     35  H5  J08 d   1     -34.530 -27.167 -18.927  0.00  0.00     0.082 H 
ATOM     36  H6  J08 d   1     -35.427 -25.612 -18.996  0.00  0.00     0.082 H 
BRANCH  34  37
ATOM     37  C25 J08 d   1     -33.309 -25.418 -18.762  0.00  0.00    -0.017 A 
ATOM     38  C26 J08 d   1     -33.365 -24.714 -17.568  0.00  0.00    -0.072 A 
ATOM     39  C27 J08 d   1     -32.246 -24.035 -17.111  0.00  0.00    -0.065 A 
ATOM     40  H7  J08 d   1     -34.283 -24.695 -16.992  0.00  0.00     0.084 H 
ATOM     41  C28 J08 d   1     -31.099 -24.070 -17.880  0.00  0.00     0.002 A 
ATOM     42  H22 J08 d   1     -32.270 -23.491 -16.174  0.00  0.00     0.085 H 
ATOM     43  N29 J08 d   1     -31.015 -24.731 -19.047  0.00  0.00    -0.272 NA
ATOM     44  H8  J08 d   1     -30.224 -23.538 -17.525  0.00  0.00     0.114 H 
ATOM     45  C30 J08 d   1     -32.111 -25.384 -19.457  0.00  0.00     0.010 A 
ATOM     46  H23 J08 d   1     -32.056 -25.922 -20.396  0.00  0.00     0.115 H 
ENDBRANCH  34  37
ENDBRANCH  33  34
ENDBRANCH   2  33
BRANCH   3  47
ATOM     47  C02 J08 d   1     -34.456 -26.335 -23.612  0.00  0.00     0.105 C 
ATOM     48  N03 J08 d   1     -34.941 -26.453 -24.801  0.00  0.00    -0.385 N 
ATOM     49  H11 J08 d   1     -35.548 -25.715 -25.185  0.00  0.00     0.157 HD
ATOM     50  H12 J08 d   1     -34.721 -27.285 -25.367  0.00  0.00     0.157 HD
BRANCH  47  51
ATOM     51  N01 J08 d   1     -33.665 -27.292 -23.106  0.00  0.00    -0.385 N 
ATOM     52  H9  J08 d   1     -33.280 -27.193 -22.156  0.00  0.00     0.157 HD
ATOM     53  H10 J08 d   1     -33.442 -28.126 -23.668  0.00  0.00     0.157 HD
ENDBRANCH  47  51
ENDBRANCH   3  47
TORSDOF 9
