REMARK  9 active torsions:
REMARK  status: ('A' for Active; 'I' for Inactive)
REMARK    1  A    between atoms: C1_1  and  C_29 
REMARK    2  A    between atoms: C3_2  and  C4_26 
REMARK    3  A    between atoms: C11_7  and  C12_8 
REMARK    4  A    between atoms: C12_8  and  C13_9 
REMARK    5  A    between atoms: C13_9  and  C14_10 
REMARK    6  A    between atoms: C14_10  and  O_30 
REMARK    7  A    between atoms: O_30  and  C15_11 
REMARK    8  A    between atoms: C25_21  and  C27_18 
REMARK    9  A    between atoms: C6_24  and  C5_25 
ROOT
ATOM      1  C7  J3E d   1      11.695 -20.145  13.737  0.00  0.00    -0.070 A 
ATOM      2  C8  J3E d   1      10.425 -20.619  14.075  0.00  0.00    -0.081 A 
ATOM      3  C9  J3E d   1       9.963 -20.642  15.391  0.00  0.00    -0.070 A 
ATOM      4  C10 J3E d   1      10.789 -20.179  16.406  0.00  0.00     0.000 A 
ATOM      5  C11 J3E d   1      10.602 -20.071  17.867  0.00  0.00    -0.012 A 
ATOM      6  C25 J3E d   1      11.892 -19.489  18.327  0.00  0.00     0.117 A 
ATOM      7  N2  J3E d   1      12.723 -19.283  17.283  0.00  0.00    -0.349 N 
ATOM      8  C26 J3E d   1      12.146 -19.663  16.123  0.00  0.00     0.055 A 
ATOM      9  C6  J3E d   1      12.578 -19.665  14.702  0.00  0.00     0.006 A 
ATOM     10  H1  J3E d   1      12.001 -20.151  12.697  0.00  0.00     0.084 H 
ATOM     11  H2  J3E d   1       9.775 -20.982  13.287  0.00  0.00     0.083 H 
ATOM     12  H3  J3E d   1       8.972 -21.017  15.618  0.00  0.00     0.084 H 
ATOM     13  H14 J3E d   1      13.671 -18.888  17.361  0.00  0.00     0.166 HD
ENDROOT
BRANCH   5  14
ATOM     14  C12 J3E d   1       9.398 -20.458  18.692  0.00  0.00    -0.036 C 
ATOM     15  H4  J3E d   1       8.518 -20.544  18.038  0.00  0.00     0.040 H 
ATOM     16  H5  J3E d   1       9.214 -19.688  19.455  0.00  0.00     0.040 H 
BRANCH  14  17
ATOM     17  C13 J3E d   1       9.657 -21.796  19.373  0.00  0.00    -0.041 C 
ATOM     18  H6  J3E d   1       8.952 -21.917  20.208  0.00  0.00     0.036 H 
ATOM     19  H7  J3E d   1      10.687 -21.810  19.758  0.00  0.00     0.036 H 
BRANCH  17  20
ATOM     20  C14 J3E d   1       9.474 -22.951  18.394  0.00  0.00     0.026 C 
ATOM     21  H8  J3E d   1       9.429 -23.899  18.950  0.00  0.00     0.075 H 
ATOM     22  H9  J3E d   1      10.322 -22.976  17.694  0.00  0.00     0.075 H 
BRANCH  20  23
ATOM     23  O   J3E d   1       8.261 -22.769  17.666  0.00  0.00    -0.350 OA
BRANCH  23  24
ATOM     24  C15 J3E d   1       7.879 -23.693  16.730  0.00  0.00     0.079 A 
ATOM     25  C16 J3E d   1       8.754 -24.695  16.323  0.00  0.00    -0.050 A 
ATOM     26  C17 J3E d   1       8.372 -25.640  15.369  0.00  0.00    -0.080 A 
ATOM     27  H10 J3E d   1       9.748 -24.743  16.753  0.00  0.00     0.087 H 
ATOM     28  C18 J3E d   1       7.110 -25.636  14.777  0.00  0.00    -0.072 A 
ATOM     29  H24 J3E d   1       9.083 -26.405  15.078  0.00  0.00     0.083 H 
ATOM     30  C19 J3E d   1       6.169 -24.673  15.122  0.00  0.00    -0.023 A 
ATOM     31  H23 J3E d   1       6.860 -26.391  14.040  0.00  0.00     0.084 H 
ATOM     32  C20 J3E d   1       4.905 -24.648  14.546  0.00  0.00    -0.072 A 
ATOM     33  C24 J3E d   1       6.522 -23.647  16.128  0.00  0.00     0.007 A 
ATOM     34  C21 J3E d   1       4.000 -23.661  14.927  0.00  0.00    -0.082 A 
ATOM     35  H11 J3E d   1       4.626 -25.390  13.807  0.00  0.00     0.084 H 
ATOM     36  C22 J3E d   1       4.335 -22.696  15.875  0.00  0.00    -0.082 A 
ATOM     37  H12 J3E d   1       3.014 -23.643  14.477  0.00  0.00     0.083 H 
ATOM     38  C23 J3E d   1       5.589 -22.681  16.479  0.00  0.00    -0.070 A 
ATOM     39  H13 J3E d   1       3.605 -21.942  16.147  0.00  0.00     0.083 H 
ATOM     40  H22 J3E d   1       5.834 -21.924  17.215  0.00  0.00     0.085 H 
ENDBRANCH  23  24
ENDBRANCH  20  23
ENDBRANCH  17  20
ENDBRANCH  14  17
ENDBRANCH   5  14
BRANCH   6  41
ATOM     41  C27 J3E d   1      12.116 -19.217  19.775  0.00  0.00     0.227 C 
ATOM     42  O1  J3E d   1      13.059 -18.469  20.112  0.00  0.00    -0.643 OA
ATOM     43  O2  J3E d   1      11.354 -19.743  20.615  0.00  0.00    -0.643 OA
ENDBRANCH   6  41
BRANCH   9  44
ATOM     44  C5  J3E d   1      13.928 -19.165  14.317  0.00  0.00     0.026 A 
ATOM     45  C1  J3E d   1      15.064 -19.954  13.782  0.00  0.00     0.064 A 
ATOM     46  N   J3E d   1      16.078 -19.098  13.576  0.00  0.00    -0.179 NA
ATOM     47  N1  J3E d   1      15.702 -17.787  13.936  0.00  0.00    -0.282 N 
ATOM     48  C3  J3E d   1      14.426 -17.769  14.385  0.00  0.00     0.037 A 
ATOM     49  H18 J3E d   1      16.313 -16.960  13.867  0.00  0.00     0.189 HD
BRANCH  45  50
ATOM     50  C   J3E d   1      15.079 -21.437  13.520  0.00  0.00    -0.033 C 
ATOM     51  H19 J3E d   1      16.063 -21.730  13.124  0.00  0.00     0.035 H 
ATOM     52  H20 J3E d   1      14.299 -21.688  12.786  0.00  0.00     0.035 H 
ATOM     53  H21 J3E d   1      14.886 -21.977  14.459  0.00  0.00     0.035 H 
ENDBRANCH  45  50
BRANCH  48  54
ATOM     54  C4  J3E d   1      13.660 -16.565  14.863  0.00  0.00    -0.035 C 
ATOM     55  H15 J3E d   1      14.299 -15.672  14.794  0.00  0.00     0.035 H 
ATOM     56  H16 J3E d   1      13.354 -16.717  15.909  0.00  0.00     0.035 H 
ATOM     57  H17 J3E d   1      12.767 -16.426  14.236  0.00  0.00     0.035 H 
ENDBRANCH  48  54
ENDBRANCH   9  44
TORSDOF 9
