REMARK  4 active torsions:
REMARK  status: ('A' for Active; 'I' for Inactive)
REMARK    1  A    between atoms: C11_9  and  C12_1 
REMARK    2  A    between atoms: C5_3  and  N2_7 
REMARK    3  A    between atoms: C3_5  and  N4_4 
REMARK    4  A    between atoms: C10_6  and  C11_9 
REMARK       I    between atoms: N5_21  and  C10_6 
ROOT
ATOM      1  C5  J0B d   1     -25.569  10.447  -5.478  0.00  0.00     0.052 C 
ATOM      2  C10 J0B d   1     -24.335  13.488  -6.152  0.00  0.00     0.219 C 
ATOM      3  C6  J0B d   1     -27.072  10.685  -5.551  0.00  0.00    -0.041 C 
ATOM      4  O   J0B d   1     -24.637  14.604  -5.762  0.00  0.00    -0.273 OA
ATOM      5  C7  J0B d   1     -27.385  12.177  -5.543  0.00  0.00    -0.048 C 
ATOM      6  C8  J0B d   1     -26.645  12.895  -6.665  0.00  0.00    -0.002 C 
ATOM      7  C9  J0B d   1     -24.902  11.160  -6.648  0.00  0.00     0.018 C 
ATOM      8  N5  J0B d   1     -25.241  12.565  -6.469  0.00  0.00    -0.350 N 
ATOM      9  H4  J0B d   1     -25.177  10.847  -4.531  0.00  0.00     0.078 H 
ATOM     10  H7  J0B d   1     -27.555  10.211  -4.684  0.00  0.00     0.036 H 
ATOM     11  H8  J0B d   1     -27.463  10.239  -6.478  0.00  0.00     0.036 H 
ATOM     12  H12 J0B d   1     -27.077  12.604  -4.577  0.00  0.00     0.035 H 
ATOM     13  H13 J0B d   1     -28.468  12.318  -5.678  0.00  0.00     0.035 H 
ATOM     14  H14 J0B d   1     -26.799  13.982  -6.595  0.00  0.00     0.064 H 
ATOM     15  H15 J0B d   1     -26.992  12.538  -7.646  0.00  0.00     0.064 H 
ATOM     16  H16 J0B d   1     -25.295  10.786  -7.605  0.00  0.00     0.067 H 
ATOM     17  H17 J0B d   1     -23.812  11.018  -6.618  0.00  0.00     0.067 H 
ENDROOT
BRANCH   1  18
ATOM     18  N2  J0B d   1     -25.291   8.989  -5.552  0.00  0.00    -0.244 N 
ATOM     19  C1  J0B d   1     -24.621   8.152  -4.733  0.00  0.00     0.164 A 
ATOM     20  C2  J0B d   1     -24.690   6.814  -5.350  0.00  0.00     0.094 A 
ATOM     21  N1  J0B d   1     -23.955   8.276  -3.560  0.00  0.00    -0.222 NA
ATOM     22  C3  J0B d   1     -24.030   5.685  -4.656  0.00  0.00     0.139 A 
ATOM     23  C4  J0B d   1     -25.471   7.069  -6.577  0.00  0.00     0.136 A 
ATOM     24  N   J0B d   1     -23.402   5.961  -3.490  0.00  0.00    -0.224 NA
ATOM     25  C   J0B d   1     -23.376   7.208  -2.979  0.00  0.00     0.091 A 
ATOM     26  H11 J0B d   1     -22.856   7.361  -2.040  0.00  0.00     0.146 H 
ATOM     27  I   J0B d   1     -25.983   5.556  -8.012  0.00  0.00    -0.019 I 
ATOM     28  N3  J0B d   1     -25.829   8.362  -6.700  0.00  0.00    -0.163 NA
BRANCH  22  29
ATOM     29  N4  J0B d   1     -24.054   4.431  -5.165  0.00  0.00    -0.383 N 
ATOM     30  H5  J0B d   1     -24.539   4.245  -6.055  0.00  0.00     0.157 HD
ATOM     31  H6  J0B d   1     -23.587   3.662  -4.663  0.00  0.00     0.157 HD
ENDBRANCH  22  29
ENDBRANCH   1  18
BRANCH   2  32
ATOM     32  C11 J0B d   1     -22.883  13.095  -6.291  0.00  0.00     0.006 C 
ATOM     33  H9  J0B d   1     -22.570  12.528  -5.402  0.00  0.00     0.046 H 
ATOM     34  H10 J0B d   1     -22.757  12.470  -7.187  0.00  0.00     0.046 H 
BRANCH  32  35
ATOM     35  C12 J0B d   1     -22.032  14.339  -6.421  0.00  0.00    -0.068 C 
ATOM     36  H1  J0B d   1     -20.975  14.051  -6.522  0.00  0.00     0.028 H 
ATOM     37  H2  J0B d   1     -22.158  14.964  -5.525  0.00  0.00     0.028 H 
ATOM     38  H3  J0B d   1     -22.344  14.906  -7.311  0.00  0.00     0.028 H 
ENDBRANCH  32  35
ENDBRANCH   2  32
TORSDOF 4
