REMARK  12 active torsions:
REMARK  status: ('A' for Active; 'I' for Inactive)
REMARK    1  A    between atoms: S1_22  and  N3_3 
REMARK    2  A    between atoms: C13_8  and  C22_15 
REMARK    3  A    between atoms: C14_9  and  C21_10 
REMARK    4  A    between atoms: C15_11  and  C20_12 
REMARK    5  A    between atoms: C16_13  and  C19_14 
REMARK    6  A    between atoms: C17_16  and  C16_13 
REMARK    7  A    between atoms: C17_16  and  C18_17 
REMARK    8  A    between atoms: IR1_34  and  CL1_18 
REMARK    9  A    between atoms: C3_21  and  O5_20 
REMARK   10  A    between atoms: C10_23  and  S1_22 
REMARK   11  A    between atoms: N2_32  and  C23_29 
REMARK   12  A    between atoms: C24_30  and  C7_31 
ROOT
ATOM      1  N1  J0K d   1      17.098   8.491  10.400  0.00  0.00    -0.255 N 
ATOM      2  C2  J0K d   1      15.951  10.047   9.019  0.00  0.00    -0.034 A 
ATOM      3  C4  J0K d   1      14.705   8.126   9.467  0.00  0.00    -0.018 A 
ATOM      4  C5  J0K d   1      15.902   7.649  10.286  0.00  0.00     0.137 A 
ATOM      5  C6  J0K d   1      15.988   6.389  11.045  0.00  0.00     0.404 A 
ATOM      6  C13 J0K d   1      20.377   7.125  12.385  0.00  0.00    -0.018 A 
ATOM      7  C14 J0K d   1      20.609   8.073  11.198  0.00  0.00    -0.018 A 
ATOM      8  C15 J0K d   1      19.900   9.386  11.543  0.00  0.00    -0.018 A 
ATOM      9  C16 J0K d   1      19.223   9.229  12.886  0.00  0.00    -0.018 A 
ATOM     10  C17 J0K d   1      19.509   7.861  13.409  0.00  0.00    -0.018 A 
ATOM     11  C1  J0K d   1      17.033   9.625   9.756  0.00  0.00     0.006 A 
ATOM     12  C3  J0K d   1      14.801   9.314   8.855  0.00  0.00     0.069 A 
ATOM     13  N2  J0K d   1      17.203   6.191  11.770  0.00  0.00     0.186 N 
ATOM     14  O3  J0K d   1      15.009   5.650  10.990  0.00  0.00    -0.255 OA
ATOM     15 IR1  J0K d   1      18.560   7.738  11.539  0.00  0.00     0.000 Ir
ATOM     16  H1  J0K d   1      16.009  11.017   8.538  0.00  0.00     0.089 H 
ATOM     17  H4  J0K d   1      13.808   7.524   9.383  0.00  0.00     0.091 H 
ATOM     18  H21 J0K d   1      17.894  10.281   9.806  0.00  0.00     0.114 H 
ATOM     19  H29 J0K d   1      17.947   6.859  11.787  0.00  0.00     0.334 HD
ENDROOT
BRANCH  15  20
ATOM     20 CL1  J0K d   1      19.262   5.938  10.113  0.00  0.00    -0.145 Cl
ATOM     21  H20 J0K d   1      20.017   5.465  10.585  0.00  0.00     0.145 HD
ENDBRANCH  15  20
BRANCH   6  22
ATOM     22  C22 J0K d   1      20.868   5.671  12.516  0.00  0.00    -0.067 C 
ATOM     23  H14 J0K d   1      21.471   5.407  11.635  0.00  0.00     0.028 H 
ATOM     24  H15 J0K d   1      20.002   4.996  12.583  0.00  0.00     0.028 H 
ATOM     25  H16 J0K d   1      21.482   5.572  13.424  0.00  0.00     0.028 H 
ENDBRANCH   6  22
BRANCH   7  26
ATOM     26  C21 J0K d   1      21.419   7.805   9.905  0.00  0.00    -0.067 C 
ATOM     27  H5  J0K d   1      21.815   6.779   9.926  0.00  0.00     0.028 H 
ATOM     28  H6  J0K d   1      22.254   8.519   9.841  0.00  0.00     0.028 H 
ATOM     29  H7  J0K d   1      20.764   7.927   9.030  0.00  0.00     0.028 H 
ENDBRANCH   7  26
BRANCH   8  30
ATOM     30  C20 J0K d   1      19.887  10.654  10.688  0.00  0.00    -0.067 C 
ATOM     31  H8  J0K d   1      20.459  10.480   9.765  0.00  0.00     0.028 H 
ATOM     32  H9  J0K d   1      20.343  11.481  11.252  0.00  0.00     0.028 H 
ATOM     33  H10 J0K d   1      18.849  10.913  10.432  0.00  0.00     0.028 H 
ENDBRANCH   8  30
BRANCH   9  34
ATOM     34  C19 J0K d   1      18.454  10.289  13.646  0.00  0.00    -0.067 C 
ATOM     35  H11 J0K d   1      18.386  11.201  13.035  0.00  0.00     0.028 H 
ATOM     36  H12 J0K d   1      18.975  10.516  14.588  0.00  0.00     0.028 H 
ATOM     37  H13 J0K d   1      17.442   9.920  13.867  0.00  0.00     0.028 H 
ENDBRANCH   9  34
BRANCH  10  38
ATOM     38  C18 J0K d   1      19.075   7.302  14.734  0.00  0.00    -0.067 C 
ATOM     39  H17 J0K d   1      19.438   6.268  14.832  0.00  0.00     0.028 H 
ATOM     40  H18 J0K d   1      17.977   7.312  14.794  0.00  0.00     0.028 H 
ATOM     41  H19 J0K d   1      19.492   7.916  15.546  0.00  0.00     0.028 H 
ENDBRANCH  10  38
BRANCH  13  42
ATOM     42  C23 J0K d   1      17.251   4.937  12.474  0.00  0.00     0.119 C 
ATOM     43  C24 J0K d   1      17.051   4.845  13.796  0.00  0.00    -0.048 C 
ATOM     44  H28 J0K d   1      17.207   5.748  14.384  0.00  0.00     0.086 H 
ATOM     45  H27 J0K d   1      17.458   4.028  11.911  0.00  0.00     0.127 H 
BRANCH  43  46
ATOM     46  C7  J0K d   1      16.668   3.718  14.475  0.00  0.00    -0.035 A 
ATOM     47  C12 J0K d   1      15.396   3.647  14.886  0.00  0.00    -0.071 A 
ATOM     48  C11 J0K d   1      14.900   2.577  15.605  0.00  0.00    -0.059 A 
ATOM     49  H24 J0K d   1      14.726   4.464  14.644  0.00  0.00     0.084 H 
ATOM     50  C10 J0K d   1      15.822   1.492  15.962  0.00  0.00     0.079 A 
ATOM     51  H23 J0K d   1      13.857   2.539  15.898  0.00  0.00     0.085 H 
ATOM     52  C9  J0K d   1      17.194   1.656  15.508  0.00  0.00    -0.059 A 
ATOM     53  C8  J0K d   1      17.544   2.752  14.769  0.00  0.00    -0.071 A 
ATOM     54  H25 J0K d   1      17.939   0.909  15.756  0.00  0.00     0.085 H 
ATOM     55  H26 J0K d   1      18.563   2.840  14.411  0.00  0.00     0.084 H 
BRANCH  50  56
ATOM     56  S1  J0K d   1      15.255   0.198  16.856  0.00  0.00     0.256 S 
ATOM     57  O1  J0K d   1      15.856   0.334  18.161  0.00  0.00    -0.201 OA
ATOM     58  O2  J0K d   1      13.814   0.242  16.701  0.00  0.00    -0.201 OA
BRANCH  56  59
ATOM     59  N3  J0K d   1      15.779  -1.104  16.191  0.00  0.00    -0.324 N 
ATOM     60  H2  J0K d   1      15.466  -1.359  15.276  0.00  0.00     0.169 HD
ATOM     61  H3  J0K d   1      16.430  -1.687  16.677  0.00  0.00     0.169 HD
ENDBRANCH  56  59
ENDBRANCH  50  56
ENDBRANCH  43  46
ENDBRANCH  13  42
BRANCH  12  62
ATOM     62  O5  J0K d   1      13.782   9.752   8.102  0.00  0.00    -0.361 OA
ATOM     63  H22 J0K d   1      14.001  10.602   7.739  0.00  0.00     0.217 HD
ENDBRANCH  12  62
TORSDOF 12
