REMARK  11 active torsions:
REMARK  status: ('A' for Active; 'I' for Inactive)
REMARK    1  A    between atoms: C10_8  and  S1_25 
REMARK    2  A    between atoms: C24_29  and  C7_11 
REMARK    3  A    between atoms: C13_14  and  C22_21 
REMARK    4  A    between atoms: C14_15  and  C21_16 
REMARK    5  A    between atoms: C15_17  and  C20_18 
REMARK    6  A    between atoms: C16_19  and  C19_20 
REMARK    7  A    between atoms: C17_22  and  C18_23 
REMARK    8  A    between atoms: IR1_33  and  CL1_24 
REMARK    9  A    between atoms: S1_25  and  N3_30 
REMARK   10  A    between atoms: C23_28  and  C24_29 
REMARK   11  A    between atoms: N2_31  and  C23_28 
ROOT
ATOM      1  C1  J0N d   1      16.509  10.122  10.849  0.00  0.00     0.003 A 
ATOM      2  C3  J0N d   1      14.113  10.011  10.649  0.00  0.00    -0.079 A 
ATOM      3  C4  J0N d   1      14.052   8.743  11.077  0.00  0.00    -0.050 A 
ATOM      4  C2  J0N d   1      15.309  10.688  10.554  0.00  0.00    -0.066 A 
ATOM      5  N1  J0N d   1      16.592   8.857  11.214  0.00  0.00    -0.255 N 
ATOM      6  C5  J0N d   1      15.373   8.128  11.377  0.00  0.00     0.134 A 
ATOM      7  C6  J0N d   1      15.572   6.747  11.872  0.00  0.00     0.399 A 
ATOM      8  C13 J0N d   1      20.123   7.048  12.391  0.00  0.00    -0.010 A 
ATOM      9  C14 J0N d   1      20.302   7.879  11.149  0.00  0.00     0.000 A 
ATOM     10  C15 J0N d   1      19.815   9.264  11.370  0.00  0.00    -0.071 A 
ATOM     11  C16 J0N d   1      19.419   9.284  12.766  0.00  0.00    -0.071 A 
ATOM     12  C17 J0N d   1      19.569   7.966  13.382  0.00  0.00     0.000 A 
ATOM     13  N2  J0N d   1      16.885   6.357  12.127  0.00  0.00     0.161 N 
ATOM     14  O3  J0N d   1      14.523   6.053  12.018  0.00  0.00    -0.255 OA
ATOM     15 IR1  J0N d   1      18.281   7.801  11.691  0.00  0.00     0.000 Ir
ATOM     16  H1  J0N d   1      17.411  10.719  10.783  0.00  0.00     0.114 H 
ATOM     17  H2  J0N d   1      13.196  10.518  10.370  0.00  0.00     0.083 H 
ATOM     18  H3  J0N d   1      13.116   8.209  11.195  0.00  0.00     0.087 H 
ATOM     19  H5  J0N d   1      15.292  11.722  10.228  0.00  0.00     0.085 H 
ATOM     20  H31 J0N d   1      17.682   6.922  11.912  0.00  0.00     0.327 HD
ENDROOT
BRANCH  15  21
ATOM     21 CL1  J0N d   1      17.638   6.896   9.546  0.00  0.00    -0.145 Cl
ATOM     22  H23 J0N d   1      18.471   6.394   9.810  0.00  0.00     0.145 HD
ENDBRANCH  15  21
BRANCH   8  23
ATOM     23  C22 J0N d   1      20.552   5.581  12.515  0.00  0.00    -0.066 C 
ATOM     24  H17 J0N d   1      20.924   5.224  11.543  0.00  0.00     0.028 H 
ATOM     25  H18 J0N d   1      19.690   4.972  12.823  0.00  0.00     0.028 H 
ATOM     26  H19 J0N d   1      21.350   5.495  13.267  0.00  0.00     0.028 H 
ENDBRANCH   8  23
BRANCH   9  27
ATOM     27  C21 J0N d   1      20.807   7.385   9.783  0.00  0.00    -0.064 C 
ATOM     28  H8  J0N d   1      20.829   8.226   9.074  0.00  0.00     0.029 H 
ATOM     29  H9  J0N d   1      20.133   6.603   9.404  0.00  0.00     0.029 H 
ATOM     30  H10 J0N d   1      21.821   6.973   9.894  0.00  0.00     0.029 H 
ENDBRANCH   9  27
BRANCH  12  31
ATOM     31  C18 J0N d   1      19.336   7.635  14.858  0.00  0.00    -0.064 C 
ATOM     32  H20 J0N d   1      18.910   8.512  15.368  0.00  0.00     0.029 H 
ATOM     33  H21 J0N d   1      20.293   7.366  15.329  0.00  0.00     0.029 H 
ATOM     34  H22 J0N d   1      18.637   6.789  14.938  0.00  0.00     0.029 H 
ENDBRANCH  12  31
BRANCH  13  35
ATOM     35  C23 J0N d   1      16.978   4.966  12.773  0.00  0.00     0.125 C 
ATOM     36  H25 J0N d   1      16.169   4.332  12.382  0.00  0.00     0.080 H 
ATOM     37  H26 J0N d   1      17.950   4.516  12.523  0.00  0.00     0.080 H 
BRANCH  35  38
ATOM     38  C24 J0N d   1      16.858   5.057  14.168  0.00  0.00    -0.016 C 
ATOM     39  H27 J0N d   1      17.834   5.350  14.582  0.00  0.00     0.042 H 
ATOM     40  H28 J0N d   1      16.113   5.832  14.403  0.00  0.00     0.042 H 
BRANCH  38  41
ATOM     41  C7  J0N d   1      16.439   3.799  14.809  0.00  0.00    -0.056 A 
ATOM     42  C8  J0N d   1      17.387   2.852  15.099  0.00  0.00    -0.075 A 
ATOM     43  C9  J0N d   1      17.074   1.637  15.697  0.00  0.00    -0.060 A 
ATOM     44  H7  J0N d   1      18.422   3.059  14.852  0.00  0.00     0.084 H 
ATOM     45  C10 J0N d   1      15.689   1.396  16.126  0.00  0.00     0.079 A 
ATOM     46  H6  J0N d   1      17.837   0.881  15.844  0.00  0.00     0.085 H 
ATOM     47  C11 J0N d   1      14.735   2.457  15.836  0.00  0.00    -0.060 A 
ATOM     48  C12 J0N d   1      15.146   3.578  15.238  0.00  0.00    -0.075 A 
ATOM     49  H4  J0N d   1      13.692   2.337  16.105  0.00  0.00     0.085 H 
ATOM     50  H24 J0N d   1      14.417   4.365  15.079  0.00  0.00     0.084 H 
BRANCH  45  51
ATOM     51  S1  J0N d   1      15.181   0.017  16.951  0.00  0.00     0.256 S 
ATOM     52  O1  J0N d   1      15.724   0.100  18.296  0.00  0.00    -0.201 OA
ATOM     53  O2  J0N d   1      13.713   0.017  16.883  0.00  0.00    -0.201 OA
BRANCH  51  54
ATOM     54  N3  J0N d   1      15.780  -1.223  16.194  0.00  0.00    -0.324 N 
ATOM     55  H29 J0N d   1      15.595  -2.148  16.526  0.00  0.00     0.169 HD
ATOM     56  H30 J0N d   1      16.346  -1.087  15.381  0.00  0.00     0.169 HD
ENDBRANCH  51  54
ENDBRANCH  45  51
ENDBRANCH  38  41
ENDBRANCH  35  38
ENDBRANCH  13  35
BRANCH  10  57
ATOM     57  C20 J0N d   1      19.876  10.507  10.380  0.00  0.00    -0.053 C 
ATOM     58  H11 J0N d   1      19.423  11.384  10.865  0.00  0.00     0.033 H 
ATOM     59  H12 J0N d   1      19.322  10.270   9.460  0.00  0.00     0.033 H 
ATOM     60  H13 J0N d   1      20.925  10.726  10.131  0.00  0.00     0.033 H 
ENDBRANCH  10  57
BRANCH  11  61
ATOM     61  C19 J0N d   1      18.916  10.468  13.500  0.00  0.00    -0.053 C 
ATOM     62  H14 J0N d   1      18.894  11.336  12.825  0.00  0.00     0.033 H 
ATOM     63  H15 J0N d   1      19.580  10.682  14.351  0.00  0.00     0.033 H 
ATOM     64  H16 J0N d   1      17.900  10.266  13.870  0.00  0.00     0.033 H 
ENDBRANCH  11  61
TORSDOF 11
