REMARK  14 active torsions:
REMARK  status: ('A' for Active; 'I' for Inactive)
REMARK    1  A    between atoms: C13_2  and  C22_9 
REMARK    2  A    between atoms: C14_3  and  C21_4 
REMARK    3  A    between atoms: C15_5  and  C20_6 
REMARK    4  A    between atoms: C16_7  and  C19_8 
REMARK    5  A    between atoms: C17_10  and  C16_7 
REMARK    6  A    between atoms: C17_10  and  C18_11 
REMARK    7  A    between atoms: IR1_35  and  CL1_12 
REMARK    8  A    between atoms: C3_18  and  O5_17 
REMARK    9  A    between atoms: C10_22  and  S1_20 
REMARK   10  A    between atoms: S1_20  and  N3_30 
REMARK   11  A    between atoms: C24_29  and  C25_21 
REMARK   12  A    between atoms: C25_21  and  C7_31 
REMARK   13  A    between atoms: C23_28  and  C24_29 
REMARK   14  A    between atoms: N2_32  and  C23_28 
ROOT
ATOM      1  C13 JR8 d   1      21.177   8.021  12.669  0.00  0.00    -0.018 A 
ATOM      2  C14 JR8 d   1      21.253   9.044  11.549  0.00  0.00    -0.018 A 
ATOM      3  C15 JR8 d   1      20.425  10.245  11.956  0.00  0.00    -0.018 A 
ATOM      4  C16 JR8 d   1      19.833   9.975  13.326  0.00  0.00    -0.018 A 
ATOM      5  C17 JR8 d   1      20.290   8.597  13.778  0.00  0.00    -0.018 A 
ATOM      6  N1  JR8 d   1      17.649   8.966  10.943  0.00  0.00    -0.255 N 
ATOM      7  C1  JR8 d   1      17.325  10.108  10.480  0.00  0.00     0.006 A 
ATOM      8  C2  JR8 d   1      16.196  10.335   9.787  0.00  0.00    -0.034 A 
ATOM      9  C5  JR8 d   1      16.760   7.837  10.705  0.00  0.00     0.137 A 
ATOM     10  C3  JR8 d   1      15.297   9.370   9.507  0.00  0.00     0.069 A 
ATOM     11  C4  JR8 d   1      15.499   8.118   9.924  0.00  0.00    -0.018 A 
ATOM     12  N2  JR8 d   1      18.479   6.580  11.989  0.00  0.00     0.160 N 
ATOM     13  C6  JR8 d   1      17.231   6.536  11.286  0.00  0.00     0.399 A 
ATOM     14  O3  JR8 d   1      16.562   5.518  11.144  0.00  0.00    -0.255 OA
ATOM     15 IR1  JR8 d   1      19.266   8.483  11.961  0.00  0.00     0.000 Ir
ATOM     16  H17 JR8 d   1      17.996  10.941  10.654  0.00  0.00     0.114 H 
ATOM     17  H18 JR8 d   1      15.999  11.342   9.437  0.00  0.00     0.089 H 
ATOM     18  H20 JR8 d   1      14.784   7.332   9.710  0.00  0.00     0.091 H 
ATOM     19  H33 JR8 d   1      19.107   7.358  11.961  0.00  0.00     0.327 HD
ENDROOT
BRANCH  15  20
ATOM     20 CL1  JR8 d   1      19.705   7.058  10.033  0.00  0.00    -0.145 Cl
ATOM     21  H16 JR8 d   1      18.965   7.354   9.416  0.00  0.00     0.145 HD
ENDBRANCH  15  20
BRANCH   1  22
ATOM     22  C22 JR8 d   1      21.875   6.664  12.627  0.00  0.00    -0.067 C 
ATOM     23  H10 JR8 d   1      22.433   6.568  11.684  0.00  0.00     0.028 H 
ATOM     24  H11 JR8 d   1      21.124   5.863  12.691  0.00  0.00     0.028 H 
ATOM     25  H12 JR8 d   1      22.571   6.583  13.475  0.00  0.00     0.028 H 
ENDBRANCH   1  22
BRANCH   2  26
ATOM     26  C21 JR8 d   1      22.028   8.919  10.235  0.00  0.00    -0.067 C 
ATOM     27  H1  JR8 d   1      22.539   7.945  10.202  0.00  0.00     0.028 H 
ATOM     28  H2  JR8 d   1      22.773   9.726  10.170  0.00  0.00     0.028 H 
ATOM     29  H3  JR8 d   1      21.330   8.996   9.389  0.00  0.00     0.028 H 
ENDBRANCH   2  26
BRANCH   3  30
ATOM     30  C20 JR8 d   1      20.245  11.516  11.124  0.00  0.00    -0.067 C 
ATOM     31  H4  JR8 d   1      20.795  11.415  10.177  0.00  0.00     0.028 H 
ATOM     32  H5  JR8 d   1      20.635  12.379  11.684  0.00  0.00     0.028 H 
ATOM     33  H6  JR8 d   1      19.176  11.668  10.913  0.00  0.00     0.028 H 
ENDBRANCH   3  30
BRANCH   4  34
ATOM     34  C19 JR8 d   1      18.939  10.928  14.107  0.00  0.00    -0.067 C 
ATOM     35  H7  JR8 d   1      18.784  11.847  13.523  0.00  0.00     0.028 H 
ATOM     36  H8  JR8 d   1      19.419  11.179  15.065  0.00  0.00     0.028 H 
ATOM     37  H9  JR8 d   1      17.968  10.447  14.298  0.00  0.00     0.028 H 
ENDBRANCH   4  34
BRANCH   5  38
ATOM     38  C18 JR8 d   1      19.918   7.923  15.096  0.00  0.00    -0.067 C 
ATOM     39  H13 JR8 d   1      20.394   6.933  15.149  0.00  0.00     0.028 H 
ATOM     40  H14 JR8 d   1      18.826   7.808  15.153  0.00  0.00     0.028 H 
ATOM     41  H15 JR8 d   1      20.266   8.542  15.936  0.00  0.00     0.028 H 
ENDBRANCH   5  38
BRANCH  12  42
ATOM     42  C23 JR8 d   1      18.724   5.385  12.736  0.00  0.00     0.121 C 
ATOM     43  H27 JR8 d   1      18.486   4.552  12.058  0.00  0.00     0.080 H 
ATOM     44  H28 JR8 d   1      19.802   5.383  12.955  0.00  0.00     0.080 H 
BRANCH  42  45
ATOM     45  C24 JR8 d   1      18.115   5.102  13.891  0.00  0.00    -0.036 C 
ATOM     46  H29 JR8 d   1      18.788   4.451  14.469  0.00  0.00     0.035 H 
ATOM     47  H30 JR8 d   1      17.971   6.050  14.430  0.00  0.00     0.035 H 
BRANCH  45  48
ATOM     48  C25 JR8 d   1      16.928   4.494  13.823  0.00  0.00    -0.039 C 
ATOM     49  H21 JR8 d   1      16.803   4.209  12.768  0.00  0.00     0.040 H 
ATOM     50  H22 JR8 d   1      16.188   5.264  14.085  0.00  0.00     0.040 H 
BRANCH  48  51
ATOM     51  C7  JR8 d   1      16.586   3.419  14.524  0.00  0.00    -0.058 A 
ATOM     52  C12 JR8 d   1      15.299   3.031  14.453  0.00  0.00    -0.075 A 
ATOM     53  C11 JR8 d   1      14.869   1.962  15.139  0.00  0.00    -0.060 A 
ATOM     54  H24 JR8 d   1      14.604   3.588  13.835  0.00  0.00     0.084 H 
ATOM     55  C10 JR8 d   1      15.802   1.197  15.946  0.00  0.00     0.079 A 
ATOM     56  H23 JR8 d   1      13.826   1.670  15.091  0.00  0.00     0.085 H 
ATOM     57  C9  JR8 d   1      17.202   1.673  15.981  0.00  0.00    -0.060 A 
ATOM     58  C8  JR8 d   1      17.500   2.752  15.251  0.00  0.00    -0.075 A 
ATOM     59  H25 JR8 d   1      17.955   1.167  16.574  0.00  0.00     0.085 H 
ATOM     60  H26 JR8 d   1      18.525   3.106  15.245  0.00  0.00     0.084 H 
BRANCH  55  61
ATOM     61  S1  JR8 d   1      15.260  -0.072  16.768  0.00  0.00     0.256 S 
ATOM     62  O1  JR8 d   1      15.731   0.285  18.067  0.00  0.00    -0.201 OA
ATOM     63  O2  JR8 d   1      13.802   0.097  16.699  0.00  0.00    -0.201 OA
BRANCH  61  64
ATOM     64  N3  JR8 d   1      15.794  -1.447  16.156  0.00  0.00    -0.324 N 
ATOM     65  H31 JR8 d   1      15.493  -1.741  15.249  0.00  0.00     0.169 HD
ATOM     66  H32 JR8 d   1      16.429  -2.014  16.680  0.00  0.00     0.169 HD
ENDBRANCH  61  64
ENDBRANCH  55  61
ENDBRANCH  48  51
ENDBRANCH  45  48
ENDBRANCH  42  45
ENDBRANCH  12  42
BRANCH  10  67
ATOM     67  O5  JR8 d   1      14.209   9.678   8.810  0.00  0.00    -0.361 OA
ATOM     68  H19 JR8 d   1      13.677   8.899   8.695  0.00  0.00     0.217 HD
ENDBRANCH  10  67
TORSDOF 14
