REMARK  13 active torsions:
REMARK  status: ('A' for Active; 'I' for Inactive)
REMARK    1  A    between atoms: C13_2  and  C22_9 
REMARK    2  A    between atoms: C14_3  and  C21_4 
REMARK    3  A    between atoms: C15_5  and  C20_6 
REMARK    4  A    between atoms: C16_7  and  C19_8 
REMARK    5  A    between atoms: C17_10  and  C16_7 
REMARK    6  A    between atoms: C17_10  and  C18_11 
REMARK    7  A    between atoms: IR1_36  and  CL1_12 
REMARK    8  A    between atoms: C3_18  and  O5_17 
REMARK    9  A    between atoms: C10_22  and  S1_20 
REMARK   10  A    between atoms: S1_20  and  N3_31 
REMARK       I    between atoms: C24_29  and  N4_21 
REMARK   11  A    between atoms: N4_21  and  C7_32 
REMARK   12  A    between atoms: C23_28  and  C24_29 
REMARK   13  A    between atoms: N2_33  and  C23_28 
ROOT
ATOM      1  C13 JR3 d   1      21.010   8.140  12.894  0.00  0.00    -0.018 A 
ATOM      2  C14 JR3 d   1      21.384   9.313  12.043  0.00  0.00    -0.018 A 
ATOM      3  C15 JR3 d   1      20.536  10.486  12.441  0.00  0.00    -0.018 A 
ATOM      4  C16 JR3 d   1      19.638  10.030  13.564  0.00  0.00    -0.018 A 
ATOM      5  C17 JR3 d   1      19.920   8.578  13.846  0.00  0.00    -0.018 A 
ATOM      6  N1  JR3 d   1      17.711   9.441  10.894  0.00  0.00    -0.255 N 
ATOM      7  C1  JR3 d   1      17.414  10.659  10.621  0.00  0.00     0.006 A 
ATOM      8  C2  JR3 d   1      16.306  11.048   9.929  0.00  0.00    -0.034 A 
ATOM      9  C5  JR3 d   1      16.758   8.479  10.404  0.00  0.00     0.137 A 
ATOM     10  C3  JR3 d   1      15.367  10.197   9.455  0.00  0.00     0.069 A 
ATOM     11  C4  JR3 d   1      15.516   8.891   9.661  0.00  0.00    -0.018 A 
ATOM     12  N2  JR3 d   1      18.383   7.013  11.539  0.00  0.00     0.168 N 
ATOM     13  C6  JR3 d   1      17.165   7.120  10.771  0.00  0.00     0.399 A 
ATOM     14  O3  JR3 d   1      16.416   6.231  10.387  0.00  0.00    -0.255 OA
ATOM     15 IR1  JR3 d   1      19.315   8.849  11.862  0.00  0.00     0.000 Ir
ATOM     16  H17 JR3 d   1      18.091  11.432  10.965  0.00  0.00     0.114 H 
ATOM     17  H18 JR3 d   1      16.168  12.108   9.747  0.00  0.00     0.089 H 
ATOM     18  H20 JR3 d   1      14.787   8.168   9.315  0.00  0.00     0.091 H 
ATOM     19  H30 JR3 d   1      19.037   7.758  11.666  0.00  0.00     0.328 HD
ENDROOT
BRANCH  15  20
ATOM     20 CL1  JR3 d   1      20.068   7.719   9.818  0.00  0.00    -0.145 Cl
ATOM     21  H16 JR3 d   1      19.555   8.108   9.043  0.00  0.00     0.145 HD
ENDBRANCH  15  20
BRANCH   1  22
ATOM     22  C22 JR3 d   1      21.640   6.759  12.806  0.00  0.00    -0.067 C 
ATOM     23  H10 JR3 d   1      22.404   6.754  12.015  0.00  0.00     0.028 H 
ATOM     24  H11 JR3 d   1      20.864   6.016  12.570  0.00  0.00     0.028 H 
ATOM     25  H12 JR3 d   1      22.108   6.507  13.769  0.00  0.00     0.028 H 
ENDBRANCH   1  22
BRANCH   2  26
ATOM     26  C21 JR3 d   1      22.449   9.315  10.944  0.00  0.00    -0.067 C 
ATOM     27  H1  JR3 d   1      22.908   8.318  10.876  0.00  0.00     0.028 H 
ATOM     28  H2  JR3 d   1      23.223  10.059  11.185  0.00  0.00     0.028 H 
ATOM     29  H3  JR3 d   1      21.982   9.570   9.981  0.00  0.00     0.028 H 
ENDBRANCH   2  26
BRANCH   3  30
ATOM     30  C20 JR3 d   1      20.590  11.896  11.841  0.00  0.00    -0.067 C 
ATOM     31  H4  JR3 d   1      21.341  11.924  11.038  0.00  0.00     0.028 H 
ATOM     32  H5  JR3 d   1      20.864  12.618  12.625  0.00  0.00     0.028 H 
ATOM     33  H6  JR3 d   1      19.604  12.158  11.430  0.00  0.00     0.028 H 
ENDBRANCH   3  30
BRANCH   4  34
ATOM     34  C19 JR3 d   1      18.640  10.920  14.251  0.00  0.00    -0.067 C 
ATOM     35  H7  JR3 d   1      18.681  11.927  13.809  0.00  0.00     0.028 H 
ATOM     36  H8  JR3 d   1      18.879  10.980  15.323  0.00  0.00     0.028 H 
ATOM     37  H9  JR3 d   1      17.630  10.505  14.124  0.00  0.00     0.028 H 
ENDBRANCH   4  34
BRANCH   5  38
ATOM     38  C18 JR3 d   1      19.277   7.676  14.893  0.00  0.00    -0.067 C 
ATOM     39  H13 JR3 d   1      19.716   6.669  14.829  0.00  0.00     0.028 H 
ATOM     40  H14 JR3 d   1      18.194   7.616  14.710  0.00  0.00     0.028 H 
ATOM     41  H15 JR3 d   1      19.457   8.091  15.895  0.00  0.00     0.028 H 
ENDBRANCH   5  38
BRANCH  12  42
ATOM     42  C23 JR3 d   1      18.534   5.695  12.098  0.00  0.00     0.181 C 
ATOM     43  H26 JR3 d   1      18.688   5.027  11.238  0.00  0.00     0.093 H 
ATOM     44  H27 JR3 d   1      19.453   5.735  12.700  0.00  0.00     0.093 H 
BRANCH  42  45
ATOM     45  C24 JR3 d   1      17.609   5.069  12.885  0.00  0.00     0.184 C 
ATOM     46  N4  JR3 d   1      18.089   4.253  13.959  0.00  0.00    -0.337 N 
ATOM     47  H21 JR3 d   1      19.031   4.373  14.273  0.00  0.00     0.168 HD
ATOM     48  O4  JR3 d   1      16.436   4.741  12.333  0.00  0.00    -0.175 OA
BRANCH  46  49
ATOM     49  C7  JR3 d   1      17.287   3.294  14.584  0.00  0.00     0.033 A 
ATOM     50  C12 JR3 d   1      15.915   3.363  14.702  0.00  0.00    -0.056 A 
ATOM     51  C11 JR3 d   1      15.195   2.383  15.379  0.00  0.00    -0.058 A 
ATOM     52  H23 JR3 d   1      15.386   4.198  14.258  0.00  0.00     0.087 H 
ATOM     53  C10 JR3 d   1      15.947   1.253  15.978  0.00  0.00     0.079 A 
ATOM     54  H22 JR3 d   1      14.116   2.444  15.466  0.00  0.00     0.086 H 
ATOM     55  C9  JR3 d   1      17.413   1.250  15.865  0.00  0.00    -0.058 A 
ATOM     56  C8  JR3 d   1      17.972   2.285  15.168  0.00  0.00    -0.056 A 
ATOM     57  H24 JR3 d   1      18.018   0.469  16.311  0.00  0.00     0.086 H 
ATOM     58  H25 JR3 d   1      19.052   2.298  15.076  0.00  0.00     0.087 H 
BRANCH  53  59
ATOM     59  S1  JR3 d   1      15.265   0.009  16.853  0.00  0.00     0.256 S 
ATOM     60  O1  JR3 d   1      15.746   0.217  18.123  0.00  0.00    -0.201 OA
ATOM     61  O2  JR3 d   1      13.813   0.171  16.663  0.00  0.00    -0.201 OA
BRANCH  59  62
ATOM     62  N3  JR3 d   1      15.786  -1.445  16.278  0.00  0.00    -0.324 N 
ATOM     63  H28 JR3 d   1      15.520  -1.745  15.362  0.00  0.00     0.169 HD
ATOM     64  H29 JR3 d   1      16.368  -2.028  16.845  0.00  0.00     0.169 HD
ENDBRANCH  59  62
ENDBRANCH  53  59
ENDBRANCH  46  49
ENDBRANCH  42  45
ENDBRANCH  12  42
BRANCH  10  65
ATOM     65  O5  JR3 d   1      14.306  10.645   8.772  0.00  0.00    -0.361 OA
ATOM     66  H19 JR3 d   1      13.759   9.910   8.521  0.00  0.00     0.217 HD
ENDBRANCH  10  65
TORSDOF 13
