REMARK  6 active torsions:
REMARK  status: ('A' for Active; 'I' for Inactive)
REMARK    1  A    between atoms: N1_1  and  C3_3 
REMARK       I    between atoms: N2_2  and  C7_23 
REMARK    2  A    between atoms: C7_23  and  C8_7 
REMARK    3  A    between atoms: C8_7  and  C9_24 
REMARK    4  A    between atoms: C11_8  and  C12_9 
REMARK    5  A    between atoms: C15_12  and  O1_27 
REMARK    6  A    between atoms: C_17  and  N_16 
ROOT
ATOM      1  N1  J0E d   1     -25.081   9.343  -5.278  0.00  0.00    -0.244 N 
ATOM      2  N4  J0E d   1     -23.948   8.325  -3.306  0.00  0.00    -0.222 NA
ATOM      3  C11 J0E d   1     -25.315   7.535  -6.591  0.00  0.00     0.105 A 
ATOM      4  C18 J0E d   1     -23.478   7.160  -2.824  0.00  0.00     0.091 A 
ATOM      5  C   J0E d   1     -24.099   5.905  -4.721  0.00  0.00     0.139 A 
ATOM      6  C1  J0E d   1     -24.640   7.147  -5.322  0.00  0.00     0.088 A 
ATOM      7  C2  J0E d   1     -24.529   8.384  -4.528  0.00  0.00     0.164 A 
ATOM      8  N3  J0E d   1     -25.556   8.865  -6.513  0.00  0.00    -0.169 NA
ATOM      9  N5  J0E d   1     -23.543   5.993  -3.492  0.00  0.00    -0.224 NA
ATOM     10  H12 J0E d   1     -23.021   7.161  -1.841  0.00  0.00     0.146 H 
ENDROOT
BRANCH   1  11
ATOM     11  C3  J0E d   1     -25.291  10.798  -5.077  0.00  0.00     0.052 C 
ATOM     12  C10 J0E d   1     -24.677  11.545  -6.256  0.00  0.00     0.018 C 
ATOM     13  N2  J0E d   1     -24.988  12.950  -6.035  0.00  0.00    -0.350 N 
ATOM     14  H15 J0E d   1     -23.588  11.392  -6.282  0.00  0.00     0.067 H 
ATOM     15  H16 J0E d   1     -25.119  11.198  -7.202  0.00  0.00     0.067 H 
ATOM     16  C6  J0E d   1     -26.398  13.296  -6.130  0.00  0.00    -0.002 C 
ATOM     17  C7  J0E d   1     -24.051  13.856  -5.768  0.00  0.00     0.219 C 
ATOM     18  C5  J0E d   1     -27.049  12.587  -4.950  0.00  0.00    -0.048 C 
ATOM     19  H4  J0E d   1     -26.822  12.938  -7.080  0.00  0.00     0.064 H 
ATOM     20  H5  J0E d   1     -26.537  14.384  -6.053  0.00  0.00     0.064 H 
ATOM     21  C4  J0E d   1     -26.787  11.087  -5.014  0.00  0.00    -0.041 C 
ATOM     22  H2  J0E d   1     -28.134  12.766  -4.975  0.00  0.00     0.035 H 
ATOM     23  H3  J0E d   1     -26.633  12.987  -4.014  0.00  0.00     0.035 H 
ATOM     24  H17 J0E d   1     -27.209  10.609  -4.117  0.00  0.00     0.036 H 
ATOM     25  H18 J0E d   1     -27.271  10.675  -5.911  0.00  0.00     0.036 H 
ATOM     26  O   J0E d   1     -24.308  14.963  -5.322  0.00  0.00    -0.273 OA
ATOM     27  H1  J0E d   1     -24.811  11.120  -4.141  0.00  0.00     0.078 H 
BRANCH  17  28
ATOM     28  C8  J0E d   1     -22.656  13.470  -6.050  0.00  0.00     0.006 C 
ATOM     29  H6  J0E d   1     -22.677  12.424  -6.389  0.00  0.00     0.046 H 
ATOM     30  H7  J0E d   1     -22.109  13.536  -5.098  0.00  0.00     0.046 H 
BRANCH  28  31
ATOM     31  C9  J0E d   1     -21.847  14.250  -7.079  0.00  0.00    -0.068 C 
ATOM     32  H19 J0E d   1     -20.837  13.820  -7.154  0.00  0.00     0.028 H 
ATOM     33  H20 J0E d   1     -21.776  15.303  -6.768  0.00  0.00     0.028 H 
ATOM     34  H21 J0E d   1     -22.344  14.190  -8.058  0.00  0.00     0.028 H 
ENDBRANCH  28  31
ENDBRANCH  17  28
ENDBRANCH   1  11
BRANCH   3  35
ATOM     35  C12 J0E d   1     -25.661   6.654  -7.740  0.00  0.00    -0.004 A 
ATOM     36  C13 J0E d   1     -26.962   6.633  -8.227  0.00  0.00    -0.068 A 
ATOM     37  C14 J0E d   1     -27.285   5.816  -9.303  0.00  0.00    -0.050 A 
ATOM     38  H8  J0E d   1     -27.724   7.253  -7.768  0.00  0.00     0.085 H 
ATOM     39  C15 J0E d   1     -26.309   5.022  -9.893  0.00  0.00     0.065 A 
ATOM     40  H9  J0E d   1     -28.300   5.798  -9.683  0.00  0.00     0.087 H 
ATOM     41  C16 J0E d   1     -25.008   5.043  -9.407  0.00  0.00    -0.050 A 
ATOM     42  C17 J0E d   1     -24.683   5.862  -8.331  0.00  0.00    -0.068 A 
ATOM     43  H10 J0E d   1     -24.247   4.422  -9.866  0.00  0.00     0.087 H 
ATOM     44  H11 J0E d   1     -23.667   5.883  -7.953  0.00  0.00     0.085 H 
BRANCH  39  45
ATOM     45  O1  J0E d   1     -26.632   4.221 -10.945  0.00  0.00    -0.361 OA
ATOM     46  H22 J0E d   1     -26.109   4.465 -11.700  0.00  0.00     0.217 HD
ENDBRANCH  39  45
ENDBRANCH   3  35
BRANCH   5  47
ATOM     47  N   J0E d   1     -24.156   4.721  -5.378  0.00  0.00    -0.383 N 
ATOM     48  H13 J0E d   1     -23.773   3.870  -4.941  0.00  0.00     0.157 HD
ATOM     49  H14 J0E d   1     -24.582   4.672  -6.315  0.00  0.00     0.157 HD
ENDBRANCH   5  47
TORSDOF 6
