REMARK  4 active torsions:
REMARK  status: ('A' for Active; 'I' for Inactive)
REMARK    1  A    between atoms: CBB_7  and  CBC_6 
REMARK    2  A    between atoms: CAZ_8  and  CBB_7 
REMARK       I    between atoms: NAW_10  and  CAZ_8 
REMARK    3  A    between atoms: CAY_15  and  NAM_16 
REMARK    4  A    between atoms: CAO_20  and  CAC_21 
ROOT
ATOM      1  C4  MOL d   1     -24.194   8.271  -4.768  0.00  0.00     0.164 A 
ATOM      2  C5  MOL d   1     -24.532   7.039  -5.161  0.00  0.00     0.088 A 
ATOM      3  C6  MOL d   1     -24.048   6.013  -4.411  0.00  0.00     0.139 A 
ATOM      4  N1  MOL d   1     -23.260   6.194  -3.343  0.00  0.00    -0.224 NA
ATOM      5  N3  MOL d   1     -23.398   8.507  -3.715  0.00  0.00    -0.222 NA
ATOM      6  NAM MOL d   1     -24.695   9.147  -5.623  0.00  0.00    -0.244 N 
ATOM      7  NAN MOL d   1     -25.315   8.589  -6.443  0.00  0.00    -0.169 NA
ATOM      8  C2  MOL d   1     -22.902   7.468  -2.949  0.00  0.00     0.091 A 
ATOM      9  NBD MOL d   1     -24.324   4.755  -4.711  0.00  0.00    -0.383 N 
ATOM     10  CAO MOL d   1     -25.365   7.270  -6.215  0.00  0.00     0.106 C 
ATOM     11  H15 MOL d   1     -22.268   7.644  -2.088  0.00  0.00     0.146 H 
ATOM     12  H16 MOL d   1     -23.947   3.993  -4.130  0.00  0.00     0.157 HD
ATOM     13  H17 MOL d   1     -24.916   4.538  -5.526  0.00  0.00     0.157 HD
ENDROOT
BRANCH   6  14
ATOM     14  CAY MOL d   1     -24.468  10.579  -5.296  0.00  0.00     0.052 C 
ATOM     15  CAX MOL d   1     -24.828  11.533  -6.432  0.00  0.00     0.018 C 
ATOM     16  NAW MOL d   1     -24.542  12.879  -5.900  0.00  0.00    -0.350 N 
ATOM     17  H6  MOL d   1     -24.212  11.328  -7.320  0.00  0.00     0.067 H 
ATOM     18  H7  MOL d   1     -25.892  11.438  -6.695  0.00  0.00     0.067 H 
ATOM     19  CAZ MOL d   1     -23.406  13.588  -5.979  0.00  0.00     0.219 C 
ATOM     20  CAV MOL d   1     -25.525  13.324  -4.905  0.00  0.00    -0.002 C 
ATOM     21  OBA MOL d   1     -23.285  14.680  -5.423  0.00  0.00    -0.273 OA
ATOM     22  CAU MOL d   1     -25.202  12.456  -3.723  0.00  0.00    -0.048 C 
ATOM     23  H8  MOL d   1     -26.553  13.152  -5.256  0.00  0.00     0.064 H 
ATOM     24  H9  MOL d   1     -25.393  14.389  -4.664  0.00  0.00     0.064 H 
ATOM     25  CAT MOL d   1     -25.381  10.981  -4.130  0.00  0.00    -0.041 C 
ATOM     26  H10 MOL d   1     -25.881  12.695  -2.891  0.00  0.00     0.035 H 
ATOM     27  H11 MOL d   1     -24.162  12.630  -3.409  0.00  0.00     0.035 H 
ATOM     28  H12 MOL d   1     -26.427  10.822  -4.430  0.00  0.00     0.036 H 
ATOM     29  H13 MOL d   1     -25.148  10.345  -3.264  0.00  0.00     0.036 H 
ATOM     30  H14 MOL d   1     -23.412  10.716  -5.022  0.00  0.00     0.078 H 
BRANCH  19  31
ATOM     31  CBB MOL d   1     -22.363  13.156  -7.001  0.00  0.00     0.006 C 
ATOM     32  H4  MOL d   1     -21.784  12.307  -6.609  0.00  0.00     0.046 H 
ATOM     33  H5  MOL d   1     -22.857  12.861  -7.939  0.00  0.00     0.046 H 
BRANCH  31  34
ATOM     34  CBC MOL d   1     -21.436  14.348  -7.252  0.00  0.00    -0.068 C 
ATOM     35  H1  MOL d   1     -20.669  14.067  -7.989  0.00  0.00     0.028 H 
ATOM     36  H2  MOL d   1     -20.950  14.639  -6.309  0.00  0.00     0.028 H 
ATOM     37  H3  MOL d   1     -22.023  15.194  -7.639  0.00  0.00     0.028 H 
ENDBRANCH  31  34
ENDBRANCH  19  31
ENDBRANCH   6  14
BRANCH  10  38
ATOM     38  CAC MOL d   1     -25.951   6.377  -7.065  0.00  0.00     0.006 A 
ATOM     39  CAD MOL d   1     -26.161   6.553  -8.451  0.00  0.00    -0.013 A 
ATOM     40  CAG MOL d   1     -25.863   7.740  -9.115  0.00  0.00    -0.071 A 
ATOM     41  CAE MOL d   1     -26.727   5.520  -9.213  0.00  0.00    -0.025 A 
ATOM     42  CAH MOL d   1     -26.119   7.900 -10.472  0.00  0.00    -0.082 A 
ATOM     43  H18 MOL d   1     -25.421   8.559  -8.560  0.00  0.00     0.084 H 
ATOM     44  CAI MOL d   1     -26.678   6.867 -11.209  0.00  0.00    -0.082 A 
ATOM     45  H19 MOL d   1     -25.880   8.839 -10.957  0.00  0.00     0.083 H 
ATOM     46  CAJ MOL d   1     -26.979   5.677 -10.569  0.00  0.00    -0.072 A 
ATOM     47  H20 MOL d   1     -26.876   6.989 -12.268  0.00  0.00     0.083 H 
ATOM     48  H21 MOL d   1     -27.416   4.860 -11.132  0.00  0.00     0.084 H 
ATOM     49  CAF MOL d   1     -27.060   4.297  -8.657  0.00  0.00    -0.072 A 
ATOM     50  CAA MOL d   1     -26.830   4.098  -7.316  0.00  0.00    -0.081 A 
ATOM     51  H22 MOL d   1     -27.493   3.512  -9.266  0.00  0.00     0.084 H 
ATOM     52  CAB MOL d   1     -26.239   5.109  -6.588  0.00  0.00    -0.070 A 
ATOM     53  H23 MOL d   1     -27.108   3.164  -6.840  0.00  0.00     0.083 H 
ATOM     54  H24 MOL d   1     -25.979   4.894  -5.558  0.00  0.00     0.084 H 
ENDBRANCH  10  38
TORSDOF 4
