REMARK  20 active torsions:
REMARK  status: ('A' for Active; 'I' for Inactive)
REMARK    1  A    between atoms: N62_6  and  C61_7 
REMARK    2  A    between atoms: C61_7  and  C52_8 
REMARK    3  A    between atoms: C52_8  and  C51_9 
REMARK    4  A    between atoms: C51_9  and  C53_10 
REMARK    5  A    between atoms: C51_9  and  N50_18 
REMARK    6  A    between atoms: C53_10  and  S54_11 
REMARK    7  A    between atoms: S54_11  and  C55_12 
REMARK    8  A    between atoms: N50_18  and  C40_19 
REMARK    9  A    between atoms: C41_20  and  S43_22 
REMARK   10  A    between atoms: S43_22  and  C44_25 
REMARK   11  A    between atoms: C37_31  and  S34_32 
REMARK   12  A    between atoms: S34_32  and  N32_35 
REMARK       I    between atoms: N32_35  and  C31_36 
REMARK   13  A    between atoms: C31_36  and  C5_38 
REMARK   14  A    between atoms: C2_43  and  C7_44 
REMARK   15  A    between atoms: C10_49  and  C13_50 
REMARK   16  A    between atoms: C13_50  and  C14_51 
REMARK   17  A    between atoms: C13_50  and  C15_57 
REMARK   18  A    between atoms: C14_51  and  N16_52 
REMARK   19  A    between atoms: C21_65  and  O24_66 
REMARK   20  A    between atoms: O24_66  and  C25_67 
ROOT
ATOM      1  N32 J1T d   1       2.066  -7.849  10.143  0.00  0.00    -0.246 N 
ATOM      2  C31 J1T d   1       0.828  -7.464   9.925  0.00  0.00     0.265 C 
ATOM      3  O33 J1T d   1       0.317  -7.863   8.895  0.00  0.00    -0.267 OA
ATOM      4  H26 J1T d   1       2.582  -7.529  10.938  0.00  0.00     0.182 HD
ENDROOT
BRANCH   1   5
ATOM      5  S34 J1T d   1       2.685  -8.821   9.110  0.00  0.00     0.265 S 
ATOM      6  O35 J1T d   1       4.027  -9.250   9.596  0.00  0.00    -0.200 OA
ATOM      7  O36 J1T d   1       1.941 -10.115   8.888  0.00  0.00    -0.200 OA
BRANCH   5   8
ATOM      8  C37 J1T d   1       2.938  -8.085   7.579  0.00  0.00     0.081 A 
ATOM      9  C42 J1T d   1       4.098  -7.319   7.508  0.00  0.00    -0.037 A 
ATOM     10  C41 J1T d   1       4.381  -6.694   6.311  0.00  0.00     0.096 A 
ATOM     11  H23 J1T d   1       4.756  -7.217   8.363  0.00  0.00     0.088 H 
ATOM     12  C40 J1T d   1       3.533  -6.833   5.226  0.00  0.00     0.050 A 
ATOM     13  C39 J1T d   1       2.370  -7.610   5.326  0.00  0.00    -0.054 A 
ATOM     14  C38 J1T d   1       2.052  -8.257   6.518  0.00  0.00    -0.058 A 
ATOM     15  H24 J1T d   1       1.713  -7.708   4.469  0.00  0.00     0.087 H 
ATOM     16  H25 J1T d   1       1.159  -8.864   6.615  0.00  0.00     0.086 H 
BRANCH  10  17
ATOM     17  S43 J1T d   1       5.825  -5.728   6.189  0.00  0.00     0.278 S 
ATOM     18  O48 J1T d   1       5.535  -4.567   5.327  0.00  0.00    -0.213 OA
ATOM     19  O49 J1T d   1       6.282  -5.462   7.594  0.00  0.00    -0.213 OA
BRANCH  17  20
ATOM     20  C44 J1T d   1       7.038  -6.836   5.383  0.00  0.00     0.503 C 
ATOM     21  F46 J1T d   1       6.333  -7.401   4.405  0.00  0.00    -0.157 F 
ATOM     22  F47 J1T d   1       7.422  -7.782   6.250  0.00  0.00    -0.157 F 
ATOM     23  F45 J1T d   1       8.155  -6.233   4.967  0.00  0.00    -0.157 F 
ENDBRANCH  17  20
ENDBRANCH  10  17
BRANCH  12  24
ATOM     24  N50 J1T d   1       3.900  -6.170   4.054  0.00  0.00    -0.383 N 
ATOM     25  H22 J1T d   1       4.767  -5.617   3.998  0.00  0.00     0.160 HD
BRANCH  24  26
ATOM     26  C51 J1T d   1       2.995  -6.295   2.902  0.00  0.00     0.019 C 
ATOM     27  H14 J1T d   1       2.794  -7.359   2.707  0.00  0.00     0.073 H 
BRANCH  26  28
ATOM     28  C52 J1T d   1       3.685  -5.710   1.652  0.00  0.00    -0.023 C 
ATOM     29  H12 J1T d   1       3.740  -4.618   1.773  0.00  0.00     0.038 H 
ATOM     30  H13 J1T d   1       4.702  -6.125   1.599  0.00  0.00     0.038 H 
BRANCH  28  31
ATOM     31  C61 J1T d   1       2.976  -6.008   0.315  0.00  0.00     0.086 C 
ATOM     32  H10 J1T d   1       2.440  -6.966   0.381  0.00  0.00     0.076 H 
ATOM     33  H11 J1T d   1       2.262  -5.204   0.083  0.00  0.00     0.076 H 
BRANCH  31  34
ATOM     34  N62 J1T d   1       4.008  -6.082  -0.736  0.00  0.00    -0.067 N 
ATOM     35  C63 J1T d   1       3.473  -7.004  -1.763  0.00  0.00     0.103 C 
ATOM     36  C64 J1T d   1       4.306  -7.081  -3.032  0.00  0.00     0.042 C 
ATOM     37  H1  J1T d   1       3.418  -8.012  -1.326  0.00  0.00     0.079 H 
ATOM     38  H2  J1T d   1       2.462  -6.667  -2.035  0.00  0.00     0.079 H 
ATOM     39  O65 J1T d   1       4.846  -5.773  -3.514  0.00  0.00    -0.388 OA
ATOM     40  H3  J1T d   1       3.676  -7.504  -3.828  0.00  0.00     0.076 H 
ATOM     41  H4  J1T d   1       5.157  -7.752  -2.842  0.00  0.00     0.076 H 
ATOM     42  C66 J1T d   1       5.263  -4.805  -2.498  0.00  0.00     0.042 C 
ATOM     43  C67 J1T d   1       4.379  -4.736  -1.221  0.00  0.00     0.103 C 
ATOM     44  H5  J1T d   1       5.262  -3.808  -2.962  0.00  0.00     0.076 H 
ATOM     45  H6  J1T d   1       6.286  -5.064  -2.186  0.00  0.00     0.076 H 
ATOM     46  H7  J1T d   1       3.461  -4.176  -1.453  0.00  0.00     0.079 H 
ATOM     47  H8  J1T d   1       4.937  -4.214  -0.430  0.00  0.00     0.079 H 
ATOM     48  H9  J1T d   1       4.841  -6.496  -0.348  0.00  0.00     0.280 HD
ENDBRANCH  31  34
ENDBRANCH  28  31
ENDBRANCH  26  28
BRANCH  26  49
ATOM     49  C53 J1T d   1       1.667  -5.620   3.303  0.00  0.00     0.000 C 
ATOM     50  H15 J1T d   1       1.260  -6.090   4.211  0.00  0.00     0.052 H 
ATOM     51  H16 J1T d   1       0.935  -5.706   2.486  0.00  0.00     0.052 H 
BRANCH  49  52
ATOM     52  S54 J1T d   1       2.054  -3.865   3.621  0.00  0.00    -0.128 SA
BRANCH  52  53
ATOM     53  C55 J1T d   1       2.041  -3.807   5.440  0.00  0.00     0.000 A 
ATOM     54  C56 J1T d   1       2.994  -3.011   6.087  0.00  0.00    -0.067 A 
ATOM     55  C57 J1T d   1       3.091  -2.880   7.475  0.00  0.00    -0.082 A 
ATOM     56  H17 J1T d   1       3.700  -2.463   5.474  0.00  0.00     0.085 H 
ATOM     57  C58 J1T d   1       2.218  -3.549   8.323  0.00  0.00    -0.083 A 
ATOM     58  H18 J1T d   1       3.861  -2.245   7.897  0.00  0.00     0.083 H 
ATOM     59  C59 J1T d   1       1.255  -4.343   7.696  0.00  0.00    -0.082 A 
ATOM     60  H19 J1T d   1       2.280  -3.461   9.402  0.00  0.00     0.083 H 
ATOM     61  C60 J1T d   1       1.170  -4.471   6.305  0.00  0.00    -0.067 A 
ATOM     62  H20 J1T d   1       0.544  -4.882   8.312  0.00  0.00     0.083 H 
ATOM     63  H21 J1T d   1       0.401  -5.108   5.885  0.00  0.00     0.085 H 
ENDBRANCH  52  53
ENDBRANCH  49  52
ENDBRANCH  26  49
ENDBRANCH  24  26
ENDBRANCH  12  24
ENDBRANCH   5   8
ENDBRANCH   1   5
BRANCH   2  64
ATOM     64  C5  J1T d   1       0.283  -6.420  10.880  0.00  0.00     0.033 A 
ATOM     65  C6  J1T d   1       0.984  -6.079  12.028  0.00  0.00    -0.067 A 
ATOM     66  C1  J1T d   1       0.504  -5.122  12.916  0.00  0.00    -0.071 A 
ATOM     67  H27 J1T d   1       1.927  -6.570  12.238  0.00  0.00     0.085 H 
ATOM     68  C2  J1T d   1      -0.700  -4.482  12.673  0.00  0.00    -0.026 A 
ATOM     69  H28 J1T d   1       1.076  -4.876  13.803  0.00  0.00     0.084 H 
ATOM     70  C3  J1T d   1      -1.417  -4.812  11.520  0.00  0.00    -0.071 A 
ATOM     71  C4  J1T d   1      -0.924  -5.767  10.639  0.00  0.00    -0.067 A 
ATOM     72  H30 J1T d   1      -2.361  -4.321  11.312  0.00  0.00     0.084 H 
ATOM     73  H29 J1T d   1      -1.490  -6.009   9.746  0.00  0.00     0.085 H 
BRANCH  68  74
ATOM     74  C7  J1T d   1      -1.163  -3.466  13.650  0.00  0.00    -0.026 A 
ATOM     75  C12 J1T d   1      -2.119  -2.550  13.238  0.00  0.00    -0.072 A 
ATOM     76  C11 J1T d   1      -2.580  -1.573  14.114  0.00  0.00    -0.075 A 
ATOM     77  H31 J1T d   1      -2.509  -2.596  12.228  0.00  0.00     0.084 H 
ATOM     78  C10 J1T d   1      -2.110  -1.484  15.417  0.00  0.00    -0.048 A 
ATOM     79  H32 J1T d   1      -3.325  -0.864  13.771  0.00  0.00     0.084 H 
ATOM     80  C9  J1T d   1      -1.150  -2.386  15.851  0.00  0.00    -0.075 A 
ATOM     81  C8  J1T d   1      -0.700  -3.354  14.957  0.00  0.00    -0.072 A 
ATOM     82  H34 J1T d   1      -0.760  -2.339  16.861  0.00  0.00     0.084 H 
ATOM     83  H33 J1T d   1       0.051  -4.058  15.297  0.00  0.00     0.084 H 
BRANCH  78  84
ATOM     84  C13 J1T d   1      -2.665  -0.379  16.317  0.00  0.00     0.023 C 
ATOM     85  H35 J1T d   1      -3.426   0.152  15.727  0.00  0.00     0.057 H 
BRANCH  84  86
ATOM     86  C14 J1T d   1      -3.384  -0.777  17.593  0.00  0.00     0.094 C 
ATOM     87  H36 J1T d   1      -3.074  -0.133  18.429  0.00  0.00     0.077 H 
ATOM     88  H37 J1T d   1      -3.176  -1.828  17.843  0.00  0.00     0.077 H 
BRANCH  86  89
ATOM     89  N16 J1T d   1      -4.806  -0.589  17.298  0.00  0.00    -0.070 N 
ATOM     90  C17 J1T d   1      -5.205   0.682  17.917  0.00  0.00     0.084 C 
ATOM     91  C18 J1T d   1      -5.641   0.242  19.318  0.00  0.00    -0.041 C 
ATOM     92  H39 J1T d   1      -6.037   1.148  17.369  0.00  0.00     0.076 H 
ATOM     93  H40 J1T d   1      -4.359   1.384  17.965  0.00  0.00     0.076 H 
ATOM     94  C19 J1T d   1      -5.366  -1.269  19.366  0.00  0.00    -0.041 C 
ATOM     95  H41 J1T d   1      -6.711   0.445  19.471  0.00  0.00     0.035 H 
ATOM     96  H42 J1T d   1      -5.055   0.766  20.087  0.00  0.00     0.035 H 
ATOM     97  C20 J1T d   1      -5.551  -1.694  17.911  0.00  0.00     0.084 C 
ATOM     98  H43 J1T d   1      -6.084  -1.782  20.023  0.00  0.00     0.035 H 
ATOM     99  H44 J1T d   1      -4.342  -1.474  19.711  0.00  0.00     0.035 H 
ATOM    100  H45 J1T d   1      -5.098  -2.674  17.699  0.00  0.00     0.076 H 
ATOM    101  H46 J1T d   1      -6.609  -1.706  17.609  0.00  0.00     0.076 H 
ATOM    102  H38 J1T d   1      -4.968  -0.566  16.303  0.00  0.00     0.279 HD
ENDBRANCH  86  89
ENDBRANCH  84  86
BRANCH  84 103
ATOM    103  C15 J1T d   1      -1.487   0.578  16.502  0.00  0.00    -0.012 A 
ATOM    104  C23 J1T d   1      -1.433   1.543  15.502  0.00  0.00    -0.038 A 
ATOM    105  C26 J1T d   1      -0.409   2.478  15.550  0.00  0.00     0.105 A 
ATOM    106  H47 J1T d   1      -2.170   1.564  14.707  0.00  0.00     0.088 H 
ATOM    107  O30 J1T d   1      -0.127   3.537  14.685  0.00  0.00    -0.323 OA
ATOM    108  C27 J1T d   1       0.525   2.428  16.579  0.00  0.00     0.107 A 
ATOM    109  C29 J1T d   1       1.308   3.762  14.912  0.00  0.00     0.115 C 
ATOM    110  O28 J1T d   1       1.406   3.476  16.354  0.00  0.00    -0.323 OA
ATOM    111  H48 J1T d   1       1.597   4.799  14.684  0.00  0.00     0.118 H 
ATOM    112  H49 J1T d   1       1.925   3.071  14.319  0.00  0.00     0.118 H 
ATOM    113  C22 J1T d   1       0.501   1.477  17.589  0.00  0.00    -0.015 A 
ATOM    114  C21 J1T d   1      -0.536   0.547  17.530  0.00  0.00     0.078 A 
ATOM    115  H50 J1T d   1       1.245   1.458  18.378  0.00  0.00     0.092 H 
BRANCH 114 116
ATOM    116  O24 J1T d   1      -0.591  -0.400  18.508  0.00  0.00    -0.355 OA
BRANCH 116 117
ATOM    117  C25 J1T d   1      -0.373   0.006  19.881  0.00  0.00     0.010 C 
ATOM    118  H51 J1T d   1      -0.451  -0.872  20.540  0.00  0.00     0.066 H 
ATOM    119  H52 J1T d   1      -1.132   0.749  20.169  0.00  0.00     0.066 H 
ATOM    120  H53 J1T d   1       0.629   0.449  19.978  0.00  0.00     0.066 H 
ENDBRANCH 116 117
ENDBRANCH 114 116
ENDBRANCH  84 103
ENDBRANCH  78  84
ENDBRANCH  68  74
ENDBRANCH   2  64
TORSDOF 20
