REMARK  14 active torsions:
REMARK  status: ('A' for Active; 'I' for Inactive)
REMARK    1  A    between atoms: C30_1  and  C29_2 
REMARK    2  A    between atoms: C29_2  and  C28_3 
REMARK    3  A    between atoms: C28_3  and  C27_4 
REMARK    4  A    between atoms: C27_4  and  N5_5 
REMARK    5  A    between atoms: N5_5  and  C23_6 
REMARK       I    between atoms: N5_5  and  C22_10 
REMARK    6  A    between atoms: C23_6  and  C24_7 
REMARK    7  A    between atoms: C24_7  and  C25_8 
REMARK    8  A    between atoms: C25_8  and  C26_9 
REMARK    9  A    between atoms: C22_10  and  C18_12 
REMARK   10  A    between atoms: C20_15  and  C21_16 
REMARK   11  A    between atoms: N3_17  and  C13_18 
REMARK   12  A    between atoms: C12_23  and  C11_24 
REMARK       I    between atoms: C11_24  and  N1_26 
REMARK   13  A    between atoms: C8_35  and  C9_36 
REMARK   14  A    between atoms: C9_36  and  N2_37 
ROOT
ATOM      1  C18 J1Q d   1       0.793   1.752  19.347  0.00  0.00     0.147 A 
ATOM      2  N4  J1Q d   1       0.635   1.515  18.083  0.00  0.00    -0.162 NA
ATOM      3  C19 J1Q d   1       0.577   3.100  19.625  0.00  0.00    -0.025 A 
ATOM      4  C20 J1Q d   1       0.312   3.666  18.382  0.00  0.00     0.035 A 
ATOM      5  N3  J1Q d   1       0.347   2.662  17.477  0.00  0.00    -0.237 N 
ATOM      6  H19 J1Q d   1       0.608   3.597  20.593  0.00  0.00     0.090 H 
ENDROOT
BRANCH   5   7
ATOM      7  C13 J1Q d   1       0.252   2.752  16.021  0.00  0.00     0.074 A 
ATOM      8  C14 J1Q d   1      -0.829   3.217  15.310  0.00  0.00    -0.054 A 
ATOM      9  C15 J1Q d   1      -0.715   3.288  13.973  0.00  0.00    -0.081 A 
ATOM     10  H23 J1Q d   1      -1.742   3.516  15.811  0.00  0.00     0.087 H 
ATOM     11  C16 J1Q d   1       0.407   2.832  13.294  0.00  0.00    -0.082 A 
ATOM     12  H24 J1Q d   1      -1.530   3.718  13.403  0.00  0.00     0.083 H 
ATOM     13  C17 J1Q d   1       1.490   2.338  14.040  0.00  0.00    -0.065 A 
ATOM     14  H25 J1Q d   1       0.446   2.857  12.211  0.00  0.00     0.083 H 
ATOM     15  C12 J1Q d   1       1.407   2.346  15.392  0.00  0.00     0.060 A 
ATOM     16  H26 J1Q d   1       2.375   1.958  13.543  0.00  0.00     0.085 H 
BRANCH  15  17
ATOM     17  C11 J1Q d   1       2.582   1.815  16.216  0.00  0.00     0.256 C 
ATOM     18  O1  J1Q d   1       3.174   2.579  17.014  0.00  0.00    -0.267 OA
ATOM     19  N1  J1Q d   1       3.004   0.561  16.032  0.00  0.00    -0.337 N 
ATOM     20  C7  J1Q d   1       2.256  -0.427  15.230  0.00  0.00     0.023 C 
ATOM     21  C8  J1Q d   1       4.098   0.018  16.838  0.00  0.00     0.042 C 
ATOM     22  C6  J1Q d   1       2.067  -1.757  15.927  0.00  0.00    -0.034 A 
ATOM     23  H27 J1Q d   1       2.805  -0.601  14.293  0.00  0.00     0.071 H 
ATOM     24  H28 J1Q d   1       1.264  -0.010  15.002  0.00  0.00     0.071 H 
ATOM     25  C4  J1Q d   1       1.285  -2.720  15.320  0.00  0.00    -0.075 A 
ATOM     26  C5  J1Q d   1       2.672  -2.026  17.135  0.00  0.00    -0.048 A 
ATOM     27  C3  J1Q d   1       1.105  -3.947  15.932  0.00  0.00    -0.082 A 
ATOM     28  H29 J1Q d   1       0.813  -2.514  14.366  0.00  0.00     0.084 H 
ATOM     29  C2  J1Q d   1       1.738  -4.208  17.125  0.00  0.00    -0.082 A 
ATOM     30  H30 J1Q d   1       0.470  -4.697  15.475  0.00  0.00     0.083 H 
ATOM     31  C1  J1Q d   1       2.488  -3.267  17.783  0.00  0.00    -0.076 A 
ATOM     32  H31 J1Q d   1       1.640  -5.195  17.562  0.00  0.00     0.083 H 
ATOM     33  H32 J1Q d   1       2.920  -3.467  18.757  0.00  0.00     0.084 H 
ATOM     34  C10 J1Q d   1       3.495  -0.974  17.795  0.00  0.00    -0.020 C 
ATOM     35  H33 J1Q d   1       4.311  -1.466  18.343  0.00  0.00     0.043 H 
ATOM     36  H34 J1Q d   1       2.855  -0.427  18.503  0.00  0.00     0.043 H 
ATOM     37  H35 J1Q d   1       4.546   0.846  17.407  0.00  0.00     0.075 H 
BRANCH  21  38
ATOM     38  C9  J1Q d   1       5.210  -0.657  16.055  0.00  0.00     0.099 C 
ATOM     39  H36 J1Q d   1       4.777  -1.325  15.295  0.00  0.00     0.078 H 
ATOM     40  H37 J1Q d   1       5.844  -1.241  16.738  0.00  0.00     0.078 H 
BRANCH  38  41
ATOM     41  N2  J1Q d   1       6.010   0.379  15.404  0.00  0.00    -0.077 N 
ATOM     42  H38 J1Q d   1       6.755  -0.052  14.879  0.00  0.00     0.274 HD
ATOM     43  H39 J1Q d   1       6.402   0.990  16.103  0.00  0.00     0.274 HD
ATOM     44  H40 J1Q d   1       5.425   0.913  14.781  0.00  0.00     0.274 HD
ENDBRANCH  38  41
ENDBRANCH  21  38
ENDBRANCH  15  17
ENDBRANCH   5   7
BRANCH   4  45
ATOM     45  C21 J1Q d   1      -0.027   5.086  18.089  0.00  0.00    -0.035 C 
ATOM     46  H20 J1Q d   1       0.026   5.675  19.017  0.00  0.00     0.035 H 
ATOM     47  H21 J1Q d   1      -1.045   5.142  17.676  0.00  0.00     0.035 H 
ATOM     48  H22 J1Q d   1       0.688   5.490  17.357  0.00  0.00     0.035 H 
ENDBRANCH   4  45
BRANCH   1  49
ATOM     49  C22 J1Q d   1       1.184   0.674  20.288  0.00  0.00     0.274 C 
ATOM     50  N5  J1Q d   1       0.487  -0.456  20.433  0.00  0.00    -0.347 N 
ATOM     51  O2  J1Q d   1       2.263   0.883  20.837  0.00  0.00    -0.266 OA
BRANCH  50  52
ATOM     52  C27 J1Q d   1      -0.887  -0.594  19.790  0.00  0.00    -0.002 C 
ATOM     53  H8  J1Q d   1      -1.607  -0.919  20.555  0.00  0.00     0.064 H 
ATOM     54  H9  J1Q d   1      -1.193   0.384  19.390  0.00  0.00     0.064 H 
BRANCH  52  55
ATOM     55  C28 J1Q d   1      -0.879  -1.595  18.673  0.00  0.00    -0.050 C 
ATOM     56  H6  J1Q d   1      -0.212  -1.255  17.867  0.00  0.00     0.035 H 
ATOM     57  H7  J1Q d   1      -0.537  -2.572  19.045  0.00  0.00     0.035 H 
BRANCH  55  58
ATOM     58  C29 J1Q d   1      -2.288  -1.703  18.163  0.00  0.00    -0.067 C 
ATOM     59  H4  J1Q d   1      -2.908  -2.232  18.902  0.00  0.00     0.032 H 
ATOM     60  H5  J1Q d   1      -2.697  -0.696  17.994  0.00  0.00     0.032 H 
BRANCH  58  61
ATOM     61  C30 J1Q d   1      -2.285  -2.456  16.890  0.00  0.00    -0.076 C 
ATOM     62  H1  J1Q d   1      -3.314  -2.539  16.511  0.00  0.00     0.027 H 
ATOM     63  H2  J1Q d   1      -1.875  -3.462  17.060  0.00  0.00     0.027 H 
ATOM     64  H3  J1Q d   1      -1.664  -1.927  16.152  0.00  0.00     0.027 H 
ENDBRANCH  58  61
ENDBRANCH  55  58
ENDBRANCH  52  55
ENDBRANCH  50  52
BRANCH  50  65
ATOM     65  C23 J1Q d   1       1.036  -1.580  21.244  0.00  0.00    -0.002 C 
ATOM     66  H10 J1Q d   1       2.134  -1.559  21.175  0.00  0.00     0.064 H 
ATOM     67  H11 J1Q d   1       0.661  -2.527  20.830  0.00  0.00     0.064 H 
BRANCH  65  68
ATOM     68  C24 J1Q d   1       0.637  -1.500  22.721  0.00  0.00    -0.050 C 
ATOM     69  H12 J1Q d   1      -0.445  -1.673  22.816  0.00  0.00     0.035 H 
ATOM     70  H13 J1Q d   1       0.885  -0.502  23.112  0.00  0.00     0.035 H 
BRANCH  68  71
ATOM     71  C25 J1Q d   1       1.412  -2.589  23.543  0.00  0.00    -0.067 C 
ATOM     72  H14 J1Q d   1       2.496  -2.442  23.431  0.00  0.00     0.032 H 
ATOM     73  H15 J1Q d   1       1.140  -3.593  23.185  0.00  0.00     0.032 H 
BRANCH  71  74
ATOM     74  C26 J1Q d   1       1.014  -2.434  25.012  0.00  0.00    -0.076 C 
ATOM     75  H16 J1Q d   1       1.542  -3.186  25.616  0.00  0.00     0.027 H 
ATOM     76  H17 J1Q d   1      -0.072  -2.578  25.115  0.00  0.00     0.027 H 
ATOM     77  H18 J1Q d   1       1.285  -1.427  25.361  0.00  0.00     0.027 H 
ENDBRANCH  71  74
ENDBRANCH  68  71
ENDBRANCH  65  68
ENDBRANCH  50  65
ENDBRANCH   1  49
TORSDOF 14
