REMARK  4 active torsions:
REMARK  status: ('A' for Active; 'I' for Inactive)
REMARK    1  A    between atoms: C15_2  and  C17_3 
REMARK       I    between atoms: N13_11  and  C15_2 
REMARK    2  A    between atoms: C04_6  and  N01_5 
REMARK    3  A    between atoms: C07_8  and  C04_6 
REMARK    4  A    between atoms: C12_10  and  N13_11 
ROOT
ATOM      1  C15 J2N d   1     -24.050  -0.510 -20.786  0.00  0.00     0.235 C 
ATOM      2  N13 J2N d   1     -23.269  -0.006 -21.770  0.00  0.00    -0.326 N 
ATOM      3  O16 J2N d   1     -24.947   0.112 -20.209  0.00  0.00    -0.272 OA
ATOM      4  H10 J2N d   1     -22.521  -0.608 -22.052  0.00  0.00     0.169 HD
ENDROOT
BRANCH   2   5
ATOM      5  C12 J2N d   1     -23.324   1.225 -22.472  0.00  0.00     0.034 A 
ATOM      6  C10 J2N d   1     -22.701   1.190 -23.717  0.00  0.00    -0.056 A 
ATOM      7  C08 J2N d   1     -22.673   2.317 -24.519  0.00  0.00    -0.067 A 
ATOM      8  H1  J2N d   1     -22.235   0.274 -24.060  0.00  0.00     0.086 H 
ATOM      9  C07 J2N d   1     -23.258   3.509 -24.097  0.00  0.00     0.007 A 
ATOM     10  H9  J2N d   1     -22.190   2.272 -25.488  0.00  0.00     0.085 H 
ATOM     11  C34 J2N d   1     -23.879   3.543 -22.847  0.00  0.00    -0.067 A 
ATOM     12  C32 J2N d   1     -23.906   2.418 -22.036  0.00  0.00    -0.056 A 
ATOM     13  H17 J2N d   1     -24.346   4.460 -22.506  0.00  0.00     0.085 H 
ATOM     14  H16 J2N d   1     -24.380   2.465 -21.062  0.00  0.00     0.086 H 
BRANCH   9  15
ATOM     15  C04 J2N d   1     -23.222   4.705 -24.959  0.00  0.00     0.102 C 
ATOM     16  N05 J2N d   1     -22.556   4.761 -26.070  0.00  0.00    -0.385 N 
ATOM     17  H7  J2N d   1     -21.986   3.957 -26.370  0.00  0.00     0.157 HD
ATOM     18  H8  J2N d   1     -22.597   5.609 -26.653  0.00  0.00     0.157 HD
BRANCH  15  19
ATOM     19  N01 J2N d   1     -23.956   5.767 -24.593  0.00  0.00    -0.385 N 
ATOM     20  H5  J2N d   1     -24.493   5.744 -23.714  0.00  0.00     0.157 HD
ATOM     21  H6  J2N d   1     -23.983   6.605 -25.191  0.00  0.00     0.157 HD
ENDBRANCH  15  19
ENDBRANCH   9  15
ENDBRANCH   2   5
BRANCH   1  22
ATOM     22  C17 J2N d   1     -23.658  -1.935 -20.389  0.00  0.00     0.101 C 
ATOM     23  C19 J2N d   1     -23.906  -2.325 -18.920  0.00  0.00    -0.044 C 
ATOM     24  C22 J2N d   1     -23.212  -3.650 -18.608  0.00  0.00    -0.049 C 
ATOM     25  H11 J2N d   1     -24.987  -2.431 -18.748  0.00  0.00     0.035 H 
ATOM     26  H12 J2N d   1     -23.505  -1.540 -18.262  0.00  0.00     0.035 H 
ATOM     27  C25 J2N d   1     -23.679  -4.744 -19.563  0.00  0.00    -0.005 C 
ATOM     28  H3  J2N d   1     -23.449  -3.947 -17.576  0.00  0.00     0.035 H 
ATOM     29  H4  J2N d   1     -22.125  -3.521 -18.712  0.00  0.00     0.035 H 
ATOM     30  N28 J2N d   1     -24.162  -4.253 -20.872  0.00  0.00    -0.360 N 
ATOM     31  H13 J2N d   1     -24.499  -5.295 -19.079  0.00  0.00     0.064 H 
ATOM     32  H14 J2N d   1     -22.835  -5.426 -19.743  0.00  0.00     0.064 H 
ATOM     33  C30 J2N d   1     -24.223  -2.989 -21.328  0.00  0.00     0.230 C 
ATOM     34  H15 J2N d   1     -24.488  -4.956 -21.504  0.00  0.00     0.162 HD
ATOM     35  O31 J2N d   1     -24.638  -2.735 -22.457  0.00  0.00    -0.273 OA
ATOM     36  H2  J2N d   1     -22.566  -1.972 -20.517  0.00  0.00     0.069 H 
ENDBRANCH   1  22
TORSDOF 4
