REMARK  8 active torsions:
REMARK  status: ('A' for Active; 'I' for Inactive)
REMARK    1  A    between atoms: C16_13  and  C17_2 
REMARK       I    between atoms: C17_2  and  N19_15 
REMARK    2  A    between atoms: N19_15  and  C21_3 
REMARK    3  A    between atoms: C26_6  and  C31_18 
REMARK    4  A    between atoms: C05_8  and  C01_7 
REMARK    5  A    between atoms: O08_9  and  C05_8 
REMARK    6  A    between atoms: C09_10  and  O08_9 
REMARK    7  A    between atoms: C31_18  and  N32_19 
REMARK    8  A    between atoms: C37_21  and  O38_22 
ROOT
ATOM      1  C17 J2Q d   1     -23.335   0.876 -19.327  0.00  0.00     0.259 C 
ATOM      2  O18 J2Q d   1     -23.784   1.893 -18.801  0.00  0.00    -0.267 OA
ATOM      3  N19 J2Q d   1     -22.779   0.869 -20.570  0.00  0.00    -0.323 N 
ATOM      4  H11 J2Q d   1     -22.407  -0.009 -20.872  0.00  0.00     0.169 HD
ENDROOT
BRANCH   1   5
ATOM      5  C16 J2Q d   1     -23.379  -0.439 -18.599  0.00  0.00     0.068 A 
ATOM      6  C14 J2Q d   1     -23.872  -0.411 -17.290  0.00  0.00    -0.065 A 
ATOM      7  C12 J2Q d   1     -23.987  -1.577 -16.553  0.00  0.00    -0.079 A 
ATOM      8  H10 J2Q d   1     -24.167   0.534 -16.848  0.00  0.00     0.085 H 
ATOM      9  C10 J2Q d   1     -23.630  -2.803 -17.100  0.00  0.00    -0.048 A 
ATOM     10  H9  J2Q d   1     -24.360  -1.533 -15.536  0.00  0.00     0.083 H 
ATOM     11  C09 J2Q d   1     -23.180  -2.868 -18.411  0.00  0.00     0.102 A 
ATOM     12  H1  J2Q d   1     -23.703  -3.706 -16.505  0.00  0.00     0.087 H 
ATOM     13  C37 J2Q d   1     -23.045  -1.697 -19.175  0.00  0.00     0.114 A 
BRANCH  11  14
ATOM     14  O08 J2Q d   1     -22.754  -4.012 -19.053  0.00  0.00    -0.349 OA
BRANCH  14  15
ATOM     15  C05 J2Q d   1     -23.256  -5.304 -18.653  0.00  0.00     0.023 C 
ATOM     16  H7  J2Q d   1     -23.906  -5.200 -17.772  0.00  0.00     0.074 H 
ATOM     17  H8  J2Q d   1     -23.825  -5.760 -19.477  0.00  0.00     0.074 H 
BRANCH  15  18
ATOM     18  C01 J2Q d   1     -22.085  -6.138 -18.323  0.00  0.00    -0.056 C 
ATOM     19  H4  J2Q d   1     -22.423  -7.137 -18.011  0.00  0.00     0.030 H 
ATOM     20  H5  J2Q d   1     -21.520  -5.670 -17.503  0.00  0.00     0.030 H 
ATOM     21  H6  J2Q d   1     -21.439  -6.229 -19.208  0.00  0.00     0.030 H 
ENDBRANCH  15  18
ENDBRANCH  14  15
ENDBRANCH  11  14
BRANCH  13  22
ATOM     22  O38 J2Q d   1     -22.589  -1.805 -20.441  0.00  0.00    -0.357 OA
ATOM     23  H18 J2Q d   1     -22.424  -2.719 -20.640  0.00  0.00     0.217 HD
ENDBRANCH  13  22
ENDBRANCH   1   5
BRANCH   3  24
ATOM     24  C21 J2Q d   1     -22.655   1.941 -21.497  0.00  0.00     0.035 A 
ATOM     25  C22 J2Q d   1     -22.414   1.638 -22.834  0.00  0.00    -0.056 A 
ATOM     26  C24 J2Q d   1     -22.328   2.648 -23.781  0.00  0.00    -0.067 A 
ATOM     27  H2  J2Q d   1     -22.293   0.605 -23.138  0.00  0.00     0.086 H 
ATOM     28  C26 J2Q d   1     -22.466   3.987 -23.410  0.00  0.00     0.007 A 
ATOM     29  H3  J2Q d   1     -22.152   2.395 -24.820  0.00  0.00     0.085 H 
ATOM     30  C27 J2Q d   1     -22.718   4.283 -22.072  0.00  0.00    -0.067 A 
ATOM     31  C29 J2Q d   1     -22.812   3.275 -21.124  0.00  0.00    -0.056 A 
ATOM     32  H12 J2Q d   1     -22.842   5.316 -21.768  0.00  0.00     0.085 H 
ATOM     33  H13 J2Q d   1     -23.009   3.526 -20.088  0.00  0.00     0.086 H 
BRANCH  28  34
ATOM     34  C31 J2Q d   1     -22.403   5.071 -24.435  0.00  0.00     0.102 C 
ATOM     35  N35 J2Q d   1     -21.760   4.964 -25.551  0.00  0.00    -0.385 N 
ATOM     36  H16 J2Q d   1     -21.216   4.113 -25.753  0.00  0.00     0.157 HD
ATOM     37  H17 J2Q d   1     -21.791   5.730 -26.239  0.00  0.00     0.157 HD
BRANCH  34  38
ATOM     38  N32 J2Q d   1     -23.107   6.193 -24.193  0.00  0.00    -0.385 N 
ATOM     39  H14 J2Q d   1     -23.093   6.967 -24.873  0.00  0.00     0.157 HD
ATOM     40  H15 J2Q d   1     -23.660   6.278 -23.328  0.00  0.00     0.157 HD
ENDBRANCH  34  38
ENDBRANCH  28  34
ENDBRANCH   3  24
TORSDOF 8
