REMARK  7 active torsions:
REMARK  status: ('A' for Active; 'I' for Inactive)
REMARK    1  A    between atoms: C14_12  and  C13_1 
REMARK    2  A    between atoms: C23_17  and  C28_5 
REMARK    3  A    between atoms: C28_5  and  N29_18 
REMARK    4  A    between atoms: O05_7  and  C01_6 
REMARK    5  A    between atoms: C06_8  and  O05_7 
REMARK       I    between atoms: N16_14  and  C14_12 
REMARK    6  A    between atoms: N16_14  and  C18_15 
REMARK    7  A    between atoms: C34_20  and  O35_21 
ROOT
ATOM      1  C14 J2W d   1     -23.452   0.819 -19.797  0.00  0.00     0.259 C 
ATOM      2  O15 J2W d   1     -24.065   1.786 -19.324  0.00  0.00    -0.267 OA
ATOM      3  N16 J2W d   1     -22.808   0.849 -20.983  0.00  0.00    -0.323 N 
ATOM      4  H10 J2W d   1     -22.347   0.006 -21.261  0.00  0.00     0.169 HD
ENDROOT
BRANCH   3   5
ATOM      5  C18 J2W d   1     -22.714   1.951 -21.881  0.00  0.00     0.035 A 
ATOM      6  C26 J2W d   1     -22.924   3.287 -21.486  0.00  0.00    -0.056 A 
ATOM      7  C24 J2W d   1     -22.860   4.308 -22.436  0.00  0.00    -0.067 A 
ATOM      8  H3  J2W d   1     -23.134   3.521 -20.449  0.00  0.00     0.086 H 
ATOM      9  C23 J2W d   1     -22.514   4.030 -23.766  0.00  0.00     0.007 A 
ATOM     10  H2  J2W d   1     -23.080   5.328 -22.142  0.00  0.00     0.085 H 
ATOM     11  C21 J2W d   1     -22.332   2.703 -24.159  0.00  0.00    -0.067 A 
ATOM     12  C19 J2W d   1     -22.404   1.675 -23.217  0.00  0.00    -0.056 A 
ATOM     13  H1  J2W d   1     -22.134   2.470 -25.199  0.00  0.00     0.085 H 
ATOM     14  H11 J2W d   1     -22.218   0.652 -23.524  0.00  0.00     0.086 H 
BRANCH   9  15
ATOM     15  C28 J2W d   1     -22.484   5.137 -24.754  0.00  0.00     0.102 C 
ATOM     16  N32 J2W d   1     -21.831   5.056 -25.890  0.00  0.00    -0.385 N 
ATOM     17  H14 J2W d   1     -21.289   4.209 -26.113  0.00  0.00     0.157 HD
ATOM     18  H15 J2W d   1     -21.861   5.839 -26.558  0.00  0.00     0.157 HD
BRANCH  15  19
ATOM     19  N29 J2W d   1     -23.185   6.244 -24.476  0.00  0.00    -0.385 N 
ATOM     20  H12 J2W d   1     -23.187   7.032 -25.139  0.00  0.00     0.157 HD
ATOM     21  H13 J2W d   1     -23.722   6.307 -23.599  0.00  0.00     0.157 HD
ENDBRANCH  15  19
ENDBRANCH   9  15
ENDBRANCH   3   5
BRANCH   1  22
ATOM     22  C13 J2W d   1     -23.479  -0.485 -19.046  0.00  0.00     0.068 A 
ATOM     23  C11 J2W d   1     -24.207  -0.561 -17.844  0.00  0.00    -0.065 A 
ATOM     24  C09 J2W d   1     -24.325  -1.770 -17.154  0.00  0.00    -0.079 A 
ATOM     25  H9  J2W d   1     -24.682   0.330 -17.449  0.00  0.00     0.085 H 
ATOM     26  C07 J2W d   1     -23.750  -2.941 -17.650  0.00  0.00    -0.048 A 
ATOM     27  H8  J2W d   1     -24.872  -1.799 -16.218  0.00  0.00     0.083 H 
ATOM     28  C06 J2W d   1     -23.081  -2.918 -18.884  0.00  0.00     0.102 A 
ATOM     29  H7  J2W d   1     -23.820  -3.864 -17.085  0.00  0.00     0.087 H 
ATOM     30  C34 J2W d   1     -22.931  -1.697 -19.585  0.00  0.00     0.114 A 
BRANCH  28  31
ATOM     31  O05 J2W d   1     -22.481  -4.000 -19.478  0.00  0.00    -0.353 OA
BRANCH  31  32
ATOM     32  C01 J2W d   1     -22.748  -5.296 -18.946  0.00  0.00     0.010 C 
ATOM     33  H4  J2W d   1     -22.198  -6.051 -19.526  0.00  0.00     0.066 H 
ATOM     34  H5  J2W d   1     -23.827  -5.502 -19.006  0.00  0.00     0.066 H 
ATOM     35  H6  J2W d   1     -22.425  -5.335 -17.895  0.00  0.00     0.066 H 
ENDBRANCH  31  32
ENDBRANCH  28  31
BRANCH  30  36
ATOM     36  O35 J2W d   1     -22.253  -1.702 -20.763  0.00  0.00    -0.357 OA
ATOM     37  H16 J2W d   1     -21.366  -2.007 -20.615  0.00  0.00     0.217 HD
ENDBRANCH  30  36
ENDBRANCH   1  22
TORSDOF 7
