REMARK  5 active torsions:
REMARK  status: ('A' for Active; 'I' for Inactive)
REMARK    1  A    between atoms: C1_1  and  C7_7 
REMARK    2  A    between atoms: C4_4  and  N3_10 
REMARK    3  A    between atoms: C7_7  and  N1_8 
REMARK       I    between atoms: N3_10  and  C8_11 
REMARK    4  A    between atoms: C8_11  and  C9_13 
REMARK    5  A    between atoms: C14_18  and  O14_19 
ROOT
ATOM      1  C1  MOL d   1     -22.644   3.995 -23.371  0.00  0.00     0.007 A 
ATOM      2  C2  MOL d   1     -23.141   4.193 -22.086  0.00  0.00    -0.067 A 
ATOM      3  C3  MOL d   1     -23.214   3.150 -21.183  0.00  0.00    -0.056 A 
ATOM      4  C4  MOL d   1     -22.835   1.865 -21.560  0.00  0.00     0.035 A 
ATOM      5  C5  MOL d   1     -22.380   1.645 -22.865  0.00  0.00    -0.056 A 
ATOM      6  C6  MOL d   1     -22.297   2.699 -23.762  0.00  0.00    -0.067 A 
ATOM      7  H1  MOL d   1     -23.476   5.180 -21.789  0.00  0.00     0.085 H 
ATOM      8  H2  MOL d   1     -23.569   3.333 -20.175  0.00  0.00     0.086 H 
ATOM      9  H3  MOL d   1     -22.091   0.647 -23.176  0.00  0.00     0.086 H 
ATOM     10  H4  MOL d   1     -21.960   2.516 -24.776  0.00  0.00     0.085 H 
ENDROOT
BRANCH   4  11
ATOM     11  N3  MOL d   1     -22.940   0.800 -20.632  0.00  0.00    -0.323 N 
ATOM     12  C8  MOL d   1     -23.420   0.837 -19.363  0.00  0.00     0.259 C 
ATOM     13  O8  MOL d   1     -23.864   1.857 -18.837  0.00  0.00    -0.267 OA
ATOM     14  H9  MOL d   1     -22.620  -0.092 -20.952  0.00  0.00     0.169 HD
BRANCH  12  15
ATOM     15  C9  MOL d   1     -23.435  -0.469 -18.625  0.00  0.00     0.065 A 
ATOM     16  C10 MOL d   1     -23.929  -0.433 -17.315  0.00  0.00    -0.065 A 
ATOM     17  C11 MOL d   1     -24.020  -1.591 -16.556  0.00  0.00    -0.082 A 
ATOM     18  H10 MOL d   1     -24.244   0.512 -16.888  0.00  0.00     0.085 H 
ATOM     19  C12 MOL d   1     -23.612  -2.801 -17.077  0.00  0.00    -0.080 A 
ATOM     20  H11 MOL d   1     -24.414  -1.544 -15.547  0.00  0.00     0.083 H 
ATOM     21  C13 MOL d   1     -23.127  -2.875 -18.372  0.00  0.00    -0.050 A 
ATOM     22  H12 MOL d   1     -23.671  -3.697 -16.471  0.00  0.00     0.083 H 
ATOM     23  C14 MOL d   1     -23.031  -1.721 -19.151  0.00  0.00     0.081 A 
ATOM     24  H13 MOL d   1     -22.821  -3.831 -18.781  0.00  0.00     0.087 H 
BRANCH  23  25
ATOM     25  O14 MOL d   1     -22.549  -1.854 -20.414  0.00  0.00    -0.360 OA
ATOM     26  H14 MOL d   1     -21.668  -2.208 -20.380  0.00  0.00     0.217 HD
ENDBRANCH  23  25
ENDBRANCH  12  15
ENDBRANCH   4  11
BRANCH   1  27
ATOM     27  C7  MOL d   1     -22.583   5.134 -24.334  0.00  0.00     0.102 C 
ATOM     28  N2  MOL d   1     -21.974   4.956 -25.524  0.00  0.00    -0.385 N 
ATOM     29  H7  MOL d   1     -21.523   4.056 -25.742  0.00  0.00     0.157 HD
ATOM     30  H8  MOL d   1     -21.960   5.720 -26.215  0.00  0.00     0.157 HD
BRANCH  27  31
ATOM     31  N1  MOL d   1     -23.151   6.267 -24.060  0.00  0.00    -0.385 N 
ATOM     32  H5  MOL d   1     -23.101   7.044 -24.734  0.00  0.00     0.157 HD
ATOM     33  H6  MOL d   1     -23.652   6.389 -23.169  0.00  0.00     0.157 HD
ENDBRANCH  27  31
ENDBRANCH   1  27
TORSDOF 5
