REMARK  3 active torsions:
REMARK  status: ('A' for Active; 'I' for Inactive)
REMARK    1  A    between atoms: C10_7  and  C11_8 
REMARK       I    between atoms: N5_20  and  C10_7 
REMARK    2  A    between atoms: C11_8  and  C12_9 
REMARK    3  A    between atoms: C5_11  and  N2_17 
ROOT
ATOM      1  O   J3H d   1      85.007  82.820   5.338  0.00  0.00    -0.273 OA
ATOM      2  C10 J3H d   1      84.605  81.826   5.916  0.00  0.00     0.219 C 
ATOM      3  C5  J3H d   1      85.945  78.774   5.518  0.00  0.00     0.052 C 
ATOM      4  C6  J3H d   1      87.420  79.095   5.732  0.00  0.00    -0.041 C 
ATOM      5  C7  J3H d   1      87.638  80.602   5.722  0.00  0.00    -0.048 C 
ATOM      6  C8  J3H d   1      86.784  81.252   6.799  0.00  0.00    -0.002 C 
ATOM      7  C9  J3H d   1      85.091  79.499   6.558  0.00  0.00     0.018 C 
ATOM      8  N5  J3H d   1      85.434  80.905   6.398  0.00  0.00    -0.350 N 
ATOM      9  H8  J3H d   1      85.647  79.114   4.515  0.00  0.00     0.078 H 
ATOM     10  H9  J3H d   1      88.012  78.637   4.926  0.00  0.00     0.036 H 
ATOM     11  H10 J3H d   1      87.743  78.688   6.701  0.00  0.00     0.036 H 
ATOM     12  H11 J3H d   1      87.355  81.006   4.739  0.00  0.00     0.035 H 
ATOM     13  H12 J3H d   1      88.699  80.819   5.916  0.00  0.00     0.035 H 
ATOM     14  H13 J3H d   1      86.925  82.343   6.811  0.00  0.00     0.064 H 
ATOM     15  H14 J3H d   1      87.019  80.841   7.792  0.00  0.00     0.064 H 
ATOM     16  H15 J3H d   1      85.337  79.152   7.573  0.00  0.00     0.067 H 
ATOM     17  H16 J3H d   1      84.021  79.336   6.364  0.00  0.00     0.067 H 
ENDROOT
BRANCH   3  18
ATOM     18  N2  J3H d   1      85.738  77.304   5.610  0.00  0.00    -0.245 N 
ATOM     19  C1  J3H d   1      85.100  76.443   4.814  0.00  0.00     0.163 A 
ATOM     20  C2  J3H d   1      85.284  75.158   5.501  0.00  0.00     0.076 A 
ATOM     21  N1  J3H d   1      84.407  76.512   3.654  0.00  0.00    -0.222 NA
ATOM     22  C3  J3H d   1      84.666  73.983   4.833  0.00  0.00     0.138 A 
ATOM     23  C4  J3H d   1      86.048  75.330   6.705  0.00  0.00     0.039 A 
ATOM     24  N   J3H d   1      83.998  74.181   3.672  0.00  0.00    -0.224 NA
ATOM     25  N4  J3H d   1      84.772  72.742   5.367  0.00  0.00    -0.383 N 
ATOM     26  C   J3H d   1      83.878  75.400   3.116  0.00  0.00     0.091 A 
ATOM     27  H1  J3H d   1      83.327  75.490   2.187  0.00  0.00     0.146 H 
ATOM     28  H17 J3H d   1      84.338  71.938   4.892  0.00  0.00     0.157 HD
ATOM     29  H18 J3H d   1      85.287  72.603   6.248  0.00  0.00     0.157 HD
ATOM     30  N3  J3H d   1      86.308  76.669   6.740  0.00  0.00    -0.182 NA
ATOM     31  H7  J3H d   1      86.350  74.569   7.423  0.00  0.00     0.119 H 
ENDBRANCH   3  18
BRANCH   2  32
ATOM     32  C11 J3H d   1      83.127  81.633   6.135  0.00  0.00     0.006 C 
ATOM     33  H2  J3H d   1      82.950  80.758   6.778  0.00  0.00     0.046 H 
ATOM     34  H3  J3H d   1      82.616  81.490   5.171  0.00  0.00     0.046 H 
BRANCH  32  35
ATOM     35  C12 J3H d   1      82.622  82.889   6.812  0.00  0.00    -0.068 C 
ATOM     36  H4  J3H d   1      81.541  82.798   6.995  0.00  0.00     0.028 H 
ATOM     37  H5  J3H d   1      82.812  83.757   6.163  0.00  0.00     0.028 H 
ATOM     38  H6  J3H d   1      83.146  83.025   7.770  0.00  0.00     0.028 H 
ENDBRANCH  32  35
ENDBRANCH   2  32
TORSDOF 3
