REMARK  5 active torsions:
REMARK  status: ('A' for Active; 'I' for Inactive)
REMARK    1  A    between atoms: C11_1  and  C12_12 
REMARK       I    between atoms: N5_27  and  C11_1 
REMARK    2  A    between atoms: C12_12  and  C13_2 
REMARK    3  A    between atoms: C3_16  and  N4_26 
REMARK    4  A    between atoms: C4_17  and  C5_18 
REMARK    5  A    between atoms: C6_19  and  N2_24 
ROOT
ATOM      1  N   J3N d   1     -24.200  -6.550   3.489  0.00  0.00    -0.224 NA
ATOM      2  C   J3N d   1     -23.917  -7.784   3.045  0.00  0.00     0.091 A 
ATOM      3  C1  J3N d   1     -25.271  -8.841   4.641  0.00  0.00     0.164 A 
ATOM      4  C2  J3N d   1     -25.639  -7.524   5.193  0.00  0.00     0.088 A 
ATOM      5  C3  J3N d   1     -25.029  -6.341   4.534  0.00  0.00     0.139 A 
ATOM      6  C4  J3N d   1     -26.575  -7.804   6.325  0.00  0.00     0.106 A 
ATOM      7  N1  J3N d   1     -24.423  -8.902   3.590  0.00  0.00    -0.222 NA
ATOM      8  N2  J3N d   1     -25.914  -9.744   5.381  0.00  0.00    -0.244 N 
ATOM      9  N3  J3N d   1     -26.702  -9.153   6.385  0.00  0.00    -0.169 NA
ATOM     10  H7  J3N d   1     -23.244  -7.884   2.201  0.00  0.00     0.146 H 
ENDROOT
BRANCH   8  11
ATOM     11  C6  J3N d   1     -25.979 -11.228   5.332  0.00  0.00     0.052 C 
ATOM     12  C10 J3N d   1     -25.306 -11.850   6.553  0.00  0.00     0.018 C 
ATOM     13  N5  J3N d   1     -25.560 -13.280   6.396  0.00  0.00    -0.350 N 
ATOM     14  H8  J3N d   1     -25.754 -11.472   7.484  0.00  0.00     0.067 H 
ATOM     15  H9  J3N d   1     -24.226 -11.641   6.555  0.00  0.00     0.067 H 
ATOM     16  C11 J3N d   1     -24.648 -14.183   6.027  0.00  0.00     0.219 C 
ATOM     17  C9  J3N d   1     -26.937 -13.658   6.648  0.00  0.00    -0.002 C 
ATOM     18  O   J3N d   1     -24.925 -15.134   5.316  0.00  0.00    -0.273 OA
ATOM     19  C8  J3N d   1     -27.653 -13.136   5.413  0.00  0.00    -0.048 C 
ATOM     20  H18 J3N d   1     -27.040 -14.750   6.735  0.00  0.00     0.064 H 
ATOM     21  H19 J3N d   1     -27.320 -13.179   7.561  0.00  0.00     0.064 H 
ATOM     22  C7  J3N d   1     -27.452 -11.630   5.282  0.00  0.00    -0.041 C 
ATOM     23  H16 J3N d   1     -27.248 -13.635   4.521  0.00  0.00     0.035 H 
ATOM     24  H17 J3N d   1     -28.728 -13.353   5.498  0.00  0.00     0.035 H 
ATOM     25  H14 J3N d   1     -27.875 -11.300   4.322  0.00  0.00     0.036 H 
ATOM     26  H15 J3N d   1     -27.982 -11.131   6.107  0.00  0.00     0.036 H 
ATOM     27  H13 J3N d   1     -25.470 -11.585   4.425  0.00  0.00     0.078 H 
BRANCH  16  28
ATOM     28  C12 J3N d   1     -23.232 -14.020   6.523  0.00  0.00     0.006 C 
ATOM     29  H10 J3N d   1     -23.238 -13.571   7.527  0.00  0.00     0.046 H 
ATOM     30  H11 J3N d   1     -22.668 -13.372   5.835  0.00  0.00     0.046 H 
BRANCH  28  31
ATOM     31  C13 J3N d   1     -22.589 -15.395   6.578  0.00  0.00    -0.068 C 
ATOM     32  H1  J3N d   1     -21.554 -15.302   6.938  0.00  0.00     0.028 H 
ATOM     33  H2  J3N d   1     -22.589 -15.840   5.572  0.00  0.00     0.028 H 
ATOM     34  H3  J3N d   1     -23.159 -16.039   7.264  0.00  0.00     0.028 H 
ENDBRANCH  28  31
ENDBRANCH  16  28
ENDBRANCH   8  11
BRANCH   6  35
ATOM     35  C5  J3N d   1     -27.270  -6.866   7.256  0.00  0.00     0.014 A 
ATOM     36  C17 J3N d   1     -26.939  -6.908   8.615  0.00  0.00     0.017 A 
ATOM     37  N6  J3N d   1     -27.522  -6.115   9.529  0.00  0.00    -0.242 NA
ATOM     38  H4  J3N d   1     -26.181  -7.609   8.944  0.00  0.00     0.116 H 
ATOM     39  C16 J3N d   1     -28.487  -5.246   9.139  0.00  0.00     0.137 A 
ATOM     40  C15 J3N d   1     -28.881  -5.169   7.724  0.00  0.00     0.012 A 
ATOM     41  N7  J3N d   1     -29.267  -4.327   9.747  0.00  0.00    -0.350 N 
ATOM     42  C18 J3N d   1     -29.903  -4.185   7.550  0.00  0.00    -0.054 A 
ATOM     43  C14 J3N d   1     -28.260  -5.997   6.793  0.00  0.00    -0.056 A 
ATOM     44  C19 J3N d   1     -30.091  -3.706   8.842  0.00  0.00    -0.020 A 
ATOM     45  H5  J3N d   1     -30.409  -3.885   6.633  0.00  0.00     0.087 H 
ATOM     46  H6  J3N d   1     -30.808  -2.929   9.105  0.00  0.00     0.111 H 
ATOM     47  H12 J3N d   1     -28.535  -5.968   5.745  0.00  0.00     0.086 H 
ATOM     48  H22 J3N d   1     -29.246  -4.120  10.756  0.00  0.00     0.166 HD
ENDBRANCH   6  35
BRANCH   5  49
ATOM     49  N4  J3N d   1     -25.289  -5.082   4.941  0.00  0.00    -0.383 N 
ATOM     50  H20 J3N d   1     -25.921  -4.918   5.738  0.00  0.00     0.157 HD
ATOM     51  H21 J3N d   1     -24.856  -4.284   4.455  0.00  0.00     0.157 HD
ENDBRANCH   5  49
TORSDOF 5
