REMARK WARNING: 32 MAX_TORS EXCEEDED!!!
REMARK  41 active torsions:
REMARK  status: ('A' for Active; 'I' for Inactive)
REMARK    1  A    between atoms: N_1  and  CA_2 
REMARK    2  A    between atoms: CA_2  and  C_3 
REMARK    3  A    between atoms: CA_2  and  CB_5 
REMARK       I    between atoms: C_3  and  N_12 
REMARK    4  A    between atoms: CB_5  and  CG_6 
REMARK    5  A    between atoms: CG_6  and  CD_7 
REMARK    6  A    between atoms: CD_7  and  NE_8 
REMARK       I    between atoms: NE_8  and  CZ_9 
REMARK       I    between atoms: CZ_9  and  NH1_10 
REMARK       I    between atoms: CZ_9  and  NH2_11 
REMARK    7  A    between atoms: N_12  and  CA_13 
REMARK    8  A    between atoms: CA_13  and  C_14 
REMARK    9  A    between atoms: CA_13  and  CB_16 
REMARK       I    between atoms: C_14  and  N_18 
REMARK   10  A    between atoms: CB_16  and  OG_17 
REMARK   11  A    between atoms: N_18  and  CA_19 
REMARK   12  A    between atoms: CA_19  and  C_20 
REMARK   13  A    between atoms: CA_19  and  CB_22 
REMARK       I    between atoms: C_20  and  N_29 
REMARK   14  A    between atoms: CB_22  and  CG_23 
REMARK   15  A    between atoms: N_29  and  CA_30 
REMARK   16  A    between atoms: CA_30  and  CB_31 
REMARK   17  A    between atoms: CA_30  and  C_33 
REMARK   18  A    between atoms: CB_31  and  OG_32 
REMARK   19  A    between atoms: OG_32  and  P_35 
REMARK       I    between atoms: C_33  and  N_39 
REMARK   20  A    between atoms: N_39  and  CA_40 
REMARK   21  A    between atoms: CA_40  and  C_41 
REMARK   22  A    between atoms: CA_40  and  CB_43 
REMARK       I    between atoms: C_41  and  N_47 
REMARK   23  A    between atoms: CB_43  and  CG_44 
REMARK   24  A    between atoms: CG_44  and  CD1_45 
REMARK   25  A    between atoms: CG_44  and  CD2_46 
REMARK   26  A    between atoms: N_47  and  CA_48 
REMARK   27  A    between atoms: CA_48  and  C_49 
REMARK   28  A    between atoms: CA_48  and  CB_51 
REMARK       I    between atoms: C_49  and  N_57 
REMARK   29  A    between atoms: CB_51  and  CG_52 
REMARK   30  A    between atoms: N_57  and  CA_58 
REMARK   31  A    between atoms: CA_58  and  C_59 
REMARK   32  A    between atoms: CA_58  and  CB_61 
REMARK       I    between atoms: C_59  and  N_68 
REMARK   33  A    between atoms: CB_61  and  CG_62 
REMARK   34  A    between atoms: CG_62  and  CD_63 
REMARK   35  A    between atoms: CD_63  and  NE_64 
REMARK       I    between atoms: NE_64  and  CZ_65 
REMARK       I    between atoms: CZ_65  and  NH1_66 
REMARK   36  A    between atoms: N_68  and  CA_69 
REMARK   37  A    between atoms: CA_69  and  C_70 
REMARK   38  A    between atoms: CA_69  and  CB_72 
REMARK   39  A    between atoms: CB_72  and  CG_73 
REMARK   40  A    between atoms: CG_73  and  SD_74 
REMARK   41  A    between atoms: SD_74  and  CE_75 
ROOT
ATOM      1  CA  ARG d   1       2.560   2.300   6.857  0.00  0.00     0.089 C 
ATOM      2  H35 ARG d   1       2.774   2.251   7.935  0.00  0.00     0.087 H 
ENDROOT
BRANCH   1   3
ATOM      3  N   ARG d   1       1.318   3.054   6.678  0.00  0.00    -0.346 N 
ATOM      4  C   ARG d   1       1.196   4.337   7.019  0.00  0.00     0.243 C 
ATOM      5  O   ARG d   1       2.100   4.991   7.550  0.00  0.00    -0.271 OA
ATOM      6  H34 ARG d   1       0.527   2.587   6.283  0.00  0.00     0.163 HD
BRANCH   4   7
ATOM      7  CA  ARG d   1      -0.161   4.982   6.735  0.00  0.00     0.110 C 
ATOM      8  H31 ARG d   1      -0.940   4.383   7.228  0.00  0.00     0.090 H 
BRANCH   7   9
ATOM      9  N   ARG d   1      -0.198   6.330   7.287  0.00  0.00    -0.344 N 
ATOM     10  C   ARG d   1      -0.773   6.592   8.456  0.00  0.00     0.241 C 
ATOM     11  O   ARG d   1      -1.305   5.723   9.155  0.00  0.00    -0.271 OA
ATOM     12  H30 ARG d   1       0.221   7.078   6.772  0.00  0.00     0.163 HD
BRANCH  10  13
ATOM     13  CA  ARG d   1      -0.755   8.058   8.891  0.00  0.00     0.093 C 
ATOM     14  H22 ARG d   1      -0.351   8.656   8.061  0.00  0.00     0.088 H 
BRANCH  13  15
ATOM     15  N   ARG d   1      -2.099   8.532   9.184  0.00  0.00    -0.346 N 
ATOM     16  C   ARG d   1      -2.679   9.501   8.485  0.00  0.00     0.243 C 
ATOM     17  O   ARG d   1      -2.151  10.029   7.501  0.00  0.00    -0.271 OA
ATOM     18  H21 ARG d   1      -2.604   8.113   9.939  0.00  0.00     0.163 HD
BRANCH  16  19
ATOM     19  CA  ARG d   1      -4.066   9.908   8.978  0.00  0.00     0.109 C 
ATOM     20  H17 ARG d   1      -4.026  10.030  10.070  0.00  0.00     0.090 H 
BRANCH  19  21
ATOM     21  N   ARG d   1      -4.473  11.171   8.389  0.00  0.00    -0.344 N 
ATOM     22  C   ARG d   1      -3.871  12.312   8.716  0.00  0.00     0.249 C 
ATOM     23  O   ARG d   1      -2.916  12.370   9.498  0.00  0.00    -0.271 OA
ATOM     24  H16 ARG d   1      -5.220  11.184   7.725  0.00  0.00     0.163 HD
BRANCH  22  25
ATOM     25  CA  ARG d   1      -4.425  13.575   8.047  0.00  0.00     0.176 C 
ATOM     26  H4  ARG d   1      -5.383  13.317   7.573  0.00  0.00     0.099 H 
BRANCH  25  27
ATOM     27  N   ARG d   1      -4.675  14.648   9.011  0.00  0.00    -0.067 N 
ATOM     28  H1  ARG d   1      -5.037  15.456   8.528  0.00  0.00     0.275 HD
ATOM     29  H2  ARG d   1      -3.813  14.892   9.474  0.00  0.00     0.275 HD
ATOM     30  H3  ARG d   1      -5.347  14.336   9.694  0.00  0.00     0.275 HD
ENDBRANCH  25  27
BRANCH  25  31
ATOM     31  CB  ARG d   1      -3.459  14.049   6.956  0.00  0.00    -0.029 C 
ATOM     32  H5  ARG d   1      -2.532  14.387   7.442  0.00  0.00     0.036 H 
ATOM     33  H6  ARG d   1      -3.925  14.894   6.428  0.00  0.00     0.036 H 
BRANCH  31  34
ATOM     34  CG  ARG d   1      -3.096  12.985   5.924  0.00  0.00    -0.047 C 
ATOM     35  H7  ARG d   1      -3.969  12.338   5.755  0.00  0.00     0.035 H 
ATOM     36  H8  ARG d   1      -2.262  12.381   6.311  0.00  0.00     0.035 H 
BRANCH  34  37
ATOM     37  CD  ARG d   1      -2.679  13.615   4.595  0.00  0.00     0.009 C 
ATOM     38  H9  ARG d   1      -2.002  14.457   4.802  0.00  0.00     0.064 H 
ATOM     39  H10 ARG d   1      -3.580  13.986   4.084  0.00  0.00     0.064 H 
BRANCH  37  40
ATOM     40  NE  ARG d   1      -1.995  12.672   3.710  0.00  0.00    -0.227 N 
ATOM     41  CZ  ARG d   1      -1.236  13.031   2.675  0.00  0.00     0.665 C 
ATOM     42  NH1 ARG d   1      -1.053  14.317   2.389  0.00  0.00    -0.235 N 
ATOM     43  NH2 ARG d   1      -0.651  12.103   1.925  0.00  0.00    -0.235 N 
ATOM     44  H12 ARG d   1      -0.465  14.588   1.588  0.00  0.00     0.174 HD
ATOM     45  H13 ARG d   1      -1.499  15.042   2.969  0.00  0.00     0.174 HD
ATOM     46  H14 ARG d   1      -0.788  11.105   2.140  0.00  0.00     0.174 HD
ATOM     47  H15 ARG d   1      -0.060  12.382   1.128  0.00  0.00     0.174 HD
ATOM     48  H11 ARG d   1      -2.107  11.666   3.899  0.00  0.00     0.177 HD
ENDBRANCH  37  40
ENDBRANCH  34  37
ENDBRANCH  31  34
ENDBRANCH  25  31
ENDBRANCH  22  25
ENDBRANCH  19  21
BRANCH  19  49
ATOM     49  CB  ARG d   1      -5.079   8.817   8.647  0.00  0.00     0.044 C 
ATOM     50  H18 ARG d   1      -5.015   8.021   9.404  0.00  0.00     0.077 H 
ATOM     51  H19 ARG d   1      -4.850   8.399   7.655  0.00  0.00     0.077 H 
BRANCH  49  52
ATOM     52  OG  ARG d   1      -6.390   9.347   8.638  0.00  0.00    -0.398 OA
ATOM     53  H20 ARG d   1      -7.008   8.656   8.431  0.00  0.00     0.209 HD
ENDBRANCH  49  52
ENDBRANCH  19  49
ENDBRANCH  16  19
ENDBRANCH  13  15
BRANCH  13  54
ATOM     54  CB  ARG d   1       0.150   8.256  10.113  0.00  0.00    -0.014 C 
ATOM     55  H23 ARG d   1       1.163   7.916   9.854  0.00  0.00     0.043 H 
ATOM     56  H24 ARG d   1      -0.242   7.644  10.939  0.00  0.00     0.043 H 
BRANCH  54  57
ATOM     57  CG  ARG d   1       0.233   9.690  10.580  0.00  0.00    -0.056 A 
ATOM     58  CD1 ARG d   1       0.678  10.692   9.722  0.00  0.00    -0.077 A 
ATOM     59  CE1 ARG d   1       0.757  12.012  10.146  0.00  0.00    -0.082 A 
ATOM     60  H25 ARG d   1       0.967  10.438   8.709  0.00  0.00     0.084 H 
ATOM     61  CZ  ARG d   1       0.391  12.345  11.435  0.00  0.00    -0.083 A 
ATOM     62  H27 ARG d   1       1.106  12.780   9.466  0.00  0.00     0.083 H 
ATOM     63  CE2 ARG d   1      -0.055  11.362  12.302  0.00  0.00    -0.082 A 
ATOM     64  H29 ARG d   1       0.453  13.375  11.768  0.00  0.00     0.083 H 
ATOM     65  CD2 ARG d   1      -0.133  10.040  11.873  0.00  0.00    -0.077 A 
ATOM     66  H28 ARG d   1      -0.343  11.622  13.314  0.00  0.00     0.083 H 
ATOM     67  H26 ARG d   1      -0.483   9.275  12.556  0.00  0.00     0.084 H 
ENDBRANCH  54  57
ENDBRANCH  13  54
ENDBRANCH  10  13
ENDBRANCH   7   9
BRANCH   7  68
ATOM     68  CB  ARG d   1      -0.453   5.004   5.227  0.00  0.00     0.059 C 
ATOM     69  H32 ARG d   1      -1.511   5.264   5.073  0.00  0.00     0.079 H 
ATOM     70  H33 ARG d   1      -0.257   4.004   4.812  0.00  0.00     0.079 H 
BRANCH  68  71
ATOM     71  OG  ARG d   1       0.358   5.952   4.546  0.00  0.00    -0.280 OA
BRANCH  71  72
ATOM     72  P   ARG d   1       0.340   5.736   2.947  0.00  0.00     0.422 P 
ATOM     73  O1P ARG d   1      -0.538   6.869   2.210  0.00  0.00    -0.617 OA
ATOM     74  O2P ARG d   1      -0.303   4.302   2.604  0.00  0.00    -0.617 OA
ATOM     75  O3P ARG d   1       1.863   5.792   2.429  0.00  0.00    -0.617 OA
ENDBRANCH  71  72
ENDBRANCH  68  71
ENDBRANCH   7  68
ENDBRANCH   4   7
ENDBRANCH   1   3
BRANCH   1  76
ATOM     76  C   ARG d   1       3.755   2.952   6.162  0.00  0.00     0.241 C 
ATOM     77  O   ARG d   1       3.726   3.190   4.955  0.00  0.00    -0.271 OA
ATOM     78  N   ARG d   1       4.806   3.235   6.916  0.00  0.00    -0.346 N 
ATOM     79  H45 ARG d   1       4.754   3.082   7.903  0.00  0.00     0.163 HD
BRANCH  78  80
ATOM     80  CA  ARG d   1       6.032   3.762   6.346  0.00  0.00     0.094 C 
ATOM     81  H46 ARG d   1       5.805   4.191   5.359  0.00  0.00     0.088 H 
BRANCH  80  82
ATOM     82  C   ARG d   1       7.035   2.625   6.153  0.00  0.00     0.241 C 
ATOM     83  O   ARG d   1       6.711   1.444   6.314  0.00  0.00    -0.271 OA
ATOM     84  N   ARG d   1       8.269   2.982   5.807  0.00  0.00    -0.346 N 
ATOM     85  H52 ARG d   1       8.509   3.952   5.770  0.00  0.00     0.163 HD
BRANCH  84  86
ATOM     86  CA  ARG d   1       9.276   1.982   5.481  0.00  0.00     0.089 C 
ATOM     87  H53 ARG d   1       8.855   1.298   4.730  0.00  0.00     0.087 H 
BRANCH  86  88
ATOM     88  C   ARG d   1       9.655   1.170   6.713  0.00  0.00     0.241 C 
ATOM     89  O   ARG d   1       9.793   1.707   7.815  0.00  0.00    -0.271 OA
ATOM     90  N   ARG d   1       9.817  -0.135   6.517  0.00  0.00    -0.345 N 
ATOM     91  H65 ARG d   1       9.652  -0.514   5.606  0.00  0.00     0.163 HD
BRANCH  90  92
ATOM     92  CA  ARG d   1      10.228  -1.028   7.593  0.00  0.00     0.097 C 
ATOM     93  H66 ARG d   1      10.133  -0.487   8.546  0.00  0.00     0.089 H 
BRANCH  92  94
ATOM     94  C   ARG d   1      11.687  -1.447   7.421  0.00  0.00     0.196 C 
ATOM     95  O   ARG d   1      12.386  -0.960   6.529  0.00  0.00    -0.646 OA
ATOM     96  OXT ARG d   1      12.200  -2.282   8.170  0.00  0.00    -0.646 OA
ENDBRANCH  92  94
BRANCH  92  97
ATOM     97  CB  ARG d   1       9.323  -2.261   7.645  0.00  0.00    -0.029 C 
ATOM     98  H67 ARG d   1       9.755  -2.978   8.358  0.00  0.00     0.037 H 
ATOM     99  H68 ARG d   1       9.295  -2.713   6.642  0.00  0.00     0.037 H 
BRANCH  97 100
ATOM    100  CG  ARG d   1       7.887  -1.959   8.077  0.00  0.00    -0.021 C 
ATOM    101  H69 ARG d   1       7.305  -2.892   8.031  0.00  0.00     0.049 H 
ATOM    102  H70 ARG d   1       7.459  -1.225   7.378  0.00  0.00     0.049 H 
BRANCH 100 103
ATOM    103  SD  ARG d   1       7.768  -1.289   9.758  0.00  0.00    -0.173 SA
BRANCH 103 104
ATOM    104  CE  ARG d   1       6.770   0.176   9.497  0.00  0.00    -0.035 C 
ATOM    105  H71 ARG d   1       6.616   0.691  10.457  0.00  0.00     0.041 H 
ATOM    106  H72 ARG d   1       5.796  -0.114   9.076  0.00  0.00     0.041 H 
ATOM    107  H73 ARG d   1       7.285   0.851   8.797  0.00  0.00     0.041 H 
ENDBRANCH 103 104
ENDBRANCH 100 103
ENDBRANCH  97 100
ENDBRANCH  92  97
ENDBRANCH  90  92
ENDBRANCH  86  88
BRANCH  86 108
ATOM    108  CB  ARG d   1      10.518   2.652   4.887  0.00  0.00    -0.036 C 
ATOM    109  H54 ARG d   1      10.822   3.467   5.560  0.00  0.00     0.036 H 
ATOM    110  H55 ARG d   1      10.246   3.068   3.906  0.00  0.00     0.036 H 
BRANCH 108 111
ATOM    111  CG  ARG d   1      11.718   1.722   4.694  0.00  0.00    -0.048 C 
ATOM    112  H56 ARG d   1      11.701   1.327   3.667  0.00  0.00     0.035 H 
ATOM    113  H57 ARG d   1      11.641   0.889   5.408  0.00  0.00     0.035 H 
BRANCH 111 114
ATOM    114  CD  ARG d   1      13.045   2.450   4.923  0.00  0.00     0.009 C 
ATOM    115  H58 ARG d   1      13.768   1.742   5.354  0.00  0.00     0.064 H 
ATOM    116  H59 ARG d   1      12.878   3.278   5.628  0.00  0.00     0.064 H 
BRANCH 114 117
ATOM    117  NE  ARG d   1      13.600   2.992   3.684  0.00  0.00    -0.227 N 
ATOM    118  CZ  ARG d   1      14.528   2.385   2.949  0.00  0.00     0.665 C 
ATOM    119  NH1 ARG d   1      15.013   1.206   3.328  0.00  0.00    -0.235 N 
ATOM    120  NH2 ARG d   1      14.972   2.956   1.833  0.00  0.00    -0.235 N 
ATOM    121  H61 ARG d   1      15.732   0.737   2.758  0.00  0.00     0.174 HD
ATOM    122  H62 ARG d   1      14.670   0.762   4.192  0.00  0.00     0.174 HD
ATOM    123  H63 ARG d   1      14.598   3.869   1.538  0.00  0.00     0.174 HD
ATOM    124  H64 ARG d   1      15.690   2.485   1.264  0.00  0.00     0.174 HD
ATOM    125  H60 ARG d   1      13.249   3.904   3.358  0.00  0.00     0.177 HD
ENDBRANCH 114 117
ENDBRANCH 111 114
ENDBRANCH 108 111
ENDBRANCH  86 108
ENDBRANCH  84  86
ENDBRANCH  80  82
BRANCH  80 126
ATOM    126  CB  ARG d   1       6.583   4.876   7.230  0.00  0.00     0.004 C 
ATOM    127  H47 ARG d   1       5.868   5.712   7.222  0.00  0.00     0.046 H 
ATOM    128  H48 ARG d   1       7.543   5.210   6.811  0.00  0.00     0.046 H 
BRANCH 126 129
ATOM    129  CG  ARG d   1       6.806   4.458   8.647  0.00  0.00     0.053 A 
ATOM    130  ND1 ARG d   1       6.063   4.957   9.695  0.00  0.00    -0.247 NA
ATOM    131  CE1 ARG d   1       6.476   4.408  10.824  0.00  0.00     0.064 A 
ATOM    132  NE2 ARG d   1       7.458   3.570  10.545  0.00  0.00    -0.359 N 
ATOM    133  H50 ARG d   1       6.075   4.612  11.816  0.00  0.00     0.143 H 
ATOM    134  CD2 ARG d   1       7.682   3.581   9.190  0.00  0.00     0.002 A 
ATOM    135  H51 ARG d   1       7.972   3.001  11.232  0.00  0.00     0.166 HD
ATOM    136  H49 ARG d   1       8.425   2.994   8.653  0.00  0.00     0.114 H 
ENDBRANCH 126 129
ENDBRANCH  80 126
ENDBRANCH  78  80
ENDBRANCH   1  76
BRANCH   1 137
ATOM    137  CB  ARG d   1       2.399   0.877   6.324  0.00  0.00    -0.035 C 
ATOM    138  H36 ARG d   1       3.287   0.660   5.711  0.00  0.00     0.037 H 
ATOM    139  H37 ARG d   1       1.503   0.871   5.686  0.00  0.00     0.037 H 
BRANCH 137 140
ATOM    140  CG  ARG d   1       2.249  -0.272   7.315  0.00  0.00    -0.059 C 
ATOM    141  H38 ARG d   1       1.188  -0.352   7.594  0.00  0.00     0.038 H 
BRANCH 140 142
ATOM    142  CD1 ARG d   1       2.677  -1.583   6.672  0.00  0.00    -0.073 C 
ATOM    143  H39 ARG d   1       2.563  -2.402   7.398  0.00  0.00     0.028 H 
ATOM    144  H40 ARG d   1       3.730  -1.512   6.361  0.00  0.00     0.028 H 
ATOM    145  H41 ARG d   1       2.047  -1.783   5.793  0.00  0.00     0.028 H 
ENDBRANCH 140 142
BRANCH 140 146
ATOM    146  CD2 ARG d   1       3.052  -0.008   8.571  0.00  0.00    -0.073 C 
ATOM    147  H42 ARG d   1       2.728   0.943   9.020  0.00  0.00     0.028 H 
ATOM    148  H43 ARG d   1       4.121   0.052   8.317  0.00  0.00     0.028 H 
ATOM    149  H44 ARG d   1       2.890  -0.826   9.288  0.00  0.00     0.028 H 
ENDBRANCH 140 146
ENDBRANCH 137 140
ENDBRANCH   1 137
TORSDOF 41
