REMARK  8 active torsions:
REMARK  status: ('A' for Active; 'I' for Inactive)
REMARK    1  A    between atoms: C4_3  and  S7_4 
REMARK    2  A    between atoms: S7_4  and  N10_6 
REMARK    3  A    between atoms: C6_12  and  N19_20 
REMARK    4  A    between atoms: C1_13  and  S11_14 
REMARK    5  A    between atoms: S11_14  and  C15_17 
REMARK    6  A    between atoms: C15_17  and  C18_18 
REMARK    7  A    between atoms: C18_18  and  O21_19 
REMARK    8  A    between atoms: N19_20  and  C14_21 
ROOT
ATOM      1  F20 V14 d   1      15.019   5.321  15.693  0.00  0.00    -0.202 F 
ATOM      2  C5  V14 d   1      15.642   4.487  14.802  0.00  0.00     0.170 A 
ATOM      3  C4  V14 d   1      15.990   3.178  15.197  0.00  0.00     0.161 A 
ATOM      4  C3  V14 d   1      16.590   2.380  14.228  0.00  0.00     0.182 A 
ATOM      5  F12 V14 d   1      16.950   1.115  14.459  0.00  0.00    -0.201 F 
ATOM      6  C2  V14 d   1      16.804   2.847  12.993  0.00  0.00     0.180 A 
ATOM      7  F13 V14 d   1      17.339   1.964  12.121  0.00  0.00    -0.201 F 
ATOM      8  C6  V14 d   1      15.854   4.983  13.517  0.00  0.00     0.094 A 
ATOM      9  C1  V14 d   1      16.487   4.135  12.572  0.00  0.00     0.130 A 
ENDROOT
BRANCH   8  10
ATOM     10  N19 V14 d   1      15.408   6.326  13.218  0.00  0.00    -0.382 N 
ATOM     11  H8  V14 d   1      15.004   6.475  12.282  0.00  0.00     0.160 HD
BRANCH  10  12
ATOM     12  C14 V14 d   1      15.465   7.508  14.100  0.00  0.00     0.010 C 
ATOM     13  C28 V14 d   1      16.966   7.606  14.638  0.00  0.00    -0.046 C 
ATOM     14  C27 V14 d   1      17.926   8.335  13.753  0.00  0.00    -0.063 C 
ATOM     15  H10 V14 d   1      17.343   6.582  14.775  0.00  0.00     0.035 H 
ATOM     16  H11 V14 d   1      16.944   8.121  15.610  0.00  0.00     0.035 H 
ATOM     17  C26 V14 d   1      18.043   9.862  13.876  0.00  0.00    -0.065 C 
ATOM     18  H12 V14 d   1      17.636   8.117  12.715  0.00  0.00     0.033 H 
ATOM     19  H13 V14 d   1      18.925   7.919  13.950  0.00  0.00     0.033 H 
ATOM     20  C25 V14 d   1      16.824  10.771  13.756  0.00  0.00    -0.065 C 
ATOM     21  H14 V14 d   1      18.746  10.183  13.093  0.00  0.00     0.033 H 
ATOM     22  H15 V14 d   1      18.480  10.060  14.866  0.00  0.00     0.033 H 
ATOM     23  C24 V14 d   1      15.763  10.639  14.852  0.00  0.00    -0.065 C 
ATOM     24  H16 V14 d   1      16.339  10.554  12.793  0.00  0.00     0.033 H 
ATOM     25  H17 V14 d   1      17.181  11.811  13.760  0.00  0.00     0.033 H 
ATOM     26  C23 V14 d   1      14.472   9.977  14.287  0.00  0.00    -0.063 C 
ATOM     27  H18 V14 d   1      15.517  11.639  15.239  0.00  0.00     0.033 H 
ATOM     28  H19 V14 d   1      16.161  10.017  15.668  0.00  0.00     0.033 H 
ATOM     29  C22 V14 d   1      14.798   8.692  13.392  0.00  0.00    -0.046 C 
ATOM     30  H20 V14 d   1      13.937  10.713  13.669  0.00  0.00     0.033 H 
ATOM     31  H21 V14 d   1      13.833   9.671  15.128  0.00  0.00     0.033 H 
ATOM     32  H22 V14 d   1      13.849   8.334  12.966  0.00  0.00     0.035 H 
ATOM     33  H23 V14 d   1      15.466   9.013  12.579  0.00  0.00     0.035 H 
ATOM     34  H9  V14 d   1      14.842   7.309  14.985  0.00  0.00     0.072 H 
ENDBRANCH  10  12
ENDBRANCH   8  10
BRANCH   9  35
ATOM     35  S11 V14 d   1      16.786   4.425  10.854  0.00  0.00     0.182 S 
ATOM     36  O16 V14 d   1      16.430   5.890  10.627  0.00  0.00    -0.222 OA
ATOM     37  O17 V14 d   1      15.844   3.462  10.046  0.00  0.00    -0.222 OA
BRANCH  35  38
ATOM     38  C15 V14 d   1      18.420   3.926  10.465  0.00  0.00     0.053 C 
ATOM     39  H3  V14 d   1      18.600   4.271   9.436  0.00  0.00     0.059 H 
ATOM     40  H4  V14 d   1      18.409   2.826  10.487  0.00  0.00     0.059 H 
BRANCH  38  41
ATOM     41  C18 V14 d   1      19.625   4.333  11.243  0.00  0.00     0.029 C 
ATOM     42  H5  V14 d   1      20.509   4.364  10.589  0.00  0.00     0.075 H 
ATOM     43  H6  V14 d   1      19.803   3.627  12.067  0.00  0.00     0.075 H 
BRANCH  41  44
ATOM     44  O21 V14 d   1      19.357   5.572  11.733  0.00  0.00    -0.400 OA
ATOM     45  H7  V14 d   1      20.100   5.878  12.240  0.00  0.00     0.209 HD
ENDBRANCH  41  44
ENDBRANCH  38  41
ENDBRANCH  35  38
ENDBRANCH   9  35
BRANCH   3  46
ATOM     46  S7  V14 d   1      15.345   2.606  16.783  0.00  0.00     0.263 S 
ATOM     47  O9  V14 d   1      13.946   3.025  16.712  0.00  0.00    -0.201 OA
ATOM     48  O8  V14 d   1      16.192   3.145  17.803  0.00  0.00    -0.201 OA
BRANCH  46  49
ATOM     49  N10 V14 d   1      15.477   0.982  16.676  0.00  0.00    -0.324 N 
ATOM     50  H1  V14 d   1      15.183   0.405  17.438  0.00  0.00     0.169 HD
ATOM     51  H2  V14 d   1      15.852   0.564  15.848  0.00  0.00     0.169 HD
ENDBRANCH  46  49
ENDBRANCH   3  46
TORSDOF 8
