REMARK  3 active torsions:
REMARK  status: ('A' for Active; 'I' for Inactive)
REMARK       I    between atoms: C4_3  and  N1_1 
REMARK       I    between atoms: N_14  and  C4_3 
REMARK    1  A    between atoms: C11_21  and  C10_8 
REMARK    2  A    between atoms: C3_15  and  N_14 
REMARK    3  A    between atoms: C14_26  and  N5_27 
ROOT
ATOM      1  C10 J6E d   1     169.266 142.538 133.314  0.00  0.00     0.034 C 
ATOM      2  C3  J6E d   1     167.561 141.618 131.867  0.00  0.00     0.037 C 
ATOM      3  C2  J6E d   1     167.406 140.544 132.728  0.00  0.00    -0.054 C 
ATOM      4  C1  J6E d   1     168.225 140.418 133.835  0.00  0.00    -0.043 C 
ATOM      5  C9  J6E d   1     168.557 142.556 132.118  0.00  0.00    -0.042 C 
ATOM      6  C   J6E d   1     169.129 141.416 134.111  0.00  0.00     0.129 C 
ATOM      7  F   J6E d   1     169.982 141.222 135.139  0.00  0.00    -0.205 F 
ATOM      8  H16 J6E d   1     166.641 139.801 132.534  0.00  0.00     0.087 H 
ATOM      9  H17 J6E d   1     168.155 139.546 134.475  0.00  0.00     0.088 H 
ATOM     10  H18 J6E d   1     168.783 143.310 131.373  0.00  0.00     0.088 H 
ENDROOT
BRANCH   1  11
ATOM     11  C11 J6E d   1     170.152 143.663 133.643  0.00  0.00     0.090 A 
ATOM     12  N4  J6E d   1     170.680 144.299 132.611  0.00  0.00    -0.061 NA
ATOM     13  C16 J6E d   1     171.646 145.203 132.843  0.00  0.00     0.734 A 
ATOM     14  N3  J6E d   1     172.313 145.923 131.952  0.00  0.00    -0.071 NA
ATOM     15  N2  J6E d   1     172.040 145.531 134.136  0.00  0.00    -0.143 N 
ATOM     16  C15 J6E d   1     173.121 146.765 132.670  0.00  0.00     0.059 A 
ATOM     17  C14 J6E d   1     172.938 146.563 133.998  0.00  0.00     0.124 A 
ATOM     18  H10 J6E d   1     173.809 147.490 132.238  0.00  0.00     0.120 H 
ATOM     19  C13 J6E d   1     171.521 144.857 135.207  0.00  0.00     0.006 A 
ATOM     20  C12 J6E d   1     170.613 143.906 134.975  0.00  0.00    -0.038 A 
ATOM     21  H9  J6E d   1     171.840 145.090 136.222  0.00  0.00     0.113 H 
ATOM     22  H19 J6E d   1     170.223 143.314 135.802  0.00  0.00     0.089 H 
BRANCH  17  23
ATOM     23  N5  J6E d   1     173.271 147.345 135.102  0.00  0.00    -0.263 NA
ATOM     24  C17 J6E d   1     172.164 148.256 135.434  0.00  0.00     0.005 C 
ATOM     25  C18 J6E d   1     172.522 149.121 136.609  0.00  0.00     0.031 C 
ATOM     26  H11 J6E d   1     171.271 147.664 135.681  0.00  0.00     0.059 H 
ATOM     27  H12 J6E d   1     171.951 148.897 134.566  0.00  0.00     0.059 H 
ATOM     28  O1  J6E d   1     173.733 149.827 136.378  0.00  0.00    -0.389 OA
ATOM     29  H22 J6E d   1     172.642 148.486 137.499  0.00  0.00     0.076 H 
ATOM     30  H23 J6E d   1     171.712 149.845 136.781  0.00  0.00     0.076 H 
ATOM     31  C19 J6E d   1     174.808 148.903 136.166  0.00  0.00     0.031 C 
ATOM     32  C20 J6E d   1     174.566 148.020 134.975  0.00  0.00     0.005 C 
ATOM     33  H20 J6E d   1     175.737 149.470 136.005  0.00  0.00     0.076 H 
ATOM     34  H21 J6E d   1     174.915 148.271 137.060  0.00  0.00     0.076 H 
ATOM     35  H13 J6E d   1     174.569 148.633 134.061  0.00  0.00     0.059 H 
ATOM     36  H14 J6E d   1     175.365 147.266 134.913  0.00  0.00     0.059 H 
ENDBRANCH  17  23
ENDBRANCH   1  11
BRANCH   2  37
ATOM     37  N   J6E d   1     166.586 141.784 130.859  0.00  0.00    -0.309 N 
ATOM     38  C4  J6E d   1     166.332 142.920 130.162  0.00  0.00     0.322 C 
ATOM     39  N1  J6E d   1     165.305 142.859 129.290  0.00  0.00    -0.334 N 
ATOM     40  O   J6E d   1     167.023 143.926 130.237  0.00  0.00    -0.247 OA
ATOM     41  C5  J6E d   1     164.831 144.081 128.655  0.00  0.00    -0.001 C 
ATOM     42  C8  J6E d   1     164.514 141.729 128.868  0.00  0.00    -0.001 C 
ATOM     43  C6  J6E d   1     163.575 143.645 127.955  0.00  0.00    -0.049 C 
ATOM     44  H1  J6E d   1     165.570 144.463 127.936  0.00  0.00     0.064 H 
ATOM     45  H2  J6E d   1     164.615 144.856 129.405  0.00  0.00     0.064 H 
ATOM     46  C7  J6E d   1     163.829 142.242 127.642  0.00  0.00    -0.049 C 
ATOM     47  H3  J6E d   1     163.413 144.230 127.037  0.00  0.00     0.035 H 
ATOM     48  H4  J6E d   1     162.701 143.749 128.615  0.00  0.00     0.035 H 
ATOM     49  H5  J6E d   1     164.479 142.148 126.760  0.00  0.00     0.035 H 
ATOM     50  H6  J6E d   1     162.887 141.702 127.463  0.00  0.00     0.035 H 
ATOM     51  H7  J6E d   1     163.784 141.446 129.641  0.00  0.00     0.064 H 
ATOM     52  H8  J6E d   1     165.152 140.865 128.633  0.00  0.00     0.064 H 
ATOM     53  H15 J6E d   1     166.027 140.985 130.637  0.00  0.00     0.170 HD
ENDBRANCH   2  37
TORSDOF 3
