REMARK  5 active torsions:
REMARK  status: ('A' for Active; 'I' for Inactive)
REMARK    1  A    between atoms: C11_14  and  C7_4 
REMARK    2  A    between atoms: C11_14  and  C13_7 
REMARK    3  A    between atoms: C13_7  and  C14_15 
REMARK    4  A    between atoms: N2_11  and  C1_10 
REMARK    5  A    between atoms: C17_18  and  C11_14 
ROOT
ATOM      1  C11 J6N d   1      16.796  64.627  26.938  0.00  0.00     0.006 C 
ATOM      2  H10 J6N d   1      16.685  65.696  26.704  0.00  0.00     0.055 H 
ENDROOT
BRANCH   1   3
ATOM      3  C7  J6N d   1      15.566  63.928  26.380  0.00  0.00    -0.047 A 
ATOM      4  C6  J6N d   1      15.235  62.627  26.785  0.00  0.00    -0.045 A 
ATOM      5  C5  J6N d   1      14.090  61.991  26.258  0.00  0.00     0.103 A 
ATOM      6  H1  J6N d   1      15.859  62.109  27.504  0.00  0.00     0.088 H 
ATOM      7  C10 J6N d   1      13.301  62.658  25.343  0.00  0.00     0.078 A 
ATOM      8  N4  J6N d   1      13.543  60.762  26.466  0.00  0.00    -0.158 NA
ATOM      9  N2  J6N d   1      12.304  61.818  25.026  0.00  0.00    -0.276 N 
ATOM     10  C9  J6N d   1      13.613  63.956  24.926  0.00  0.00    -0.053 A 
ATOM     11  N3  J6N d   1      12.453  60.649  25.719  0.00  0.00     0.005 NA
ATOM     12  C8  J6N d   1      14.745  64.580  25.450  0.00  0.00    -0.074 A 
ATOM     13  H9  J6N d   1      12.985  64.469  24.207  0.00  0.00     0.087 H 
ATOM     14  H2  J6N d   1      14.994  65.586  25.133  0.00  0.00     0.084 H 
BRANCH   9  15
ATOM     15  C1  J6N d   1      11.185  62.001  24.110  0.00  0.00    -0.000 C 
ATOM     16  H6  J6N d   1      11.244  63.001  23.655  0.00  0.00     0.059 H 
ATOM     17  H7  J6N d   1      10.239  61.905  24.663  0.00  0.00     0.059 H 
ATOM     18  H8  J6N d   1      11.228  61.236  23.321  0.00  0.00     0.059 H 
ENDBRANCH   9  15
ENDBRANCH   1   3
BRANCH   1  19
ATOM     19  C13 J6N d   1      18.073  64.160  26.243  0.00  0.00     0.026 C 
ATOM     20  H3  J6N d   1      18.196  63.084  26.437  0.00  0.00     0.050 H 
ATOM     21  H4  J6N d   1      18.921  64.710  26.677  0.00  0.00     0.050 H 
BRANCH  19  22
ATOM     22  C14 J6N d   1      18.089  64.375  24.736  0.00  0.00     0.173 C 
ATOM     23  O15 J6N d   1      18.745  63.542  24.072  0.00  0.00    -0.648 OA
ATOM     24  O16 J6N d   1      17.461  65.348  24.246  0.00  0.00    -0.648 OA
ENDBRANCH  19  22
ENDBRANCH   1  19
BRANCH   1  25
ATOM     25  C17 J6N d   1      16.878  64.523  28.457  0.00  0.00    -0.049 A 
ATOM     26  C18 J6N d   1      15.788  64.902  29.238  0.00  0.00    -0.075 A 
ATOM     27  C19 J6N d   1      15.838  64.816  30.618  0.00  0.00    -0.061 A 
ATOM     28  H11 J6N d   1      14.888  65.269  28.758  0.00  0.00     0.084 H 
ATOM     29  C20 J6N d   1      16.982  64.350  31.229  0.00  0.00     0.034 A 
ATOM     30  H12 J6N d   1      14.983  65.113  31.215  0.00  0.00     0.086 H 
ATOM     31  C22 J6N d   1      18.076  63.968  30.487  0.00  0.00    -0.061 A 
ATOM     32 CL   J6N d   1      17.041  64.245  32.966  0.00  0.00    -0.084 Cl
ATOM     33  C23 J6N d   1      18.027  64.053  29.100  0.00  0.00    -0.075 A 
ATOM     34  H5  J6N d   1      18.970  63.603  30.980  0.00  0.00     0.086 H 
ATOM     35  H13 J6N d   1      18.887  63.752  28.512  0.00  0.00     0.084 H 
ENDBRANCH   1  25
TORSDOF 5
