REMARK  6 active torsions:
REMARK  status: ('A' for Active; 'I' for Inactive)
REMARK    1  A    between atoms: C2_2  and  C1_1 
REMARK    2  A    between atoms: C11_7  and  C12_8 
REMARK    3  A    between atoms: C9_15  and  C11_7 
REMARK    4  A    between atoms: C9_15  and  C15_9 
REMARK    5  A    between atoms: C4_13  and  C9_15 
REMARK    6  A    between atoms: N19_20  and  C20_21 
ROOT
ATOM      1  C9  J6Q d   1      17.064  63.982  26.819  0.00  0.00     0.006 C 
ATOM      2  H11 J6Q d   1      17.785  63.167  26.659  0.00  0.00     0.055 H 
ENDROOT
BRANCH   1   3
ATOM      3  C11 J6Q d   1      17.616  65.177  26.070  0.00  0.00     0.026 C 
ATOM      4  H7  J6Q d   1      16.876  65.990  26.106  0.00  0.00     0.050 H 
ATOM      5  H8  J6Q d   1      18.545  65.504  26.560  0.00  0.00     0.050 H 
BRANCH   3   6
ATOM      6  C12 J6Q d   1      17.917  64.854  24.616  0.00  0.00     0.173 C 
ATOM      7  O13 J6Q d   1      17.403  65.577  23.743  0.00  0.00    -0.648 OA
ATOM      8  O14 J6Q d   1      18.658  63.884  24.378  0.00  0.00    -0.648 OA
ENDBRANCH   3   6
ENDBRANCH   1   3
BRANCH   1   9
ATOM      9  C15 J6Q d   1      15.738  63.501  26.245  0.00  0.00    -0.047 A 
ATOM     10  C16 J6Q d   1      14.964  64.292  25.386  0.00  0.00    -0.074 A 
ATOM     11  C17 J6Q d   1      13.757  63.832  24.874  0.00  0.00    -0.053 A 
ATOM     12  H9  J6Q d   1      15.313  65.282  25.116  0.00  0.00     0.084 H 
ATOM     13  C18 J6Q d   1      13.320  62.557  25.228  0.00  0.00     0.078 A 
ATOM     14  H12 J6Q d   1      13.166  64.454  24.211  0.00  0.00     0.087 H 
ATOM     15  C23 J6Q d   1      14.056  61.753  26.070  0.00  0.00     0.103 A 
ATOM     16  N19 J6Q d   1      12.229  61.854  24.905  0.00  0.00    -0.276 N 
ATOM     17  C24 J6Q d   1      15.280  62.226  26.587  0.00  0.00    -0.045 A 
ATOM     18  N22 J6Q d   1      13.384  60.580  26.232  0.00  0.00    -0.158 NA
ATOM     19  H10 J6Q d   1      15.866  61.600  27.250  0.00  0.00     0.088 H 
ATOM     20  N21 J6Q d   1      12.269  60.637  25.523  0.00  0.00     0.005 NA
BRANCH  16  21
ATOM     21  C20 J6Q d   1      11.108  62.213  24.045  0.00  0.00    -0.000 C 
ATOM     22  H13 J6Q d   1      10.389  61.381  24.013  0.00  0.00     0.059 H 
ATOM     23  H14 J6Q d   1      11.476  62.419  23.029  0.00  0.00     0.059 H 
ATOM     24  H15 J6Q d   1      10.612  63.110  24.444  0.00  0.00     0.059 H 
ENDBRANCH  16  21
ENDBRANCH   1   9
BRANCH   1  25
ATOM     25  C4  J6Q d   1      16.982  64.180  28.321  0.00  0.00    -0.049 A 
ATOM     26  C3  J6Q d   1      15.936  64.855  28.937  0.00  0.00    -0.069 A 
ATOM     27  C2  J6Q d   1      15.896  65.016  30.319  0.00  0.00    -0.040 A 
ATOM     28  H4  J6Q d   1      15.136  65.264  28.330  0.00  0.00     0.085 H 
ATOM     29  C7  J6Q d   1      16.942  64.478  31.079  0.00  0.00     0.040 A 
ATOM     30  C6  J6Q d   1      17.982  63.808  30.475  0.00  0.00    -0.061 A 
ATOM     31 CL8  J6Q d   1      16.976  64.629  32.803  0.00  0.00    -0.084 Cl
ATOM     32  C5  J6Q d   1      18.001  63.661  29.109  0.00  0.00    -0.074 A 
ATOM     33  H6  J6Q d   1      18.785  63.397  31.076  0.00  0.00     0.086 H 
ATOM     34  H5  J6Q d   1      18.823  63.133  28.640  0.00  0.00     0.084 H 
BRANCH  27  35
ATOM     35  C1  J6Q d   1      14.739  65.756  30.937  0.00  0.00    -0.050 C 
ATOM     36  H1  J6Q d   1      14.048  66.083  30.146  0.00  0.00     0.033 H 
ATOM     37  H2  J6Q d   1      15.115  66.635  31.482  0.00  0.00     0.033 H 
ATOM     38  H3  J6Q d   1      14.209  65.091  31.635  0.00  0.00     0.033 H 
ENDBRANCH  27  35
ENDBRANCH   1  25
TORSDOF 6
