REMARK  7 active torsions:
REMARK  status: ('A' for Active; 'I' for Inactive)
REMARK    1  A    between atoms: C7_20  and  C1_1 
REMARK    2  A    between atoms: C3_3  and  C19_10 
REMARK    3  A    between atoms: C15_8  and  C16_9 
REMARK    4  A    between atoms: C10_23  and  C15_8 
REMARK    5  A    between atoms: C22_12  and  C26_16 
REMARK    6  A    between atoms: C26_16  and  N27_27 
REMARK       I    between atoms: N8_21  and  C7_20 
REMARK    7  A    between atoms: N8_21  and  C9_22 
ROOT
ATOM      1  C1  J7B d   1      -7.475   6.002   2.226  0.00  0.00     0.033 A 
ATOM      2  C2  J7B d   1      -7.370   5.284   3.445  0.00  0.00    -0.057 A 
ATOM      3  C3  J7B d   1      -7.874   3.982   3.582  0.00  0.00    -0.025 A 
ATOM      4  C4  J7B d   1      -8.495   3.396   2.465  0.00  0.00    -0.072 A 
ATOM      5  C5  J7B d   1      -8.554   4.061   1.217  0.00  0.00    -0.081 A 
ATOM      6  C6  J7B d   1      -8.044   5.368   1.097  0.00  0.00    -0.068 A 
ATOM      7  H1  J7B d   1      -6.887   5.754   4.294  0.00  0.00     0.086 H 
ATOM      8  H14 J7B d   1      -8.939   2.412   2.562  0.00  0.00     0.084 H 
ATOM      9  H15 J7B d   1      -8.990   3.566   0.357  0.00  0.00     0.083 H 
ATOM     10  H16 J7B d   1      -8.087   5.885   0.145  0.00  0.00     0.085 H 
ENDROOT
BRANCH   1  11
ATOM     11  C7  J7B d   1      -6.957   7.422   2.183  0.00  0.00     0.256 C 
ATOM     12  N8  J7B d   1      -6.563   7.995   3.335  0.00  0.00    -0.322 N 
ATOM     13  H17 J7B d   1      -6.583   7.399   4.138  0.00  0.00     0.169 HD
ATOM     14  O20 J7B d   1      -6.933   8.026   1.120  0.00  0.00    -0.267 OA
BRANCH  12  15
ATOM     15  C9  J7B d   1      -6.122   9.326   3.575  0.00  0.00     0.041 A 
ATOM     16  C14 J7B d   1      -5.110   9.925   2.790  0.00  0.00    -0.057 A 
ATOM     17  C13 J7B d   1      -4.674  11.237   3.089  0.00  0.00    -0.081 A 
ATOM     18  H5  J7B d   1      -4.670   9.381   1.962  0.00  0.00     0.086 H 
ATOM     19  C12 J7B d   1      -5.240  11.945   4.168  0.00  0.00    -0.082 A 
ATOM     20  H4  J7B d   1      -3.901  11.700   2.486  0.00  0.00     0.083 H 
ATOM     21  C11 J7B d   1      -6.250  11.339   4.946  0.00  0.00    -0.074 A 
ATOM     22  H3  J7B d   1      -4.902  12.949   4.399  0.00  0.00     0.083 H 
ATOM     23  C10 J7B d   1      -6.656  10.021   4.679  0.00  0.00    -0.021 A 
ATOM     24  H2  J7B d   1      -6.715  11.893   5.753  0.00  0.00     0.084 H 
BRANCH  23  25
ATOM     25  C15 J7B d   1      -7.802   9.442   5.534  0.00  0.00     0.042 C 
ATOM     26  H6  J7B d   1      -8.043  10.159   6.332  0.00  0.00     0.056 H 
ATOM     27  H7  J7B d   1      -8.683   9.299   4.892  0.00  0.00     0.056 H 
BRANCH  25  28
ATOM     28  C16 J7B d   1      -7.443   8.120   6.164  0.00  0.00     0.177 C 
ATOM     29  O17 J7B d   1      -6.398   7.526   5.992  0.00  0.00    -0.648 OA
ATOM     30  O18 J7B d   1      -8.355   7.606   6.971  0.00  0.00    -0.648 OA
ENDBRANCH  25  28
ENDBRANCH  23  25
ENDBRANCH  12  15
ENDBRANCH   1  11
BRANCH   3  31
ATOM     31  C19 J7B d   1      -7.828   3.266   4.903  0.00  0.00    -0.025 A 
ATOM     32  C21 J7B d   1      -7.797   1.853   4.958  0.00  0.00    -0.065 A 
ATOM     33  C22 J7B d   1      -7.813   1.137   6.169  0.00  0.00    -0.032 A 
ATOM     34  H8  J7B d   1      -7.759   1.298   4.027  0.00  0.00     0.085 H 
ATOM     35  C23 J7B d   1      -7.815   1.860   7.367  0.00  0.00    -0.075 A 
ATOM     36  C24 J7B d   1      -7.837   3.273   7.354  0.00  0.00    -0.082 A 
ATOM     37  H9  J7B d   1      -7.800   1.332   8.313  0.00  0.00     0.084 H 
ATOM     38  C25 J7B d   1      -7.890   3.981   6.132  0.00  0.00    -0.072 A 
ATOM     39  H10 J7B d   1      -7.813   3.819   8.290  0.00  0.00     0.083 H 
ATOM     40  H11 J7B d   1      -7.977   5.061   6.131  0.00  0.00     0.084 H 
BRANCH  33  41
ATOM     41  C26 J7B d   1      -7.733  -0.409   6.147  0.00  0.00     0.103 C 
ATOM     42  H12 J7B d   1      -6.800  -0.709   5.647  0.00  0.00     0.082 H 
ATOM     43  H13 J7B d   1      -8.593  -0.801   5.584  0.00  0.00     0.082 H 
BRANCH  41  44
ATOM     44  N27 J7B d   1      -7.752  -0.992   7.522  0.00  0.00    -0.075 N 
ATOM     45  H18 J7B d   1      -7.698  -1.997   7.462  0.00  0.00     0.274 HD
ATOM     46  H19 J7B d   1      -8.607  -0.729   7.987  0.00  0.00     0.274 HD
ATOM     47  H20 J7B d   1      -6.964  -0.644   8.045  0.00  0.00     0.274 HD
ENDBRANCH  41  44
ENDBRANCH  33  41
ENDBRANCH   3  31
TORSDOF 7
