REMARK  2 active torsions:
REMARK  status: ('A' for Active; 'I' for Inactive)
REMARK    1  A    between atoms: C1_1  and  O1_8 
REMARK    2  A    between atoms: C3_3  and  N1_7 
ROOT
ATOM      1  C1  ZCQ d   1     -23.395  -9.790   5.689  0.00  0.00     0.068 A 
ATOM      2  C2  ZCQ d   1     -22.936 -10.983   5.170  0.00  0.00    -0.019 A 
ATOM      3  C3  ZCQ d   1     -23.294 -11.256   3.858  0.00  0.00     0.105 A 
ATOM      4  C4  ZCQ d   1     -24.035 -10.389   3.079  0.00  0.00    -0.051 A 
ATOM      5  C5  ZCQ d   1     -24.451  -9.185   3.617  0.00  0.00    -0.078 A 
ATOM      6  C6  ZCQ d   1     -24.145  -8.913   4.922  0.00  0.00    -0.051 A 
ATOM      7  H1  ZCQ d   1     -22.331 -11.667   5.754  0.00  0.00     0.091 H 
ATOM      8  H2  ZCQ d   1     -24.288 -10.649   2.058  0.00  0.00     0.087 H 
ATOM      9  H3  ZCQ d   1     -25.007  -8.473   3.018  0.00  0.00     0.083 H 
ATOM     10  H4  ZCQ d   1     -24.498  -7.989   5.367  0.00  0.00     0.087 H 
ENDROOT
BRANCH   3  11
ATOM     11  N1  ZCQ d   1     -22.856 -12.498   3.261  0.00  0.00    -0.116 N 
ATOM     12  O2  ZCQ d   1     -22.226 -13.283   3.957  0.00  0.00    -0.532 OA
ATOM     13  O3  ZCQ d   1     -23.130 -12.691   2.077  0.00  0.00    -0.532 OA
ENDBRANCH   3  11
BRANCH   1  14
ATOM     14  O1  ZCQ d   1     -23.197  -9.267   6.942  0.00  0.00    -0.361 OA
ATOM     15  H5  ZCQ d   1     -22.682  -9.875   7.460  0.00  0.00     0.217 HD
ENDBRANCH   1  14
TORSDOF 2
