REMARK  6 active torsions:
REMARK  status: ('A' for Active; 'I' for Inactive)
REMARK    1  A    between atoms: C12_18  and  C13_2 
REMARK    2  A    between atoms: C02_9  and  N01_8 
REMARK    3  A    between atoms: C06_13  and  C05_12 
REMARK    4  A    between atoms: N11_17  and  C12_18 
REMARK    5  A    between atoms: C16_20  and  O17_21 
REMARK    6  A    between atoms: O17_21  and  C18_22 
ROOT
ATOM      1  C10 JCH d   1     -23.397  21.018 -11.269  0.00  0.00     0.045 A 
ATOM      2  C21 JCH d   1     -25.101  22.306 -10.632  0.00  0.00    -0.019 A 
ATOM      3  C22 JCH d   1     -25.571  21.025 -10.787  0.00  0.00    -0.056 A 
ATOM      4  C06 JCH d   1     -22.021  19.124 -11.964  0.00  0.00    -0.003 A 
ATOM      5  C07 JCH d   1     -23.108  18.272 -11.887  0.00  0.00    -0.070 A 
ATOM      6  C08 JCH d   1     -24.359  18.802 -11.499  0.00  0.00    -0.070 A 
ATOM      7  C09 JCH d   1     -24.481  20.192 -11.200  0.00  0.00    -0.008 A 
ATOM      8  N11 JCH d   1     -23.797  22.286 -10.925  0.00  0.00    -0.352 N 
ATOM      9  C23 JCH d   1     -22.120  20.497 -11.652  0.00  0.00    -0.044 A 
ATOM     10  H3  JCH d   1     -25.682  23.175 -10.327  0.00  0.00     0.111 H 
ATOM     11  H4  JCH d   1     -26.597  20.698 -10.624  0.00  0.00     0.086 H 
ATOM     12  H9  JCH d   1     -23.002  17.219 -12.120  0.00  0.00     0.084 H 
ATOM     13  H10 JCH d   1     -25.225  18.154 -11.429  0.00  0.00     0.084 H 
ATOM     14  H18 JCH d   1     -21.250  21.142 -11.701  0.00  0.00     0.088 H 
ENDROOT
BRANCH   8  15
ATOM     15  C12 JCH d   1     -22.896  23.441 -10.891  0.00  0.00     0.023 C 
ATOM     16  H11 JCH d   1     -22.148  23.329 -11.690  0.00  0.00     0.072 H 
ATOM     17  H12 JCH d   1     -23.485  24.354 -11.065  0.00  0.00     0.072 H 
BRANCH  15  18
ATOM     18  C13 JCH d   1     -22.176  23.571  -9.564  0.00  0.00    -0.040 A 
ATOM     19  C20 JCH d   1     -21.034  24.283  -9.538  0.00  0.00    -0.073 A 
ATOM     20  C19 JCH d   1     -20.297  24.439  -8.293  0.00  0.00    -0.050 A 
ATOM     21  H2  JCH d   1     -20.662  24.741 -10.447  0.00  0.00     0.084 H 
ATOM     22  C16 JCH d   1     -20.773  23.857  -7.133  0.00  0.00     0.068 A 
ATOM     23  H17 JCH d   1     -19.376  25.011  -8.275  0.00  0.00     0.087 H 
ATOM     24  C15 JCH d   1     -21.933  23.134  -7.148  0.00  0.00    -0.050 A 
ATOM     25  C14 JCH d   1     -22.662  22.973  -8.393  0.00  0.00    -0.073 A 
ATOM     26  H1  JCH d   1     -22.306  22.683  -6.236  0.00  0.00     0.087 H 
ATOM     27  H13 JCH d   1     -23.578  22.393  -8.417  0.00  0.00     0.084 H 
BRANCH  22  28
ATOM     28  O17 JCH d   1     -20.050  24.024  -5.927  0.00  0.00    -0.356 OA
BRANCH  28  29
ATOM     29  C18 JCH d   1     -20.503  25.163  -5.150  0.00  0.00     0.010 C 
ATOM     30  H14 JCH d   1     -19.906  25.240  -4.229  0.00  0.00     0.066 H 
ATOM     31  H15 JCH d   1     -21.563  25.031  -4.889  0.00  0.00     0.066 H 
ATOM     32  H16 JCH d   1     -20.383  26.082  -5.742  0.00  0.00     0.066 H 
ENDBRANCH  28  29
ENDBRANCH  22  28
ENDBRANCH  15  18
ENDBRANCH   8  15
BRANCH   4  33
ATOM     33  C05 JCH d   1     -20.656  18.593 -12.280  0.00  0.00     0.090 A 
ATOM     34  C24 JCH d   1     -20.258  17.316 -12.197  0.00  0.00    -0.009 A 
ATOM     35  C02 JCH d   1     -18.839  17.317 -12.506  0.00  0.00     0.117 A 
ATOM     36  H5  JCH d   1     -20.874  16.453 -11.948  0.00  0.00     0.093 H 
ATOM     37  N03 JCH d   1     -18.479  18.598 -12.705  0.00  0.00    -0.262 N 
ATOM     38  N04 JCH d   1     -19.566  19.383 -12.543  0.00  0.00    -0.173 NA
ATOM     39  H8  JCH d   1     -17.532  18.926 -12.942  0.00  0.00     0.191 HD
BRANCH  35  40
ATOM     40  N01 JCH d   1     -17.954  16.197 -12.571  0.00  0.00    -0.384 N 
ATOM     41  H6  JCH d   1     -16.961  16.338 -12.803  0.00  0.00     0.157 HD
ATOM     42  H7  JCH d   1     -18.309  15.248 -12.386  0.00  0.00     0.157 HD
ENDBRANCH  35  40
ENDBRANCH   4  33
TORSDOF 6
