REMARK  6 active torsions:
REMARK  status: ('A' for Active; 'I' for Inactive)
REMARK    1  A    between atoms: C15_3  and  N14_21 
REMARK    2  A    between atoms: C16_22  and  C15_3 
REMARK    3  A    between atoms: C19_24  and  C20_5 
REMARK    4  A    between atoms: C20_5  and  N21_25 
REMARK    5  A    between atoms: C02_11  and  N01_10 
REMARK    6  A    between atoms: C06_15  and  C05_14 
ROOT
ATOM      1  C17 JDK d   1     -21.850 -23.482   9.028  0.00  0.00    -0.075 A 
ATOM      2  C28 JDK d   1     -21.237 -25.535  10.227  0.00  0.00    -0.075 A 
ATOM      3  C16 JDK d   1     -21.853 -24.328  10.245  0.00  0.00    -0.040 A 
ATOM      4  C18 JDK d   1     -21.215 -23.909   7.906  0.00  0.00    -0.075 A 
ATOM      5  C19 JDK d   1     -20.547 -25.187   7.895  0.00  0.00    -0.033 A 
ATOM      6  C27 JDK d   1     -20.573 -25.988   9.048  0.00  0.00    -0.075 A 
ATOM      7  H5  JDK d   1     -22.355 -22.523   9.034  0.00  0.00     0.084 H 
ATOM      8  H14 JDK d   1     -21.249 -26.160  11.113  0.00  0.00     0.084 H 
ATOM      9  H21 JDK d   1     -21.210 -23.288   7.017  0.00  0.00     0.084 H 
ATOM     10  H27 JDK d   1     -20.086 -26.956   9.042  0.00  0.00     0.084 H 
ENDROOT
BRANCH   3  11
ATOM     11  C15 JDK d   1     -22.547 -23.928  11.549  0.00  0.00     0.023 C 
ATOM     12  H3  JDK d   1     -23.130 -24.792  11.902  0.00  0.00     0.072 H 
ATOM     13  H4  JDK d   1     -21.768 -23.685  12.287  0.00  0.00     0.072 H 
BRANCH  11  14
ATOM     14  N14 JDK d   1     -23.463 -22.768  11.453  0.00  0.00    -0.352 N 
ATOM     15  C13 JDK d   1     -24.717 -22.814  11.159  0.00  0.00    -0.019 A 
ATOM     16  C12 JDK d   1     -25.227 -21.467  11.189  0.00  0.00    -0.056 A 
ATOM     17  H2  JDK d   1     -25.289 -23.712  10.929  0.00  0.00     0.111 H 
ATOM     18  C09 JDK d   1     -24.182 -20.618  11.551  0.00  0.00    -0.008 A 
ATOM     19  H20 JDK d   1     -26.250 -21.165  10.968  0.00  0.00     0.086 H 
ATOM     20  C10 JDK d   1     -24.086 -19.205  11.742  0.00  0.00    -0.070 A 
ATOM     21  C08 JDK d   1     -23.083 -21.452  11.704  0.00  0.00     0.045 A 
ATOM     22  C11 JDK d   1     -22.837 -18.654  12.101  0.00  0.00    -0.070 A 
ATOM     23  H1  JDK d   1     -24.955 -18.569  11.614  0.00  0.00     0.084 H 
ATOM     24  C06 JDK d   1     -21.735 -19.532  12.278  0.00  0.00    -0.003 A 
ATOM     25  H19 JDK d   1     -22.722 -17.585  12.239  0.00  0.00     0.084 H 
ATOM     26  C07 JDK d   1     -21.815 -20.917  12.066  0.00  0.00    -0.044 A 
ATOM     27  H18 JDK d   1     -20.945 -21.554  12.174  0.00  0.00     0.088 H 
BRANCH  24  28
ATOM     28  C05 JDK d   1     -20.398 -18.991  12.572  0.00  0.00     0.090 A 
ATOM     29  N04 JDK d   1     -19.325 -19.731  12.833  0.00  0.00    -0.173 NA
ATOM     30  N03 JDK d   1     -18.217 -18.892  12.954  0.00  0.00    -0.262 N 
ATOM     31  C02 JDK d   1     -18.628 -17.592  12.727  0.00  0.00     0.117 A 
ATOM     32  H17 JDK d   1     -17.256 -19.191  13.175  0.00  0.00     0.191 HD
ATOM     33  C29 JDK d   1     -20.013 -17.627  12.444  0.00  0.00    -0.009 A 
ATOM     34  H28 JDK d   1     -20.652 -16.785  12.182  0.00  0.00     0.093 H 
BRANCH  31  35
ATOM     35  N01 JDK d   1     -17.771 -16.438  12.769  0.00  0.00    -0.384 N 
ATOM     36  H15 JDK d   1     -18.159 -15.501  12.587  0.00  0.00     0.157 HD
ATOM     37  H16 JDK d   1     -16.769 -16.548  12.981  0.00  0.00     0.157 HD
ENDBRANCH  31  35
ENDBRANCH  24  28
ENDBRANCH  11  14
ENDBRANCH   3  11
BRANCH   5  38
ATOM     38  C20 JDK d   1     -19.815 -25.710   6.640  0.00  0.00     0.107 C 
ATOM     39  H6  JDK d   1     -20.504 -25.640   5.785  0.00  0.00     0.083 H 
ATOM     40  H7  JDK d   1     -19.549 -26.764   6.811  0.00  0.00     0.083 H 
BRANCH  38  41
ATOM     41  N21 JDK d   1     -18.772 -25.085   6.353  0.00  0.00    -0.067 N 
ATOM     42  C22 JDK d   1     -18.286 -25.498   5.084  0.00  0.00     0.084 C 
ATOM     43  C23 JDK d   1     -16.769 -25.673   4.914  0.00  0.00    -0.042 C 
ATOM     44  H8  JDK d   1     -18.613 -24.748   4.349  0.00  0.00     0.076 H 
ATOM     45  H9  JDK d   1     -18.755 -26.466   4.854  0.00  0.00     0.076 H 
ATOM     46  C24 JDK d   1     -16.010 -24.863   5.800  0.00  0.00    -0.062 C 
ATOM     47  H23 JDK d   1     -16.500 -25.408   3.881  0.00  0.00     0.035 H 
ATOM     48  H24 JDK d   1     -16.515 -26.727   5.100  0.00  0.00     0.035 H 
ATOM     49  C25 JDK d   1     -16.352 -25.210   7.140  0.00  0.00    -0.042 C 
ATOM     50  H10 JDK d   1     -16.240 -23.802   5.622  0.00  0.00     0.033 H 
ATOM     51  H11 JDK d   1     -14.937 -25.038   5.634  0.00  0.00     0.033 H 
ATOM     52  C26 JDK d   1     -17.824 -24.967   7.447  0.00  0.00     0.084 C 
ATOM     53  H25 JDK d   1     -15.743 -24.604   7.828  0.00  0.00     0.035 H 
ATOM     54  H26 JDK d   1     -16.130 -26.276   7.296  0.00  0.00     0.035 H 
ATOM     55  H12 JDK d   1     -18.122 -25.692   8.219  0.00  0.00     0.076 H 
ATOM     56  H13 JDK d   1     -17.911 -23.947   7.848  0.00  0.00     0.076 H 
ATOM     57  H22 JDK d   1     -19.073 -24.135   6.203  0.00  0.00     0.280 HD
ENDBRANCH  38  41
ENDBRANCH   5  38
TORSDOF 6
