REMARK  9 active torsions:
REMARK  status: ('A' for Active; 'I' for Inactive)
REMARK    1  A    between atoms: C23_25  and  C22_6 
REMARK    2  A    between atoms: N27_28  and  C28_8 
REMARK    3  A    between atoms: C28_8  and  C29_29 
REMARK    4  A    between atoms: C28_8  and  C30_30 
REMARK    5  A    between atoms: C02_10  and  N01_9 
REMARK    6  A    between atoms: C09_17  and  C05_13 
REMARK    7  A    between atoms: C18_23  and  N17_22 
REMARK    8  A    between atoms: C19_24  and  C18_23 
REMARK    9  A    between atoms: N24_26  and  C23_25 
ROOT
ATOM      1  C02 JEH d   1     -18.750 -17.532  12.640  0.00  0.00     0.138 A 
ATOM      2  N03 JEH d   1     -18.484 -18.860  12.504  0.00  0.00    -0.261 N 
ATOM      3  N04 JEH d   1     -19.652 -19.491  12.244  0.00  0.00    -0.171 NA
ATOM      4  C05 JEH d   1     -20.662 -18.623  12.252  0.00  0.00     0.111 A 
ATOM      5  C06 JEH d   1     -20.122 -17.361  12.462  0.00  0.00     0.120 A 
ATOM      6  C07 JEH d   1     -20.797 -16.009  12.553  0.00  0.00     0.106 C 
ATOM      7  N08 JEH d   1     -21.271 -14.976  12.634  0.00  0.00    -0.191 NA
ATOM      8  H11 JEH d   1     -17.559 -19.305  12.585  0.00  0.00     0.191 HD
ENDROOT
BRANCH   1   9
ATOM      9  N01 JEH d   1     -17.808 -16.496  12.926  0.00  0.00    -0.383 N 
ATOM     10  H9  JEH d   1     -18.125 -15.519  13.007  0.00  0.00     0.157 HD
ATOM     11  H10 JEH d   1     -16.812 -16.726  13.051  0.00  0.00     0.157 HD
ENDBRANCH   1   9
BRANCH   4  12
ATOM     12  C09 JEH d   1     -22.086 -19.050  11.894  0.00  0.00    -0.002 A 
ATOM     13  C10 JEH d   1     -22.283 -20.406  11.581  0.00  0.00    -0.044 A 
ATOM     14  C11 JEH d   1     -23.575 -20.848  11.161  0.00  0.00     0.045 A 
ATOM     15  H1  JEH d   1     -21.462 -21.110  11.658  0.00  0.00     0.088 H 
ATOM     16  C12 JEH d   1     -24.604 -19.930  11.033  0.00  0.00    -0.008 A 
ATOM     17  N17 JEH d   1     -24.050 -22.107  10.822  0.00  0.00    -0.352 N 
ATOM     18  C13 JEH d   1     -24.384 -18.550  11.317  0.00  0.00    -0.070 A 
ATOM     19  C15 JEH d   1     -25.741 -20.705  10.587  0.00  0.00    -0.056 A 
ATOM     20  C14 JEH d   1     -23.111 -18.114  11.728  0.00  0.00    -0.070 A 
ATOM     21  H2  JEH d   1     -25.196 -17.838  11.216  0.00  0.00     0.084 H 
ATOM     22  H12 JEH d   1     -22.927 -17.062  11.914  0.00  0.00     0.084 H 
ATOM     23  C16 JEH d   1     -25.341 -22.042  10.484  0.00  0.00    -0.019 A 
ATOM     24  H3  JEH d   1     -26.735 -20.316  10.369  0.00  0.00     0.086 H 
ATOM     25  H13 JEH d   1     -25.969 -22.879  10.182  0.00  0.00     0.111 H 
BRANCH  17  26
ATOM     26  C18 JEH d   1     -23.277 -23.334  10.853  0.00  0.00     0.023 C 
ATOM     27  H14 JEH d   1     -23.978 -24.181  10.900  0.00  0.00     0.072 H 
ATOM     28  H15 JEH d   1     -22.652 -23.324  11.758  0.00  0.00     0.072 H 
BRANCH  26  29
ATOM     29  C19 JEH d   1     -22.352 -23.540   9.630  0.00  0.00    -0.040 A 
ATOM     30  C20 JEH d   1     -22.592 -22.933   8.389  0.00  0.00    -0.075 A 
ATOM     31  C21 JEH d   1     -21.708 -23.163   7.313  0.00  0.00    -0.075 A 
ATOM     32  H4  JEH d   1     -23.454 -22.289   8.256  0.00  0.00     0.084 H 
ATOM     33  C22 JEH d   1     -20.595 -23.999   7.483  0.00  0.00    -0.033 A 
ATOM     34  H5  JEH d   1     -21.890 -22.693   6.354  0.00  0.00     0.084 H 
ATOM     35  C33 JEH d   1     -20.373 -24.589   8.737  0.00  0.00    -0.075 A 
ATOM     36  C34 JEH d   1     -21.248 -24.364   9.810  0.00  0.00    -0.075 A 
ATOM     37  H32 JEH d   1     -19.510 -25.230   8.879  0.00  0.00     0.084 H 
ATOM     38  H33 JEH d   1     -21.064 -24.829  10.772  0.00  0.00     0.084 H 
BRANCH  33  39
ATOM     39  C23 JEH d   1     -19.617 -24.219   6.268  0.00  0.00     0.107 C 
ATOM     40  H16 JEH d   1     -18.878 -23.405   6.294  0.00  0.00     0.083 H 
ATOM     41  H17 JEH d   1     -20.217 -24.140   5.350  0.00  0.00     0.083 H 
BRANCH  39  42
ATOM     42  N24 JEH d   1     -18.956 -25.334   6.199  0.00  0.00    -0.064 N 
ATOM     43  C25 JEH d   1     -17.899 -25.454   7.043  0.00  0.00     0.106 C 
ATOM     44  C26 JEH d   1     -16.887 -24.336   6.887  0.00  0.00     0.106 C 
ATOM     45  H19 JEH d   1     -18.274 -25.446   8.077  0.00  0.00     0.078 H 
ATOM     46  H20 JEH d   1     -17.397 -26.412   6.842  0.00  0.00     0.078 H 
ATOM     47  N27 JEH d   1     -16.559 -24.030   5.606  0.00  0.00    -0.064 N 
ATOM     48  H6  JEH d   1     -15.967 -24.633   7.412  0.00  0.00     0.078 H 
ATOM     49  H7  JEH d   1     -17.302 -23.433   7.357  0.00  0.00     0.078 H 
ATOM     50  C31 JEH d   1     -17.216 -24.694   4.609  0.00  0.00     0.106 C 
ATOM     51  H21 JEH d   1     -15.595 -24.313   5.521  0.00  0.00     0.280 HD
ATOM     52  C32 JEH d   1     -18.483 -25.488   4.937  0.00  0.00     0.106 C 
ATOM     53  H28 JEH d   1     -16.499 -25.404   4.171  0.00  0.00     0.078 H 
ATOM     54  H29 JEH d   1     -17.496 -23.943   3.855  0.00  0.00     0.078 H 
ATOM     55  H30 JEH d   1     -19.272 -25.172   4.238  0.00  0.00     0.078 H 
ATOM     56  H31 JEH d   1     -18.264 -26.555   4.785  0.00  0.00     0.078 H 
ATOM     57  H18 JEH d   1     -19.601 -26.081   6.405  0.00  0.00     0.280 HD
BRANCH  47  58
ATOM     58  C28 JEH d   1     -16.581 -22.754   5.356  0.00  0.00     0.097 C 
ATOM     59  H8  JEH d   1     -17.532 -22.551   4.841  0.00  0.00     0.083 H 
BRANCH  58  60
ATOM     60  C29 JEH d   1     -15.456 -22.417   4.388  0.00  0.00    -0.050 C 
ATOM     61  H22 JEH d   1     -15.469 -21.338   4.172  0.00  0.00     0.030 H 
ATOM     62  H23 JEH d   1     -15.596 -22.980   3.453  0.00  0.00     0.030 H 
ATOM     63  H24 JEH d   1     -14.490 -22.689   4.839  0.00  0.00     0.030 H 
ENDBRANCH  58  60
BRANCH  58  64
ATOM     64  C30 JEH d   1     -16.557 -21.836   6.581  0.00  0.00    -0.050 C 
ATOM     65  H25 JEH d   1     -16.579 -20.786   6.253  0.00  0.00     0.030 H 
ATOM     66  H26 JEH d   1     -15.640 -22.020   7.160  0.00  0.00     0.030 H 
ATOM     67  H27 JEH d   1     -17.435 -22.041   7.210  0.00  0.00     0.030 H 
ENDBRANCH  58  64
ENDBRANCH  47  58
ENDBRANCH  39  42
ENDBRANCH  33  39
ENDBRANCH  26  29
ENDBRANCH  17  26
ENDBRANCH   4  12
TORSDOF 9
