REMARK  6 active torsions:
REMARK  status: ('A' for Active; 'I' for Inactive)
REMARK    1  A    between atoms: O02_7  and  C01_6 
REMARK    2  A    between atoms: C03_8  and  O02_7 
REMARK    3  A    between atoms: C06_11  and  C05_10 
REMARK    4  A    between atoms: O07_12  and  C06_11 
REMARK    5  A    between atoms: C08_13  and  O07_12 
REMARK    6  A    between atoms: C08_13  and  C09_14 
ROOT
ATOM      1  C15 JCQ d   1     -22.154  21.557 -10.758  0.00  0.00    -0.075 A 
ATOM      2  C17 JCQ d   1     -23.194  21.259  -8.583  0.00  0.00    -0.051 A 
ATOM      3  C03 JCQ d   1     -23.954  20.247  -9.087  0.00  0.00     0.068 A 
ATOM      4  C04 JCQ d   1     -23.822  19.863 -10.438  0.00  0.00    -0.043 A 
ATOM      5  C05 JCQ d   1     -22.917  20.525 -11.266  0.00  0.00    -0.031 A 
ATOM      6  C16 JCQ d   1     -22.284  21.937  -9.420  0.00  0.00    -0.080 A 
ATOM      7  H4  JCQ d   1     -21.451  22.075 -11.400  0.00  0.00     0.084 H 
ATOM      8  H5  JCQ d   1     -23.289  21.542  -7.541  0.00  0.00     0.087 H 
ATOM      9  H9  JCQ d   1     -24.425  19.053 -10.832  0.00  0.00     0.088 H 
ATOM     10  H12 JCQ d   1     -21.687  22.751  -9.026  0.00  0.00     0.083 H 
ENDROOT
BRANCH   5  11
ATOM     11  C06 JCQ d   1     -22.766  20.106 -12.694  0.00  0.00     0.053 C 
ATOM     12  H10 JCQ d   1     -22.275  20.910 -13.262  0.00  0.00     0.082 H 
ATOM     13  H11 JCQ d   1     -23.758  19.906 -13.125  0.00  0.00     0.082 H 
BRANCH  11  14
ATOM     14  O07 JCQ d   1     -21.956  18.900 -12.760  0.00  0.00    -0.313 OA
BRANCH  14  15
ATOM     15  C08 JCQ d   1     -20.571  19.138 -12.926  0.00  0.00     0.296 C 
ATOM     16  O14 JCQ d   1     -20.150  20.292 -13.054  0.00  0.00    -0.259 OA
BRANCH  15  17
ATOM     17  C09 JCQ d   1     -19.592  17.955 -12.918  0.00  0.00     0.075 A 
ATOM     18  C10 JCQ d   1     -19.933  16.617 -12.923  0.00  0.00     0.039 A 
ATOM     19  N11 JCQ d   1     -18.808  15.916 -12.902  0.00  0.00    -0.187 NA
ATOM     20  H1  JCQ d   1     -20.943  16.211 -12.941  0.00  0.00     0.119 H 
ATOM     21  N12 JCQ d   1     -17.734  16.754 -12.875  0.00  0.00    -0.289 N 
ATOM     22  C13 JCQ d   1     -18.210  18.031 -12.900  0.00  0.00     0.013 A 
ATOM     23  H2  JCQ d   1     -16.743  16.474 -12.842  0.00  0.00     0.188 HD
ATOM     24  H3  JCQ d   1     -17.614  18.942 -12.905  0.00  0.00     0.115 H 
ENDBRANCH  15  17
ENDBRANCH  14  15
ENDBRANCH  11  14
ENDBRANCH   5  11
BRANCH   3  25
ATOM     25  O02 JCQ d   1     -24.877  19.563  -8.241  0.00  0.00    -0.356 OA
BRANCH  25  26
ATOM     26  C01 JCQ d   1     -25.732  18.689  -8.899  0.00  0.00     0.010 C 
ATOM     27  H6  JCQ d   1     -26.402  18.212  -8.168  0.00  0.00     0.066 H 
ATOM     28  H7  JCQ d   1     -25.142  17.917  -9.414  0.00  0.00     0.066 H 
ATOM     29  H8  JCQ d   1     -26.330  19.246  -9.636  0.00  0.00     0.066 H 
ENDBRANCH  25  26
ENDBRANCH   3  25
TORSDOF 6
