REMARK  4 active torsions:
REMARK  status: ('A' for Active; 'I' for Inactive)
REMARK    1  A    between atoms: C09_12  and  C10_1 
REMARK    2  A    between atoms: C02_5  and  C03_6 
REMARK    3  A    between atoms: O08_11  and  C02_5 
REMARK    4  A    between atoms: O08_11  and  C09_12 
ROOT
ATOM      1  C09 JF5 d   1     -22.897  19.970 -12.634  0.00  0.00     0.053 C 
ATOM      2  H6  JF5 d   1     -22.427  20.784 -13.205  0.00  0.00     0.082 H 
ATOM      3  H7  JF5 d   1     -23.889  19.751 -13.057  0.00  0.00     0.082 H 
ENDROOT
BRANCH   1   4
ATOM      4  C10 JF5 d   1     -23.048  20.394 -11.173  0.00  0.00    -0.034 A 
ATOM      5  C15 JF5 d   1     -23.859  19.662 -10.314  0.00  0.00    -0.075 A 
ATOM      6  C14 JF5 d   1     -23.993  20.039  -8.985  0.00  0.00    -0.082 A 
ATOM      7  H2  JF5 d   1     -24.390  18.792 -10.684  0.00  0.00     0.084 H 
ATOM      8  C13 JF5 d   1     -23.302  21.152  -8.518  0.00  0.00    -0.083 A 
ATOM      9  H10 JF5 d   1     -24.631  19.471  -8.317  0.00  0.00     0.083 H 
ATOM     10  C12 JF5 d   1     -22.499  21.883  -9.378  0.00  0.00    -0.082 A 
ATOM     11  H1  JF5 d   1     -23.392  21.448  -7.479  0.00  0.00     0.083 H 
ATOM     12  C11 JF5 d   1     -22.363  21.508 -10.705  0.00  0.00    -0.075 A 
ATOM     13  H9  JF5 d   1     -21.972  22.756  -9.010  0.00  0.00     0.083 H 
ATOM     14  H8  JF5 d   1     -21.727  22.079 -11.372  0.00  0.00     0.084 H 
ENDBRANCH   1   4
BRANCH   1  15
ATOM     15  O08 JF5 d   1     -22.070  18.789 -12.709  0.00  0.00    -0.313 OA
BRANCH  15  16
ATOM     16  C02 JF5 d   1     -20.683  19.044 -12.873  0.00  0.00     0.296 C 
ATOM     17  O01 JF5 d   1     -20.273  20.182 -12.972  0.00  0.00    -0.259 OA
BRANCH  16  18
ATOM     18  C03 JF5 d   1     -19.722  17.852 -12.895  0.00  0.00     0.075 A 
ATOM     19  C04 JF5 d   1     -20.091  16.530 -12.924  0.00  0.00     0.039 A 
ATOM     20  N05 JF5 d   1     -18.971  15.807 -12.928  0.00  0.00    -0.187 NA
ATOM     21  H3  JF5 d   1     -21.109  16.144 -12.941  0.00  0.00     0.119 H 
ATOM     22  N06 JF5 d   1     -17.879  16.614 -12.882  0.00  0.00    -0.289 N 
ATOM     23  C07 JF5 d   1     -18.330  17.897 -12.877  0.00  0.00     0.013 A 
ATOM     24  H4  JF5 d   1     -16.895  16.311 -12.856  0.00  0.00     0.188 HD
ATOM     25  H5  JF5 d   1     -17.715  18.796 -12.862  0.00  0.00     0.115 H 
ENDBRANCH  16  18
ENDBRANCH  15  16
ENDBRANCH   1  15
TORSDOF 4
