REMARK  9 active torsions:
REMARK  status: ('A' for Active; 'I' for Inactive)
REMARK    1  A    between atoms: C17_1  and  C02_4 
REMARK    2  A    between atoms: C02_4  and  O03_5 
REMARK    3  A    between atoms: O03_5  and  C04_6 
REMARK    4  A    between atoms: C04_6  and  C05_7 
REMARK    5  A    between atoms: C09_11  and  O10_12 
REMARK    6  A    between atoms: O10_12  and  C11_13 
REMARK    7  A    between atoms: C11_13  and  C12_14 
REMARK    8  A    between atoms: C12_14  and  O13_15 
REMARK    9  A    between atoms: O13_15  and  C14_16 
ROOT
ATOM      1  C05 JET d   1     -23.458  20.087 -11.109  0.00  0.00    -0.031 A 
ATOM      2  C06 JET d   1     -22.737  21.121 -10.506  0.00  0.00    -0.075 A 
ATOM      3  C07 JET d   1     -23.058  21.541  -9.214  0.00  0.00    -0.080 A 
ATOM      4  C08 JET d   1     -24.112  20.924  -8.528  0.00  0.00    -0.051 A 
ATOM      5  C09 JET d   1     -24.843  19.892  -9.109  0.00  0.00     0.070 A 
ATOM      6  C16 JET d   1     -24.515  19.477 -10.417  0.00  0.00    -0.043 A 
ATOM      7  H4  JET d   1     -21.926  21.599 -11.043  0.00  0.00     0.084 H 
ATOM      8  H5  JET d   1     -22.495  22.340  -8.745  0.00  0.00     0.083 H 
ATOM      9  H6  JET d   1     -24.363  21.256  -7.527  0.00  0.00     0.087 H 
ATOM     10  H12 JET d   1     -25.082  18.683 -10.889  0.00  0.00     0.088 H 
ENDROOT
BRANCH   1  11
ATOM     11  C04 JET d   1     -23.062  19.650 -12.535  0.00  0.00     0.053 C 
ATOM     12  H2  JET d   1     -23.978  19.392 -13.086  0.00  0.00     0.082 H 
ATOM     13  H3  JET d   1     -22.562  20.495 -13.031  0.00  0.00     0.082 H 
BRANCH  11  14
ATOM     14  O03 JET d   1     -22.178  18.516 -12.568  0.00  0.00    -0.313 OA
BRANCH  14  15
ATOM     15  C02 JET d   1     -20.796  18.775 -12.805  0.00  0.00     0.296 C 
ATOM     16  O01 JET d   1     -20.383  19.903 -12.980  0.00  0.00    -0.259 OA
BRANCH  15  17
ATOM     17  C17 JET d   1     -19.788  17.633 -12.806  0.00  0.00     0.075 A 
ATOM     18  C21 JET d   1     -18.397  17.775 -12.705  0.00  0.00     0.013 A 
ATOM     19  N20 JET d   1     -17.868  16.519 -12.731  0.00  0.00    -0.289 N 
ATOM     20  H1  JET d   1     -17.845  18.710 -12.622  0.00  0.00     0.115 H 
ATOM     21  N19 JET d   1     -18.911  15.643 -12.836  0.00  0.00    -0.187 NA
ATOM     22  H14 JET d   1     -16.868  16.276 -12.681  0.00  0.00     0.188 HD
ATOM     23  C18 JET d   1     -20.070  16.285 -12.891  0.00  0.00     0.039 A 
ATOM     24  H13 JET d   1     -21.057  15.834 -12.985  0.00  0.00     0.119 H 
ENDBRANCH  15  17
ENDBRANCH  14  15
ENDBRANCH  11  14
ENDBRANCH   1  11
BRANCH   5  25
ATOM     25  O10 JET d   1     -25.945  19.292  -8.351  0.00  0.00    -0.342 OA
BRANCH  25  26
ATOM     26  C11 JET d   1     -25.758  17.948  -7.836  0.00  0.00     0.106 C 
ATOM     27  H7  JET d   1     -24.678  17.758  -7.752  0.00  0.00     0.090 H 
ATOM     28  H8  JET d   1     -26.200  17.240  -8.552  0.00  0.00     0.090 H 
BRANCH  26  29
ATOM     29  C12 JET d   1     -26.395  17.706  -6.468  0.00  0.00     0.282 C 
ATOM     30  O15 JET d   1     -26.479  18.596  -5.646  0.00  0.00    -0.263 OA
BRANCH  29  31
ATOM     31  O13 JET d   1     -26.882  16.429  -6.120  0.00  0.00    -0.325 OA
BRANCH  31  32
ATOM     32  C14 JET d   1     -27.295  16.266  -4.768  0.00  0.00     0.013 C 
ATOM     33  H9  JET d   1     -27.653  15.237  -4.615  0.00  0.00     0.067 H 
ATOM     34  H10 JET d   1     -28.107  16.974  -4.545  0.00  0.00     0.067 H 
ATOM     35  H11 JET d   1     -26.444  16.461  -4.099  0.00  0.00     0.067 H 
ENDBRANCH  31  32
ENDBRANCH  29  31
ENDBRANCH  26  29
ENDBRANCH  25  26
ENDBRANCH   5  25
TORSDOF 9
