REMARK  23 active torsions:
REMARK  status: ('A' for Active; 'I' for Inactive)
REMARK    1  A    between atoms: C8_8  and  C36_45 
REMARK    2  A    between atoms: C10_10  and  C37_46 
REMARK    3  A    between atoms: C11_11  and  O54_47 
REMARK    4  A    between atoms: C19_21  and  C38_24 
REMARK    5  A    between atoms: C20_22  and  O31_25 
REMARK    6  A    between atoms: O31_25  and  C69_62 
REMARK    7  A    between atoms: C22_26  and  O51_44 
REMARK    8  A    between atoms: C29_33  and  C39_54 
REMARK    9  A    between atoms: C30_34  and  C31_35 
REMARK   10  A    between atoms: C31_35  and  C32_36 
REMARK   11  A    between atoms: C31_35  and  C40_41 
REMARK   12  A    between atoms: C32_36  and  C33_37 
REMARK   13  A    between atoms: C32_36  and  O49_42 
REMARK   14  A    between atoms: C33_37  and  C34_38 
REMARK   15  A    between atoms: C34_38  and  C35_39 
REMARK   16  A    between atoms: C34_38  and  O50_43 
REMARK   17  A    between atoms: O54_47  and  C55_48 
REMARK   18  A    between atoms: C56_49  and  O63_56 
REMARK   19  A    between atoms: C57_50  and  O65_58 
REMARK   20  A    between atoms: C58_51  and  O67_60 
REMARK   21  A    between atoms: C59_52  and  C68_61 
REMARK   22  A    between atoms: O63_56  and  C64_57 
REMARK   23  A    between atoms: O65_58  and  C66_59 
ROOT
ATOM      1  C1  CV9 d   1      95.064 -12.007 117.897  0.00  0.00     0.283 C 
ATOM      2  C2  CV9 d   1      96.207 -11.077 118.054  0.00  0.00    -0.010 C 
ATOM      3  C3  CV9 d   1      96.272  -9.759 118.280  0.00  0.00    -0.077 C 
ATOM      4  C4  CV9 d   1      95.197  -8.775 118.384  0.00  0.00    -0.083 C 
ATOM      5  C5  CV9 d   1      95.535  -7.485 118.510  0.00  0.00    -0.083 C 
ATOM      6  C6  CV9 d   1      94.483  -6.476 118.649  0.00  0.00    -0.083 C 
ATOM      7  C7  CV9 d   1      94.545  -5.147 118.862  0.00  0.00    -0.077 C 
ATOM      8  C8  CV9 d   1      95.728  -4.304 119.176  0.00  0.00    -0.065 C 
ATOM      9  C9  CV9 d   1      96.974  -4.613 118.749  0.00  0.00    -0.091 C 
ATOM     10  C10 CV9 d   1      98.259  -3.882 119.100  0.00  0.00    -0.012 C 
ATOM     11  C11 CV9 d   1      98.281  -2.411 118.651  0.00  0.00     0.064 C 
ATOM     12  C12 CV9 d   1      97.907  -2.268 117.183  0.00  0.00    -0.075 C 
ATOM     13  C13 CV9 d   1      96.694  -1.798 116.876  0.00  0.00    -0.084 C 
ATOM     14  C14 CV9 d   1      96.318  -1.636 115.486  0.00  0.00    -0.081 C 
ATOM     15  C15 CV9 d   1      95.144  -1.173 115.044  0.00  0.00    -0.053 C 
ATOM     16  C16 CV9 d   1      93.920  -0.722 115.773  0.00  0.00     0.081 A 
ATOM     17  N1  CV9 d   1      93.655  -0.652 117.095  0.00  0.00    -0.226 NA
ATOM     18  C18 CV9 d   1      92.373  -0.186 117.123  0.00  0.00     0.151 A 
ATOM     19  O1  CV9 d   1      91.875   0.036 115.869  0.00  0.00    -0.305 OA
ATOM     20  C17 CV9 d   1      92.866  -0.326 114.987  0.00  0.00     0.048 A 
ATOM     21  C19 CV9 d   1      91.386   0.167 118.175  0.00  0.00     0.032 C 
ATOM     22  C20 CV9 d   1      90.110  -0.714 118.102  0.00  0.00     0.051 C 
ATOM     23  C21 CV9 d   1      90.058  -2.016 118.945  0.00  0.00    -0.013 C 
ATOM     24  C22 CV9 d   1      90.267  -3.251 118.087  0.00  0.00     0.054 C 
ATOM     25  C23 CV9 d   1      90.420  -4.463 118.986  0.00  0.00    -0.076 C 
ATOM     26  C24 CV9 d   1      90.481  -5.655 118.414  0.00  0.00    -0.084 C 
ATOM     27  C25 CV9 d   1      90.728  -6.869 119.164  0.00  0.00    -0.083 C 
ATOM     28  C26 CV9 d   1      91.045  -7.957 118.458  0.00  0.00    -0.083 C 
ATOM     29  C27 CV9 d   1      91.371  -9.203 119.145  0.00  0.00    -0.086 C 
ATOM     30  C28 CV9 d   1      91.688 -10.363 118.562  0.00  0.00    -0.097 C 
ATOM     31  C29 CV9 d   1      91.733 -10.608 117.063  0.00  0.00    -0.015 C 
ATOM     32  C30 CV9 d   1      93.138 -11.048 116.631  0.00  0.00     0.060 C 
ATOM     33  O47 CV9 d   1      93.645 -11.739 117.782  0.00  0.00    -0.311 OA
ATOM     34  O62 CV9 d   1      95.341 -13.190 117.843  0.00  0.00    -0.260 OA
ATOM     35  H1  CV9 d   1      97.180 -11.558 117.969  0.00  0.00     0.092 H 
ATOM     36  H2  CV9 d   1      97.278  -9.360 118.405  0.00  0.00     0.083 H 
ATOM     37  H3  CV9 d   1      94.152  -9.081 118.360  0.00  0.00     0.083 H 
ATOM     38  H4  CV9 d   1      96.583  -7.189 118.509  0.00  0.00     0.083 H 
ATOM     39  H5  CV9 d   1      93.471  -6.870 118.565  0.00  0.00     0.083 H 
ATOM     40  H6  CV9 d   1      93.596  -4.617 118.795  0.00  0.00     0.084 H 
ATOM     41  H7  CV9 d   1      97.065  -5.473 118.087  0.00  0.00     0.078 H 
ATOM     42  H8  CV9 d   1      98.359  -3.888 120.195  0.00  0.00     0.050 H 
ATOM     43  H9  CV9 d   1      97.533  -1.861 119.241  0.00  0.00     0.090 H 
ATOM     44  H10 CV9 d   1      98.612  -2.542 116.400  0.00  0.00     0.080 H 
ATOM     45  H11 CV9 d   1      95.992  -1.538 117.667  0.00  0.00     0.083 H 
ATOM     46  H12 CV9 d   1      97.056  -1.916 114.736  0.00  0.00     0.083 H 
ATOM     47  H13 CV9 d   1      95.066  -1.114 113.959  0.00  0.00     0.087 H 
ATOM     48  H14 CV9 d   1      92.824  -0.303 113.899  0.00  0.00     0.127 H 
ATOM     49  H15 CV9 d   1      91.052   1.196 117.977  0.00  0.00     0.056 H 
ATOM     50  H16 CV9 d   1      90.025  -1.039 117.055  0.00  0.00     0.084 H 
ATOM     51  H17 CV9 d   1      89.075  -2.084 119.434  0.00  0.00     0.041 H 
ATOM     52  H18 CV9 d   1      90.847  -1.976 119.710  0.00  0.00     0.041 H 
ATOM     53  H22 CV9 d   1      91.199  -3.126 117.517  0.00  0.00     0.089 H 
ATOM     54  H23 CV9 d   1      90.478  -4.356 120.068  0.00  0.00     0.080 H 
ATOM     55  H24 CV9 d   1      90.340  -5.726 117.337  0.00  0.00     0.083 H 
ATOM     56  H25 CV9 d   1      90.659  -6.893 120.251  0.00  0.00     0.083 H 
ATOM     57  H26 CV9 d   1      91.060  -7.915 117.370  0.00  0.00     0.083 H 
ATOM     58  H27 CV9 d   1      91.354  -9.186 120.234  0.00  0.00     0.083 H 
ATOM     59  H28 CV9 d   1      91.934 -11.200 119.214  0.00  0.00     0.077 H 
ATOM     60  H29 CV9 d   1      91.511  -9.670 116.533  0.00  0.00     0.049 H 
ATOM     61  H30 CV9 d   1      93.759 -10.149 116.504  0.00  0.00     0.086 H 
ENDROOT
BRANCH  11  62
ATOM     62  O54 CV9 d   1      99.572  -1.848 118.930  0.00  0.00    -0.349 OA
BRANCH  62  63
ATOM     63  C55 CV9 d   1      99.755  -0.467 118.604  0.00  0.00     0.159 C 
ATOM     64  C56 CV9 d   1     100.006   0.355 119.876  0.00  0.00     0.112 C 
ATOM     65  C57 CV9 d   1     100.566   1.734 119.524  0.00  0.00     0.094 C 
ATOM     66  H52 CV9 d   1     100.732  -0.179 120.506  0.00  0.00     0.095 H 
ATOM     67  C58 CV9 d   1     101.734   1.602 118.550  0.00  0.00     0.087 C 
ATOM     68  H53 CV9 d   1      99.773   2.325 119.042  0.00  0.00     0.091 H 
ATOM     69  C59 CV9 d   1     101.247   0.894 117.291  0.00  0.00     0.065 C 
ATOM     70  H54 CV9 d   1     102.528   1.003 119.020  0.00  0.00     0.091 H 
ATOM     71  O7  CV9 d   1     100.846  -0.423 117.672  0.00  0.00    -0.351 OA
ATOM     72  H55 CV9 d   1     100.379   1.438 116.889  0.00  0.00     0.086 H 
ATOM     73  H51 CV9 d   1      98.849  -0.078 118.116  0.00  0.00     0.133 H 
BRANCH  64  74
ATOM     74  O63 CV9 d   1      98.783   0.525 120.606  0.00  0.00    -0.383 OA
BRANCH  74  75
ATOM     75  C64 CV9 d   1      98.571  -0.348 121.717  0.00  0.00     0.005 C 
ATOM     76  H59 CV9 d   1      97.604  -0.115 122.187  0.00  0.00     0.066 H 
ATOM     77  H60 CV9 d   1      99.378  -0.210 122.451  0.00  0.00     0.066 H 
ATOM     78  H61 CV9 d   1      98.567  -1.391 121.368  0.00  0.00     0.066 H 
ENDBRANCH  74  75
ENDBRANCH  64  74
BRANCH  65  79
ATOM     79  O65 CV9 d   1     100.980   2.408 120.714  0.00  0.00    -0.385 OA
BRANCH  79  80
ATOM     80  C66 CV9 d   1     100.084   3.445 121.125  0.00  0.00     0.005 C 
ATOM     81  H62 CV9 d   1     100.465   3.917 122.043  0.00  0.00     0.066 H 
ATOM     82  H63 CV9 d   1      99.090   3.015 121.319  0.00  0.00     0.066 H 
ATOM     83  H64 CV9 d   1     100.008   4.200 120.329  0.00  0.00     0.066 H 
ENDBRANCH  79  80
ENDBRANCH  65  79
BRANCH  67  84
ATOM     84  O67 CV9 d   1     102.262   2.885 118.210  0.00  0.00    -0.390 OA
ATOM     85  H65 CV9 d   1     102.564   3.321 118.998  0.00  0.00     0.210 HD
ENDBRANCH  67  84
BRANCH  69  86
ATOM     86  C68 CV9 d   1     102.318   0.829 116.205  0.00  0.00    -0.050 C 
ATOM     87  H66 CV9 d   1     101.915   0.310 115.323  0.00  0.00     0.031 H 
ATOM     88  H67 CV9 d   1     103.193   0.281 116.585  0.00  0.00     0.031 H 
ATOM     89  H68 CV9 d   1     102.618   1.849 115.925  0.00  0.00     0.031 H 
ENDBRANCH  69  86
ENDBRANCH  62  63
ENDBRANCH  11  62
BRANCH  10  90
ATOM     90  C37 CV9 d   1      99.441  -4.668 118.505  0.00  0.00    -0.067 C 
ATOM     91  H48 CV9 d   1      99.395  -5.713 118.845  0.00  0.00     0.028 H 
ATOM     92  H49 CV9 d   1     100.387  -4.215 118.838  0.00  0.00     0.028 H 
ATOM     93  H50 CV9 d   1      99.386  -4.637 117.407  0.00  0.00     0.028 H 
ENDBRANCH  10  90
BRANCH   8  94
ATOM     94  C36 CV9 d   1      95.437  -3.151 120.100  0.00  0.00    -0.051 C 
ATOM     95  H45 CV9 d   1      94.356  -3.106 120.301  0.00  0.00     0.033 H 
ATOM     96  H46 CV9 d   1      95.762  -2.212 119.628  0.00  0.00     0.033 H 
ATOM     97  H47 CV9 d   1      95.980  -3.293 121.046  0.00  0.00     0.033 H 
ENDBRANCH   8  94
BRANCH  21  98
ATOM     98  C38 CV9 d   1      92.097   0.194 119.527  0.00  0.00    -0.063 C 
ATOM     99  H19 CV9 d   1      92.981   0.845 119.463  0.00  0.00     0.028 H 
ATOM    100  H20 CV9 d   1      92.411  -0.825 119.797  0.00  0.00     0.028 H 
ATOM    101  H21 CV9 d   1      91.411   0.582 120.294  0.00  0.00     0.028 H 
ENDBRANCH  21  98
BRANCH  22 102
ATOM    102  O31 CV9 d   1      88.982   0.124 118.388  0.00  0.00    -0.390 OA
BRANCH 102 103
ATOM    103  C69 CV9 d   1      88.424   0.166 119.712  0.00  0.00     0.004 C 
ATOM    104  H69 CV9 d   1      87.572   0.862 119.729  0.00  0.00     0.066 H 
ATOM    105  H70 CV9 d   1      89.191   0.508 120.422  0.00  0.00     0.066 H 
ATOM    106  H71 CV9 d   1      88.082  -0.840 119.998  0.00  0.00     0.066 H 
ENDBRANCH 102 103
ENDBRANCH  22 102
BRANCH  24 107
ATOM    107  O51 CV9 d   1      89.196  -3.407 117.151  0.00  0.00    -0.392 OA
ATOM    108  H44 CV9 d   1      88.381  -3.531 117.622  0.00  0.00     0.210 HD
ENDBRANCH  24 107
BRANCH  32 109
ATOM    109  C31 CV9 d   1      93.137 -11.739 115.239  0.00  0.00    -0.006 C 
ATOM    110  H31 CV9 d   1      92.124 -12.139 115.084  0.00  0.00     0.047 H 
BRANCH 109 111
ATOM    111  C32 CV9 d   1      94.092 -12.928 115.044  0.00  0.00     0.043 C 
ATOM    112  H32 CV9 d   1      95.079 -12.641 115.437  0.00  0.00     0.083 H 
BRANCH 111 113
ATOM    113  C33 CV9 d   1      94.283 -13.433 113.615  0.00  0.00    -0.017 C 
ATOM    114  H33 CV9 d   1      94.630 -12.596 112.992  0.00  0.00     0.040 H 
ATOM    115  H34 CV9 d   1      93.314 -13.793 113.239  0.00  0.00     0.040 H 
BRANCH 113 116
ATOM    116  C34 CV9 d   1      95.298 -14.571 113.509  0.00  0.00     0.034 C 
ATOM    117  H35 CV9 d   1      94.973 -15.396 114.160  0.00  0.00     0.082 H 
BRANCH 116 118
ATOM    118  C35 CV9 d   1      96.726 -14.184 113.879  0.00  0.00    -0.052 C 
ATOM    119  H36 CV9 d   1      97.382 -15.060 113.774  0.00  0.00     0.030 H 
ATOM    120  H37 CV9 d   1      96.752 -13.829 114.920  0.00  0.00     0.030 H 
ATOM    121  H38 CV9 d   1      97.074 -13.383 113.210  0.00  0.00     0.030 H 
ENDBRANCH 116 118
BRANCH 116 122
ATOM    122  O50 CV9 d   1      95.323 -14.995 112.147  0.00  0.00    -0.396 OA
ATOM    123  H43 CV9 d   1      94.447 -15.245 111.878  0.00  0.00     0.210 HD
ENDBRANCH 116 122
ENDBRANCH 113 116
ENDBRANCH 111 113
BRANCH 111 124
ATOM    124  O49 CV9 d   1      93.560 -14.007 115.805  0.00  0.00    -0.395 OA
ATOM    125  H42 CV9 d   1      93.429 -13.725 116.703  0.00  0.00     0.210 HD
ENDBRANCH 111 124
ENDBRANCH 109 111
BRANCH 109 126
ATOM    126  C40 CV9 d   1      93.374 -10.643 114.196  0.00  0.00    -0.068 C 
ATOM    127  H39 CV9 d   1      92.673  -9.813 114.370  0.00  0.00     0.028 H 
ATOM    128  H40 CV9 d   1      93.212 -11.054 113.189  0.00  0.00     0.028 H 
ATOM    129  H41 CV9 d   1      94.407 -10.274 114.280  0.00  0.00     0.028 H 
ENDBRANCH 109 126
ENDBRANCH  32 109
BRANCH  31 130
ATOM    130  C39 CV9 d   1      90.593 -11.591 116.789  0.00  0.00    -0.067 C 
ATOM    131  H56 CV9 d   1      89.645 -11.160 117.143  0.00  0.00     0.028 H 
ATOM    132  H57 CV9 d   1      90.787 -12.535 117.319  0.00  0.00     0.028 H 
ATOM    133  H58 CV9 d   1      90.527 -11.784 115.708  0.00  0.00     0.028 H 
ENDBRANCH  31 130
TORSDOF 23
