REMARK WARNING: 32 MAX_TORS EXCEEDED!!!
REMARK  33 active torsions:
REMARK  status: ('A' for Active; 'I' for Inactive)
REMARK    1  A    between atoms: CA_2  and  C_7 
REMARK       I    between atoms: C_7  and  N_9 
REMARK    2  A    between atoms: N_9  and  CA_10 
REMARK    3  A    between atoms: CA_10  and  C_11 
REMARK       I    between atoms: C_11  and  N_13 
REMARK    4  A    between atoms: N_13  and  CA_14 
REMARK    5  A    between atoms: CA_14  and  C_15 
REMARK    6  A    between atoms: CA_14  and  CB_17 
REMARK       I    between atoms: C_15  and  N_21 
REMARK    7  A    between atoms: CB_17  and  CG_18 
REMARK    8  A    between atoms: CG_18  and  CD1_19 
REMARK    9  A    between atoms: CG_18  and  CD2_20 
REMARK   10  A    between atoms: CA_22  and  C_23 
REMARK       I    between atoms: C_23  and  N_28 
REMARK   11  A    between atoms: CA_29  and  C_30 
REMARK       I    between atoms: C_30  and  N_35 
REMARK   12  A    between atoms: N_35  and  CA_36 
REMARK   13  A    between atoms: CA_36  and  C_37 
REMARK   14  A    between atoms: CA_36  and  CB_39 
REMARK       I    between atoms: C_37  and  N_46 
REMARK   15  A    between atoms: CB_39  and  CG_40 
REMARK   16  A    between atoms: CG_40  and  CD_41 
REMARK   17  A    between atoms: CD_41  and  NE_42 
REMARK       I    between atoms: NE_42  and  CZ_43 
REMARK       I    between atoms: CZ_43  and  NH1_44 
REMARK   18  A    between atoms: CA_47  and  C_48 
REMARK       I    between atoms: C_48  and  N_53 
REMARK   19  A    between atoms: N_53  and  CA_54 
REMARK   20  A    between atoms: CA_54  and  C_55 
REMARK   21  A    between atoms: CA_54  and  CB_57 
REMARK       I    between atoms: C_55  and  N_62 
REMARK   22  A    between atoms: CB_57  and  CG_58 
REMARK   23  A    between atoms: CG_58  and  CD_59 
REMARK   24  A    between atoms: CD_59  and  CE_60 
REMARK   25  A    between atoms: CE_60  and  NZ_61 
REMARK   26  A    between atoms: N_62  and  CA_63 
REMARK   27  A    between atoms: CA_63  and  C_64 
REMARK   28  A    between atoms: CA_63  and  CB_66 
REMARK       I    between atoms: C_64  and  N_70 
REMARK   29  A    between atoms: CB_66  and  CG1_67 
REMARK   30  A    between atoms: CB_66  and  CG2_68 
REMARK   31  A    between atoms: CG1_67  and  CD1_69 
REMARK   32  A    between atoms: CA_71  and  C_72 
REMARK       I    between atoms: C_72  and  N_77 
REMARK   33  A    between atoms: CA_78  and  C_79 
ROOT
ATOM      1  CA  PCA d   1      -9.145 -17.009 -21.086  0.00  0.00     0.089 C 
ATOM      2  H36 PCA d   1      -9.703 -16.389 -21.803  0.00  0.00     0.087 H 
ENDROOT
BRANCH   1   3
ATOM      3  N   PCA d   1     -10.092 -17.698 -20.216  0.00  0.00    -0.346 N 
ATOM      4  C   PCA d   1     -10.958 -18.581 -20.719  0.00  0.00     0.241 C 
ATOM      5  O   PCA d   1     -10.993 -18.878 -21.919  0.00  0.00    -0.271 OA
ATOM      6  H35 PCA d   1     -10.092 -17.507 -19.234  0.00  0.00     0.163 HD
BRANCH   4   7
ATOM      7  CA  PCA d   1     -11.941 -19.183 -19.718  0.00  0.00     0.091 C 
ATOM      8  N   PCA d   1     -13.179 -19.592 -20.389  0.00  0.00    -0.337 N 
ATOM      9  C   PCA d   1     -13.952 -18.677 -20.983  0.00  0.00     0.243 C 
ATOM     10  CD  PCA d   1     -13.395 -21.055 -20.304  0.00  0.00    -0.001 C 
ATOM     11  O   PCA d   1     -13.634 -17.463 -20.963  0.00  0.00    -0.271 OA
ATOM     12  CG  PCA d   1     -12.581 -21.447 -19.092  0.00  0.00    -0.048 C 
ATOM     13  H33 PCA d   1     -13.028 -21.562 -21.208  0.00  0.00     0.064 H 
ATOM     14  H34 PCA d   1     -14.460 -21.290 -20.158  0.00  0.00     0.064 H 
ATOM     15  CB  PCA d   1     -11.412 -20.486 -19.095  0.00  0.00    -0.036 C 
ATOM     16  H31 PCA d   1     -13.174 -21.335 -18.172  0.00  0.00     0.035 H 
ATOM     17  H32 PCA d   1     -12.231 -22.486 -19.178  0.00  0.00     0.035 H 
ATOM     18  H29 PCA d   1     -11.063 -20.305 -18.068  0.00  0.00     0.036 H 
ATOM     19  H30 PCA d   1     -10.585 -20.890 -19.698  0.00  0.00     0.036 H 
ATOM     20  H28 PCA d   1     -12.152 -18.442 -18.933  0.00  0.00     0.087 H 
BRANCH   9  21
ATOM     21  CA  PCA d   1     -15.201 -19.136 -21.695  0.00  0.00     0.092 C 
ATOM     22  N   PCA d   1     -16.220 -18.084 -21.665  0.00  0.00    -0.337 N 
ATOM     23  C   PCA d   1     -16.740 -17.680 -20.516  0.00  0.00     0.243 C 
ATOM     24  CD  PCA d   1     -16.675 -17.703 -23.021  0.00  0.00    -0.001 C 
ATOM     25  O   PCA d   1     -16.594 -18.342 -19.473  0.00  0.00    -0.271 OA
ATOM     26  CG  PCA d   1     -16.101 -18.787 -23.894  0.00  0.00    -0.048 C 
ATOM     27  H26 PCA d   1     -16.281 -16.717 -23.307  0.00  0.00     0.064 H 
ATOM     28  H27 PCA d   1     -17.773 -17.690 -23.079  0.00  0.00     0.064 H 
ATOM     29  CB  PCA d   1     -14.940 -19.368 -23.184  0.00  0.00    -0.036 C 
ATOM     30  H24 PCA d   1     -16.858 -19.564 -24.073  0.00  0.00     0.035 H 
ATOM     31  H25 PCA d   1     -15.778 -18.362 -24.856  0.00  0.00     0.035 H 
ATOM     32  H22 PCA d   1     -14.862 -20.445 -23.396  0.00  0.00     0.036 H 
ATOM     33  H23 PCA d   1     -14.012 -18.865 -23.493  0.00  0.00     0.036 H 
ATOM     34  H21 PCA d   1     -15.575 -20.055 -21.220  0.00  0.00     0.087 H 
BRANCH  23  35
ATOM     35  CA  PCA d   1     -17.559 -16.398 -20.495  0.00  0.00     0.090 C 
ATOM     36  H11 PCA d   1     -18.348 -16.482 -21.257  0.00  0.00     0.087 H 
BRANCH  35  37
ATOM     37  N   PCA d   1     -18.199 -16.172 -19.203  0.00  0.00    -0.346 N 
ATOM     38  C   PCA d   1     -19.538 -16.154 -19.070  0.00  0.00     0.236 C 
ATOM     39  O   PCA d   1     -20.310 -16.319 -20.022  0.00  0.00    -0.272 OA
ATOM     40  H10 PCA d   1     -17.628 -16.027 -18.395  0.00  0.00     0.163 HD
BRANCH  38  41
ATOM     41  CA  PCA d   1     -20.081 -15.925 -17.670  0.00  0.00     0.069 C 
ATOM     42  H8  PCA d   1     -19.794 -14.911 -17.356  0.00  0.00     0.078 H 
ATOM     43  H9  PCA d   1     -21.178 -15.999 -17.714  0.00  0.00     0.078 H 
BRANCH  41  44
ATOM     44  N   PCA d   1     -19.608 -16.859 -16.660  0.00  0.00    -0.351 N 
ATOM     45  C   PCA d   1     -18.338 -16.878 -16.258  0.00  0.00     0.240 C 
ATOM     46  O   PCA d   1     -17.474 -16.129 -16.719  0.00  0.00    -0.271 OA
ATOM     47  H7  PCA d   1     -20.255 -17.506 -16.256  0.00  0.00     0.163 HD
BRANCH  45  48
ATOM     48  CA  PCA d   1     -17.959 -17.892 -15.193  0.00  0.00     0.089 C 
ATOM     49  N   PCA d   1     -16.572 -18.429 -15.447  0.00  0.00    -0.348 N 
ATOM     50  CD  PCA d   1     -15.796 -17.906 -14.314  0.00  0.00     0.218 C 
ATOM     51  H1  PCA d   1     -16.257 -19.002 -16.203  0.00  0.00     0.163 HD
ATOM     52  CG  PCA d   1     -16.611 -17.087 -13.336  0.00  0.00     0.011 C 
ATOM     53  OE  PCA d   1     -14.583 -18.130 -14.152  0.00  0.00    -0.274 OA
ATOM     54  CB  PCA d   1     -18.047 -17.240 -13.826  0.00  0.00    -0.030 C 
ATOM     55  H5  PCA d   1     -16.503 -17.479 -12.314  0.00  0.00     0.047 H 
ATOM     56  H6  PCA d   1     -16.302 -16.032 -13.358  0.00  0.00     0.047 H 
ATOM     57  H3  PCA d   1     -18.620 -17.877 -13.136  0.00  0.00     0.037 H 
ATOM     58  H4  PCA d   1     -18.531 -16.255 -13.903  0.00  0.00     0.037 H 
ATOM     59  H2  PCA d   1     -18.670 -18.730 -15.231  0.00  0.00     0.087 H 
ENDBRANCH  45  48
ENDBRANCH  41  44
ENDBRANCH  38  41
ENDBRANCH  35  37
BRANCH  35  60
ATOM     60  CB  PCA d   1     -16.662 -15.212 -20.848  0.00  0.00    -0.035 C 
ATOM     61  H12 PCA d   1     -16.245 -15.380 -21.852  0.00  0.00     0.037 H 
ATOM     62  H13 PCA d   1     -15.844 -15.167 -20.114  0.00  0.00     0.037 H 
BRANCH  60  63
ATOM     63  CG  PCA d   1     -17.386 -13.860 -20.847  0.00  0.00    -0.059 C 
ATOM     64  H14 PCA d   1     -17.690 -13.637 -19.814  0.00  0.00     0.038 H 
BRANCH  63  65
ATOM     65  CD1 PCA d   1     -16.434 -12.735 -21.311  0.00  0.00    -0.073 C 
ATOM     66  H15 PCA d   1     -16.970 -11.775 -21.304  0.00  0.00     0.028 H 
ATOM     67  H16 PCA d   1     -16.081 -12.950 -22.331  0.00  0.00     0.028 H 
ATOM     68  H17 PCA d   1     -15.573 -12.679 -20.629  0.00  0.00     0.028 H 
ENDBRANCH  63  65
BRANCH  63  69
ATOM     69  CD2 PCA d   1     -18.666 -13.926 -21.711  0.00  0.00    -0.073 C 
ATOM     70  H18 PCA d   1     -19.313 -14.738 -21.347  0.00  0.00     0.028 H 
ATOM     71  H19 PCA d   1     -18.392 -14.118 -22.759  0.00  0.00     0.028 H 
ATOM     72  H20 PCA d   1     -19.205 -12.969 -21.642  0.00  0.00     0.028 H 
ENDBRANCH  63  69
ENDBRANCH  60  63
ENDBRANCH  35  60
ENDBRANCH  23  35
ENDBRANCH   9  21
ENDBRANCH   4   7
ENDBRANCH   1   3
BRANCH   1  73
ATOM     73  C   PCA d   1      -8.313 -18.048 -21.850  0.00  0.00     0.243 C 
ATOM     74  O   PCA d   1      -7.969 -19.095 -21.304  0.00  0.00    -0.271 OA
ATOM     75  N   PCA d   1      -7.939 -17.767 -23.106  0.00  0.00    -0.337 N 
ATOM     76  CA  PCA d   1      -6.875 -18.576 -23.720  0.00  0.00     0.091 C 
ATOM     77  CD  PCA d   1      -8.242 -16.569 -23.907  0.00  0.00    -0.001 C 
ATOM     78  CB  PCA d   1      -6.678 -17.950 -25.105  0.00  0.00    -0.036 C 
ATOM     79  H48 PCA d   1      -7.171 -19.632 -23.808  0.00  0.00     0.087 H 
ATOM     80  CG  PCA d   1      -7.847 -16.987 -25.290  0.00  0.00    -0.048 C 
ATOM     81  H49 PCA d   1      -6.694 -18.727 -25.883  0.00  0.00     0.036 H 
ATOM     82  H50 PCA d   1      -5.723 -17.407 -25.148  0.00  0.00     0.036 H 
ATOM     83  H51 PCA d   1      -8.685 -17.491 -25.793  0.00  0.00     0.035 H 
ATOM     84  H52 PCA d   1      -7.536 -16.113 -25.882  0.00  0.00     0.035 H 
ATOM     85  H53 PCA d   1      -7.649 -15.706 -23.569  0.00  0.00     0.064 H 
ATOM     86  H54 PCA d   1      -9.312 -16.320 -23.859  0.00  0.00     0.064 H 
BRANCH  76  87
ATOM     87  C   PCA d   1      -5.624 -18.458 -22.859  0.00  0.00     0.241 C 
ATOM     88  O   PCA d   1      -5.364 -17.421 -22.238  0.00  0.00    -0.271 OA
ATOM     89  N   PCA d   1      -4.857 -19.540 -22.804  0.00  0.00    -0.346 N 
ATOM     90  H55 PCA d   1      -5.092 -20.334 -23.365  0.00  0.00     0.163 HD
BRANCH  89  91
ATOM     91  CA  PCA d   1      -3.680 -19.600 -21.945  0.00  0.00     0.089 C 
ATOM     92  H56 PCA d   1      -3.860 -18.983 -21.052  0.00  0.00     0.087 H 
BRANCH  91  93
ATOM     93  C   PCA d   1      -2.477 -19.042 -22.694  0.00  0.00     0.241 C 
ATOM     94  O   PCA d   1      -2.228 -19.425 -23.843  0.00  0.00    -0.271 OA
ATOM     95  N   PCA d   1      -1.718 -18.175 -22.029  0.00  0.00    -0.346 N 
ATOM     96  H68 PCA d   1      -1.837 -18.093 -21.040  0.00  0.00     0.163 HD
BRANCH  95  97
ATOM     97  CA  PCA d   1      -0.712 -17.334 -22.690  0.00  0.00     0.092 C 
ATOM     98  H69 PCA d   1      -0.440 -17.789 -23.654  0.00  0.00     0.088 H 
BRANCH  97  99
ATOM     99  C   PCA d   1       0.535 -17.241 -21.810  0.00  0.00     0.243 C 
ATOM    100  O   PCA d   1       0.500 -17.489 -20.610  0.00  0.00    -0.271 OA
ATOM    101  N   PCA d   1       1.657 -16.834 -22.418  0.00  0.00    -0.337 N 
ATOM    102  CA  PCA d   1       2.894 -16.718 -21.639  0.00  0.00     0.092 C 
ATOM    103  CD  PCA d   1       1.868 -16.440 -23.821  0.00  0.00    -0.001 C 
ATOM    104  CB  PCA d   1       3.995 -16.645 -22.714  0.00  0.00    -0.036 C 
ATOM    105  H79 PCA d   1       3.035 -17.605 -21.003  0.00  0.00     0.087 H 
ATOM    106  CG  PCA d   1       3.346 -16.101 -23.897  0.00  0.00    -0.048 C 
ATOM    107  H80 PCA d   1       4.396 -17.648 -22.922  0.00  0.00     0.036 H 
ATOM    108  H81 PCA d   1       4.811 -15.985 -22.385  0.00  0.00     0.036 H 
ATOM    109  H82 PCA d   1       3.785 -16.547 -24.802  0.00  0.00     0.035 H 
ATOM    110  H83 PCA d   1       3.477 -15.009 -23.926  0.00  0.00     0.035 H 
ATOM    111  H84 PCA d   1       1.254 -15.564 -24.076  0.00  0.00     0.064 H 
ATOM    112  H85 PCA d   1       1.623 -17.270 -24.500  0.00  0.00     0.064 H 
BRANCH 102 113
ATOM    113  C   PCA d   1       2.878 -15.480 -20.762  0.00  0.00     0.243 C 
ATOM    114  O   PCA d   1       2.078 -14.550 -20.978  0.00  0.00    -0.271 OA
ATOM    115  N   PCA d   1       3.752 -15.457 -19.730  0.00  0.00    -0.336 N 
ATOM    116  CA  PCA d   1       3.970 -14.261 -18.937  0.00  0.00     0.098 C 
ATOM    117  CD  PCA d   1       4.795 -16.475 -19.468  0.00  0.00    -0.001 C 
ATOM    118  CB  PCA d   1       5.163 -14.616 -18.056  0.00  0.00    -0.035 C 
ATOM    119  H86 PCA d   1       3.086 -14.031 -18.325  0.00  0.00     0.089 H 
ATOM    120  CG  PCA d   1       5.825 -15.719 -18.703  0.00  0.00    -0.048 C 
ATOM    121  H87 PCA d   1       4.822 -14.911 -17.053  0.00  0.00     0.036 H 
ATOM    122  H88 PCA d   1       5.845 -13.757 -17.973  0.00  0.00     0.036 H 
ATOM    123  H89 PCA d   1       6.288 -16.373 -17.950  0.00  0.00     0.035 H 
ATOM    124  H90 PCA d   1       6.599 -15.343 -19.387  0.00  0.00     0.035 H 
ATOM    125  H91 PCA d   1       5.210 -16.865 -20.409  0.00  0.00     0.064 H 
ATOM    126  H92 PCA d   1       4.393 -17.307 -18.872  0.00  0.00     0.064 H 
BRANCH 116 127
ATOM    127  C   PCA d   1       4.288 -13.089 -19.816  0.00  0.00     0.196 C 
ATOM    128  O   PCA d   1       4.853 -13.201 -20.918  0.00  0.00    -0.646 OA
ATOM    129  OXT PCA d   1       3.994 -11.998 -19.346  0.00  0.00    -0.646 OA
ENDBRANCH 116 127
ENDBRANCH 102 113
ENDBRANCH  97  99
BRANCH  97 130
ATOM    130  CB  PCA d   1      -1.276 -15.937 -22.941  0.00  0.00    -0.030 C 
ATOM    131  H70 PCA d   1      -0.660 -15.409 -23.683  0.00  0.00     0.043 H 
BRANCH 130 132
ATOM    132  CG1 PCA d   1      -1.260 -15.199 -21.627  0.00  0.00    -0.063 C 
ATOM    133  H71 PCA d   1      -0.213 -15.069 -21.316  0.00  0.00     0.033 H 
ATOM    134  H72 PCA d   1      -1.791 -15.809 -20.881  0.00  0.00     0.033 H 
BRANCH 132 135
ATOM    135  CD1 PCA d   1      -1.892 -13.880 -21.675  0.00  0.00    -0.076 C 
ATOM    136  H76 PCA d   1      -1.838 -13.411 -20.681  0.00  0.00     0.027 H 
ATOM    137  H77 PCA d   1      -2.945 -13.989 -21.972  0.00  0.00     0.027 H 
ATOM    138  H78 PCA d   1      -1.368 -13.248 -22.407  0.00  0.00     0.027 H 
ENDBRANCH 132 135
ENDBRANCH 130 132
BRANCH 130 139
ATOM    139  CG2 PCA d   1      -2.711 -16.032 -23.437  0.00  0.00    -0.071 C 
ATOM    140  H73 PCA d   1      -2.732 -16.570 -24.396  0.00  0.00     0.028 H 
ATOM    141  H74 PCA d   1      -3.119 -15.020 -23.575  0.00  0.00     0.028 H 
ATOM    142  H75 PCA d   1      -3.319 -16.575 -22.699  0.00  0.00     0.028 H 
ENDBRANCH 130 139
ENDBRANCH  97 130
ENDBRANCH  95  97
ENDBRANCH  91  93
BRANCH  91 143
ATOM    143  CB  PCA d   1      -3.416 -21.040 -21.499  0.00  0.00    -0.038 C 
ATOM    144  H57 PCA d   1      -2.498 -21.055 -20.894  0.00  0.00     0.036 H 
ATOM    145  H58 PCA d   1      -3.275 -21.662 -22.395  0.00  0.00     0.036 H 
BRANCH 143 146
ATOM    146  CG  PCA d   1      -4.556 -21.637 -20.667  0.00  0.00    -0.061 C 
ATOM    147  H59 PCA d   1      -4.368 -22.711 -20.520  0.00  0.00     0.033 H 
ATOM    148  H60 PCA d   1      -5.504 -21.502 -21.209  0.00  0.00     0.033 H 
BRANCH 146 149
ATOM    149  CD  PCA d   1      -4.661 -20.964 -19.312  0.00  0.00    -0.043 C 
ATOM    150  H61 PCA d   1      -5.156 -19.989 -19.431  0.00  0.00     0.035 H 
ATOM    151  H62 PCA d   1      -3.650 -20.814 -18.904  0.00  0.00     0.035 H 
BRANCH 149 152
ATOM    152  CE  PCA d   1      -5.468 -21.819 -18.344  0.00  0.00     0.080 C 
ATOM    153  H63 PCA d   1      -4.942 -22.773 -18.192  0.00  0.00     0.075 H 
ATOM    154  H64 PCA d   1      -6.458 -22.012 -18.783  0.00  0.00     0.075 H 
BRANCH 152 155
ATOM    155  NZ  PCA d   1      -5.653 -21.151 -17.008  0.00  0.00    -0.079 N 
ATOM    156  H65 PCA d   1      -6.191 -21.752 -16.403  0.00  0.00     0.274 HD
ATOM    157  H66 PCA d   1      -6.141 -20.278 -17.134  0.00  0.00     0.274 HD
ATOM    158  H67 PCA d   1      -4.752 -20.976 -16.592  0.00  0.00     0.274 HD
ENDBRANCH 152 155
ENDBRANCH 149 152
ENDBRANCH 146 149
ENDBRANCH 143 146
ENDBRANCH  91 143
ENDBRANCH  89  91
ENDBRANCH  76  87
ENDBRANCH   1  73
BRANCH   1 159
ATOM    159  CB  PCA d   1      -8.200 -16.110 -20.275  0.00  0.00    -0.036 C 
ATOM    160  H37 PCA d   1      -7.649 -15.480 -20.989  0.00  0.00     0.036 H 
ATOM    161  H38 PCA d   1      -7.495 -16.766 -19.744  0.00  0.00     0.036 H 
BRANCH 159 162
ATOM    162  CG  PCA d   1      -8.832 -15.186 -19.243  0.00  0.00    -0.048 C 
ATOM    163  H39 PCA d   1      -8.048 -14.549 -18.808  0.00  0.00     0.035 H 
ATOM    164  H40 PCA d   1      -9.290 -15.797 -18.451  0.00  0.00     0.035 H 
BRANCH 162 165
ATOM    165  CD  PCA d   1      -9.900 -14.300 -19.859  0.00  0.00     0.009 C 
ATOM    166  H41 PCA d   1     -10.441 -13.791 -19.047  0.00  0.00     0.064 H 
ATOM    167  H42 PCA d   1     -10.598 -14.937 -20.422  0.00  0.00     0.064 H 
BRANCH 165 168
ATOM    168  NE  PCA d   1      -9.366 -13.288 -20.763  0.00  0.00    -0.227 N 
ATOM    169  CZ  PCA d   1      -9.554 -13.258 -22.085  0.00  0.00     0.665 C 
ATOM    170  NH1 PCA d   1      -9.017 -12.269 -22.805  0.00  0.00    -0.235 N 
ATOM    171  NH2 PCA d   1     -10.268 -14.204 -22.696  0.00  0.00    -0.235 N 
ATOM    172  H44 PCA d   1      -9.158 -12.239 -23.825  0.00  0.00     0.174 HD
ATOM    173  H45 PCA d   1      -8.462 -11.536 -22.340  0.00  0.00     0.174 HD
ATOM    174  H46 PCA d   1     -10.685 -14.970 -22.147  0.00  0.00     0.174 HD
ATOM    175  H47 PCA d   1     -10.402 -14.169 -23.717  0.00  0.00     0.174 HD
ATOM    176  H43 PCA d   1      -8.798 -12.535 -20.349  0.00  0.00     0.177 HD
ENDBRANCH 165 168
ENDBRANCH 162 165
ENDBRANCH 159 162
ENDBRANCH   1 159
TORSDOF 33
