REMARK  4 active torsions:
REMARK  status: ('A' for Active; 'I' for Inactive)
REMARK    1  A    between atoms: C02_1  and  C04_2 
REMARK       I    between atoms: C02_1  and  N01_11 
REMARK    2  A    between atoms: C05_3  and  C06_4 
REMARK    3  A    between atoms: C08_6  and  O09_14 
REMARK    4  A    between atoms: C10_7  and  O11_15 
ROOT
ATOM      1  C04 JGB d   1      21.203   8.533  19.788  0.00  0.00     0.112 C 
ATOM      2  C05 JGB d   1      21.441   8.998  18.593  0.00  0.00    -0.047 C 
ATOM      3  C14 JGB d   1      21.850   7.309  20.393  0.00  0.00     0.105 C 
ATOM      4  N15 JGB d   1      22.334   6.405  20.859  0.00  0.00    -0.191 NA
ATOM      5  H1  JGB d   1      20.930   9.927  18.345  0.00  0.00     0.087 H 
ENDROOT
BRANCH   1   6
ATOM      6  C02 JGB d   1      20.170   9.310  20.613  0.00  0.00     0.260 C 
ATOM      7  N01 JGB d   1      19.757   8.815  21.982  0.00  0.00    -0.365 N 
ATOM      8  H5  JGB d   1      19.083   9.325  22.516  0.00  0.00     0.159 HD
ATOM      9  H6  JGB d   1      20.158   7.977  22.353  0.00  0.00     0.159 HD
ATOM     10  O03 JGB d   1      19.648  10.282  20.127  0.00  0.00    -0.267 OA
ENDBRANCH   1   6
BRANCH   2  11
ATOM     11  C06 JGB d   1      22.326   8.432  17.499  0.00  0.00    -0.032 A 
ATOM     12  C07 JGB d   1      23.089   7.277  17.632  0.00  0.00    -0.038 A 
ATOM     13  C08 JGB d   1      23.836   6.801  16.526  0.00  0.00     0.099 A 
ATOM     14  H2  JGB d   1      23.112   6.744  18.576  0.00  0.00     0.089 H 
ATOM     15  C10 JGB d   1      23.782   7.477  15.316  0.00  0.00     0.098 A 
ATOM     16  C12 JGB d   1      23.020   8.622  15.183  0.00  0.00    -0.047 A 
ATOM     17  C13 JGB d   1      22.276   9.094  16.288  0.00  0.00    -0.070 A 
ATOM     18  H3  JGB d   1      22.993   9.154  14.239  0.00  0.00     0.087 H 
ATOM     19  H4  JGB d   1      21.662   9.981  16.184  0.00  0.00     0.084 H 
BRANCH  13  20
ATOM     20  O09 JGB d   1      24.591   5.694  16.661  0.00  0.00    -0.358 OA
ATOM     21  H7  JGB d   1      24.511   5.364  17.548  0.00  0.00     0.217 HD
ENDBRANCH  13  20
BRANCH  15  22
ATOM     22  O11 JGB d   1      24.543   7.009  14.175  0.00  0.00    -0.358 OA
ATOM     23  H8  JGB d   1      23.951   6.822  13.456  0.00  0.00     0.217 HD
ENDBRANCH  15  22
ENDBRANCH   2  11
TORSDOF 4
