REMARK  31 active torsions:
REMARK  status: ('A' for Active; 'I' for Inactive)
REMARK    1  A    between atoms: N_1  and  CA_2 
REMARK    2  A    between atoms: CA_2  and  C_3 
REMARK    3  A    between atoms: CA_2  and  CB_5 
REMARK       I    between atoms: C_3  and  N_8 
REMARK    4  A    between atoms: CB_5  and  OG1_6 
REMARK    5  A    between atoms: CB_5  and  CG2_7 
REMARK    6  A    between atoms: N_8  and  CA_9 
REMARK    7  A    between atoms: CA_9  and  C_10 
REMARK    8  A    between atoms: CA_9  and  CB_12 
REMARK       I    between atoms: C_10  and  N_16 
REMARK    9  A    between atoms: CB_12  and  CG_13 
REMARK   10  A    between atoms: N_16  and  CA_17 
REMARK   11  A    between atoms: CA_17  and  C_18 
REMARK   12  A    between atoms: CA_17  and  CB_20 
REMARK       I    between atoms: C_18  and  N_24 
REMARK   13  A    between atoms: CB_20  and  CG_21 
REMARK   14  A    between atoms: CG_21  and  CD1_22 
REMARK   15  A    between atoms: CG_21  and  CD2_23 
REMARK   16  A    between atoms: CA_25  and  C_26 
REMARK       I    between atoms: C_26  and  N_31 
REMARK   17  A    between atoms: N_31  and  CA_32 
REMARK   18  A    between atoms: CA_32  and  CB_33 
REMARK   19  A    between atoms: CA_32  and  C_35 
REMARK   20  A    between atoms: CB_33  and  OG_34 
REMARK   21  A    between atoms: OG_34  and  P_37 
REMARK       I    between atoms: C_35  and  N_41 
REMARK   22  A    between atoms: N_41  and  CA_42 
REMARK   23  A    between atoms: CA_42  and  C_43 
REMARK   24  A    between atoms: CA_42  and  CB_45 
REMARK       I    between atoms: C_43  and  N_49 
REMARK   25  A    between atoms: CB_45  and  CG_46 
REMARK   26  A    between atoms: CA_50  and  C_51 
REMARK       I    between atoms: C_51  and  N_56 
REMARK   27  A    between atoms: CA_57  and  C_58 
REMARK       I    between atoms: C_58  and  N_63 
REMARK   28  A    between atoms: N_63  and  CA_64 
REMARK   29  A    between atoms: CA_64  and  C_65 
REMARK   30  A    between atoms: CA_64  and  CB_67 
REMARK   31  A    between atoms: CB_67  and  OG_68 
ROOT
ATOM      1  CA  THR d   1       8.087   1.627   0.658  0.00  0.00     0.110 C 
ATOM      2  H33 THR d   1       9.006   1.028   0.580  0.00  0.00     0.090 H 
ENDROOT
BRANCH   1   3
ATOM      3  N   THR d   1       8.374   2.967   1.187  0.00  0.00    -0.344 N 
ATOM      4  C   THR d   1       9.285   3.849   0.714  0.00  0.00     0.241 C 
ATOM      5  O   THR d   1      10.027   3.636  -0.244  0.00  0.00    -0.271 OA
ATOM      6  H32 THR d   1       7.840   3.258   1.980  0.00  0.00     0.163 HD
BRANCH   4   7
ATOM      7  CA  THR d   1       9.343   5.184   1.428  0.00  0.00     0.091 C 
ATOM      8  N   THR d   1      10.681   5.795   1.570  0.00  0.00    -0.337 N 
ATOM      9  C   THR d   1      11.645   5.154   2.272  0.00  0.00     0.243 C 
ATOM     10  CD  THR d   1      10.713   7.123   0.932  0.00  0.00    -0.001 C 
ATOM     11  O   THR d   1      11.426   4.050   2.751  0.00  0.00    -0.271 OA
ATOM     12  CG  THR d   1       9.582   7.045  -0.056  0.00  0.00    -0.048 C 
ATOM     13  H30 THR d   1      11.673   7.295   0.423  0.00  0.00     0.064 H 
ATOM     14  H31 THR d   1      10.541   7.921   1.669  0.00  0.00     0.064 H 
ATOM     15  CB  THR d   1       8.546   6.242   0.664  0.00  0.00    -0.036 C 
ATOM     16  H28 THR d   1       9.203   8.048  -0.300  0.00  0.00     0.035 H 
ATOM     17  H29 THR d   1       9.900   6.539  -0.979  0.00  0.00     0.035 H 
ATOM     18  H26 THR d   1       7.976   6.876   1.359  0.00  0.00     0.036 H 
ATOM     19  H27 THR d   1       7.856   5.769  -0.050  0.00  0.00     0.036 H 
ATOM     20  H25 THR d   1       8.912   5.040   2.430  0.00  0.00     0.087 H 
BRANCH   9  21
ATOM     21  CA  THR d   1      13.034   5.778   2.530  0.00  0.00     0.090 C 
ATOM     22  H15 THR d   1      12.911   6.855   2.717  0.00  0.00     0.087 H 
BRANCH  21  23
ATOM     23  N   THR d   1      13.581   5.143   3.726  0.00  0.00    -0.346 N 
ATOM     24  C   THR d   1      13.447   5.557   5.003  0.00  0.00     0.241 C 
ATOM     25  O   THR d   1      12.898   6.619   5.323  0.00  0.00    -0.271 OA
ATOM     26  H14 THR d   1      14.114   4.309   3.583  0.00  0.00     0.163 HD
BRANCH  24  27
ATOM     27  CA  THR d   1      14.034   4.575   6.056  0.00  0.00     0.098 C 
ATOM     28  H11 THR d   1      13.569   3.598   5.856  0.00  0.00     0.088 H 
BRANCH  27  29
ATOM     29  N   THR d   1      15.484   4.386   5.884  0.00  0.00    -0.345 N 
ATOM     30  C   THR d   1      16.063   3.184   5.604  0.00  0.00     0.251 C 
ATOM     31  O   THR d   1      15.417   2.137   5.477  0.00  0.00    -0.271 OA
ATOM     32  H10 THR d   1      16.078   5.185   5.978  0.00  0.00     0.163 HD
BRANCH  30  33
ATOM     33  CA  THR d   1      17.595   3.166   5.410  0.00  0.00     0.199 C 
ATOM     34  H4  THR d   1      17.793   2.522   4.541  0.00  0.00     0.103 H 
BRANCH  33  35
ATOM     35  N   THR d   1      18.064   4.511   5.063  0.00  0.00    -0.064 N 
ATOM     36  H1  THR d   1      17.519   4.869   4.295  0.00  0.00     0.275 HD
ATOM     37  H2  THR d   1      19.035   4.470   4.795  0.00  0.00     0.275 HD
ATOM     38  H3  THR d   1      17.961   5.119   5.860  0.00  0.00     0.275 HD
ENDBRANCH  33  35
BRANCH  33  39
ATOM     39  CB  THR d   1      18.405   2.540   6.609  0.00  0.00     0.068 C 
ATOM     40  H5  THR d   1      17.965   2.933   7.537  0.00  0.00     0.086 H 
BRANCH  39  41
ATOM     41  OG1 THR d   1      19.787   2.929   6.578  0.00  0.00    -0.393 OA
ATOM     42  H6  THR d   1      20.242   2.535   7.313  0.00  0.00     0.210 HD
ENDBRANCH  39  41
BRANCH  39  43
ATOM     43  CG2 THR d   1      18.311   1.008   6.663  0.00  0.00    -0.050 C 
ATOM     44  H7  THR d   1      18.895   0.635   7.518  0.00  0.00     0.031 H 
ATOM     45  H8  THR d   1      18.712   0.583   5.731  0.00  0.00     0.031 H 
ATOM     46  H9  THR d   1      17.259   0.709   6.779  0.00  0.00     0.031 H 
ENDBRANCH  39  43
ENDBRANCH  33  39
ENDBRANCH  30  33
ENDBRANCH  27  29
BRANCH  27  47
ATOM     47  CB  THR d   1      13.657   4.937   7.507  0.00  0.00     0.043 C 
ATOM     48  H12 THR d   1      12.561   4.990   7.583  0.00  0.00     0.052 H 
ATOM     49  H13 THR d   1      14.090   5.919   7.749  0.00  0.00     0.052 H 
BRANCH  47  50
ATOM     50  CG  THR d   1      14.167   3.917   8.519  0.00  0.00     0.175 C 
ATOM     51  OD1 THR d   1      13.775   2.730   8.421  0.00  0.00    -0.648 OA
ATOM     52  OD2 THR d   1      14.989   4.295   9.380  0.00  0.00    -0.648 OA
ENDBRANCH  47  50
ENDBRANCH  27  47
ENDBRANCH  24  27
ENDBRANCH  21  23
BRANCH  21  53
ATOM     53  CB  THR d   1      13.993   5.603   1.326  0.00  0.00    -0.035 C 
ATOM     54  H16 THR d   1      15.013   5.747   1.712  0.00  0.00     0.037 H 
ATOM     55  H17 THR d   1      13.754   6.406   0.614  0.00  0.00     0.037 H 
BRANCH  53  56
ATOM     56  CG  THR d   1      14.008   4.302   0.528  0.00  0.00    -0.059 C 
ATOM     57  H18 THR d   1      12.977   3.924   0.456  0.00  0.00     0.038 H 
BRANCH  56  58
ATOM     58  CD1 THR d   1      14.545   4.536  -0.848  0.00  0.00    -0.073 C 
ATOM     59  H19 THR d   1      14.548   3.588  -1.407  0.00  0.00     0.028 H 
ATOM     60  H20 THR d   1      15.572   4.924  -0.780  0.00  0.00     0.028 H 
ATOM     61  H21 THR d   1      13.910   5.267  -1.370  0.00  0.00     0.028 H 
ENDBRANCH  56  58
BRANCH  56  62
ATOM     62  CD2 THR d   1      14.868   3.260   1.184  0.00  0.00    -0.073 C 
ATOM     63  H22 THR d   1      14.497   3.066   2.201  0.00  0.00     0.028 H 
ATOM     64  H23 THR d   1      15.906   3.620   1.235  0.00  0.00     0.028 H 
ATOM     65  H24 THR d   1      14.831   2.331   0.596  0.00  0.00     0.028 H 
ENDBRANCH  56  62
ENDBRANCH  53  56
ENDBRANCH  21  53
ENDBRANCH   9  21
ENDBRANCH   4   7
ENDBRANCH   1   3
BRANCH   1  66
ATOM     66  CB  THR d   1       7.023   0.957   1.513  0.00  0.00     0.059 C 
ATOM     67  H34 THR d   1       6.945  -0.098   1.210  0.00  0.00     0.079 H 
ATOM     68  H35 THR d   1       6.062   1.462   1.333  0.00  0.00     0.079 H 
BRANCH  66  69
ATOM     69  OG  THR d   1       7.305   1.007   2.905  0.00  0.00    -0.280 OA
BRANCH  69  70
ATOM     70  P   THR d   1       6.381   1.902   3.764  0.00  0.00     0.422 P 
ATOM     71  O1P THR d   1       4.934   1.951   3.356  0.00  0.00    -0.617 OA
ATOM     72  O2P THR d   1       6.483   1.263   5.137  0.00  0.00    -0.617 OA
ATOM     73  O3P THR d   1       6.892   3.358   3.701  0.00  0.00    -0.617 OA
ENDBRANCH  69  70
ENDBRANCH  66  69
ENDBRANCH   1  66
BRANCH   1  74
ATOM     74  C   THR d   1       7.363   1.763  -0.667  0.00  0.00     0.243 C 
ATOM     75  O   THR d   1       7.431   0.854  -1.500  0.00  0.00    -0.271 OA
ATOM     76  N   THR d   1       6.663   2.906  -0.853  0.00  0.00    -0.345 N 
ATOM     77  H36 THR d   1       6.666   3.576  -0.111  0.00  0.00     0.163 HD
BRANCH  76  78
ATOM     78  CA  THR d   1       5.906   3.232  -2.054  0.00  0.00     0.099 C 
ATOM     79  H37 THR d   1       5.636   2.292  -2.558  0.00  0.00     0.088 H 
BRANCH  78  80
ATOM     80  C   THR d   1       6.762   4.064  -3.017  0.00  0.00     0.243 C 
ATOM     81  O   THR d   1       7.471   4.975  -2.562  0.00  0.00    -0.271 OA
ATOM     82  N   THR d   1       6.711   3.765  -4.347  0.00  0.00    -0.337 N 
ATOM     83  CA  THR d   1       7.517   4.532  -5.321  0.00  0.00     0.092 C 
ATOM     84  CD  THR d   1       5.939   2.709  -5.023  0.00  0.00    -0.001 C 
ATOM     85  CB  THR d   1       7.154   3.896  -6.660  0.00  0.00    -0.036 C 
ATOM     86  H40 THR d   1       8.589   4.413  -5.106  0.00  0.00     0.087 H 
ATOM     87  CG  THR d   1       6.633   2.576  -6.326  0.00  0.00    -0.048 C 
ATOM     88  H41 THR d   1       8.044   3.809  -7.300  0.00  0.00     0.036 H 
ATOM     89  H42 THR d   1       6.388   4.494  -7.176  0.00  0.00     0.036 H 
ATOM     90  H43 THR d   1       7.458   1.853  -6.244  0.00  0.00     0.035 H 
ATOM     91  H44 THR d   1       5.926   2.241  -7.099  0.00  0.00     0.035 H 
ATOM     92  H45 THR d   1       4.891   3.012  -5.162  0.00  0.00     0.064 H 
ATOM     93  H46 THR d   1       5.976   1.767  -4.457  0.00  0.00     0.064 H 
BRANCH  83  94
ATOM     94  C   THR d   1       7.179   6.015  -5.348  0.00  0.00     0.243 C 
ATOM     95  O   THR d   1       6.056   6.371  -4.977  0.00  0.00    -0.271 OA
ATOM     96  N   THR d   1       8.117   6.894  -5.784  0.00  0.00    -0.337 N 
ATOM     97  CA  THR d   1       7.807   8.344  -5.835  0.00  0.00     0.091 C 
ATOM     98  CD  THR d   1       9.485   6.619  -6.278  0.00  0.00    -0.001 C 
ATOM     99  CB  THR d   1       9.131   8.973  -6.277  0.00  0.00    -0.036 C 
ATOM    100  H47 THR d   1       7.538   8.702  -4.830  0.00  0.00     0.087 H 
ATOM    101  CG  THR d   1       9.857   7.875  -6.988  0.00  0.00    -0.048 C 
ATOM    102  H48 THR d   1       9.707   9.317  -5.405  0.00  0.00     0.036 H 
ATOM    103  H49 THR d   1       8.950   9.820  -6.955  0.00  0.00     0.036 H 
ATOM    104  H50 THR d   1      10.944   8.037  -6.936  0.00  0.00     0.035 H 
ATOM    105  H51 THR d   1       9.543   7.827  -8.041  0.00  0.00     0.035 H 
ATOM    106  H52 THR d   1       9.489   5.762  -6.967  0.00  0.00     0.064 H 
ATOM    107  H53 THR d   1      10.172   6.421  -5.442  0.00  0.00     0.064 H 
BRANCH  97 108
ATOM    108  C   THR d   1       6.650   8.691  -6.788  0.00  0.00     0.241 C 
ATOM    109  O   THR d   1       6.525   8.082  -7.871  0.00  0.00    -0.271 OA
ATOM    110  N   THR d   1       5.780   9.628  -6.339  0.00  0.00    -0.343 N 
ATOM    111  H54 THR d   1       5.972  10.031  -5.444  0.00  0.00     0.163 HD
BRANCH 110 112
ATOM    112  CA  THR d   1       4.582  10.108  -7.041  0.00  0.00     0.116 C 
ATOM    113  H55 THR d   1       4.242   9.304  -7.711  0.00  0.00     0.093 H 
BRANCH 112 114
ATOM    114  C   THR d   1       4.866  11.339  -7.900  0.00  0.00     0.198 C 
ATOM    115  O   THR d   1       4.303  11.475  -8.986  0.00  0.00    -0.646 OA
ATOM    116  OXT THR d   1       5.658  12.195  -7.506  0.00  0.00    -0.646 OA
ENDBRANCH 112 114
BRANCH 112 117
ATOM    117  CB  THR d   1       3.462  10.399  -6.044  0.00  0.00     0.045 C 
ATOM    118  H56 THR d   1       2.946   9.457  -5.808  0.00  0.00     0.077 H 
ATOM    119  H57 THR d   1       2.752  11.100  -6.506  0.00  0.00     0.077 H 
BRANCH 117 120
ATOM    120  OG  THR d   1       3.944  10.969  -4.836  0.00  0.00    -0.398 OA
ATOM    121  H58 THR d   1       3.214  11.131  -4.250  0.00  0.00     0.209 HD
ENDBRANCH 117 120
ENDBRANCH 112 117
ENDBRANCH 110 112
ENDBRANCH  97 108
ENDBRANCH  83  94
ENDBRANCH  78  80
BRANCH  78 122
ATOM    122  CB  THR d   1       4.608   3.972  -1.690  0.00  0.00     0.043 C 
ATOM    123  H38 THR d   1       4.087   4.240  -2.621  0.00  0.00     0.052 H 
ATOM    124  H39 THR d   1       4.872   4.888  -1.141  0.00  0.00     0.052 H 
BRANCH 122 125
ATOM    125  CG  THR d   1       3.665   3.153  -0.832  0.00  0.00     0.175 C 
ATOM    126  OD1 THR d   1       3.152   2.121  -1.327  0.00  0.00    -0.648 OA
ATOM    127  OD2 THR d   1       3.457   3.528   0.342  0.00  0.00    -0.648 OA
ENDBRANCH 122 125
ENDBRANCH  78 122
ENDBRANCH  76  78
ENDBRANCH   1  74
TORSDOF 31
