REMARK WARNING: 32 MAX_TORS EXCEEDED!!!
REMARK  38 active torsions:
REMARK  status: ('A' for Active; 'I' for Inactive)
REMARK    1  A    between atoms: N_1  and  CA_2 
REMARK    2  A    between atoms: CA_2  and  C_3 
REMARK    3  A    between atoms: CA_2  and  CB_5 
REMARK       I    between atoms: C_3  and  N_7 
REMARK    4  A    between atoms: CB_5  and  OG_6 
REMARK    5  A    between atoms: N_7  and  CA_8 
REMARK    6  A    between atoms: CA_8  and  C_9 
REMARK    7  A    between atoms: CA_8  and  CB_11 
REMARK       I    between atoms: C_9  and  N_15 
REMARK    8  A    between atoms: CB_11  and  CG_12 
REMARK    9  A    between atoms: CG_12  and  CD1_13 
REMARK   10  A    between atoms: CG_12  and  CD2_14 
REMARK   11  A    between atoms: N_15  and  CA_16 
REMARK   12  A    between atoms: CA_16  and  C_17 
REMARK   13  A    between atoms: CA_16  and  CB_19 
REMARK       I    between atoms: C_17  and  N_23 
REMARK   14  A    between atoms: CB_19  and  CG_20 
REMARK   15  A    between atoms: N_23  and  CA_24 
REMARK   16  A    between atoms: CA_24  and  C_25 
REMARK   17  A    between atoms: CA_24  and  CB_27 
REMARK       I    between atoms: C_25  and  N_29 
REMARK   18  A    between atoms: CB_27  and  OG_28 
REMARK   19  A    between atoms: N_29  and  CA_30 
REMARK   20  A    between atoms: CA_30  and  CB_31 
REMARK   21  A    between atoms: CA_30  and  C_33 
REMARK   22  A    between atoms: CB_31  and  OG_32 
REMARK   23  A    between atoms: OG_32  and  P_35 
REMARK       I    between atoms: C_33  and  N_39 
REMARK   24  A    between atoms: CA_40  and  C_41 
REMARK       I    between atoms: C_41  and  N_46 
REMARK   25  A    between atoms: CA_47  and  C_48 
REMARK       I    between atoms: C_48  and  N_53 
REMARK   26  A    between atoms: N_53  and  CA_54 
REMARK   27  A    between atoms: CA_54  and  C_55 
REMARK   28  A    between atoms: CA_54  and  CB_57 
REMARK       I    between atoms: C_55  and  N_61 
REMARK   29  A    between atoms: CB_57  and  CG_58 
REMARK       I    between atoms: CG_58  and  ND2_60 
REMARK   30  A    between atoms: N_61  and  CA_62 
REMARK   31  A    between atoms: CA_62  and  C_63 
REMARK   32  A    between atoms: CA_62  and  CB_65 
REMARK       I    between atoms: C_63  and  N_68 
REMARK   33  A    between atoms: CB_65  and  OG1_66 
REMARK   34  A    between atoms: CB_65  and  CG2_67 
REMARK   35  A    between atoms: N_68  and  CA_69 
REMARK   36  A    between atoms: CA_69  and  C_70 
REMARK   37  A    between atoms: CA_69  and  CB_72 
REMARK   38  A    between atoms: CB_72  and  OG_73 
ROOT
ATOM      1  C   SER d   1      17.114  39.567  12.345  0.00  0.00     0.245 C 
ATOM      2  O   SER d   1      16.485  40.006  13.314  0.00  0.00    -0.271 OA
ATOM      3  N   SER d   1      18.148  38.722  12.512  0.00  0.00    -0.337 N 
ATOM      4  CA  SER d   1      18.523  38.311  13.871  0.00  0.00     0.092 C 
ATOM      5  CB  SER d   1      19.346  37.035  13.645  0.00  0.00    -0.036 C 
ATOM      6  CG  SER d   1      19.406  36.827  12.161  0.00  0.00    -0.048 C 
ATOM      7  CD  SER d   1      19.026  38.103  11.505  0.00  0.00    -0.001 C 
ATOM      8  H32 SER d   1      17.625  38.085  14.465  0.00  0.00     0.087 H 
ATOM      9  H33 SER d   1      18.858  36.177  14.130  0.00  0.00     0.036 H 
ATOM     10  H34 SER d   1      20.360  37.159  14.053  0.00  0.00     0.036 H 
ATOM     11  H35 SER d   1      18.705  36.032  11.867  0.00  0.00     0.035 H 
ATOM     12  H36 SER d   1      20.427  36.544  11.864  0.00  0.00     0.035 H 
ATOM     13  H37 SER d   1      19.909  38.728  11.308  0.00  0.00     0.064 H 
ATOM     14  H38 SER d   1      18.487  37.922  10.563  0.00  0.00     0.064 H 
ENDROOT
BRANCH   1  15
ATOM     15  CA  SER d   1      16.738  40.012  10.915  0.00  0.00     0.110 C 
ATOM     16  H29 SER d   1      17.062  39.249  10.191  0.00  0.00     0.090 H 
BRANCH  15  17
ATOM     17  N   SER d   1      15.310  40.271  10.800  0.00  0.00    -0.344 N 
ATOM     18  C   SER d   1      14.416  39.438  10.254  0.00  0.00     0.243 C 
ATOM     19  O   SER d   1      14.715  38.355   9.746  0.00  0.00    -0.271 OA
ATOM     20  H28 SER d   1      14.970  41.141  11.158  0.00  0.00     0.163 HD
BRANCH  18  21
ATOM     21  CA  SER d   1      12.976  39.938  10.234  0.00  0.00     0.109 C 
ATOM     22  H24 SER d   1      12.293  39.095  10.415  0.00  0.00     0.090 H 
BRANCH  21  23
ATOM     23  N   SER d   1      12.779  40.953  11.283  0.00  0.00    -0.344 N 
ATOM     24  C   SER d   1      12.615  40.682  12.594  0.00  0.00     0.241 C 
ATOM     25  O   SER d   1      12.580  39.542  13.050  0.00  0.00    -0.271 OA
ATOM     26  H23 SER d   1      12.766  41.913  11.003  0.00  0.00     0.163 HD
BRANCH  24  27
ATOM     27  CA  SER d   1      12.479  41.873  13.529  0.00  0.00     0.098 C 
ATOM     28  H20 SER d   1      12.168  42.748  12.939  0.00  0.00     0.088 H 
BRANCH  27  29
ATOM     29  N   SER d   1      11.470  41.608  14.549  0.00  0.00    -0.346 N 
ATOM     30  C   SER d   1      10.159  41.664  14.318  0.00  0.00     0.241 C 
ATOM     31  O   SER d   1       9.688  41.970  13.223  0.00  0.00    -0.271 OA
ATOM     32  H19 SER d   1      11.779  41.372  15.470  0.00  0.00     0.163 HD
BRANCH  30  33
ATOM     33  CA  SER d   1       9.241  41.414  15.522  0.00  0.00     0.089 C 
ATOM     34  H9  SER d   1       9.780  41.739  16.424  0.00  0.00     0.087 H 
BRANCH  33  35
ATOM     35  N   SER d   1       8.033  42.235  15.404  0.00  0.00    -0.346 N 
ATOM     36  C   SER d   1       7.828  43.376  16.108  0.00  0.00     0.251 C 
ATOM     37  O   SER d   1       8.642  43.813  16.940  0.00  0.00    -0.271 OA
ATOM     38  H8  SER d   1       7.320  41.937  14.769  0.00  0.00     0.163 HD
BRANCH  36  39
ATOM     39  CA  SER d   1       6.516  44.153  15.826  0.00  0.00     0.195 C 
ATOM     40  H4  SER d   1       6.799  45.185  15.571  0.00  0.00     0.102 H 
BRANCH  39  41
ATOM     41  N   SER d   1       5.780  43.610  14.684  0.00  0.00    -0.064 N 
ATOM     42  H1  SER d   1       4.938  44.146  14.541  0.00  0.00     0.275 HD
ATOM     43  H2  SER d   1       5.539  42.648  14.866  0.00  0.00     0.275 HD
ATOM     44  H3  SER d   1       6.356  43.661  13.858  0.00  0.00     0.275 HD
ENDBRANCH  39  41
BRANCH  39  45
ATOM     45  CB  SER d   1       5.626  44.215  17.068  0.00  0.00     0.051 C 
ATOM     46  H5  SER d   1       5.537  43.205  17.494  0.00  0.00     0.077 H 
ATOM     47  H6  SER d   1       4.630  44.578  16.775  0.00  0.00     0.077 H 
BRANCH  45  48
ATOM     48  OG  SER d   1       6.160  45.084  18.055  0.00  0.00    -0.398 OA
ATOM     49  H7  SER d   1       7.019  44.774  18.317  0.00  0.00     0.209 HD
ENDBRANCH  45  48
ENDBRANCH  39  45
ENDBRANCH  36  39
ENDBRANCH  33  35
BRANCH  33  50
ATOM     50  CB  SER d   1       8.899  39.915  15.710  0.00  0.00    -0.035 C 
ATOM     51  H10 SER d   1       8.395  39.585  14.790  0.00  0.00     0.037 H 
ATOM     52  H11 SER d   1       8.198  39.851  16.555  0.00  0.00     0.037 H 
BRANCH  50  53
ATOM     53  CG  SER d   1      10.028  38.906  15.988  0.00  0.00    -0.059 C 
ATOM     54  H12 SER d   1      10.663  38.851  15.092  0.00  0.00     0.038 H 
BRANCH  53  55
ATOM     55  CD1 SER d   1      10.888  39.308  17.162  0.00  0.00    -0.073 C 
ATOM     56  H13 SER d   1      11.675  38.555  17.315  0.00  0.00     0.028 H 
ATOM     57  H14 SER d   1      10.265  39.376  18.066  0.00  0.00     0.028 H 
ATOM     58  H15 SER d   1      11.350  40.285  16.960  0.00  0.00     0.028 H 
ENDBRANCH  53  55
BRANCH  53  59
ATOM     59  CD2 SER d   1       9.467  37.549  16.269  0.00  0.00    -0.073 C 
ATOM     60  H16 SER d   1       8.835  37.232  15.427  0.00  0.00     0.028 H 
ATOM     61  H17 SER d   1       8.863  37.585  17.188  0.00  0.00     0.028 H 
ATOM     62  H18 SER d   1      10.290  36.832  16.400  0.00  0.00     0.028 H 
ENDBRANCH  53  59
ENDBRANCH  50  53
ENDBRANCH  33  50
ENDBRANCH  30  33
ENDBRANCH  27  29
BRANCH  27  63
ATOM     63  CB  SER d   1      13.821  42.190  14.217  0.00  0.00     0.043 C 
ATOM     64  H21 SER d   1      14.158  41.270  14.718  0.00  0.00     0.052 H 
ATOM     65  H22 SER d   1      13.627  42.968  14.970  0.00  0.00     0.052 H 
BRANCH  63  66
ATOM     66  CG  SER d   1      14.964  42.676  13.352  0.00  0.00     0.175 C 
ATOM     67  OD1 SER d   1      14.718  43.017  12.160  0.00  0.00    -0.648 OA
ATOM     68  OD2 SER d   1      16.113  42.731  13.867  0.00  0.00    -0.648 OA
ENDBRANCH  63  66
ENDBRANCH  27  63
ENDBRANCH  24  27
ENDBRANCH  21  23
BRANCH  21  69
ATOM     69  CB  SER d   1      12.690  40.536   8.860  0.00  0.00     0.044 C 
ATOM     70  H25 SER d   1      12.933  39.791   8.088  0.00  0.00     0.077 H 
ATOM     71  H26 SER d   1      13.318  41.428   8.720  0.00  0.00     0.077 H 
BRANCH  69  72
ATOM     72  OG  SER d   1      11.330  40.906   8.732  0.00  0.00    -0.398 OA
ATOM     73  H27 SER d   1      11.183  41.274   7.869  0.00  0.00     0.209 HD
ENDBRANCH  69  72
ENDBRANCH  21  69
ENDBRANCH  18  21
ENDBRANCH  15  17
BRANCH  15  74
ATOM     74  CB  SER d   1      17.365  41.376  10.607  0.00  0.00     0.059 C 
ATOM     75  H30 SER d   1      17.967  41.696  11.471  0.00  0.00     0.079 H 
ATOM     76  H31 SER d   1      16.562  42.106  10.429  0.00  0.00     0.079 H 
BRANCH  74  77
ATOM     77  OG  SER d   1      18.199  41.321   9.460  0.00  0.00    -0.280 OA
BRANCH  77  78
ATOM     78  P   SER d   1      18.013  42.671   8.700  0.00  0.00     0.422 P 
ATOM     79  O1P SER d   1      18.723  42.346   7.419  0.00  0.00    -0.617 OA
ATOM     80  O2P SER d   1      16.558  43.147   8.329  0.00  0.00    -0.617 OA
ATOM     81  O3P SER d   1      18.749  43.801   9.469  0.00  0.00    -0.617 OA
ENDBRANCH  77  78
ENDBRANCH  74  77
ENDBRANCH  15  74
ENDBRANCH   1  15
BRANCH   4  82
ATOM     82  C   SER d   1      19.327  39.402  14.591  0.00  0.00     0.243 C 
ATOM     83  O   SER d   1      19.862  40.279  13.915  0.00  0.00    -0.271 OA
ATOM     84  N   SER d   1      19.453  39.398  15.937  0.00  0.00    -0.337 N 
ATOM     85  CA  SER d   1      20.263  40.437  16.587  0.00  0.00     0.091 C 
ATOM     86  CD  SER d   1      18.886  38.465  16.927  0.00  0.00    -0.001 C 
ATOM     87  CB  SER d   1      20.018  40.200  18.083  0.00  0.00    -0.036 C 
ATOM     88  H39 SER d   1      19.880  41.430  16.309  0.00  0.00     0.087 H 
ATOM     89  CG  SER d   1      18.838  39.286  18.166  0.00  0.00    -0.048 C 
ATOM     90  H40 SER d   1      19.801  41.151  18.590  0.00  0.00     0.036 H 
ATOM     91  H41 SER d   1      20.899  39.730  18.545  0.00  0.00     0.036 H 
ATOM     92  H42 SER d   1      17.904  39.866  18.207  0.00  0.00     0.035 H 
ATOM     93  H43 SER d   1      18.910  38.644  19.056  0.00  0.00     0.035 H 
ATOM     94  H44 SER d   1      19.534  37.586  17.059  0.00  0.00     0.064 H 
ATOM     95  H45 SER d   1      17.879  38.137  16.630  0.00  0.00     0.064 H 
BRANCH  85  96
ATOM     96  C   SER d   1      21.749  40.382  16.179  0.00  0.00     0.241 C 
ATOM     97  O   SER d   1      22.481  39.453  16.541  0.00  0.00    -0.271 OA
ATOM     98  N   SER d   1      22.156  41.333  15.318  0.00  0.00    -0.346 N 
ATOM     99  H46 SER d   1      21.485  42.002  14.998  0.00  0.00     0.163 HD
BRANCH  98 100
ATOM    100  CA  SER d   1      23.533  41.438  14.826  0.00  0.00     0.097 C 
ATOM    101  H47 SER d   1      23.918  40.431  14.606  0.00  0.00     0.088 H 
BRANCH 100 102
ATOM    102  C   SER d   1      24.364  42.057  15.952  0.00  0.00     0.241 C 
ATOM    103  O   SER d   1      24.071  43.181  16.374  0.00  0.00    -0.271 OA
ATOM    104  N   SER d   1      25.323  41.290  16.520  0.00  0.00    -0.344 N 
ATOM    105  H52 SER d   1      25.483  40.372  16.158  0.00  0.00     0.163 HD
BRANCH 104 106
ATOM    106  CA  SER d   1      26.144  41.760  17.657  0.00  0.00     0.113 C 
ATOM    107  H53 SER d   1      25.993  42.848  17.720  0.00  0.00     0.091 H 
BRANCH 106 108
ATOM    108  C   SER d   1      27.674  41.550  17.428  0.00  0.00     0.243 C 
ATOM    109  O   SER d   1      28.326  40.769  18.136  0.00  0.00    -0.271 OA
ATOM    110  N   SER d   1      28.230  42.302  16.434  0.00  0.00    -0.343 N 
ATOM    111  H59 SER d   1      27.611  42.903  15.929  0.00  0.00     0.163 HD
BRANCH 110 112
ATOM    112  CA  SER d   1      29.643  42.323  16.027  0.00  0.00     0.116 C 
ATOM    113  H60 SER d   1      30.261  42.142  16.919  0.00  0.00     0.093 H 
BRANCH 112 114
ATOM    114  C   SER d   1      30.037  43.702  15.435  0.00  0.00     0.198 C 
ATOM    115  O   SER d   1      30.081  44.727  16.134  0.00  0.00    -0.646 OA
ATOM    116  OXT SER d   1      30.326  43.842  14.236  0.00  0.00    -0.646 OA
ENDBRANCH 112 114
BRANCH 112 117
ATOM    117  CB  SER d   1      29.922  41.213  15.014  0.00  0.00     0.045 C 
ATOM    118  H61 SER d   1      30.951  41.321  14.639  0.00  0.00     0.077 H 
ATOM    119  H62 SER d   1      29.215  41.307  14.177  0.00  0.00     0.077 H 
BRANCH 117 120
ATOM    120  OG  SER d   1      29.776  39.929  15.599  0.00  0.00    -0.398 OA
ATOM    121  H63 SER d   1      28.888  39.828  15.921  0.00  0.00     0.209 HD
ENDBRANCH 117 120
ENDBRANCH 112 117
ENDBRANCH 110 112
ENDBRANCH 106 108
BRANCH 106 122
ATOM    122  CB  SER d   1      25.644  41.176  18.994  0.00  0.00     0.060 C 
ATOM    123  H54 SER d   1      26.441  41.315  19.740  0.00  0.00     0.086 H 
BRANCH 122 124
ATOM    124  OG1 SER d   1      25.409  39.771  18.852  0.00  0.00    -0.393 OA
ATOM    125  H55 SER d   1      26.218  39.339  18.603  0.00  0.00     0.210 HD
ENDBRANCH 122 124
BRANCH 122 126
ATOM    126  CG2 SER d   1      24.398  41.888  19.514  0.00  0.00    -0.050 C 
ATOM    127  H56 SER d   1      24.086  41.433  20.466  0.00  0.00     0.031 H 
ATOM    128  H57 SER d   1      23.586  41.791  18.778  0.00  0.00     0.031 H 
ATOM    129  H58 SER d   1      24.624  42.953  19.673  0.00  0.00     0.031 H 
ENDBRANCH 122 126
ENDBRANCH 106 122
ENDBRANCH 104 106
ENDBRANCH 100 102
BRANCH 100 130
ATOM    130  CB  SER d   1      23.597  42.278  13.525  0.00  0.00     0.036 C 
ATOM    131  H48 SER d   1      24.645  42.304  13.193  0.00  0.00     0.051 H 
ATOM    132  H49 SER d   1      23.263  43.298  13.767  0.00  0.00     0.051 H 
BRANCH 130 133
ATOM    133  CG  SER d   1      22.747  41.773  12.352  0.00  0.00     0.217 C 
ATOM    134  OD1 SER d   1      22.563  40.566  12.124  0.00  0.00    -0.274 OA
ATOM    135  ND2 SER d   1      22.244  42.694  11.536  0.00  0.00    -0.370 N 
ATOM    136  H50 SER d   1      21.683  42.418  10.756  0.00  0.00     0.159 HD
ATOM    137  H51 SER d   1      22.427  43.663  11.702  0.00  0.00     0.159 HD
ENDBRANCH 130 133
ENDBRANCH 100 130
ENDBRANCH  98 100
ENDBRANCH  85  96
ENDBRANCH   4  82
TORSDOF 38
