REMARK WARNING: 32 MAX_TORS EXCEEDED!!!
REMARK  39 active torsions:
REMARK  status: ('A' for Active; 'I' for Inactive)
REMARK    1  A    between atoms: C_1  and  CH3_3 
REMARK       I    between atoms: C_1  and  N_4 
REMARK    2  A    between atoms: N_4  and  CA_5 
REMARK    3  A    between atoms: CA_5  and  C_6 
REMARK    4  A    between atoms: CA_5  and  CB_8 
REMARK       I    between atoms: C_6  and  N_13 
REMARK    5  A    between atoms: CB_8  and  CG_9 
REMARK    6  A    between atoms: CG_9  and  CD_10 
REMARK    7  A    between atoms: N_13  and  CA_14 
REMARK    8  A    between atoms: CA_14  and  C_15 
REMARK    9  A    between atoms: CA_14  and  CB_17 
REMARK       I    between atoms: C_15  and  N_21 
REMARK   10  A    between atoms: CB_17  and  CG1_18 
REMARK   11  A    between atoms: CB_17  and  CG2_19 
REMARK   12  A    between atoms: CG1_18  and  CD1_20 
REMARK   13  A    between atoms: N_21  and  CA_22 
REMARK   14  A    between atoms: CA_22  and  C_23 
REMARK   15  A    between atoms: CA_22  and  CB_25 
REMARK       I    between atoms: C_23  and  N_32 
REMARK   16  A    between atoms: CB_25  and  CG_26 
REMARK   17  A    between atoms: CG_26  and  CD_27 
REMARK   18  A    between atoms: CD_27  and  NE_28 
REMARK       I    between atoms: NE_28  and  CZ_29 
REMARK       I    between atoms: CZ_29  and  NH1_30 
REMARK       I    between atoms: CZ_29  and  NH2_31 
REMARK   19  A    between atoms: N_32  and  CA_33 
REMARK   20  A    between atoms: CA_33  and  C_34 
REMARK   21  A    between atoms: CA_33  and  CB_36 
REMARK       I    between atoms: C_34  and  N_43 
REMARK   22  A    between atoms: CB_36  and  CG_37 
REMARK   23  A    between atoms: CG_37  and  CD_38 
REMARK   24  A    between atoms: CD_38  and  NE_39 
REMARK       I    between atoms: NE_39  and  CZ_40 
REMARK       I    between atoms: CZ_40  and  NH1_41 
REMARK   25  A    between atoms: N_43  and  CA_44 
REMARK   26  A    between atoms: CA_44  and  C_45 
REMARK   27  A    between atoms: CA_44  and  CB_47 
REMARK       I    between atoms: C_45  and  N_50 
REMARK   28  A    between atoms: CB_47  and  CG1_48 
REMARK   29  A    between atoms: CB_47  and  CG2_49 
REMARK   30  A    between atoms: CA_51  and  C_52 
REMARK       I    between atoms: C_52  and  N_57 
REMARK   31  A    between atoms: N_57  and  CA_58 
REMARK   32  A    between atoms: CA_58  and  C_59 
REMARK   33  A    between atoms: CA_58  and  CB_61 
REMARK       I    between atoms: C_59  and  N_66 
REMARK   34  A    between atoms: CB_61  and  CG_62 
REMARK   35  A    between atoms: CG_62  and  CD_63 
REMARK   36  A    between atoms: N_66  and  CA_67 
REMARK   37  A    between atoms: CA_67  and  C_68 
REMARK   38  A    between atoms: CA_67  and  CB_70 
REMARK   39  A    between atoms: CB_70  and  CG_71 
ROOT
ATOM      1  CA  ACE d   1      -5.865  -1.425  26.871  0.00  0.00     0.089 C 
ATOM      2  H35 ACE d   1      -6.723  -2.080  27.083  0.00  0.00     0.087 H 
ENDROOT
BRANCH   1   3
ATOM      3  N   ACE d   1      -5.009  -2.070  25.892  0.00  0.00    -0.346 N 
ATOM      4  C   ACE d   1      -5.545  -2.623  24.815  0.00  0.00     0.241 C 
ATOM      5  O   ACE d   1      -6.764  -2.661  24.647  0.00  0.00    -0.271 OA
ATOM      6  H34 ACE d   1      -4.019  -2.096  26.030  0.00  0.00     0.163 HD
BRANCH   4   7
ATOM      7  CA  ACE d   1      -4.603  -3.193  23.764  0.00  0.00     0.089 C 
ATOM      8  H22 ACE d   1      -4.468  -2.424  22.989  0.00  0.00     0.087 H 
BRANCH   7   9
ATOM      9  N   ACE d   1      -3.283  -3.485  24.307  0.00  0.00    -0.346 N 
ATOM     10  C   ACE d   1      -2.209  -2.731  24.033  0.00  0.00     0.241 C 
ATOM     11  O   ACE d   1      -2.268  -1.775  23.246  0.00  0.00    -0.271 OA
ATOM     12  H21 ACE d   1      -3.174  -4.278  24.907  0.00  0.00     0.163 HD
BRANCH  10  13
ATOM     13  CA  ACE d   1      -0.889  -3.079  24.714  0.00  0.00     0.092 C 
ATOM     14  H11 ACE d   1      -0.381  -2.129  24.938  0.00  0.00     0.088 H 
BRANCH  13  15
ATOM     15  N   ACE d   1      -1.103  -3.782  25.974  0.00  0.00    -0.346 N 
ATOM     16  C   ACE d   1      -1.776  -3.208  26.964  0.00  0.00     0.241 C 
ATOM     17  O   ACE d   1      -2.175  -2.049  26.905  0.00  0.00    -0.271 OA
ATOM     18  H10 ACE d   1      -0.739  -4.706  26.093  0.00  0.00     0.163 HD
BRANCH  16  19
ATOM     19  CA  ACE d   1      -2.043  -4.077  28.192  0.00  0.00     0.090 C 
ATOM     20  H5  ACE d   1      -3.011  -3.773  28.617  0.00  0.00     0.087 H 
BRANCH  19  21
ATOM     21  N   ACE d   1      -2.122  -5.503  27.871  0.00  0.00    -0.348 N 
ATOM     22  C   ACE d   1      -2.998  -5.988  26.977  0.00  0.00     0.214 C 
ATOM     23  O   ACE d   1      -3.795  -5.282  26.353  0.00  0.00    -0.274 OA
ATOM     24  H4  ACE d   1      -1.502  -6.137  28.333  0.00  0.00     0.163 HD
BRANCH  22  25
ATOM     25  CH3 ACE d   1      -2.956  -7.477  26.763  0.00  0.00    -0.003 C 
ATOM     26  H1  ACE d   1      -2.183  -7.919  27.409  0.00  0.00     0.040 H 
ATOM     27  H2  ACE d   1      -2.719  -7.690  25.710  0.00  0.00     0.040 H 
ATOM     28  H3  ACE d   1      -3.935  -7.911  27.013  0.00  0.00     0.040 H 
ENDBRANCH  22  25
ENDBRANCH  19  21
BRANCH  19  29
ATOM     29  CB  ACE d   1      -0.959  -3.834  29.239  0.00  0.00    -0.029 C 
ATOM     30  H6  ACE d   1      -0.835  -2.748  29.367  0.00  0.00     0.037 H 
ATOM     31  H7  ACE d   1      -0.018  -4.270  28.873  0.00  0.00     0.037 H 
BRANCH  29  32
ATOM     32  CG  ACE d   1      -1.277  -4.444  30.593  0.00  0.00     0.018 C 
ATOM     33  H8  ACE d   1      -1.448  -5.523  30.462  0.00  0.00     0.049 H 
ATOM     34  H9  ACE d   1      -2.191  -3.973  30.985  0.00  0.00     0.049 H 
BRANCH  32  35
ATOM     35  CD  ACE d   1      -0.162  -4.249  31.598  0.00  0.00     0.172 C 
ATOM     36  OE1 ACE d   1       0.860  -3.628  31.239  0.00  0.00    -0.648 OA
ATOM     37  OE2 ACE d   1      -0.307  -4.718  32.747  0.00  0.00    -0.648 OA
ENDBRANCH  32  35
ENDBRANCH  29  32
ENDBRANCH  19  29
ENDBRANCH  16  19
ENDBRANCH  13  15
BRANCH  13  38
ATOM     38  CB  ACE d   1       0.055  -3.913  23.831  0.00  0.00    -0.030 C 
ATOM     39  H12 ACE d   1       0.921  -4.203  24.443  0.00  0.00     0.043 H 
BRANCH  38  40
ATOM     40  CG1 ACE d   1       0.561  -3.096  22.645  0.00  0.00    -0.063 C 
ATOM     41  H13 ACE d   1      -0.295  -2.577  22.189  0.00  0.00     0.033 H 
ATOM     42  H14 ACE d   1       1.005  -3.785  21.912  0.00  0.00     0.033 H 
BRANCH  40  43
ATOM     43  CD1 ACE d   1       1.596  -2.068  23.021  0.00  0.00    -0.076 C 
ATOM     44  H18 ACE d   1       1.913  -1.520  22.121  0.00  0.00     0.027 H 
ATOM     45  H19 ACE d   1       2.466  -2.570  23.470  0.00  0.00     0.027 H 
ATOM     46  H20 ACE d   1       1.165  -1.363  23.747  0.00  0.00     0.027 H 
ENDBRANCH  40  43
ENDBRANCH  38  40
BRANCH  38  47
ATOM     47  CG2 ACE d   1      -0.621  -5.186  23.333  0.00  0.00    -0.071 C 
ATOM     48  H15 ACE d   1      -0.983  -5.769  24.192  0.00  0.00     0.028 H 
ATOM     49  H16 ACE d   1       0.102  -5.786  22.761  0.00  0.00     0.028 H 
ATOM     50  H17 ACE d   1      -1.470  -4.921  22.686  0.00  0.00     0.028 H 
ENDBRANCH  38  47
ENDBRANCH  13  38
ENDBRANCH  10  13
ENDBRANCH   7   9
BRANCH   7  51
ATOM     51  CB  ACE d   1      -5.244  -4.409  23.097  0.00  0.00    -0.036 C 
ATOM     52  H23 ACE d   1      -6.229  -4.109  22.709  0.00  0.00     0.036 H 
ATOM     53  H24 ACE d   1      -5.373  -5.191  23.860  0.00  0.00     0.036 H 
BRANCH  51  54
ATOM     54  CG  ACE d   1      -4.450  -4.985  21.965  0.00  0.00    -0.048 C 
ATOM     55  H25 ACE d   1      -4.980  -5.867  21.578  0.00  0.00     0.035 H 
ATOM     56  H26 ACE d   1      -3.464  -5.288  22.347  0.00  0.00     0.035 H 
BRANCH  54  57
ATOM     57  CD  ACE d   1      -4.248  -4.008  20.830  0.00  0.00     0.009 C 
ATOM     58  H27 ACE d   1      -3.477  -4.409  20.156  0.00  0.00     0.064 H 
ATOM     59  H28 ACE d   1      -3.906  -3.050  21.250  0.00  0.00     0.064 H 
BRANCH  57  60
ATOM     60  NE  ACE d   1      -5.464  -3.768  20.054  0.00  0.00    -0.227 N 
ATOM     61  CZ  ACE d   1      -5.691  -2.698  19.308  0.00  0.00     0.665 C 
ATOM     62  NH1 ACE d   1      -4.800  -1.713  19.251  0.00  0.00    -0.235 N 
ATOM     63  NH2 ACE d   1      -6.819  -2.600  18.631  0.00  0.00    -0.235 N 
ATOM     64  H30 ACE d   1      -4.985  -0.884  18.668  0.00  0.00     0.174 HD
ATOM     65  H31 ACE d   1      -3.925  -1.778  19.790  0.00  0.00     0.174 HD
ATOM     66  H32 ACE d   1      -7.512  -3.361  18.672  0.00  0.00     0.174 HD
ATOM     67  H33 ACE d   1      -7.007  -1.763  18.061  0.00  0.00     0.174 HD
ATOM     68  H29 ACE d   1      -6.201  -4.487  20.091  0.00  0.00     0.177 HD
ENDBRANCH  57  60
ENDBRANCH  54  57
ENDBRANCH  51  54
ENDBRANCH   7  51
ENDBRANCH   4   7
ENDBRANCH   1   3
BRANCH   1  69
ATOM     69  C   ACE d   1      -6.378  -0.098  26.327  0.00  0.00     0.241 C 
ATOM     70  O   ACE d   1      -5.616   0.713  25.792  0.00  0.00    -0.271 OA
ATOM     71  N   ACE d   1      -7.674   0.126  26.463  0.00  0.00    -0.346 N 
ATOM     72  H47 ACE d   1      -8.247  -0.568  26.898  0.00  0.00     0.163 HD
BRANCH  71  73
ATOM     73  CA  ACE d   1      -8.288   1.368  25.991  0.00  0.00     0.092 C 
ATOM     74  H48 ACE d   1      -7.871   1.636  25.009  0.00  0.00     0.088 H 
BRANCH  73  75
ATOM     75  C   ACE d   1      -7.969   2.472  26.996  0.00  0.00     0.243 C 
ATOM     76  O   ACE d   1      -8.120   2.254  28.210  0.00  0.00    -0.271 OA
ATOM     77  N   ACE d   1      -7.535   3.642  26.547  0.00  0.00    -0.337 N 
ATOM     78  CA  ACE d   1      -7.241   4.721  27.495  0.00  0.00     0.091 C 
ATOM     79  CD  ACE d   1      -7.211   4.009  25.157  0.00  0.00    -0.001 C 
ATOM     80  CB  ACE d   1      -6.558   5.779  26.620  0.00  0.00    -0.036 C 
ATOM     81  H56 ACE d   1      -6.559   4.365  28.282  0.00  0.00     0.087 H 
ATOM     82  CG  ACE d   1      -6.933   5.480  25.249  0.00  0.00    -0.048 C 
ATOM     83  H57 ACE d   1      -5.466   5.722  26.737  0.00  0.00     0.036 H 
ATOM     84  H58 ACE d   1      -6.905   6.785  26.899  0.00  0.00     0.036 H 
ATOM     85  H59 ACE d   1      -6.110   5.748  24.570  0.00  0.00     0.035 H 
ATOM     86  H60 ACE d   1      -7.834   6.048  24.976  0.00  0.00     0.035 H 
ATOM     87  H61 ACE d   1      -8.061   3.809  24.488  0.00  0.00     0.064 H 
ATOM     88  H62 ACE d   1      -6.326   3.462  24.800  0.00  0.00     0.064 H 
BRANCH  78  89
ATOM     89  C   ACE d   1      -8.493   5.290  28.147  0.00  0.00     0.241 C 
ATOM     90  O   ACE d   1      -9.582   5.262  27.583  0.00  0.00    -0.271 OA
ATOM     91  N   ACE d   1      -8.317   5.829  29.352  0.00  0.00    -0.346 N 
ATOM     92  H63 ACE d   1      -7.455   5.659  29.830  0.00  0.00     0.163 HD
BRANCH  91  93
ATOM     93  CA  ACE d   1      -9.324   6.655  30.005  0.00  0.00     0.090 C 
ATOM     94  H64 ACE d   1     -10.242   6.641  29.399  0.00  0.00     0.087 H 
BRANCH  93  95
ATOM     95  C   ACE d   1      -8.806   8.087  30.106  0.00  0.00     0.241 C 
ATOM     96  O   ACE d   1      -7.597   8.319  30.205  0.00  0.00    -0.271 OA
ATOM     97  N   ACE d   1      -9.723   9.051  30.077  0.00  0.00    -0.344 N 
ATOM     98  H69 ACE d   1     -10.694   8.816  30.029  0.00  0.00     0.163 HD
BRANCH  97  99
ATOM     99  CA  ACE d   1      -9.313  10.453  30.115  0.00  0.00     0.100 C 
ATOM    100  H70 ACE d   1      -8.506  10.589  29.380  0.00  0.00     0.090 H 
BRANCH  99 101
ATOM    101  C   ACE d   1      -8.773  10.828  31.493  0.00  0.00     0.197 C 
ATOM    102  O   ACE d   1      -9.285  10.368  32.512  0.00  0.00    -0.646 OA
ATOM    103  OXT ACE d   1      -7.818  11.595  31.603  0.00  0.00    -0.646 OA
ENDBRANCH  99 101
BRANCH  99 104
ATOM    104  CB  ACE d   1     -10.464  11.387  29.737  0.00  0.00    -0.013 C 
ATOM    105  H71 ACE d   1     -11.294  11.219  30.438  0.00  0.00     0.043 H 
ATOM    106  H72 ACE d   1     -10.791  11.142  28.716  0.00  0.00     0.043 H 
BRANCH 104 107
ATOM    107  CG  ACE d   1     -10.091  12.843  29.781  0.00  0.00    -0.056 A 
ATOM    108  CD1 ACE d   1      -9.010  13.314  29.055  0.00  0.00    -0.077 A 
ATOM    109  CE1 ACE d   1      -8.659  14.650  29.096  0.00  0.00    -0.082 A 
ATOM    110  H73 ACE d   1      -8.432  12.627  28.447  0.00  0.00     0.084 H 
ATOM    111  CZ  ACE d   1      -9.389  15.531  29.865  0.00  0.00    -0.083 A 
ATOM    112  H75 ACE d   1      -7.810  15.005  28.523  0.00  0.00     0.083 H 
ATOM    113  CE2 ACE d   1     -10.464  15.073  30.597  0.00  0.00    -0.082 A 
ATOM    114  H77 ACE d   1      -9.119  16.580  29.894  0.00  0.00     0.083 H 
ATOM    115  CD2 ACE d   1     -10.814  13.737  30.552  0.00  0.00    -0.077 A 
ATOM    116  H76 ACE d   1     -11.035  15.762  31.209  0.00  0.00     0.083 H 
ATOM    117  H74 ACE d   1     -11.663  13.385  31.126  0.00  0.00     0.084 H 
ENDBRANCH 104 107
ENDBRANCH  99 104
ENDBRANCH  97  99
ENDBRANCH  93  95
BRANCH  93 118
ATOM    118  CB  ACE d   1      -9.651   6.142  31.412  0.00  0.00    -0.029 C 
ATOM    119  H65 ACE d   1     -10.094   6.970  31.985  0.00  0.00     0.037 H 
ATOM    120  H66 ACE d   1      -8.711   5.827  31.890  0.00  0.00     0.037 H 
BRANCH 118 121
ATOM    121  CG  ACE d   1     -10.624   4.961  31.449  0.00  0.00     0.018 C 
ATOM    122  H67 ACE d   1     -10.687   4.594  32.484  0.00  0.00     0.049 H 
ATOM    123  H68 ACE d   1     -10.230   4.164  30.801  0.00  0.00     0.049 H 
BRANCH 121 124
ATOM    124  CD  ACE d   1     -12.033   5.318  30.975  0.00  0.00     0.172 C 
ATOM    125  OE1 ACE d   1     -12.597   6.352  31.424  0.00  0.00    -0.648 OA
ATOM    126  OE2 ACE d   1     -12.580   4.552  30.152  0.00  0.00    -0.648 OA
ENDBRANCH 121 124
ENDBRANCH 118 121
ENDBRANCH  93 118
ENDBRANCH  91  93
ENDBRANCH  78  89
ENDBRANCH  73  75
BRANCH  73 127
ATOM    127  CB  ACE d   1      -9.793   1.182  25.859  0.00  0.00    -0.033 C 
ATOM    128  H49 ACE d   1     -10.188   0.923  26.852  0.00  0.00     0.042 H 
BRANCH 127 129
ATOM    129  CG1 ACE d   1     -10.464   2.467  25.405  0.00  0.00    -0.071 C 
ATOM    130  H50 ACE d   1     -11.548   2.304  25.318  0.00  0.00     0.028 H 
ATOM    131  H51 ACE d   1     -10.059   2.766  24.427  0.00  0.00     0.028 H 
ATOM    132  H52 ACE d   1     -10.271   3.261  26.141  0.00  0.00     0.028 H 
ENDBRANCH 127 129
BRANCH 127 133
ATOM    133  CG2 ACE d   1     -10.135   0.042  24.905  0.00  0.00    -0.071 C 
ATOM    134  H53 ACE d   1      -9.643  -0.881  25.245  0.00  0.00     0.028 H 
ATOM    135  H54 ACE d   1      -9.784   0.293  23.893  0.00  0.00     0.028 H 
ATOM    136  H55 ACE d   1     -11.225  -0.108  24.888  0.00  0.00     0.028 H 
ENDBRANCH 127 133
ENDBRANCH  73 127
ENDBRANCH  71  73
ENDBRANCH   1  69
BRANCH   1 137
ATOM    137  CB  ACE d   1      -5.084  -1.193  28.164  0.00  0.00    -0.036 C 
ATOM    138  H36 ACE d   1      -4.236  -0.528  27.946  0.00  0.00     0.036 H 
ATOM    139  H37 ACE d   1      -4.707  -2.162  28.524  0.00  0.00     0.036 H 
BRANCH 137 140
ATOM    140  CG  ACE d   1      -5.923  -0.562  29.264  0.00  0.00    -0.048 C 
ATOM    141  H38 ACE d   1      -6.735  -1.254  29.532  0.00  0.00     0.035 H 
ATOM    142  H39 ACE d   1      -6.352   0.378  28.888  0.00  0.00     0.035 H 
BRANCH 140 143
ATOM    143  CD  ACE d   1      -5.103  -0.263  30.509  0.00  0.00     0.009 C 
ATOM    144  H40 ACE d   1      -5.696   0.380  31.176  0.00  0.00     0.064 H 
ATOM    145  H41 ACE d   1      -4.186   0.265  30.209  0.00  0.00     0.064 H 
BRANCH 143 146
ATOM    146  NE  ACE d   1      -4.731  -1.473  31.234  0.00  0.00    -0.227 N 
ATOM    147  CZ  ACE d   1      -5.525  -2.109  32.090  0.00  0.00     0.665 C 
ATOM    148  NH1 ACE d   1      -6.750  -1.658  32.329  0.00  0.00    -0.235 N 
ATOM    149  NH2 ACE d   1      -5.096  -3.202  32.705  0.00  0.00    -0.235 N 
ATOM    150  H43 ACE d   1      -7.361  -2.154  32.993  0.00  0.00     0.174 HD
ATOM    151  H44 ACE d   1      -7.090  -0.811  31.850  0.00  0.00     0.174 HD
ATOM    152  H45 ACE d   1      -4.146  -3.556  32.523  0.00  0.00     0.174 HD
ATOM    153  H46 ACE d   1      -5.713  -3.697  33.365  0.00  0.00     0.174 HD
ATOM    154  H42 ACE d   1      -3.791  -1.861  31.072  0.00  0.00     0.177 HD
ENDBRANCH 143 146
ENDBRANCH 140 143
ENDBRANCH 137 140
ENDBRANCH   1 137
TORSDOF 39
