REMARK  25 active torsions:
REMARK  status: ('A' for Active; 'I' for Inactive)
REMARK    1  A    between atoms: N_1  and  CA_2 
REMARK    2  A    between atoms: CA_2  and  C_3 
REMARK    3  A    between atoms: CA_2  and  CB_5 
REMARK       I    between atoms: C_3  and  N_12 
REMARK    4  A    between atoms: CB_5  and  CG_6 
REMARK    5  A    between atoms: CG_6  and  CD_7 
REMARK    6  A    between atoms: CD_7  and  NE_8 
REMARK       I    between atoms: NE_8  and  CZ_9 
REMARK       I    between atoms: CZ_9  and  NH1_10 
REMARK    7  A    between atoms: N_12  and  CA_13 
REMARK    8  A    between atoms: CA_13  and  C_14 
REMARK    9  A    between atoms: CA_13  and  CB_16 
REMARK       I    between atoms: C_14  and  N_24 
REMARK   10  A    between atoms: CB_16  and  CG_17 
REMARK   11  A    between atoms: CZ_22  and  OH_23 
REMARK   12  A    between atoms: N_24  and  CA_25 
REMARK   13  A    between atoms: CA_25  and  C_26 
REMARK   14  A    between atoms: CA_25  and  CB_28 
REMARK       I    between atoms: C_26  and  N_29 
REMARK   15  A    between atoms: N_29  and  CA_30 
REMARK   16  A    between atoms: CA_30  and  C_31 
REMARK   17  A    between atoms: CA_30  and  CB_33 
REMARK       I    between atoms: C_31  and  N_36 
REMARK   18  A    between atoms: CB_33  and  CG1_34 
REMARK   19  A    between atoms: CB_33  and  CG2_35 
REMARK   20  A    between atoms: N_36  and  CA_37 
REMARK   21  A    between atoms: CA_37  and  C_38 
REMARK   22  A    between atoms: CA_37  and  CB_40 
REMARK       I    between atoms: C_38  and  N_43 
REMARK   23  A    between atoms: CB_40  and  CG1_41 
REMARK   24  A    between atoms: CB_40  and  CG2_42 
REMARK   25  A    between atoms: CA_44  and  C_45 
ROOT
ATOM      1  CA  ARG d   1      -4.776   3.401 -22.914  0.00  0.00     0.086 C 
ATOM      2  H26 ARG d   1      -5.038   2.638 -22.166  0.00  0.00     0.086 H 
ENDROOT
BRANCH   1   3
ATOM      3  N   ARG d   1      -3.347   3.279 -23.163  0.00  0.00    -0.346 N 
ATOM      4  C   ARG d   1      -2.725   4.014 -24.079  0.00  0.00     0.241 C 
ATOM      5  O   ARG d   1      -3.300   4.838 -24.793  0.00  0.00    -0.271 OA
ATOM      6  H25 ARG d   1      -2.817   2.621 -22.628  0.00  0.00     0.163 HD
BRANCH   4   7
ATOM      7  CA  ARG d   1      -1.230   3.780 -24.208  0.00  0.00     0.093 C 
ATOM      8  H17 ARG d   1      -0.997   2.764 -23.857  0.00  0.00     0.088 H 
BRANCH   7   9
ATOM      9  N   ARG d   1      -0.826   3.911 -25.600  0.00  0.00    -0.346 N 
ATOM     10  C   ARG d   1      -0.329   2.903 -26.305  0.00  0.00     0.249 C 
ATOM     11  O   ARG d   1      -0.266   1.751 -25.874  0.00  0.00    -0.271 OA
ATOM     12  H16 ARG d   1      -0.928   4.801 -26.045  0.00  0.00     0.163 HD
BRANCH  10  13
ATOM     13  CA  ARG d   1       0.164   3.257 -27.707  0.00  0.00     0.176 C 
ATOM     14  H4  ARG d   1       0.076   4.346 -27.838  0.00  0.00     0.099 H 
BRANCH  13  15
ATOM     15  N   ARG d   1       1.570   2.886 -27.858  0.00  0.00    -0.067 N 
ATOM     16  H1  ARG d   1       1.883   3.124 -28.786  0.00  0.00     0.275 HD
ATOM     17  H2  ARG d   1       1.673   1.894 -27.713  0.00  0.00     0.275 HD
ATOM     18  H3  ARG d   1       2.124   3.384 -27.179  0.00  0.00     0.275 HD
ENDBRANCH  13  15
BRANCH  13  19
ATOM     19  CB  ARG d   1      -0.684   2.576 -28.780  0.00  0.00    -0.029 C 
ATOM     20  H5  ARG d   1      -1.743   2.793 -28.578  0.00  0.00     0.036 H 
ATOM     21  H6  ARG d   1      -0.514   1.491 -28.723  0.00  0.00     0.036 H 
BRANCH  19  22
ATOM     22  CG  ARG d   1      -0.353   3.046 -30.194  0.00  0.00    -0.047 C 
ATOM     23  H7  ARG d   1       0.680   2.752 -30.433  0.00  0.00     0.035 H 
ATOM     24  H8  ARG d   1      -0.441   4.142 -30.233  0.00  0.00     0.035 H 
BRANCH  22  25
ATOM     25  CD  ARG d   1      -1.289   2.440 -31.232  0.00  0.00     0.009 C 
ATOM     26  H9  ARG d   1      -2.323   2.721 -30.983  0.00  0.00     0.064 H 
ATOM     27  H10 ARG d   1      -1.189   1.345 -31.202  0.00  0.00     0.064 H 
BRANCH  25  28
ATOM     28  NE  ARG d   1      -0.988   2.904 -32.587  0.00  0.00    -0.227 N 
ATOM     29  CZ  ARG d   1      -1.536   3.973 -33.162  0.00  0.00     0.665 C 
ATOM     30  NH1 ARG d   1      -2.424   4.710 -32.506  0.00  0.00    -0.235 N 
ATOM     31  NH2 ARG d   1      -1.195   4.307 -34.399  0.00  0.00    -0.235 N 
ATOM     32  H12 ARG d   1      -2.843   5.535 -32.958  0.00  0.00     0.174 HD
ATOM     33  H13 ARG d   1      -2.694   4.457 -31.545  0.00  0.00     0.174 HD
ATOM     34  H14 ARG d   1      -0.507   3.740 -34.914  0.00  0.00     0.174 HD
ATOM     35  H15 ARG d   1      -1.618   5.133 -34.845  0.00  0.00     0.174 HD
ATOM     36  H11 ARG d   1      -0.303   2.365 -33.136  0.00  0.00     0.177 HD
ENDBRANCH  25  28
ENDBRANCH  22  25
ENDBRANCH  19  22
ENDBRANCH  13  19
ENDBRANCH  10  13
ENDBRANCH   7   9
BRANCH   7  37
ATOM     37  CB  ARG d   1      -0.452   4.790 -23.366  0.00  0.00    -0.014 C 
ATOM     38  H18 ARG d   1      -0.650   4.591 -22.303  0.00  0.00     0.043 H 
ATOM     39  H19 ARG d   1      -0.798   5.803 -23.620  0.00  0.00     0.043 H 
BRANCH  37  40
ATOM     40  CG  ARG d   1       1.041   4.712 -23.605  0.00  0.00    -0.056 A 
ATOM     41  CD1 ARG d   1       1.671   3.486 -23.768  0.00  0.00    -0.074 A 
ATOM     42  CE1 ARG d   1       3.031   3.407 -23.995  0.00  0.00    -0.051 A 
ATOM     43  H20 ARG d   1       1.086   2.575 -23.716  0.00  0.00     0.084 H 
ATOM     44  CZ  ARG d   1       3.776   4.561 -24.066  0.00  0.00     0.065 A 
ATOM     45  H22 ARG d   1       3.508   2.441 -24.116  0.00  0.00     0.087 H 
ATOM     46  CE2 ARG d   1       3.174   5.789 -23.911  0.00  0.00    -0.051 A 
ATOM     47  CD2 ARG d   1       1.813   5.860 -23.689  0.00  0.00    -0.074 A 
ATOM     48  H23 ARG d   1       3.765   6.696 -23.963  0.00  0.00     0.087 H 
ATOM     49  H21 ARG d   1       1.341   6.829 -23.579  0.00  0.00     0.084 H 
BRANCH  44  50
ATOM     50  OH  ARG d   1       5.133   4.491 -24.286  0.00  0.00    -0.361 OA
ATOM     51  H24 ARG d   1       5.392   3.581 -24.371  0.00  0.00     0.217 HD
ENDBRANCH  44  50
ENDBRANCH  37  40
ENDBRANCH   7  37
ENDBRANCH   4   7
ENDBRANCH   1   3
BRANCH   1  52
ATOM     52  C   ARG d   1      -5.603   3.108 -24.164  0.00  0.00     0.240 C 
ATOM     53  O   ARG d   1      -6.674   3.699 -24.366  0.00  0.00    -0.271 OA
ATOM     54  N   ARG d   1      -5.122   2.174 -24.981  0.00  0.00    -0.346 N 
ATOM     55  H30 ARG d   1      -4.223   1.783 -24.783  0.00  0.00     0.163 HD
BRANCH  54  56
ATOM     56  CA  ARG d   1      -5.849   1.694 -26.154  0.00  0.00     0.092 C 
ATOM     57  H31 ARG d   1      -6.698   2.368 -26.338  0.00  0.00     0.088 H 
BRANCH  56  58
ATOM     58  C   ARG d   1      -6.393   0.301 -25.857  0.00  0.00     0.241 C 
ATOM     59  O   ARG d   1      -5.642  -0.604 -25.463  0.00  0.00    -0.271 OA
ATOM     60  N   ARG d   1      -7.692   0.128 -26.069  0.00  0.00    -0.346 N 
ATOM     61  H39 ARG d   1      -8.231   0.877 -26.455  0.00  0.00     0.163 HD
BRANCH  60  62
ATOM     62  CA  ARG d   1      -8.350  -1.143 -25.747  0.00  0.00     0.092 C 
ATOM     63  H40 ARG d   1      -8.045  -1.466 -24.741  0.00  0.00     0.088 H 
BRANCH  62  64
ATOM     64  C   ARG d   1      -7.924  -2.197 -26.759  0.00  0.00     0.243 C 
ATOM     65  O   ARG d   1      -7.846  -1.901 -27.967  0.00  0.00    -0.271 OA
ATOM     66  N   ARG d   1      -7.643  -3.431 -26.336  0.00  0.00    -0.336 N 
ATOM     67  CA  ARG d   1      -7.425  -4.493 -27.323  0.00  0.00     0.098 C 
ATOM     68  CD  ARG d   1      -7.392  -3.880 -24.954  0.00  0.00    -0.001 C 
ATOM     69  CB  ARG d   1      -6.914  -5.672 -26.489  0.00  0.00    -0.035 C 
ATOM     70  H48 ARG d   1      -6.673  -4.188 -28.065  0.00  0.00     0.089 H 
ATOM     71  CG  ARG d   1      -7.235  -5.373 -25.101  0.00  0.00    -0.048 C 
ATOM     72  H49 ARG d   1      -5.826  -5.780 -26.612  0.00  0.00     0.036 H 
ATOM     73  H50 ARG d   1      -7.412  -6.602 -26.802  0.00  0.00     0.036 H 
ATOM     74  H51 ARG d   1      -6.423  -5.726 -24.448  0.00  0.00     0.035 H 
ATOM     75  H52 ARG d   1      -8.174  -5.873 -24.822  0.00  0.00     0.035 H 
ATOM     76  H53 ARG d   1      -8.241  -3.635 -24.299  0.00  0.00     0.064 H 
ATOM     77  H54 ARG d   1      -6.475  -3.425 -24.551  0.00  0.00     0.064 H 
BRANCH  67  78
ATOM     78  C   ARG d   1      -8.728  -4.844 -28.039  0.00  0.00     0.196 C 
ATOM     79  O   ARG d   1      -8.826  -4.408 -29.182  0.00  0.00    -0.646 OA
ATOM     80  OXT ARG d   1      -9.516  -5.519 -27.383  0.00  0.00    -0.646 OA
ENDBRANCH  67  78
ENDBRANCH  62  64
BRANCH  62  81
ATOM     81  CB  ARG d   1      -9.864  -0.957 -25.772  0.00  0.00    -0.033 C 
ATOM     82  H41 ARG d   1     -10.154  -0.640 -26.785  0.00  0.00     0.042 H 
BRANCH  81  83
ATOM     83  CG1 ARG d   1     -10.568  -2.256 -25.455  0.00  0.00    -0.071 C 
ATOM     84  H42 ARG d   1     -11.656  -2.098 -25.479  0.00  0.00     0.028 H 
ATOM     85  H43 ARG d   1     -10.269  -2.600 -24.454  0.00  0.00     0.028 H 
ATOM     86  H44 ARG d   1     -10.291  -3.015 -26.202  0.00  0.00     0.028 H 
ENDBRANCH  81  83
BRANCH  81  87
ATOM     87  CG2 ARG d   1     -10.311   0.119 -24.785  0.00  0.00    -0.071 C 
ATOM     88  H45 ARG d   1      -9.798   1.064 -25.016  0.00  0.00     0.028 H 
ATOM     89  H46 ARG d   1     -10.058  -0.195 -23.761  0.00  0.00     0.028 H 
ATOM     90  H47 ARG d   1     -11.399   0.262 -24.866  0.00  0.00     0.028 H 
ENDBRANCH  81  87
ENDBRANCH  62  81
ENDBRANCH  60  62
ENDBRANCH  56  58
BRANCH  56  91
ATOM     91  CB  ARG d   1      -4.962   1.697 -27.410  0.00  0.00    -0.033 C 
ATOM     92  H32 ARG d   1      -4.068   1.090 -27.205  0.00  0.00     0.042 H 
BRANCH  91  93
ATOM     93  CG1 ARG d   1      -5.699   1.084 -28.592  0.00  0.00    -0.071 C 
ATOM     94  H33 ARG d   1      -5.046   1.097 -29.477  0.00  0.00     0.028 H 
ATOM     95  H34 ARG d   1      -6.609   1.666 -28.799  0.00  0.00     0.028 H 
ATOM     96  H35 ARG d   1      -5.974   0.046 -28.354  0.00  0.00     0.028 H 
ENDBRANCH  91  93
BRANCH  91  97
ATOM     97  CG2 ARG d   1      -4.516   3.115 -27.745  0.00  0.00    -0.071 C 
ATOM     98  H36 ARG d   1      -3.985   3.546 -26.883  0.00  0.00     0.028 H 
ATOM     99  H37 ARG d   1      -5.397   3.731 -27.978  0.00  0.00     0.028 H 
ATOM    100  H38 ARG d   1      -3.844   3.092 -28.615  0.00  0.00     0.028 H 
ENDBRANCH  91  97
ENDBRANCH  56  91
ENDBRANCH  54  56
ENDBRANCH   1  52
BRANCH   1 101
ATOM    101  CB  ARG d   1      -5.141   4.763 -22.317  0.00  0.00    -0.049 C 
ATOM    102  H27 ARG d   1      -6.227   4.809 -22.146  0.00  0.00     0.030 H 
ATOM    103  H28 ARG d   1      -4.845   5.560 -23.015  0.00  0.00     0.030 H 
ATOM    104  H29 ARG d   1      -4.614   4.898 -21.361  0.00  0.00     0.030 H 
ENDBRANCH   1 101
TORSDOF 25
