REMARK WARNING: 32 MAX_TORS EXCEEDED!!!
REMARK  47 active torsions:
REMARK  status: ('A' for Active; 'I' for Inactive)
REMARK    1  A    between atoms: N_1  and  CA_2 
REMARK    2  A    between atoms: CA_2  and  C_3 
REMARK    3  A    between atoms: CA_2  and  CB_5 
REMARK       I    between atoms: C_3  and  N_10 
REMARK    4  A    between atoms: CB_5  and  CG_6 
REMARK    5  A    between atoms: CG_6  and  CD_7 
REMARK    6  A    between atoms: N_10  and  CA_11 
REMARK    7  A    between atoms: CA_11  and  C_12 
REMARK    8  A    between atoms: CA_11  and  CB_14 
REMARK       I    between atoms: C_12  and  N_18 
REMARK    9  A    between atoms: CB_14  and  CG1_15 
REMARK   10  A    between atoms: CB_14  and  CG2_16 
REMARK   11  A    between atoms: CG1_15  and  CD1_17 
REMARK   12  A    between atoms: N_18  and  CA_19 
REMARK   13  A    between atoms: CA_19  and  C_20 
REMARK   14  A    between atoms: CA_19  and  CB_22 
REMARK       I    between atoms: C_20  and  N_29 
REMARK   15  A    between atoms: CB_22  and  CG_23 
REMARK   16  A    between atoms: CG_23  and  CD_24 
REMARK   17  A    between atoms: CD_24  and  NE_25 
REMARK       I    between atoms: NE_25  and  CZ_26 
REMARK       I    between atoms: CZ_26  and  NH1_27 
REMARK       I    between atoms: CZ_26  and  NH2_28 
REMARK   18  A    between atoms: N_29  and  CA_30 
REMARK   19  A    between atoms: CA_30  and  C_31 
REMARK   20  A    between atoms: CA_30  and  CB_33 
REMARK       I    between atoms: C_31  and  N_40 
REMARK   21  A    between atoms: CB_33  and  CG_34 
REMARK   22  A    between atoms: CG_34  and  CD_35 
REMARK   23  A    between atoms: CD_35  and  NE_36 
REMARK       I    between atoms: NE_36  and  CZ_37 
REMARK       I    between atoms: CZ_37  and  NH1_38 
REMARK   24  A    between atoms: N_40  and  CA_41 
REMARK   25  A    between atoms: CA_41  and  C_42 
REMARK   26  A    between atoms: CA_41  and  CB_44 
REMARK       I    between atoms: C_42  and  N_47 
REMARK   27  A    between atoms: CB_44  and  CG1_45 
REMARK   28  A    between atoms: CB_44  and  CG2_46 
REMARK   29  A    between atoms: CA_48  and  C_49 
REMARK       I    between atoms: C_49  and  N_54 
REMARK   30  A    between atoms: N_54  and  CA_55 
REMARK   31  A    between atoms: CA_55  and  C_56 
REMARK   32  A    between atoms: CA_55  and  CB_58 
REMARK       I    between atoms: C_56  and  N_63 
REMARK   33  A    between atoms: CB_58  and  CG_59 
REMARK   34  A    between atoms: CG_59  and  CD_60 
REMARK   35  A    between atoms: N_63  and  CA_64 
REMARK   36  A    between atoms: CA_64  and  C_65 
REMARK   37  A    between atoms: CA_64  and  CB_67 
REMARK       I    between atoms: C_65  and  N_74 
REMARK   38  A    between atoms: CB_67  and  CG_68 
REMARK   39  A    between atoms: N_74  and  CA_75 
REMARK   40  A    between atoms: CA_75  and  C_76 
REMARK       I    between atoms: C_76  and  N_78 
REMARK   41  A    between atoms: N_78  and  CA_79 
REMARK   42  A    between atoms: CA_79  and  C_80 
REMARK       I    between atoms: C_80  and  N_82 
REMARK   43  A    between atoms: N_82  and  CA_83 
REMARK   44  A    between atoms: CA_83  and  C_84 
REMARK   45  A    between atoms: CA_83  and  CB_86 
REMARK   46  A    between atoms: CB_86  and  CG_87 
REMARK   47  A    between atoms: CZ_92  and  OH_93 
ROOT
ATOM      1  CA  GLU d   1      -8.127   1.188  25.842  0.00  0.00     0.092 C 
ATOM      2  H47 GLU d   1      -7.748   1.446  24.842  0.00  0.00     0.088 H 
ENDROOT
BRANCH   1   3
ATOM      3  N   GLU d   1      -7.537  -0.083  26.267  0.00  0.00    -0.346 N 
ATOM      4  C   GLU d   1      -6.243  -0.318  26.148  0.00  0.00     0.241 C 
ATOM      5  O   GLU d   1      -5.456   0.490  25.644  0.00  0.00    -0.271 OA
ATOM      6  H46 GLU d   1      -8.128  -0.790  26.657  0.00  0.00     0.163 HD
BRANCH   4   7
ATOM      7  CA  GLU d   1      -5.757  -1.664  26.668  0.00  0.00     0.089 C 
ATOM      8  H34 GLU d   1      -6.622  -2.314  26.866  0.00  0.00     0.087 H 
BRANCH   7   9
ATOM      9  N   GLU d   1      -4.907  -2.293  25.671  0.00  0.00    -0.346 N 
ATOM     10  C   GLU d   1      -5.433  -2.925  24.638  0.00  0.00     0.241 C 
ATOM     11  O   GLU d   1      -6.643  -3.118  24.554  0.00  0.00    -0.271 OA
ATOM     12  H33 GLU d   1      -3.913  -2.247  25.768  0.00  0.00     0.163 HD
BRANCH  10  13
ATOM     13  CA  GLU d   1      -4.497  -3.405  23.541  0.00  0.00     0.089 C 
ATOM     14  H21 GLU d   1      -4.353  -2.566  22.844  0.00  0.00     0.087 H 
BRANCH  13  15
ATOM     15  N   GLU d   1      -3.190  -3.759  24.072  0.00  0.00    -0.346 N 
ATOM     16  C   GLU d   1      -2.119  -2.979  23.881  0.00  0.00     0.241 C 
ATOM     17  O   GLU d   1      -2.176  -1.961  23.174  0.00  0.00    -0.271 OA
ATOM     18  H20 GLU d   1      -3.089  -4.607  24.593  0.00  0.00     0.163 HD
BRANCH  16  19
ATOM     19  CA  GLU d   1      -0.812  -3.362  24.566  0.00  0.00     0.092 C 
ATOM     20  H10 GLU d   1      -0.303  -2.429  24.848  0.00  0.00     0.088 H 
BRANCH  19  21
ATOM     21  N   GLU d   1      -1.059  -4.126  25.781  0.00  0.00    -0.346 N 
ATOM     22  C   GLU d   1      -1.630  -3.549  26.837  0.00  0.00     0.249 C 
ATOM     23  O   GLU d   1      -2.052  -2.388  26.824  0.00  0.00    -0.271 OA
ATOM     24  H9  GLU d   1      -0.798  -5.090  25.823  0.00  0.00     0.163 HD
BRANCH  22  25
ATOM     25  CA  GLU d   1      -1.744  -4.424  28.079  0.00  0.00     0.176 C 
ATOM     26  H4  GLU d   1      -2.638  -4.129  28.648  0.00  0.00     0.099 H 
BRANCH  25  27
ATOM     27  N   GLU d   1      -1.876  -5.819  27.675  0.00  0.00    -0.066 N 
ATOM     28  H1  GLU d   1      -1.952  -6.401  28.495  0.00  0.00     0.275 HD
ATOM     29  H2  GLU d   1      -1.065  -6.093  27.143  0.00  0.00     0.275 HD
ATOM     30  H3  GLU d   1      -2.703  -5.928  27.108  0.00  0.00     0.275 HD
ENDBRANCH  25  27
BRANCH  25  31
ATOM     31  CB  GLU d   1      -0.510  -4.237  28.960  0.00  0.00    -0.021 C 
ATOM     32  H5  GLU d   1       0.380  -4.489  28.365  0.00  0.00     0.037 H 
ATOM     33  H6  GLU d   1      -0.588  -4.927  29.813  0.00  0.00     0.037 H 
BRANCH  31  34
ATOM     34  CG  GLU d   1      -0.337  -2.825  29.502  0.00  0.00     0.018 C 
ATOM     35  H7  GLU d   1      -0.448  -2.114  28.670  0.00  0.00     0.049 H 
ATOM     36  H8  GLU d   1       0.672  -2.734  29.930  0.00  0.00     0.049 H 
BRANCH  34  37
ATOM     37  CD  GLU d   1      -1.352  -2.477  30.576  0.00  0.00     0.172 C 
ATOM     38  OE1 GLU d   1      -2.052  -3.393  31.057  0.00  0.00    -0.648 OA
ATOM     39  OE2 GLU d   1      -1.449  -1.286  30.940  0.00  0.00    -0.648 OA
ENDBRANCH  34  37
ENDBRANCH  31  34
ENDBRANCH  25  31
ENDBRANCH  22  25
ENDBRANCH  19  21
BRANCH  19  40
ATOM     40  CB  GLU d   1       0.135  -4.153  23.645  0.00  0.00    -0.030 C 
ATOM     41  H11 GLU d   1       0.968  -4.536  24.253  0.00  0.00     0.043 H 
BRANCH  40  42
ATOM     42  CG1 GLU d   1       0.713  -3.239  22.566  0.00  0.00    -0.063 C 
ATOM     43  H12 GLU d   1      -0.120  -2.728  22.060  0.00  0.00     0.033 H 
ATOM     44  H13 GLU d   1       1.258  -3.860  21.840  0.00  0.00     0.033 H 
BRANCH  42  45
ATOM     45  CD1 GLU d   1       1.664  -2.187  23.107  0.00  0.00    -0.076 C 
ATOM     46  H17 GLU d   1       2.038  -1.570  22.277  0.00  0.00     0.027 H 
ATOM     47  H18 GLU d   1       2.510  -2.680  23.608  0.00  0.00     0.027 H 
ATOM     48  H19 GLU d   1       1.133  -1.549  23.828  0.00  0.00     0.027 H 
ENDBRANCH  42  45
ENDBRANCH  40  42
BRANCH  40  49
ATOM     49  CG2 GLU d   1      -0.591  -5.347  23.029  0.00  0.00    -0.071 C 
ATOM     50  H14 GLU d   1      -0.995  -5.984  23.830  0.00  0.00     0.028 H 
ATOM     51  H15 GLU d   1       0.114  -5.929  22.418  0.00  0.00     0.028 H 
ATOM     52  H16 GLU d   1      -1.416  -4.988  22.396  0.00  0.00     0.028 H 
ENDBRANCH  40  49
ENDBRANCH  19  40
ENDBRANCH  16  19
ENDBRANCH  13  15
BRANCH  13  53
ATOM     53  CB  GLU d   1      -5.100  -4.559  22.745  0.00  0.00    -0.036 C 
ATOM     54  H22 GLU d   1      -6.130  -4.293  22.464  0.00  0.00     0.036 H 
ATOM     55  H23 GLU d   1      -5.114  -5.457  23.381  0.00  0.00     0.036 H 
BRANCH  53  56
ATOM     56  CG  GLU d   1      -4.318  -4.868  21.486  0.00  0.00    -0.048 C 
ATOM     57  H24 GLU d   1      -4.756  -5.750  20.997  0.00  0.00     0.035 H 
ATOM     58  H25 GLU d   1      -3.272  -5.078  21.753  0.00  0.00     0.035 H 
BRANCH  56  59
ATOM     59  CD  GLU d   1      -4.359  -3.710  20.538  0.00  0.00     0.009 C 
ATOM     60  H26 GLU d   1      -3.527  -3.808  19.825  0.00  0.00     0.064 H 
ATOM     61  H27 GLU d   1      -4.242  -2.779  21.112  0.00  0.00     0.064 H 
BRANCH  59  62
ATOM     62  NE  GLU d   1      -5.611  -3.646  19.792  0.00  0.00    -0.227 N 
ATOM     63  CZ  GLU d   1      -6.001  -2.601  19.077  0.00  0.00     0.665 C 
ATOM     64  NH1 GLU d   1      -5.280  -1.497  19.059  0.00  0.00    -0.235 N 
ATOM     65  NH2 GLU d   1      -7.111  -2.661  18.384  0.00  0.00    -0.235 N 
ATOM     66  H29 GLU d   1      -5.590  -0.689  18.501  0.00  0.00     0.174 HD
ATOM     67  H30 GLU d   1      -4.407  -1.443  19.603  0.00  0.00     0.174 HD
ATOM     68  H31 GLU d   1      -7.678  -3.521  18.394  0.00  0.00     0.174 HD
ATOM     69  H32 GLU d   1      -7.416  -1.849  17.829  0.00  0.00     0.174 HD
ATOM     70  H28 GLU d   1      -6.232  -4.467  19.823  0.00  0.00     0.177 HD
ENDBRANCH  59  62
ENDBRANCH  56  59
ENDBRANCH  53  56
ENDBRANCH  13  53
ENDBRANCH  10  13
ENDBRANCH   7   9
BRANCH   7  71
ATOM     71  CB  GLU d   1      -4.985  -1.443  27.970  0.00  0.00    -0.036 C 
ATOM     72  H35 GLU d   1      -4.112  -0.809  27.756  0.00  0.00     0.036 H 
ATOM     73  H36 GLU d   1      -4.646  -2.419  28.346  0.00  0.00     0.036 H 
BRANCH  71  74
ATOM     74  CG  GLU d   1      -5.823  -0.768  29.056  0.00  0.00    -0.048 C 
ATOM     75  H37 GLU d   1      -6.751  -1.344  29.187  0.00  0.00     0.035 H 
ATOM     76  H38 GLU d   1      -6.068   0.251  28.722  0.00  0.00     0.035 H 
BRANCH  74  77
ATOM     77  CD  GLU d   1      -5.117  -0.676  30.410  0.00  0.00     0.009 C 
ATOM     78  H39 GLU d   1      -4.264   0.014  30.327  0.00  0.00     0.064 H 
ATOM     79  H40 GLU d   1      -4.755  -1.674  30.698  0.00  0.00     0.064 H 
BRANCH  77  80
ATOM     80  NE  GLU d   1      -6.035  -0.184  31.435  0.00  0.00    -0.227 N 
ATOM     81  CZ  GLU d   1      -6.716  -0.958  32.279  0.00  0.00     0.665 C 
ATOM     82  NH1 GLU d   1      -6.580  -2.278  32.249  0.00  0.00    -0.235 N 
ATOM     83  NH2 GLU d   1      -7.531  -0.403  33.166  0.00  0.00    -0.235 N 
ATOM     84  H42 GLU d   1      -7.112  -2.866  32.907  0.00  0.00     0.174 HD
ATOM     85  H43 GLU d   1      -5.942  -2.715  31.568  0.00  0.00     0.174 HD
ATOM     86  H44 GLU d   1      -7.641   0.621  33.194  0.00  0.00     0.174 HD
ATOM     87  H45 GLU d   1      -8.054  -0.996  33.826  0.00  0.00     0.174 HD
ATOM     88  H41 GLU d   1      -6.165   0.835  31.511  0.00  0.00     0.177 HD
ENDBRANCH  77  80
ENDBRANCH  74  77
ENDBRANCH  71  74
ENDBRANCH   7  71
ENDBRANCH   4   7
ENDBRANCH   1   3
BRANCH   1  89
ATOM     89  C   GLU d   1      -7.715   2.278  26.824  0.00  0.00     0.243 C 
ATOM     90  O   GLU d   1      -7.760   2.055  28.052  0.00  0.00    -0.271 OA
ATOM     91  N   GLU d   1      -7.329   3.456  26.351  0.00  0.00    -0.337 N 
ATOM     92  CA  GLU d   1      -6.957   4.526  27.281  0.00  0.00     0.091 C 
ATOM     93  CD  GLU d   1      -7.086   3.827  24.948  0.00  0.00    -0.001 C 
ATOM     94  CB  GLU d   1      -6.470   5.656  26.362  0.00  0.00    -0.036 C 
ATOM     95  H55 GLU d   1      -6.145   4.194  27.945  0.00  0.00     0.087 H 
ATOM     96  CG  GLU d   1      -6.893   5.312  25.003  0.00  0.00    -0.048 C 
ATOM     97  H56 GLU d   1      -5.374   5.735  26.408  0.00  0.00     0.036 H 
ATOM     98  H57 GLU d   1      -6.920   6.612  26.667  0.00  0.00     0.036 H 
ATOM     99  H58 GLU d   1      -6.120   5.616  24.282  0.00  0.00     0.035 H 
ATOM    100  H59 GLU d   1      -7.838   5.822  24.765  0.00  0.00     0.035 H 
ATOM    101  H60 GLU d   1      -7.949   3.567  24.318  0.00  0.00     0.064 H 
ATOM    102  H61 GLU d   1      -6.185   3.328  24.561  0.00  0.00     0.064 H 
BRANCH  92 103
ATOM    103  C   GLU d   1      -8.139   4.962  28.128  0.00  0.00     0.241 C 
ATOM    104  O   GLU d   1      -9.295   4.888  27.710  0.00  0.00    -0.271 OA
ATOM    105  N   GLU d   1      -7.830   5.396  29.343  0.00  0.00    -0.346 N 
ATOM    106  H62 GLU d   1      -6.892   5.271  29.665  0.00  0.00     0.163 HD
BRANCH 105 107
ATOM    107  CA  GLU d   1      -8.781   6.044  30.232  0.00  0.00     0.090 C 
ATOM    108  H63 GLU d   1      -9.795   5.965  29.814  0.00  0.00     0.087 H 
BRANCH 107 109
ATOM    109  C   GLU d   1      -8.378   7.509  30.350  0.00  0.00     0.241 C 
ATOM    110  O   GLU d   1      -7.186   7.825  30.413  0.00  0.00    -0.271 OA
ATOM    111  N   GLU d   1      -9.361   8.402  30.354  0.00  0.00    -0.346 N 
ATOM    112  H68 GLU d   1     -10.307   8.085  30.286  0.00  0.00     0.163 HD
BRANCH 111 113
ATOM    113  CA  GLU d   1      -9.096   9.832  30.455  0.00  0.00     0.093 C 
ATOM    114  H69 GLU d   1      -8.031   9.979  30.689  0.00  0.00     0.088 H 
BRANCH 113 115
ATOM    115  C   GLU d   1      -9.939  10.415  31.578  0.00  0.00     0.241 C 
ATOM    116  O   GLU d   1     -11.141  10.145  31.654  0.00  0.00    -0.271 OA
ATOM    117  N   GLU d   1      -9.310  11.225  32.432  0.00  0.00    -0.351 N 
ATOM    118  H77 GLU d   1      -8.336  11.413  32.302  0.00  0.00     0.163 HD
BRANCH 117 119
ATOM    119  CA  GLU d   1     -10.010  11.839  33.545  0.00  0.00     0.069 C 
ATOM    120  H78 GLU d   1      -9.849  11.214  34.436  0.00  0.00     0.078 H 
ATOM    121  H79 GLU d   1     -11.083  11.862  33.303  0.00  0.00     0.078 H 
BRANCH 119 122
ATOM    122  C   GLU d   1      -9.573  13.253  33.877  0.00  0.00     0.235 C 
ATOM    123  O   GLU d   1      -9.677  13.681  35.031  0.00  0.00    -0.272 OA
ATOM    124  N   GLU d   1      -9.094  13.994  32.882  0.00  0.00    -0.351 N 
ATOM    125  H80 GLU d   1      -9.052  13.598  31.965  0.00  0.00     0.163 HD
BRANCH 124 126
ATOM    126  CA  GLU d   1      -8.632  15.351  33.077  0.00  0.00     0.069 C 
ATOM    127  H81 GLU d   1      -7.704  15.491  32.504  0.00  0.00     0.078 H 
ATOM    128  H82 GLU d   1      -8.428  15.501  34.147  0.00  0.00     0.078 H 
BRANCH 126 129
ATOM    129  C   GLU d   1      -9.639  16.391  32.627  0.00  0.00     0.236 C 
ATOM    130  O   GLU d   1     -10.839  16.127  32.499  0.00  0.00    -0.272 OA
ATOM    131  N   GLU d   1      -9.137  17.600  32.389  0.00  0.00    -0.345 N 
ATOM    132  H83 GLU d   1      -8.162  17.758  32.543  0.00  0.00     0.163 HD
BRANCH 131 133
ATOM    133  CA  GLU d   1      -9.964  18.702  31.911  0.00  0.00     0.100 C 
ATOM    134  H84 GLU d   1     -11.009  18.511  32.196  0.00  0.00     0.090 H 
BRANCH 133 135
ATOM    135  C   GLU d   1      -9.875  18.800  30.392  0.00  0.00     0.197 C 
ATOM    136  O   GLU d   1      -8.970  18.233  29.779  0.00  0.00    -0.646 OA
ATOM    137  OXT GLU d   1     -10.707  19.448  29.756  0.00  0.00    -0.646 OA
ENDBRANCH 133 135
BRANCH 133 138
ATOM    138  CB  GLU d   1      -9.513  20.020  32.541  0.00  0.00    -0.013 C 
ATOM    139  H85 GLU d   1     -10.155  20.826  32.156  0.00  0.00     0.043 H 
ATOM    140  H86 GLU d   1      -8.471  20.208  32.243  0.00  0.00     0.043 H 
BRANCH 138 141
ATOM    141  CG  GLU d   1      -9.586  20.033  34.052  0.00  0.00    -0.056 A 
ATOM    142  CD1 GLU d   1     -10.653  20.634  34.713  0.00  0.00    -0.074 A 
ATOM    143  CE1 GLU d   1     -10.724  20.649  36.096  0.00  0.00    -0.051 A 
ATOM    144  H87 GLU d   1     -11.443  21.099  34.135  0.00  0.00     0.084 H 
ATOM    145  CZ  GLU d   1      -9.718  20.054  36.835  0.00  0.00     0.065 A 
ATOM    146  H89 GLU d   1     -11.561  21.123  36.595  0.00  0.00     0.087 H 
ATOM    147  CE2 GLU d   1      -8.649  19.453  36.202  0.00  0.00    -0.051 A 
ATOM    148  CD2 GLU d   1      -8.590  19.443  34.819  0.00  0.00    -0.074 A 
ATOM    149  H90 GLU d   1      -7.860  18.991  36.785  0.00  0.00     0.087 H 
ATOM    150  H88 GLU d   1      -7.751  18.966  34.326  0.00  0.00     0.084 H 
BRANCH 145 151
ATOM    151  OH  GLU d   1      -9.770  20.055  38.208  0.00  0.00    -0.361 OA
ATOM    152  H91 GLU d   1     -10.558  20.502  38.494  0.00  0.00     0.217 HD
ENDBRANCH 145 151
ENDBRANCH 138 141
ENDBRANCH 133 138
ENDBRANCH 131 133
ENDBRANCH 126 129
ENDBRANCH 124 126
ENDBRANCH 119 122
ENDBRANCH 117 119
ENDBRANCH 113 115
BRANCH 113 153
ATOM    153  CB  GLU d   1      -9.415  10.556  29.143  0.00  0.00    -0.014 C 
ATOM    154  H70 GLU d   1     -10.436  10.284  28.836  0.00  0.00     0.043 H 
ATOM    155  H71 GLU d   1      -8.700  10.219  28.378  0.00  0.00     0.043 H 
BRANCH 153 156
ATOM    156  CG  GLU d   1      -9.333  12.053  29.242  0.00  0.00    -0.056 A 
ATOM    157  CD1 GLU d   1      -8.131  12.714  29.036  0.00  0.00    -0.077 A 
ATOM    158  CE1 GLU d   1      -8.056  14.095  29.130  0.00  0.00    -0.082 A 
ATOM    159  H72 GLU d   1      -7.240  12.144  28.799  0.00  0.00     0.084 H 
ATOM    160  CZ  GLU d   1      -9.192  14.827  29.433  0.00  0.00    -0.083 A 
ATOM    161  H74 GLU d   1      -7.111  14.601  28.967  0.00  0.00     0.083 H 
ATOM    162  CE2 GLU d   1     -10.395  14.178  29.638  0.00  0.00    -0.082 A 
ATOM    163  H76 GLU d   1      -9.138  15.907  29.509  0.00  0.00     0.083 H 
ATOM    164  CD2 GLU d   1     -10.461  12.800  29.542  0.00  0.00    -0.077 A 
ATOM    165  H75 GLU d   1     -11.286  14.749  29.874  0.00  0.00     0.083 H 
ATOM    166  H73 GLU d   1     -11.408  12.297  29.704  0.00  0.00     0.084 H 
ENDBRANCH 153 156
ENDBRANCH 113 153
ENDBRANCH 111 113
ENDBRANCH 107 109
BRANCH 107 167
ATOM    167  CB  GLU d   1      -8.750   5.393  31.619  0.00  0.00    -0.029 C 
ATOM    168  H64 GLU d   1      -9.468   5.923  32.262  0.00  0.00     0.037 H 
ATOM    169  H65 GLU d   1      -7.736   5.508  32.029  0.00  0.00     0.037 H 
BRANCH 167 170
ATOM    170  CG  GLU d   1      -9.104   3.905  31.635  0.00  0.00     0.018 C 
ATOM    171  H66 GLU d   1      -8.440   3.380  30.932  0.00  0.00     0.049 H 
ATOM    172  H67 GLU d   1     -10.148   3.790  31.308  0.00  0.00     0.049 H 
BRANCH 170 173
ATOM    173  CD  GLU d   1      -8.954   3.266  33.014  0.00  0.00     0.172 C 
ATOM    174  OE1 GLU d   1      -8.419   3.924  33.931  0.00  0.00    -0.648 OA
ATOM    175  OE2 GLU d   1      -9.374   2.099  33.182  0.00  0.00    -0.648 OA
ENDBRANCH 170 173
ENDBRANCH 167 170
ENDBRANCH 107 167
ENDBRANCH 105 107
ENDBRANCH  92 103
ENDBRANCH   1  89
BRANCH   1 176
ATOM    176  CB  GLU d   1      -9.655   1.054  25.772  0.00  0.00    -0.033 C 
ATOM    177  H48 GLU d   1     -10.021   0.802  26.778  0.00  0.00     0.042 H 
BRANCH 176 178
ATOM    178  CG1 GLU d   1     -10.286   2.360  25.353  0.00  0.00    -0.071 C 
ATOM    179  H49 GLU d   1     -11.379   2.242  25.309  0.00  0.00     0.028 H 
ATOM    180  H50 GLU d   1      -9.908   2.648  24.361  0.00  0.00     0.028 H 
ATOM    181  H51 GLU d   1     -10.031   3.142  26.084  0.00  0.00     0.028 H 
ENDBRANCH 176 178
BRANCH 176 182
ATOM    182  CG2 GLU d   1     -10.072  -0.073  24.817  0.00  0.00    -0.071 C 
ATOM    183  H52 GLU d   1      -9.604  -1.016  25.136  0.00  0.00     0.028 H 
ATOM    184  H53 GLU d   1      -9.744   0.172  23.796  0.00  0.00     0.028 H 
ATOM    185  H54 GLU d   1     -11.166  -0.182  24.834  0.00  0.00     0.028 H 
ENDBRANCH 176 182
ENDBRANCH   1 176
TORSDOF 47
