REMARK  29 active torsions:
REMARK  status: ('A' for Active; 'I' for Inactive)
REMARK    1  A    between atoms: N_1  and  CA_2 
REMARK    2  A    between atoms: CA_2  and  C_3 
REMARK    3  A    between atoms: CA_2  and  CB_5 
REMARK       I    between atoms: C_3  and  N_12 
REMARK    4  A    between atoms: CB_5  and  CG_6 
REMARK    5  A    between atoms: CG_6  and  CD_7 
REMARK    6  A    between atoms: CD_7  and  NE_8 
REMARK       I    between atoms: NE_8  and  CZ_9 
REMARK       I    between atoms: CZ_9  and  NH1_10 
REMARK    7  A    between atoms: N_12  and  CA_13 
REMARK    8  A    between atoms: CA_13  and  C_14 
REMARK    9  A    between atoms: CA_13  and  CB_16 
REMARK       I    between atoms: C_14  and  N_24 
REMARK   10  A    between atoms: CB_16  and  CG_17 
REMARK   11  A    between atoms: CZ_22  and  OH_23 
REMARK   12  A    between atoms: N_24  and  CA_25 
REMARK   13  A    between atoms: CA_25  and  C_26 
REMARK   14  A    between atoms: CA_25  and  CB_28 
REMARK       I    between atoms: C_26  and  N_29 
REMARK   15  A    between atoms: N_29  and  CA_30 
REMARK   16  A    between atoms: CA_30  and  C_31 
REMARK   17  A    between atoms: CA_30  and  CB_33 
REMARK       I    between atoms: C_31  and  N_36 
REMARK   18  A    between atoms: CB_33  and  CG1_34 
REMARK   19  A    between atoms: CB_33  and  CG2_35 
REMARK   20  A    between atoms: N_36  and  CA_37 
REMARK   21  A    between atoms: CA_37  and  C_38 
REMARK   22  A    between atoms: CA_37  and  CB_40 
REMARK       I    between atoms: C_38  and  N_43 
REMARK   23  A    between atoms: CB_40  and  CG1_41 
REMARK   24  A    between atoms: CB_40  and  CG2_42 
REMARK   25  A    between atoms: CA_44  and  C_45 
REMARK       I    between atoms: C_45  and  N_50 
REMARK   26  A    between atoms: N_50  and  CA_51 
REMARK   27  A    between atoms: CA_51  and  C_52 
REMARK   28  A    between atoms: CA_51  and  CB_54 
REMARK   29  A    between atoms: CB_54  and  CG_55 
ROOT
ATOM      1  C   ARG d   1      -5.477   3.135 -24.073  0.00  0.00     0.240 C 
ATOM      2  O   ARG d   1      -6.533   3.722 -24.319  0.00  0.00    -0.271 OA
ATOM      3  N   ARG d   1      -4.977   2.209 -24.881  0.00  0.00    -0.346 N 
ATOM      4  H30 ARG d   1      -4.086   1.812 -24.659  0.00  0.00     0.163 HD
ENDROOT
BRANCH   3   5
ATOM      5  CA  ARG d   1      -5.667   1.745 -26.076  0.00  0.00     0.092 C 
ATOM      6  H31 ARG d   1      -6.508   2.424 -26.283  0.00  0.00     0.088 H 
BRANCH   5   7
ATOM      7  C   ARG d   1      -6.222   0.355 -25.791  0.00  0.00     0.241 C 
ATOM      8  O   ARG d   1      -5.485  -0.543 -25.369  0.00  0.00    -0.271 OA
ATOM      9  N   ARG d   1      -7.519   0.189 -25.998  0.00  0.00    -0.346 N 
ATOM     10  H39 ARG d   1      -8.056   0.946 -26.371  0.00  0.00     0.163 HD
BRANCH   9  11
ATOM     11  CA  ARG d   1      -8.185  -1.082 -25.692  0.00  0.00     0.092 C 
ATOM     12  H40 ARG d   1      -7.897  -1.406 -24.681  0.00  0.00     0.088 H 
BRANCH  11  13
ATOM     13  C   ARG d   1      -7.736  -2.136 -26.690  0.00  0.00     0.243 C 
ATOM     14  O   ARG d   1      -7.649  -1.845 -27.894  0.00  0.00    -0.271 OA
ATOM     15  N   ARG d   1      -7.441  -3.357 -26.254  0.00  0.00    -0.337 N 
ATOM     16  CA  ARG d   1      -7.156  -4.428 -27.220  0.00  0.00     0.091 C 
ATOM     17  CD  ARG d   1      -7.329  -3.797 -24.854  0.00  0.00    -0.001 C 
ATOM     18  CB  ARG d   1      -7.006  -5.672 -26.339  0.00  0.00    -0.036 C 
ATOM     19  H48 ARG d   1      -6.228  -4.224 -27.774  0.00  0.00     0.087 H 
ATOM     20  CG  ARG d   1      -6.786  -5.191 -24.963  0.00  0.00    -0.048 C 
ATOM     21  H49 ARG d   1      -6.147  -6.272 -26.673  0.00  0.00     0.036 H 
ATOM     22  H50 ARG d   1      -7.920  -6.282 -26.386  0.00  0.00     0.036 H 
ATOM     23  H51 ARG d   1      -5.709  -5.188 -24.738  0.00  0.00     0.035 H 
ATOM     24  H52 ARG d   1      -7.307  -5.849 -24.252  0.00  0.00     0.035 H 
ATOM     25  H53 ARG d   1      -8.313  -3.796 -24.363  0.00  0.00     0.064 H 
ATOM     26  H54 ARG d   1      -6.639  -3.150 -24.293  0.00  0.00     0.064 H 
BRANCH  16  27
ATOM     27  C   ARG d   1      -8.311  -4.587 -28.200  0.00  0.00     0.241 C 
ATOM     28  O   ARG d   1      -9.481  -4.437 -27.839  0.00  0.00    -0.271 OA
ATOM     29  N   ARG d   1      -7.983  -4.898 -29.447  0.00  0.00    -0.344 N 
ATOM     30  H55 ARG d   1      -7.019  -4.977 -29.700  0.00  0.00     0.163 HD
BRANCH  29  31
ATOM     31  CA  ARG d   1      -9.018  -5.126 -30.456  0.00  0.00     0.105 C 
ATOM     32  H56 ARG d   1      -9.534  -4.173 -30.647  0.00  0.00     0.090 H 
BRANCH  31  33
ATOM     33  C   ARG d   1     -10.040  -6.146 -29.951  0.00  0.00     0.197 C 
ATOM     34  O   ARG d   1      -9.811  -7.357 -30.010  0.00  0.00    -0.646 OA
ATOM     35  OXT ARG d   1     -11.118  -5.782 -29.473  0.00  0.00    -0.646 OA
ENDBRANCH  31  33
BRANCH  31  36
ATOM     36  CB  ARG d   1      -8.409  -5.622 -31.767  0.00  0.00     0.044 C 
ATOM     37  H57 ARG d   1      -9.189  -5.615 -32.543  0.00  0.00     0.053 H 
ATOM     38  H58 ARG d   1      -8.047  -6.650 -31.621  0.00  0.00     0.053 H 
BRANCH  36  39
ATOM     39  CG  ARG d   1      -7.254  -4.764 -32.233  0.00  0.00     0.175 C 
ATOM     40  OD1 ARG d   1      -6.137  -4.935 -31.700  0.00  0.00    -0.648 OA
ATOM     41  OD2 ARG d   1      -7.460  -3.919 -33.128  0.00  0.00    -0.648 OA
ENDBRANCH  36  39
ENDBRANCH  31  36
ENDBRANCH  29  31
ENDBRANCH  16  27
ENDBRANCH  11  13
BRANCH  11  42
ATOM     42  CB  ARG d   1      -9.703  -0.889 -25.732  0.00  0.00    -0.033 C 
ATOM     43  H41 ARG d   1      -9.979  -0.539 -26.738  0.00  0.00     0.042 H 
BRANCH  42  44
ATOM     44  CG1 ARG d   1     -10.423  -2.192 -25.463  0.00  0.00    -0.071 C 
ATOM     45  H42 ARG d   1     -11.510  -2.024 -25.498  0.00  0.00     0.028 H 
ATOM     46  H43 ARG d   1     -10.142  -2.568 -24.468  0.00  0.00     0.028 H 
ATOM     47  H44 ARG d   1     -10.141  -2.931 -26.227  0.00  0.00     0.028 H 
ENDBRANCH  42  44
BRANCH  42  48
ATOM     48  CG2 ARG d   1     -10.144   0.162 -24.714  0.00  0.00    -0.071 C 
ATOM     49  H45 ARG d   1      -9.619   1.108 -24.913  0.00  0.00     0.028 H 
ATOM     50  H46 ARG d   1      -9.902  -0.186 -23.699  0.00  0.00     0.028 H 
ATOM     51  H47 ARG d   1     -11.229   0.321 -24.798  0.00  0.00     0.028 H 
ENDBRANCH  42  48
ENDBRANCH  11  42
ENDBRANCH   9  11
ENDBRANCH   5   7
BRANCH   5  52
ATOM     52  CB  ARG d   1      -4.744   1.749 -27.300  0.00  0.00    -0.033 C 
ATOM     53  H32 ARG d   1      -3.854   1.142 -27.076  0.00  0.00     0.042 H 
BRANCH  52  54
ATOM     54  CG1 ARG d   1      -5.460   1.145 -28.488  0.00  0.00    -0.071 C 
ATOM     55  H33 ARG d   1      -4.791   1.152 -29.361  0.00  0.00     0.028 H 
ATOM     56  H34 ARG d   1      -6.361   1.735 -28.712  0.00  0.00     0.028 H 
ATOM     57  H35 ARG d   1      -5.748   0.109 -28.255  0.00  0.00     0.028 H 
ENDBRANCH  52  54
BRANCH  52  58
ATOM     58  CG2 ARG d   1      -4.303   3.160 -27.614  0.00  0.00    -0.071 C 
ATOM     59  H36 ARG d   1      -3.785   3.585 -26.742  0.00  0.00     0.028 H 
ATOM     60  H37 ARG d   1      -5.183   3.775 -27.853  0.00  0.00     0.028 H 
ATOM     61  H38 ARG d   1      -3.620   3.147 -28.476  0.00  0.00     0.028 H 
ENDBRANCH  52  58
ENDBRANCH   5  52
ENDBRANCH   3   5
BRANCH   1  62
ATOM     62  CA  ARG d   1      -4.695   3.447 -22.806  0.00  0.00     0.086 C 
ATOM     63  H26 ARG d   1      -5.001   2.710 -22.049  0.00  0.00     0.086 H 
BRANCH  62  64
ATOM     64  N   ARG d   1      -3.260   3.289 -22.995  0.00  0.00    -0.346 N 
ATOM     65  C   ARG d   1      -2.572   4.003 -23.879  0.00  0.00     0.241 C 
ATOM     66  O   ARG d   1      -3.088   4.798 -24.669  0.00  0.00    -0.271 OA
ATOM     67  H25 ARG d   1      -2.773   2.617 -22.437  0.00  0.00     0.163 HD
BRANCH  65  68
ATOM     68  CA  ARG d   1      -1.072   3.767 -23.875  0.00  0.00     0.093 C 
ATOM     69  H17 ARG d   1      -0.870   2.778 -23.439  0.00  0.00     0.088 H 
BRANCH  68  70
ATOM     70  N   ARG d   1      -0.552   3.798 -25.233  0.00  0.00    -0.346 N 
ATOM     71  C   ARG d   1      -0.067   2.726 -25.845  0.00  0.00     0.249 C 
ATOM     72  O   ARG d   1      -0.111   1.598 -25.360  0.00  0.00    -0.271 OA
ATOM     73  H16 ARG d   1      -0.561   4.667 -25.728  0.00  0.00     0.163 HD
BRANCH  71  74
ATOM     74  CA  ARG d   1       0.553   2.972 -27.215  0.00  0.00     0.176 C 
ATOM     75  H4  ARG d   1       0.719   4.053 -27.331  0.00  0.00     0.099 H 
BRANCH  74  76
ATOM     76  N   ARG d   1       1.839   2.300 -27.339  0.00  0.00    -0.067 N 
ATOM     77  H1  ARG d   1       2.225   2.479 -28.253  0.00  0.00     0.275 HD
ATOM     78  H2  ARG d   1       1.713   1.308 -27.217  0.00  0.00     0.275 HD
ATOM     79  H3  ARG d   1       2.469   2.648 -26.634  0.00  0.00     0.275 HD
ENDBRANCH  74  76
BRANCH  74  80
ATOM     80  CB  ARG d   1      -0.408   2.510 -28.310  0.00  0.00    -0.029 C 
ATOM     81  H5  ARG d   1      -1.422   2.847 -28.047  0.00  0.00     0.036 H 
ATOM     82  H6  ARG d   1      -0.386   1.411 -28.351  0.00  0.00     0.036 H 
BRANCH  80  83
ATOM     83  CG  ARG d   1      -0.066   3.048 -29.687  0.00  0.00    -0.047 C 
ATOM     84  H7  ARG d   1       0.618   2.345 -30.186  0.00  0.00     0.035 H 
ATOM     85  H8  ARG d   1       0.428   4.025 -29.577  0.00  0.00     0.035 H 
BRANCH  83  86
ATOM     86  CD  ARG d   1      -1.313   3.218 -30.544  0.00  0.00     0.009 C 
ATOM     87  H9  ARG d   1      -1.039   3.767 -31.457  0.00  0.00     0.064 H 
ATOM     88  H10 ARG d   1      -2.054   3.799 -29.975  0.00  0.00     0.064 H 
BRANCH  86  89
ATOM     89  NE  ARG d   1      -1.916   1.945 -30.929  0.00  0.00    -0.227 N 
ATOM     90  CZ  ARG d   1      -3.059   1.833 -31.601  0.00  0.00     0.665 C 
ATOM     91  NH1 ARG d   1      -3.731   2.918 -31.958  0.00  0.00    -0.235 N 
ATOM     92  NH2 ARG d   1      -3.532   0.635 -31.913  0.00  0.00    -0.235 N 
ATOM     93  H12 ARG d   1      -4.615   2.828 -32.478  0.00  0.00     0.174 HD
ATOM     94  H13 ARG d   1      -3.369   3.851 -31.715  0.00  0.00     0.174 HD
ATOM     95  H14 ARG d   1      -3.013  -0.211 -31.638  0.00  0.00     0.174 HD
ATOM     96  H15 ARG d   1      -4.418   0.550 -32.431  0.00  0.00     0.174 HD
ATOM     97  H11 ARG d   1      -1.425   1.079 -30.664  0.00  0.00     0.177 HD
ENDBRANCH  86  89
ENDBRANCH  83  86
ENDBRANCH  80  83
ENDBRANCH  74  80
ENDBRANCH  71  74
ENDBRANCH  68  70
BRANCH  68  98
ATOM     98  CB  ARG d   1      -0.373   4.834 -23.030  0.00  0.00    -0.014 C 
ATOM     99  H18 ARG d   1      -0.885   4.902 -22.059  0.00  0.00     0.043 H 
ATOM    100  H19 ARG d   1      -0.448   5.799 -23.553  0.00  0.00     0.043 H 
BRANCH  98 101
ATOM    101  CG  ARG d   1       1.086   4.533 -22.784  0.00  0.00    -0.056 A 
ATOM    102  CD1 ARG d   1       1.458   3.538 -21.893  0.00  0.00    -0.074 A 
ATOM    103  CE1 ARG d   1       2.779   3.248 -21.659  0.00  0.00    -0.051 A 
ATOM    104  H20 ARG d   1       0.691   2.978 -21.371  0.00  0.00     0.084 H 
ATOM    105  CZ  ARG d   1       3.753   3.953 -22.327  0.00  0.00     0.065 A 
ATOM    106  H22 ARG d   1       3.052   2.471 -20.954  0.00  0.00     0.087 H 
ATOM    107  CE2 ARG d   1       3.412   4.947 -23.218  0.00  0.00    -0.051 A 
ATOM    108  CD2 ARG d   1       2.084   5.231 -23.444  0.00  0.00    -0.074 A 
ATOM    109  H23 ARG d   1       4.184   5.502 -23.738  0.00  0.00     0.087 H 
ATOM    110  H21 ARG d   1       1.816   6.011 -24.148  0.00  0.00     0.084 H 
BRANCH 105 111
ATOM    111  OH  ARG d   1       5.076   3.666 -22.095  0.00  0.00    -0.361 OA
ATOM    112  H24 ARG d   1       5.140   2.962 -21.460  0.00  0.00     0.217 HD
ENDBRANCH 105 111
ENDBRANCH  98 101
ENDBRANCH  68  98
ENDBRANCH  65  68
ENDBRANCH  62  64
BRANCH  62 113
ATOM    113  CB  ARG d   1      -5.054   4.830 -22.256  0.00  0.00    -0.049 C 
ATOM    114  H27 ARG d   1      -6.144   4.903 -22.130  0.00  0.00     0.030 H 
ATOM    115  H28 ARG d   1      -4.714   5.604 -22.960  0.00  0.00     0.030 H 
ATOM    116  H29 ARG d   1      -4.562   4.977 -21.283  0.00  0.00     0.030 H 
ENDBRANCH  62 113
ENDBRANCH   1  62
TORSDOF 29
