REMARK  30 active torsions:
REMARK  status: ('A' for Active; 'I' for Inactive)
REMARK    1  A    between atoms: N_1  and  CA_2 
REMARK    2  A    between atoms: CA_2  and  C_3 
REMARK    3  A    between atoms: CA_2  and  CB_5 
REMARK       I    between atoms: C_3  and  N_10 
REMARK    4  A    between atoms: CB_5  and  CG_6 
REMARK    5  A    between atoms: CG_6  and  CD_7 
REMARK    6  A    between atoms: N_10  and  CA_11 
REMARK    7  A    between atoms: CA_11  and  C_12 
REMARK    8  A    between atoms: CA_11  and  CB_14 
REMARK       I    between atoms: C_12  and  N_18 
REMARK    9  A    between atoms: CB_14  and  CG_15 
REMARK   10  A    between atoms: N_18  and  CA_19 
REMARK   11  A    between atoms: CA_19  and  C_20 
REMARK   12  A    between atoms: CA_19  and  CB_22 
REMARK       I    between atoms: C_20  and  N_27 
REMARK   13  A    between atoms: CB_22  and  CG_23 
REMARK   14  A    between atoms: CG_23  and  CD_24 
REMARK       I    between atoms: CD_24  and  NE2_26 
REMARK   15  A    between atoms: N_27  and  CA_28 
REMARK   16  A    between atoms: CA_28  and  C_29 
REMARK   17  A    between atoms: CA_28  and  CB_31 
REMARK       I    between atoms: C_29  and  N_35 
REMARK   18  A    between atoms: CB_31  and  CG_32 
REMARK   19  A    between atoms: CG_32  and  SD_33 
REMARK   20  A    between atoms: SD_33  and  CE_34 
REMARK   21  A    between atoms: N_35  and  CA_36 
REMARK   22  A    between atoms: CA_36  and  C_37 
REMARK   23  A    between atoms: CA_36  and  CB_39 
REMARK       I    between atoms: C_37  and  N_42 
REMARK   24  A    between atoms: CB_39  and  CG1_40 
REMARK   25  A    between atoms: CB_39  and  CG2_41 
REMARK   26  A    between atoms: CA_43  and  C_44 
REMARK       I    between atoms: C_44  and  N_49 
REMARK   27  A    between atoms: N_49  and  CA_50 
REMARK   28  A    between atoms: CA_50  and  C_51 
REMARK   29  A    between atoms: CA_50  and  CB_53 
REMARK   30  A    between atoms: CB_53  and  OG_54 
ROOT
ATOM      1  CA  GLU d   1      -5.881  -1.466  26.193  0.00  0.00     0.090 C 
ATOM      2  H22 GLU d   1      -6.693  -2.188  26.363  0.00  0.00     0.087 H 
ENDROOT
BRANCH   1   3
ATOM      3  N   GLU d   1      -5.087  -1.896  25.053  0.00  0.00    -0.346 N 
ATOM      4  C   GLU d   1      -5.513  -2.818  24.193  0.00  0.00     0.241 C 
ATOM      5  O   GLU d   1      -6.580  -3.413  24.332  0.00  0.00    -0.271 OA
ATOM      6  H21 GLU d   1      -4.187  -1.484  24.910  0.00  0.00     0.163 HD
BRANCH   4   7
ATOM      7  CA  GLU d   1      -4.616  -3.067  22.984  0.00  0.00     0.090 C 
ATOM      8  H14 GLU d   1      -4.739  -2.201  22.316  0.00  0.00     0.087 H 
BRANCH   7   9
ATOM      9  N   GLU d   1      -3.207  -3.110  23.360  0.00  0.00    -0.346 N 
ATOM     10  C   GLU d   1      -2.740  -3.893  24.331  0.00  0.00     0.241 C 
ATOM     11  O   GLU d   1      -3.456  -4.640  24.991  0.00  0.00    -0.271 OA
ATOM     12  H13 GLU d   1      -2.563  -2.525  22.867  0.00  0.00     0.163 HD
BRANCH  10  13
ATOM     13  CA  GLU d   1      -1.231  -3.812  24.546  0.00  0.00     0.098 C 
ATOM     14  H10 GLU d   1      -0.912  -2.774  24.373  0.00  0.00     0.088 H 
BRANCH  13  15
ATOM     15  N   GLU d   1      -0.847  -4.184  25.897  0.00  0.00    -0.345 N 
ATOM     16  C   GLU d   1      -0.759  -3.293  26.875  0.00  0.00     0.249 C 
ATOM     17  O   GLU d   1      -1.257  -2.179  26.804  0.00  0.00    -0.271 OA
ATOM     18  H9  GLU d   1      -0.643  -5.143  26.096  0.00  0.00     0.163 HD
BRANCH  16  19
ATOM     19  CA  GLU d   1       0.001  -3.750  28.126  0.00  0.00     0.176 C 
ATOM     20  H4  GLU d   1       0.620  -4.614  27.844  0.00  0.00     0.099 H 
BRANCH  19  21
ATOM     21  N   GLU d   1       0.891  -2.708  28.646  0.00  0.00    -0.066 N 
ATOM     22  H1  GLU d   1       1.368  -3.051  29.465  0.00  0.00     0.275 HD
ATOM     23  H2  GLU d   1       0.349  -1.894  28.890  0.00  0.00     0.275 HD
ATOM     24  H3  GLU d   1       1.568  -2.462  27.941  0.00  0.00     0.275 HD
ENDBRANCH  19  21
BRANCH  19  25
ATOM     25  CB  GLU d   1      -0.966  -4.194  29.218  0.00  0.00    -0.021 C 
ATOM     26  H5  GLU d   1      -1.498  -3.307  29.592  0.00  0.00     0.037 H 
ATOM     27  H6  GLU d   1      -0.383  -4.644  30.035  0.00  0.00     0.037 H 
BRANCH  25  28
ATOM     28  CG  GLU d   1      -1.993  -5.205  28.751  0.00  0.00     0.018 C 
ATOM     29  H7  GLU d   1      -1.466  -6.060  28.302  0.00  0.00     0.049 H 
ATOM     30  H8  GLU d   1      -2.634  -4.731  27.993  0.00  0.00     0.049 H 
BRANCH  28  31
ATOM     31  CD  GLU d   1      -2.873  -5.715  29.882  0.00  0.00     0.172 C 
ATOM     32  OE1 GLU d   1      -2.544  -5.457  31.059  0.00  0.00    -0.648 OA
ATOM     33  OE2 GLU d   1      -3.899  -6.369  29.588  0.00  0.00    -0.648 OA
ENDBRANCH  28  31
ENDBRANCH  25  28
ENDBRANCH  19  25
ENDBRANCH  16  19
ENDBRANCH  13  15
BRANCH  13  34
ATOM     34  CB  GLU d   1      -0.534  -4.716  23.532  0.00  0.00     0.043 C 
ATOM     35  H11 GLU d   1      -0.923  -4.486  22.529  0.00  0.00     0.052 H 
ATOM     36  H12 GLU d   1      -0.759  -5.763  23.781  0.00  0.00     0.052 H 
BRANCH  34  37
ATOM     37  CG  GLU d   1       0.965  -4.533  23.523  0.00  0.00     0.175 C 
ATOM     38  OD1 GLU d   1       1.441  -3.432  23.861  0.00  0.00    -0.648 OA
ATOM     39  OD2 GLU d   1       1.667  -5.495  23.181  0.00  0.00    -0.648 OA
ENDBRANCH  34  37
ENDBRANCH  13  34
ENDBRANCH  10  13
ENDBRANCH   7   9
BRANCH   7  40
ATOM     40  CB  GLU d   1      -5.045  -4.302  22.181  0.00  0.00    -0.030 C 
ATOM     41  H15 GLU d   1      -6.133  -4.256  22.024  0.00  0.00     0.037 H 
ATOM     42  H16 GLU d   1      -4.796  -5.201  22.764  0.00  0.00     0.037 H 
BRANCH  40  43
ATOM     43  CG  GLU d   1      -4.358  -4.405  20.808  0.00  0.00     0.011 C 
ATOM     44  H17 GLU d   1      -4.718  -5.311  20.299  0.00  0.00     0.047 H 
ATOM     45  H18 GLU d   1      -3.271  -4.476  20.960  0.00  0.00     0.047 H 
BRANCH  43  46
ATOM     46  CD  GLU d   1      -4.651  -3.202  19.930  0.00  0.00     0.215 C 
ATOM     47  OE1 GLU d   1      -3.772  -2.341  19.697  0.00  0.00    -0.274 OA
ATOM     48  NE2 GLU d   1      -5.891  -3.120  19.436  0.00  0.00    -0.370 N 
ATOM     49  H19 GLU d   1      -6.146  -2.351  18.850  0.00  0.00     0.159 HD
ATOM     50  H20 GLU d   1      -6.563  -3.828  19.652  0.00  0.00     0.159 HD
ENDBRANCH  43  46
ENDBRANCH  40  43
ENDBRANCH   7  40
ENDBRANCH   4   7
ENDBRANCH   1   3
BRANCH   1  51
ATOM     51  C   GLU d   1      -6.473  -0.096  25.889  0.00  0.00     0.241 C 
ATOM     52  O   GLU d   1      -5.755   0.823  25.486  0.00  0.00    -0.271 OA
ATOM     53  N   GLU d   1      -7.772   0.029  26.077  0.00  0.00    -0.346 N 
ATOM     54  H30 GLU d   1      -8.295  -0.746  26.432  0.00  0.00     0.163 HD
BRANCH  53  55
ATOM     55  CA  GLU d   1      -8.461   1.288  25.773  0.00  0.00     0.092 C 
ATOM     56  H31 GLU d   1      -8.152   1.631  24.775  0.00  0.00     0.088 H 
BRANCH  55  57
ATOM     57  C   GLU d   1      -8.069   2.349  26.796  0.00  0.00     0.243 C 
ATOM     58  O   GLU d   1      -8.179   2.110  28.011  0.00  0.00    -0.271 OA
ATOM     59  N   GLU d   1      -7.641   3.535  26.373  0.00  0.00    -0.337 N 
ATOM     60  CA  GLU d   1      -7.253   4.555  27.356  0.00  0.00     0.091 C 
ATOM     61  CD  GLU d   1      -7.378   3.948  24.987  0.00  0.00    -0.001 C 
ATOM     62  CB  GLU d   1      -6.780   5.735  26.505  0.00  0.00    -0.036 C 
ATOM     63  H39 GLU d   1      -6.426   4.186  27.980  0.00  0.00     0.087 H 
ATOM     64  CG  GLU d   1      -7.079   5.428  25.120  0.00  0.00    -0.048 C 
ATOM     65  H40 GLU d   1      -5.697   5.878  26.631  0.00  0.00     0.036 H 
ATOM     66  H41 GLU d   1      -7.308   6.651  26.808  0.00  0.00     0.036 H 
ATOM     67  H42 GLU d   1      -6.214   5.686  24.492  0.00  0.00     0.035 H 
ATOM     68  H43 GLU d   1      -7.954   6.010  24.796  0.00  0.00     0.035 H 
ATOM     69  H44 GLU d   1      -8.259   3.779  24.351  0.00  0.00     0.064 H 
ATOM     70  H45 GLU d   1      -6.516   3.407  24.571  0.00  0.00     0.064 H 
BRANCH  60  71
ATOM     71  C   GLU d   1      -8.416   4.919  28.260  0.00  0.00     0.241 C 
ATOM     72  O   GLU d   1      -9.579   4.916  27.848  0.00  0.00    -0.271 OA
ATOM     73  N   GLU d   1      -8.078   5.221  29.512  0.00  0.00    -0.343 N 
ATOM     74  H46 GLU d   1      -7.112   5.372  29.721  0.00  0.00     0.163 HD
BRANCH  73  75
ATOM     75  CA  GLU d   1      -9.052   5.342  30.597  0.00  0.00     0.116 C 
ATOM     76  H47 GLU d   1     -10.045   5.080  30.203  0.00  0.00     0.093 H 
BRANCH  75  77
ATOM     77  C   GLU d   1      -9.115   6.757  31.160  0.00  0.00     0.198 C 
ATOM     78  O   GLU d   1     -10.141   7.429  31.046  0.00  0.00    -0.646 OA
ATOM     79  OXT GLU d   1      -8.141   7.244  31.735  0.00  0.00    -0.646 OA
ENDBRANCH  75  77
BRANCH  75  80
ATOM     80  CB  GLU d   1      -8.687   4.364  31.720  0.00  0.00     0.045 C 
ATOM     81  H48 GLU d   1      -7.752   4.697  32.194  0.00  0.00     0.077 H 
ATOM     82  H49 GLU d   1      -8.543   3.363  31.288  0.00  0.00     0.077 H 
BRANCH  80  83
ATOM     83  OG  GLU d   1      -9.703   4.298  32.705  0.00  0.00    -0.398 OA
ATOM     84  H50 GLU d   1      -9.445   3.685  33.383  0.00  0.00     0.209 HD
ENDBRANCH  80  83
ENDBRANCH  75  80
ENDBRANCH  73  75
ENDBRANCH  60  71
ENDBRANCH  55  57
BRANCH  55  85
ATOM     85  CB  GLU d   1      -9.965   1.065  25.765  0.00  0.00    -0.033 C 
ATOM     86  H32 GLU d   1     -10.273   0.726  26.765  0.00  0.00     0.042 H 
BRANCH  85  87
ATOM     87  CG1 GLU d   1     -10.700   2.354  25.446  0.00  0.00    -0.071 C 
ATOM     88  H33 GLU d   1     -11.784   2.167  25.446  0.00  0.00     0.028 H 
ATOM     89  H34 GLU d   1     -10.390   2.717  24.455  0.00  0.00     0.028 H 
ATOM     90  H35 GLU d   1     -10.458   3.112  26.206  0.00  0.00     0.028 H 
ENDBRANCH  85  87
BRANCH  85  91
ATOM     91  CG2 GLU d   1     -10.325   0.006  24.769  0.00  0.00    -0.071 C 
ATOM     92  H36 GLU d   1      -9.787  -0.922  25.010  0.00  0.00     0.028 H 
ATOM     93  H37 GLU d   1     -10.044   0.341  23.760  0.00  0.00     0.028 H 
ATOM     94  H38 GLU d   1     -11.409  -0.178  24.805  0.00  0.00     0.028 H 
ENDBRANCH  85  91
ENDBRANCH  55  85
ENDBRANCH  53  55
ENDBRANCH   1  51
BRANCH   1  95
ATOM     95  CB  GLU d   1      -5.019  -1.377  27.449  0.00  0.00    -0.030 C 
ATOM     96  H23 GLU d   1      -4.330  -0.527  27.337  0.00  0.00     0.037 H 
ATOM     97  H24 GLU d   1      -4.441  -2.308  27.539  0.00  0.00     0.037 H 
BRANCH  95  98
ATOM     98  CG  GLU d   1      -5.814  -1.182  28.726  0.00  0.00    -0.021 C 
ATOM     99  H25 GLU d   1      -6.558  -1.988  28.805  0.00  0.00     0.049 H 
ATOM    100  H26 GLU d   1      -6.329  -0.211  28.676  0.00  0.00     0.049 H 
BRANCH  98 101
ATOM    101  SD  GLU d   1      -4.778  -1.210  30.192  0.00  0.00    -0.173 SA
BRANCH 101 102
ATOM    102  CE  GLU d   1      -3.867  -2.711  29.904  0.00  0.00    -0.035 C 
ATOM    103  H27 GLU d   1      -3.167  -2.880  30.735  0.00  0.00     0.041 H 
ATOM    104  H28 GLU d   1      -3.305  -2.624  28.963  0.00  0.00     0.041 H 
ATOM    105  H29 GLU d   1      -4.566  -3.557  29.836  0.00  0.00     0.041 H 
ENDBRANCH 101 102
ENDBRANCH  98 101
ENDBRANCH  95  98
ENDBRANCH   1  95
TORSDOF 30
