REMARK  27 active torsions:
REMARK  status: ('A' for Active; 'I' for Inactive)
REMARK    1  A    between atoms: N_1  and  CA_2 
REMARK    2  A    between atoms: CA_2  and  C_3 
REMARK       I    between atoms: C_3  and  N_5 
REMARK    3  A    between atoms: N_5  and  CA_6 
REMARK    4  A    between atoms: CA_6  and  C_7 
REMARK    5  A    between atoms: CA_6  and  CB_9 
REMARK       I    between atoms: C_7  and  N_16 
REMARK    6  A    between atoms: CB_9  and  CG_10 
REMARK    7  A    between atoms: N_16  and  CA_17 
REMARK    8  A    between atoms: CA_17  and  C_18 
REMARK       I    between atoms: C_18  and  N_20 
REMARK    9  A    between atoms: N_20  and  CA_21 
REMARK   10  A    between atoms: CA_21  and  C_22 
REMARK   11  A    between atoms: CA_21  and  CB_24 
REMARK       I    between atoms: C_22  and  N_27 
REMARK   12  A    between atoms: CB_24  and  CG1_25 
REMARK   13  A    between atoms: CB_24  and  CG2_26 
REMARK   14  A    between atoms: N_27  and  CA_28 
REMARK   15  A    between atoms: CA_28  and  C_29 
REMARK   16  A    between atoms: CA_28  and  CB_31 
REMARK       I    between atoms: C_29  and  N_34 
REMARK   17  A    between atoms: CB_31  and  CG1_32 
REMARK   18  A    between atoms: CB_31  and  CG2_33 
REMARK   19  A    between atoms: CA_35  and  C_36 
REMARK       I    between atoms: C_36  and  N_41 
REMARK   20  A    between atoms: N_41  and  CA_42 
REMARK   21  A    between atoms: CA_42  and  C_43 
REMARK   22  A    between atoms: CA_42  and  CB_45 
REMARK       I    between atoms: C_43  and  N_47 
REMARK   23  A    between atoms: CB_45  and  OG_46 
REMARK   24  A    between atoms: N_47  and  CA_48 
REMARK   25  A    between atoms: CA_48  and  C_49 
REMARK   26  A    between atoms: CA_48  and  CB_51 
REMARK   27  A    between atoms: CB_51  and  CG_52 
ROOT
ATOM      1  CA  GLY d   1      -8.149   0.973  25.711  0.00  0.00     0.092 C 
ATOM      2  H28 GLY d   1      -7.882   1.249  24.680  0.00  0.00     0.088 H 
ENDROOT
BRANCH   1   3
ATOM      3  N   GLY d   1      -7.500  -0.301  26.047  0.00  0.00    -0.346 N 
ATOM      4  C   GLY d   1      -6.209  -0.496  25.801  0.00  0.00     0.241 C 
ATOM      5  O   GLY d   1      -5.460   0.392  25.368  0.00  0.00    -0.271 OA
ATOM      6  H27 GLY d   1      -8.038  -1.032  26.467  0.00  0.00     0.163 HD
BRANCH   4   7
ATOM      7  CA  GLY d   1      -5.673  -1.890  26.103  0.00  0.00     0.092 C 
ATOM      8  H19 GLY d   1      -6.519  -2.555  26.329  0.00  0.00     0.088 H 
BRANCH   7   9
ATOM      9  N   GLY d   1      -4.985  -2.394  24.914  0.00  0.00    -0.346 N 
ATOM     10  C   GLY d   1      -5.512  -3.306  24.100  0.00  0.00     0.236 C 
ATOM     11  O   GLY d   1      -6.611  -3.840  24.311  0.00  0.00    -0.272 OA
ATOM     12  H18 GLY d   1      -4.075  -2.036  24.703  0.00  0.00     0.163 HD
BRANCH  10  13
ATOM     13  CA  GLY d   1      -4.726  -3.682  22.868  0.00  0.00     0.069 C 
ATOM     14  H16 GLY d   1      -4.799  -4.771  22.730  0.00  0.00     0.078 H 
ATOM     15  H17 GLY d   1      -5.175  -3.172  22.003  0.00  0.00     0.078 H 
BRANCH  13  16
ATOM     16  N   GLY d   1      -3.326  -3.324  22.931  0.00  0.00    -0.351 N 
ATOM     17  C   GLY d   1      -2.493  -3.976  23.728  0.00  0.00     0.241 C 
ATOM     18  O   GLY d   1      -2.855  -4.890  24.477  0.00  0.00    -0.271 OA
ATOM     19  H15 GLY d   1      -2.982  -2.574  22.365  0.00  0.00     0.163 HD
BRANCH  17  20
ATOM     20  CA  GLY d   1      -1.028  -3.559  23.653  0.00  0.00     0.093 C 
ATOM     21  H7  GLY d   1      -0.958  -2.603  23.114  0.00  0.00     0.088 H 
BRANCH  20  22
ATOM     22  N   GLY d   1      -0.511  -3.367  25.000  0.00  0.00    -0.346 N 
ATOM     23  C   GLY d   1      -0.975  -2.370  25.757  0.00  0.00     0.243 C 
ATOM     24  O   GLY d   1      -1.845  -1.573  25.364  0.00  0.00    -0.272 OA
ATOM     25  H6  GLY d   1       0.192  -3.982  25.358  0.00  0.00     0.163 HD
BRANCH  23  26
ATOM     26  CA  GLY d   1      -0.392  -2.241  27.151  0.00  0.00     0.152 C 
ATOM     27  H4  GLY d   1       0.705  -2.237  27.075  0.00  0.00     0.090 H 
ATOM     28  H5  GLY d   1      -0.733  -1.292  27.589  0.00  0.00     0.090 H 
BRANCH  26  29
ATOM     29  N   GLY d   1      -0.794  -3.329  28.026  0.00  0.00    -0.071 N 
ATOM     30  H1  GLY d   1      -0.382  -3.197  28.937  0.00  0.00     0.274 HD
ATOM     31  H2  GLY d   1      -0.480  -4.205  27.639  0.00  0.00     0.274 HD
ATOM     32  H3  GLY d   1      -1.798  -3.339  28.110  0.00  0.00     0.274 HD
ENDBRANCH  26  29
ENDBRANCH  23  26
ENDBRANCH  20  22
BRANCH  20  33
ATOM     33  CB  GLY d   1      -0.227  -4.611  22.877  0.00  0.00    -0.014 C 
ATOM     34  H8  GLY d   1      -0.352  -5.584  23.374  0.00  0.00     0.043 H 
ATOM     35  H9  GLY d   1       0.835  -4.325  22.893  0.00  0.00     0.043 H 
BRANCH  33  36
ATOM     36  CG  GLY d   1      -0.671  -4.747  21.426  0.00  0.00    -0.056 A 
ATOM     37  CD1 GLY d   1      -0.070  -3.998  20.413  0.00  0.00    -0.077 A 
ATOM     38  CE1 GLY d   1      -0.508  -4.100  19.073  0.00  0.00    -0.082 A 
ATOM     39  H10 GLY d   1       0.746  -3.327  20.658  0.00  0.00     0.084 H 
ATOM     40  CZ  GLY d   1      -1.549  -4.947  18.754  0.00  0.00    -0.083 A 
ATOM     41  H12 GLY d   1      -0.027  -3.514  18.298  0.00  0.00     0.083 H 
ATOM     42  CE2 GLY d   1      -2.169  -5.693  19.758  0.00  0.00    -0.082 A 
ATOM     43  H14 GLY d   1      -1.885  -5.033  17.727  0.00  0.00     0.083 H 
ATOM     44  CD2 GLY d   1      -1.723  -5.584  21.089  0.00  0.00    -0.077 A 
ATOM     45  H13 GLY d   1      -2.992  -6.355  19.513  0.00  0.00     0.083 H 
ATOM     46  H11 GLY d   1      -2.211  -6.165  21.863  0.00  0.00     0.084 H 
ENDBRANCH  33  36
ENDBRANCH  20  33
ENDBRANCH  17  20
ENDBRANCH  13  16
ENDBRANCH  10  13
ENDBRANCH   7   9
BRANCH   7  47
ATOM     47  CB  GLY d   1      -4.741  -1.863  27.325  0.00  0.00    -0.033 C 
ATOM     48  H20 GLY d   1      -3.851  -1.266  27.075  0.00  0.00     0.042 H 
BRANCH  47  49
ATOM     49  CG1 GLY d   1      -5.441  -1.219  28.511  0.00  0.00    -0.071 C 
ATOM     50  H21 GLY d   1      -4.761  -1.208  29.376  0.00  0.00     0.028 H 
ATOM     51  H22 GLY d   1      -6.344  -1.796  28.762  0.00  0.00     0.028 H 
ATOM     52  H23 GLY d   1      -5.724  -0.188  28.254  0.00  0.00     0.028 H 
ENDBRANCH  47  49
BRANCH  47  53
ATOM     53  CG2 GLY d   1      -4.299  -3.268  27.679  0.00  0.00    -0.071 C 
ATOM     54  H24 GLY d   1      -3.795  -3.723  26.814  0.00  0.00     0.028 H 
ATOM     55  H25 GLY d   1      -5.178  -3.872  27.950  0.00  0.00     0.028 H 
ATOM     56  H26 GLY d   1      -3.604  -3.230  28.530  0.00  0.00     0.028 H 
ENDBRANCH  47  53
ENDBRANCH   7  47
ENDBRANCH   4   7
ENDBRANCH   1   3
BRANCH   1  57
ATOM     57  C   GLY d   1      -7.645   2.061  26.655  0.00  0.00     0.243 C 
ATOM     58  O   GLY d   1      -7.512   1.798  27.864  0.00  0.00    -0.271 OA
ATOM     59  N   GLY d   1      -7.359   3.267  26.171  0.00  0.00    -0.337 N 
ATOM     60  CA  GLY d   1      -6.827   4.328  27.045  0.00  0.00     0.091 C 
ATOM     61  CD  GLY d   1      -7.313   3.678  24.750  0.00  0.00    -0.001 C 
ATOM     62  CB  GLY d   1      -6.498   5.475  26.082  0.00  0.00    -0.036 C 
ATOM     63  H36 GLY d   1      -5.918   3.971  27.551  0.00  0.00     0.087 H 
ATOM     64  CG  GLY d   1      -6.427   4.888  24.756  0.00  0.00    -0.048 C 
ATOM     65  H37 GLY d   1      -5.533   5.931  26.349  0.00  0.00     0.036 H 
ATOM     66  H38 GLY d   1      -7.287   6.240  26.118  0.00  0.00     0.036 H 
ATOM     67  H39 GLY d   1      -5.391   4.596  24.530  0.00  0.00     0.035 H 
ATOM     68  H40 GLY d   1      -6.776   5.612  24.006  0.00  0.00     0.035 H 
ATOM     69  H41 GLY d   1      -8.319   3.930  24.382  0.00  0.00     0.064 H 
ATOM     70  H42 GLY d   1      -6.883   2.881  24.125  0.00  0.00     0.064 H 
BRANCH  60  71
ATOM     71  C   GLY d   1      -7.813   4.820  28.098  0.00  0.00     0.241 C 
ATOM     72  O   GLY d   1      -8.988   4.467  28.146  0.00  0.00    -0.271 OA
ATOM     73  N   GLY d   1      -7.265   5.701  28.946  0.00  0.00    -0.344 N 
ATOM     74  H43 GLY d   1      -6.269   5.785  28.954  0.00  0.00     0.163 HD
BRANCH  73  75
ATOM     75  CA  GLY d   1      -8.026   6.543  29.855  0.00  0.00     0.109 C 
ATOM     76  H44 GLY d   1      -9.090   6.487  29.581  0.00  0.00     0.090 H 
BRANCH  75  77
ATOM     77  C   GLY d   1      -7.555   7.991  29.706  0.00  0.00     0.243 C 
ATOM     78  O   GLY d   1      -6.390   8.257  29.380  0.00  0.00    -0.271 OA
ATOM     79  N   GLY d   1      -8.489   8.918  29.916  0.00  0.00    -0.344 N 
ATOM     80  H48 GLY d   1      -9.430   8.610  30.058  0.00  0.00     0.163 HD
BRANCH  79  81
ATOM     81  CA  GLY d   1      -8.227  10.364  29.953  0.00  0.00     0.100 C 
ATOM     82  H49 GLY d   1      -8.655  10.804  29.040  0.00  0.00     0.090 H 
BRANCH  81  83
ATOM     83  C   GLY d   1      -6.743  10.740  29.995  0.00  0.00     0.197 C 
ATOM     84  O   GLY d   1      -6.231  11.241  31.003  0.00  0.00    -0.646 OA
ATOM     85  OXT GLY d   1      -6.002  10.557  29.022  0.00  0.00    -0.646 OA
ENDBRANCH  81  83
BRANCH  81  86
ATOM     86  CB  GLY d   1      -8.945  10.970  31.176  0.00  0.00    -0.013 C 
ATOM     87  H50 GLY d   1     -10.029  10.831  31.047  0.00  0.00     0.043 H 
ATOM     88  H51 GLY d   1      -8.715  12.045  31.217  0.00  0.00     0.043 H 
BRANCH  86  89
ATOM     89  CG  GLY d   1      -8.536  10.344  32.487  0.00  0.00    -0.056 A 
ATOM     90  CD1 GLY d   1      -7.650  10.992  33.337  0.00  0.00    -0.077 A 
ATOM     91  CE1 GLY d   1      -7.257  10.411  34.531  0.00  0.00    -0.082 A 
ATOM     92  H52 GLY d   1      -7.261  11.966  33.062  0.00  0.00     0.084 H 
ATOM     93  CZ  GLY d   1      -7.746   9.177  34.887  0.00  0.00    -0.083 A 
ATOM     94  H54 GLY d   1      -6.564  10.929  35.184  0.00  0.00     0.083 H 
ATOM     95  CE2 GLY d   1      -8.627   8.517  34.051  0.00  0.00    -0.082 A 
ATOM     96  H56 GLY d   1      -7.441   8.722  35.822  0.00  0.00     0.083 H 
ATOM     97  CD2 GLY d   1      -9.020   9.100  32.860  0.00  0.00    -0.077 A 
ATOM     98  H55 GLY d   1      -9.010   7.542  34.329  0.00  0.00     0.083 H 
ATOM     99  H53 GLY d   1      -9.714   8.578  32.211  0.00  0.00     0.084 H 
ENDBRANCH  86  89
ENDBRANCH  81  86
ENDBRANCH  79  81
ENDBRANCH  75  77
BRANCH  75 100
ATOM    100  CB  GLY d   1      -7.875   6.061  31.313  0.00  0.00     0.044 C 
ATOM    101  H45 GLY d   1      -7.982   6.922  31.990  0.00  0.00     0.077 H 
ATOM    102  H46 GLY d   1      -6.879   5.613  31.443  0.00  0.00     0.077 H 
BRANCH 100 103
ATOM    103  OG  GLY d   1      -8.863   5.095  31.631  0.00  0.00    -0.398 OA
ATOM    104  H47 GLY d   1      -8.751   4.813  32.531  0.00  0.00     0.209 HD
ENDBRANCH 100 103
ENDBRANCH  75 100
ENDBRANCH  73  75
ENDBRANCH  60  71
ENDBRANCH   1  57
BRANCH   1 105
ATOM    105  CB  GLY d   1      -9.672   0.825  25.798  0.00  0.00    -0.033 C 
ATOM    106  H29 GLY d   1      -9.930   0.434  26.793  0.00  0.00     0.042 H 
BRANCH 105 107
ATOM    107  CG1 GLY d   1     -10.348   2.180  25.625  0.00  0.00    -0.071 C 
ATOM    108  H30 GLY d   1     -11.439   2.056  25.690  0.00  0.00     0.028 H 
ATOM    109  H31 GLY d   1     -10.084   2.599  24.642  0.00  0.00     0.028 H 
ATOM    110  H32 GLY d   1     -10.009   2.863  26.418  0.00  0.00     0.028 H 
ENDBRANCH 105 107
BRANCH 105 111
ATOM    111  CG2 GLY d   1     -10.167  -0.185  24.732  0.00  0.00    -0.071 C 
ATOM    112  H33 GLY d   1      -9.663  -1.152  24.881  0.00  0.00     0.028 H 
ATOM    113  H34 GLY d   1      -9.935   0.199  23.728  0.00  0.00     0.028 H 
ATOM    114  H35 GLY d   1     -11.254  -0.319  24.831  0.00  0.00     0.028 H 
ENDBRANCH 105 111
ENDBRANCH   1 105
TORSDOF 27
