REMARK  4 active torsions:
REMARK  status: ('A' for Active; 'I' for Inactive)
REMARK    1  A    between atoms: C1_8  and  C5_2 
REMARK    2  A    between atoms: C3_14  and  C10_5 
REMARK    3  A    between atoms: C11_9  and  C15_7 
REMARK    4  A    between atoms: C11_9  and  C14_11 
ROOT
ATOM      1  C4  JJQ d   1      -6.530 -17.056  28.183  0.00  0.00    -0.020 C 
ATOM      2  C6  JJQ d   1      -4.967 -16.868  25.035  0.00  0.00     0.037 A 
ATOM      3  C7  JJQ d   1      -7.048 -18.065  25.153  0.00  0.00    -0.074 A 
ATOM      4  C13 JJQ d   1      -7.242 -17.819  23.800  0.00  0.00    -0.082 A 
ATOM      5  C1  JJQ d   1      -5.466 -17.665  27.221  0.00  0.00     0.039 C 
ATOM      6  C11 JJQ d   1      -6.395 -15.525  28.104  0.00  0.00     0.122 C 
ATOM      7  C12 JJQ d   1      -5.149 -16.623  23.673  0.00  0.00    -0.057 A 
ATOM      8  C16 JJQ d   1      -6.297 -17.115  23.065  0.00  0.00    -0.081 A 
ATOM      9  C2  JJQ d   1      -5.892 -17.605  25.773  0.00  0.00    -0.019 A 
ATOM     10  C3  JJQ d   1      -4.297 -16.616  27.238  0.00  0.00     0.206 C 
ATOM     11  N8  JJQ d   1      -3.906 -16.461  25.841  0.00  0.00    -0.356 N 
ATOM     12  N9  JJQ d   1      -4.946 -15.309  27.659  0.00  0.00    -0.040 N 
ATOM     13  H1  JJQ d   1      -6.346 -17.398  29.212  0.00  0.00     0.038 H 
ATOM     14  H2  JJQ d   1      -7.539 -17.361  27.870  0.00  0.00     0.038 H 
ATOM     15  H6  JJQ d   1      -7.792 -18.611  25.721  0.00  0.00     0.084 H 
ATOM     16  H10 JJQ d   1      -8.140 -18.180  23.313  0.00  0.00     0.083 H 
ATOM     17  H14 JJQ d   1      -4.414 -16.064  23.105  0.00  0.00     0.086 H 
ATOM     18  H18 JJQ d   1      -6.457 -16.948  22.006  0.00  0.00     0.083 H 
ATOM     19  H19 JJQ d   1      -2.998 -16.110  25.506  0.00  0.00     0.162 HD
ATOM     20  H20 JJQ d   1      -4.423 -14.914  28.425  0.00  0.00     0.281 HD
ATOM     21  H21 JJQ d   1      -4.934 -14.670  26.879  0.00  0.00     0.281 HD
ENDROOT
BRANCH   6  22
ATOM     22  C15 JJQ d   1      -7.370 -14.906  27.103  0.00  0.00    -0.045 C 
ATOM     23  H11 JJQ d   1      -7.233 -13.815  27.085  0.00  0.00     0.030 H 
ATOM     24  H12 JJQ d   1      -8.402 -15.141  27.403  0.00  0.00     0.030 H 
ATOM     25  H13 JJQ d   1      -7.177 -15.316  26.101  0.00  0.00     0.030 H 
ENDBRANCH   6  22
BRANCH   6  26
ATOM     26  C14 JJQ d   1      -6.650 -14.873  29.461  0.00  0.00    -0.045 C 
ATOM     27  H15 JJQ d   1      -5.962 -15.298  30.207  0.00  0.00     0.030 H 
ATOM     28  H16 JJQ d   1      -7.689 -15.063  29.770  0.00  0.00     0.030 H 
ATOM     29  H17 JJQ d   1      -6.483 -13.789  29.384  0.00  0.00     0.030 H 
ENDBRANCH   6  26
BRANCH   5  30
ATOM     30  C5  JJQ d   1      -5.145 -19.109  27.633  0.00  0.00    -0.061 C 
ATOM     31  H3  JJQ d   1      -6.058 -19.720  27.571  0.00  0.00     0.029 H 
ATOM     32  H4  JJQ d   1      -4.766 -19.120  28.666  0.00  0.00     0.029 H 
ATOM     33  H5  JJQ d   1      -4.381 -19.522  26.958  0.00  0.00     0.029 H 
ENDBRANCH   5  30
BRANCH  10  34
ATOM     34  C10 JJQ d   1      -3.089 -16.895  28.115  0.00  0.00    -0.028 C 
ATOM     35  H7  JJQ d   1      -2.366 -16.072  28.016  0.00  0.00     0.033 H 
ATOM     36  H8  JJQ d   1      -2.617 -17.837  27.800  0.00  0.00     0.033 H 
ATOM     37  H9  JJQ d   1      -3.409 -16.977  29.164  0.00  0.00     0.033 H 
ENDBRANCH  10  34
TORSDOF 4
