REMARK  5 active torsions:
REMARK  status: ('A' for Active; 'I' for Inactive)
REMARK       I    between atoms: N16_16  and  C8_5 
REMARK    1  A    between atoms: C10_6  and  C11_11 
REMARK    2  A    between atoms: N14_14  and  C9_10 
REMARK       I    between atoms: C11_11  and  N14_14 
REMARK    3  A    between atoms: N15_15  and  C12_12 
REMARK    4  A    between atoms: O22_22  and  N15_15 
REMARK    5  A    between atoms: O22_22  and  S23_23 
ROOT
ATOM      1  C4  MK7 d   1      34.534  -0.540 -17.488  0.00  0.00    -0.032 C 
ATOM      2  C7  MK7 d   1      36.469  -0.077 -15.907  0.00  0.00     0.027 C 
ATOM      3  C8  MK7 d   1      38.472  -1.245 -16.392  0.00  0.00     0.171 C 
ATOM      4  C10 MK7 d   1      36.989  -0.862 -18.220  0.00  0.00     0.091 C 
ATOM      5  C1  MK7 d   1      35.542  -1.292 -18.380  0.00  0.00    -0.036 C 
ATOM      6  C12 MK7 d   1      34.973  -0.377 -16.027  0.00  0.00     0.147 C 
ATOM      7  N16 MK7 d   1      37.372  -0.772 -16.821  0.00  0.00    -0.344 N 
ATOM      8  O18 MK7 d   1      39.221  -1.814 -17.143  0.00  0.00    -0.284 OA
ATOM      9  H1  MK7 d   1      33.584  -1.094 -17.501  0.00  0.00     0.036 H 
ATOM     10  H2  MK7 d   1      34.380   0.462 -17.914  0.00  0.00     0.036 H 
ATOM     11  H7  MK7 d   1      36.775  -0.334 -14.882  0.00  0.00     0.067 H 
ATOM     12  H8  MK7 d   1      36.603   1.003 -16.070  0.00  0.00     0.067 H 
ATOM     13  H9  MK7 d   1      38.737  -1.135 -15.341  0.00  0.00     0.180 H 
ATOM     14  H10 MK7 d   1      37.646  -1.588 -18.721  0.00  0.00     0.087 H 
ATOM     15  H11 MK7 d   1      35.253  -1.133 -19.429  0.00  0.00     0.036 H 
ATOM     16  H12 MK7 d   1      35.476  -2.364 -18.140  0.00  0.00     0.036 H 
ATOM     17  H18 MK7 d   1      34.414   0.461 -15.586  0.00  0.00     0.091 H 
ENDROOT
BRANCH   4  18
ATOM     18  C11 MK7 d   1      37.118   0.521 -18.905  0.00  0.00     0.240 C 
ATOM     19  N14 MK7 d   1      36.756   0.624 -20.325  0.00  0.00    -0.355 N 
ATOM     20  H21 MK7 d   1      36.465  -0.196 -20.818  0.00  0.00     0.162 HD
ATOM     21  O19 MK7 d   1      37.497   1.470 -18.294  0.00  0.00    -0.271 OA
BRANCH  19  22
ATOM     22  C9  MK7 d   1      36.814   1.904 -21.032  0.00  0.00     0.015 C 
ATOM     23  C2  MK7 d   1      37.316   1.691 -22.445  0.00  0.00    -0.024 C 
ATOM     24  C5  MK7 d   1      37.101   2.925 -23.312  0.00  0.00     0.083 C 
ATOM     25  H13 MK7 d   1      38.392   1.463 -22.410  0.00  0.00     0.038 H 
ATOM     26  H14 MK7 d   1      36.775   0.843 -22.891  0.00  0.00     0.038 H 
ATOM     27  N13 MK7 d   1      35.744   3.413 -23.313  0.00  0.00    -0.075 N 
ATOM     28  H3  MK7 d   1      37.379   2.674 -24.346  0.00  0.00     0.075 H 
ATOM     29  H4  MK7 d   1      37.756   3.727 -22.941  0.00  0.00     0.075 H 
ATOM     30  C6  MK7 d   1      35.176   3.597 -22.008  0.00  0.00     0.083 C 
ATOM     31  H19 MK7 d   1      35.172   2.752 -23.815  0.00  0.00     0.277 HD
ATOM     32  H20 MK7 d   1      35.729   4.301 -23.791  0.00  0.00     0.277 HD
ATOM     33  C3  MK7 d   1      35.398   2.454 -21.027  0.00  0.00    -0.024 C 
ATOM     34  H5  MK7 d   1      35.615   4.507 -21.573  0.00  0.00     0.075 H 
ATOM     35  H6  MK7 d   1      34.091   3.735 -22.127  0.00  0.00     0.075 H 
ATOM     36  H15 MK7 d   1      34.708   1.637 -21.285  0.00  0.00     0.038 H 
ATOM     37  H16 MK7 d   1      35.172   2.818 -20.014  0.00  0.00     0.038 H 
ATOM     38  H17 MK7 d   1      37.488   2.598 -20.509  0.00  0.00     0.072 H 
ENDBRANCH  19  22
ENDBRANCH   4  18
BRANCH   6  39
ATOM     39  N15 MK7 d   1      34.652  -1.612 -15.285  0.00  0.00     0.061 N 
ATOM     40  H22 MK7 d   1      33.670  -1.825 -15.367  0.00  0.00     0.316 HD
ATOM     41  H23 MK7 d   1      34.893  -1.509 -14.312  0.00  0.00     0.316 HD
BRANCH  39  42
ATOM     42  O22 MK7 d   1      35.432  -2.640 -15.881  0.00  0.00    -0.054 OA
BRANCH  42  43
ATOM     43  S23 MK7 d   1      35.947  -3.767 -14.761  0.00  0.00     0.279 S 
ATOM     44  O17 MK7 d   1      34.865  -4.309 -13.926  0.00  0.00    -0.571 OA
ATOM     45  O20 MK7 d   1      36.970  -3.300 -13.820  0.00  0.00    -0.571 OA
ATOM     46  O21 MK7 d   1      36.560  -4.923 -15.411  0.00  0.00    -0.571 OA
ENDBRANCH  42  43
ENDBRANCH  39  42
ENDBRANCH   6  39
TORSDOF 5
