REMARK  5 active torsions:
REMARK  status: ('A' for Active; 'I' for Inactive)
REMARK       I    between atoms: N16_16  and  C8_5 
REMARK    1  A    between atoms: C10_6  and  C11_11 
REMARK    2  A    between atoms: N14_14  and  C9_10 
REMARK       I    between atoms: C11_11  and  N14_14 
REMARK    3  A    between atoms: N15_15  and  C12_12 
REMARK    4  A    between atoms: O22_22  and  N15_15 
REMARK    5  A    between atoms: O22_22  and  S23_23 
ROOT
ATOM      1  C4  MK7 d   1      -7.909  -1.116  10.463  0.00  0.00    -0.032 C 
ATOM      2  C7  MK7 d   1      -7.542  -1.244  12.958  0.00  0.00     0.027 C 
ATOM      3  C8  MK7 d   1      -5.929  -3.081  13.150  0.00  0.00     0.171 C 
ATOM      4  C10 MK7 d   1      -5.599  -1.311  11.521  0.00  0.00     0.091 C 
ATOM      5  C1  MK7 d   1      -6.417  -1.481  10.242  0.00  0.00    -0.036 C 
ATOM      6  C12 MK7 d   1      -8.473  -1.667  11.817  0.00  0.00     0.147 C 
ATOM      7  N16 MK7 d   1      -6.290  -1.892  12.626  0.00  0.00    -0.344 N 
ATOM      8  O18 MK7 d   1      -4.972  -3.735  12.663  0.00  0.00    -0.284 OA
ATOM      9  H1  MK7 d   1      -8.501  -1.539   9.638  0.00  0.00     0.036 H 
ATOM     10  H2  MK7 d   1      -8.007  -0.020  10.461  0.00  0.00     0.036 H 
ATOM     11  H7  MK7 d   1      -7.923  -1.596  13.928  0.00  0.00     0.067 H 
ATOM     12  H8  MK7 d   1      -7.424  -0.151  12.986  0.00  0.00     0.067 H 
ATOM     13  H9  MK7 d   1      -6.473  -3.479  14.005  0.00  0.00     0.180 H 
ATOM     14  H10 MK7 d   1      -4.654  -1.860  11.393  0.00  0.00     0.087 H 
ATOM     15  H11 MK7 d   1      -6.001  -0.825   9.463  0.00  0.00     0.036 H 
ATOM     16  H12 MK7 d   1      -6.351  -2.529   9.913  0.00  0.00     0.036 H 
ATOM     17  H18 MK7 d   1      -9.499  -1.309  11.990  0.00  0.00     0.091 H 
ENDROOT
BRANCH   4  18
ATOM     18  C11 MK7 d   1      -5.250   0.142  11.762  0.00  0.00     0.240 C 
ATOM     19  N14 MK7 d   1      -4.529   0.832  10.894  0.00  0.00    -0.355 N 
ATOM     20  H21 MK7 d   1      -4.240   0.402  10.039  0.00  0.00     0.162 HD
ATOM     21  O19 MK7 d   1      -5.581   0.725  12.822  0.00  0.00    -0.271 OA
BRANCH  19  22
ATOM     22  C9  MK7 d   1      -4.151   2.212  11.169  0.00  0.00     0.015 C 
ATOM     23  C2  MK7 d   1      -3.072   2.719  10.207  0.00  0.00    -0.024 C 
ATOM     24  C5  MK7 d   1      -2.553   4.092  10.662  0.00  0.00     0.083 C 
ATOM     25  H13 MK7 d   1      -2.237   2.003  10.189  0.00  0.00     0.038 H 
ATOM     26  H14 MK7 d   1      -3.499   2.809   9.197  0.00  0.00     0.038 H 
ATOM     27  N13 MK7 d   1      -3.655   5.110  10.734  0.00  0.00    -0.075 N 
ATOM     28  H3  MK7 d   1      -1.793   4.440   9.947  0.00  0.00     0.075 H 
ATOM     29  H4  MK7 d   1      -2.099   3.988  11.658  0.00  0.00     0.075 H 
ATOM     30  C6  MK7 d   1      -4.903   4.644  11.469  0.00  0.00     0.083 C 
ATOM     31  H19 MK7 d   1      -3.918   5.355   9.792  0.00  0.00     0.277 HD
ATOM     32  H20 MK7 d   1      -3.299   5.926  11.207  0.00  0.00     0.277 HD
ATOM     33  C3  MK7 d   1      -5.350   3.199  11.107  0.00  0.00    -0.024 C 
ATOM     34  H5  MK7 d   1      -4.702   4.683  12.550  0.00  0.00     0.075 H 
ATOM     35  H6  MK7 d   1      -5.726   5.332  11.224  0.00  0.00     0.075 H 
ATOM     36  H15 MK7 d   1      -5.766   3.196  10.089  0.00  0.00     0.038 H 
ATOM     37  H16 MK7 d   1      -6.122   2.872  11.819  0.00  0.00     0.038 H 
ATOM     38  H17 MK7 d   1      -3.741   2.239  12.190  0.00  0.00     0.072 H 
ENDBRANCH  19  22
ENDBRANCH   4  18
BRANCH   6  39
ATOM     39  N15 MK7 d   1      -8.419  -3.175  11.750  0.00  0.00     0.061 N 
ATOM     40  H22 MK7 d   1      -8.975  -3.562  12.496  0.00  0.00     0.316 HD
ATOM     41  H23 MK7 d   1      -7.463  -3.479  11.851  0.00  0.00     0.316 HD
BRANCH  39  42
ATOM     42  O22 MK7 d   1      -8.910  -3.612  10.545  0.00  0.00    -0.054 OA
BRANCH  42  43
ATOM     43  S23 MK7 d   1      -8.771  -5.238  10.653  0.00  0.00     0.279 S 
ATOM     44  O17 MK7 d   1      -7.912  -5.593   9.577  0.00  0.00    -0.571 OA
ATOM     45  O20 MK7 d   1      -8.179  -5.274  11.945  0.00  0.00    -0.571 OA
ATOM     46  O21 MK7 d   1     -10.128  -5.663  10.657  0.00  0.00    -0.571 OA
ENDBRANCH  42  43
ENDBRANCH  39  42
ENDBRANCH   6  39
TORSDOF 5
