REMARK  5 active torsions:
REMARK  status: ('A' for Active; 'I' for Inactive)
REMARK       I    between atoms: N16_16  and  C8_5 
REMARK    1  A    between atoms: C10_6  and  C11_11 
REMARK    2  A    between atoms: N14_14  and  C9_10 
REMARK       I    between atoms: C11_11  and  N14_14 
REMARK    3  A    between atoms: N15_15  and  C12_12 
REMARK    4  A    between atoms: O22_22  and  N15_15 
REMARK    5  A    between atoms: O22_22  and  S23_23 
ROOT
ATOM      1  C4  MK7 d   1      17.010   8.060  22.233  0.00  0.00    -0.032 C 
ATOM      2  C7  MK7 d   1      15.901  10.316  22.575  0.00  0.00     0.027 C 
ATOM      3  C8  MK7 d   1      14.348  10.718  20.729  0.00  0.00     0.171 C 
ATOM      4  C10 MK7 d   1      14.587   8.462  21.505  0.00  0.00     0.091 C 
ATOM      5  C1  MK7 d   1      15.903   7.670  21.262  0.00  0.00    -0.036 C 
ATOM      6  C12 MK7 d   1      17.267   9.569  22.333  0.00  0.00     0.147 C 
ATOM      7  N16 MK7 d   1      14.886   9.893  21.589  0.00  0.00    -0.344 N 
ATOM      8  O18 MK7 d   1      13.725  10.418  19.695  0.00  0.00    -0.284 OA
ATOM      9  H1  MK7 d   1      17.941   7.574  21.906  0.00  0.00     0.036 H 
ATOM     10  H2  MK7 d   1      16.736   7.691  23.233  0.00  0.00     0.036 H 
ATOM     11  H7  MK7 d   1      16.062  11.400  22.483  0.00  0.00     0.067 H 
ATOM     12  H8  MK7 d   1      15.538  10.084  23.587  0.00  0.00     0.067 H 
ATOM     13  H9  MK7 d   1      14.457  11.781  20.941  0.00  0.00     0.180 H 
ATOM     14  H10 MK7 d   1      13.951   8.303  20.622  0.00  0.00     0.087 H 
ATOM     15  H11 MK7 d   1      15.694   6.596  21.378  0.00  0.00     0.036 H 
ATOM     16  H12 MK7 d   1      16.248   7.867  20.236  0.00  0.00     0.036 H 
ATOM     17  H18 MK7 d   1      17.864   9.725  23.243  0.00  0.00     0.091 H 
ENDROOT
BRANCH   4  18
ATOM     18  C11 MK7 d   1      13.774   8.011  22.717  0.00  0.00     0.240 C 
ATOM     19  N14 MK7 d   1      13.604   6.596  22.750  0.00  0.00    -0.355 N 
ATOM     20  H21 MK7 d   1      14.023   6.047  22.027  0.00  0.00     0.162 HD
ATOM     21  O19 MK7 d   1      13.334   8.767  23.540  0.00  0.00    -0.271 OA
BRANCH  19  22
ATOM     22  C9  MK7 d   1      12.849   5.918  23.789  0.00  0.00     0.015 C 
ATOM     23  C2  MK7 d   1      13.444   4.528  24.065  0.00  0.00    -0.024 C 
ATOM     24  C5  MK7 d   1      12.479   3.705  24.916  0.00  0.00     0.083 C 
ATOM     25  H13 MK7 d   1      13.619   4.011  23.110  0.00  0.00     0.038 H 
ATOM     26  H14 MK7 d   1      14.398   4.640  24.602  0.00  0.00     0.038 H 
ATOM     27  N13 MK7 d   1      11.118   3.656  24.395  0.00  0.00    -0.075 N 
ATOM     28  H3  MK7 d   1      12.447   4.144  25.924  0.00  0.00     0.075 H 
ATOM     29  H4  MK7 d   1      12.863   2.676  24.976  0.00  0.00     0.075 H 
ATOM     30  C6  MK7 d   1      10.560   4.969  24.259  0.00  0.00     0.083 C 
ATOM     31  H19 MK7 d   1      10.544   3.120  25.027  0.00  0.00     0.277 HD
ATOM     32  H20 MK7 d   1      11.129   3.210  23.491  0.00  0.00     0.277 HD
ATOM     33  C3  MK7 d   1      11.423   5.746  23.277  0.00  0.00    -0.024 C 
ATOM     34  H5  MK7 d   1       9.530   4.900  23.878  0.00  0.00     0.075 H 
ATOM     35  H6  MK7 d   1      10.556   5.476  25.235  0.00  0.00     0.075 H 
ATOM     36  H15 MK7 d   1      10.978   6.740  23.121  0.00  0.00     0.038 H 
ATOM     37  H16 MK7 d   1      11.451   5.203  22.321  0.00  0.00     0.038 H 
ATOM     38  H17 MK7 d   1      12.856   6.516  24.712  0.00  0.00     0.072 H 
ENDBRANCH  19  22
ENDBRANCH   4  18
BRANCH   6  39
ATOM     39  N15 MK7 d   1      18.101  10.098  21.221  0.00  0.00     0.061 N 
ATOM     40  H22 MK7 d   1      18.522   9.337  20.711  0.00  0.00     0.316 HD
ATOM     41  H23 MK7 d   1      18.824  10.698  21.586  0.00  0.00     0.316 HD
BRANCH  39  42
ATOM     42  O22 MK7 d   1      17.228  10.845  20.360  0.00  0.00    -0.054 OA
BRANCH  42  43
ATOM     43  S23 MK7 d   1      17.718  10.733  18.810  0.00  0.00     0.279 S 
ATOM     44  O17 MK7 d   1      17.020  11.768  18.118  0.00  0.00    -0.571 OA
ATOM     45  O20 MK7 d   1      19.171  10.782  18.689  0.00  0.00    -0.571 OA
ATOM     46  O21 MK7 d   1      17.302   9.374  18.444  0.00  0.00    -0.571 OA
ENDBRANCH  42  43
ENDBRANCH  39  42
ENDBRANCH   6  39
TORSDOF 5
