REMARK  5 active torsions:
REMARK  status: ('A' for Active; 'I' for Inactive)
REMARK       I    between atoms: N16_16  and  C8_5 
REMARK    1  A    between atoms: C10_6  and  C11_11 
REMARK    2  A    between atoms: N14_14  and  C9_10 
REMARK       I    between atoms: C11_11  and  N14_14 
REMARK    3  A    between atoms: N15_15  and  C12_12 
REMARK    4  A    between atoms: O22_22  and  N15_15 
REMARK    5  A    between atoms: O22_22  and  S23_23 
ROOT
ATOM      1  C4  MK7 d   1      17.073   8.062  22.206  0.00  0.00    -0.032 C 
ATOM      2  C7  MK7 d   1      16.006  10.336  22.509  0.00  0.00     0.027 C 
ATOM      3  C8  MK7 d   1      14.431  10.776  20.711  0.00  0.00     0.171 C 
ATOM      4  C10 MK7 d   1      14.636   8.518  21.444  0.00  0.00     0.091 C 
ATOM      5  C1  MK7 d   1      15.922   7.694  21.259  0.00  0.00    -0.036 C 
ATOM      6  C12 MK7 d   1      17.344   9.566  22.271  0.00  0.00     0.147 C 
ATOM      7  N16 MK7 d   1      14.980   9.925  21.526  0.00  0.00    -0.344 N 
ATOM      8  O18 MK7 d   1      13.756  10.450  19.725  0.00  0.00    -0.284 OA
ATOM      9  H1  MK7 d   1      17.986   7.557  21.858  0.00  0.00     0.036 H 
ATOM     10  H2  MK7 d   1      16.821   7.708  23.217  0.00  0.00     0.036 H 
ATOM     11  H7  MK7 d   1      16.189  11.416  22.409  0.00  0.00     0.067 H 
ATOM     12  H8  MK7 d   1      15.641  10.119  23.523  0.00  0.00     0.067 H 
ATOM     13  H9  MK7 d   1      14.573  11.838  20.907  0.00  0.00     0.180 H 
ATOM     14  H10 MK7 d   1      13.998   8.364  20.561  0.00  0.00     0.087 H 
ATOM     15  H11 MK7 d   1      15.674   6.635  21.420  0.00  0.00     0.036 H 
ATOM     16  H12 MK7 d   1      16.272   7.836  20.226  0.00  0.00     0.036 H 
ATOM     17  H18 MK7 d   1      17.966   9.737  23.162  0.00  0.00     0.091 H 
ENDROOT
BRANCH   4  18
ATOM     18  C11 MK7 d   1      13.836   8.082  22.694  0.00  0.00     0.240 C 
ATOM     19  N14 MK7 d   1      13.556   6.669  22.782  0.00  0.00    -0.355 N 
ATOM     20  H21 MK7 d   1      13.869   6.041  22.070  0.00  0.00     0.162 HD
ATOM     21  O19 MK7 d   1      13.418   8.854  23.514  0.00  0.00    -0.271 OA
BRANCH  19  22
ATOM     22  C9  MK7 d   1      12.808   6.178  23.930  0.00  0.00     0.015 C 
ATOM     23  C2  MK7 d   1      13.746   6.115  25.137  0.00  0.00    -0.024 C 
ATOM     24  C5  MK7 d   1      14.851   5.079  24.903  0.00  0.00     0.083 C 
ATOM     25  H13 MK7 d   1      14.203   7.103  25.292  0.00  0.00     0.038 H 
ATOM     26  H14 MK7 d   1      13.169   5.833  26.030  0.00  0.00     0.038 H 
ATOM     27  N13 MK7 d   1      14.253   3.790  24.729  0.00  0.00    -0.075 N 
ATOM     28  H3  MK7 d   1      15.526   5.058  25.771  0.00  0.00     0.075 H 
ATOM     29  H4  MK7 d   1      15.421   5.346  24.001  0.00  0.00     0.075 H 
ATOM     30  C6  MK7 d   1      13.411   3.777  23.570  0.00  0.00     0.083 C 
ATOM     31  H19 MK7 d   1      13.700   3.569  25.542  0.00  0.00     0.277 HD
ATOM     32  H20 MK7 d   1      14.979   3.100  24.618  0.00  0.00     0.277 HD
ATOM     33  C3  MK7 d   1      12.271   4.791  23.610  0.00  0.00    -0.024 C 
ATOM     34  H5  MK7 d   1      14.034   3.993  22.689  0.00  0.00     0.075 H 
ATOM     35  H6  MK7 d   1      12.975   2.772  23.473  0.00  0.00     0.075 H 
ATOM     36  H15 MK7 d   1      11.549   4.494  24.384  0.00  0.00     0.038 H 
ATOM     37  H16 MK7 d   1      11.771   4.813  22.631  0.00  0.00     0.038 H 
ATOM     38  H17 MK7 d   1      11.970   6.856  24.148  0.00  0.00     0.072 H 
ENDBRANCH  19  22
ENDBRANCH   4  18
BRANCH   6  39
ATOM     39  N15 MK7 d   1      18.132  10.062  21.128  0.00  0.00     0.061 N 
ATOM     40  H22 MK7 d   1      18.398   9.295  20.530  0.00  0.00     0.316 HD
ATOM     41  H23 MK7 d   1      18.959  10.536  21.455  0.00  0.00     0.316 HD
BRANCH  39  42
ATOM     42  O22 MK7 d   1      17.307  10.955  20.430  0.00  0.00    -0.054 OA
BRANCH  42  43
ATOM     43  S23 MK7 d   1      17.708  10.808  18.838  0.00  0.00     0.279 S 
ATOM     44  O17 MK7 d   1      17.308   9.460  18.451  0.00  0.00    -0.571 OA
ATOM     45  O20 MK7 d   1      19.174  10.867  18.651  0.00  0.00    -0.571 OA
ATOM     46  O21 MK7 d   1      17.039  11.839  18.073  0.00  0.00    -0.571 OA
ENDBRANCH  42  43
ENDBRANCH  39  42
ENDBRANCH   6  39
TORSDOF 5
