REMARK  5 active torsions:
REMARK  status: ('A' for Active; 'I' for Inactive)
REMARK       I    between atoms: N16_16  and  C8_5 
REMARK    1  A    between atoms: C10_6  and  C11_11 
REMARK    2  A    between atoms: N14_14  and  C9_10 
REMARK       I    between atoms: C11_11  and  N14_14 
REMARK    3  A    between atoms: N15_15  and  C12_12 
REMARK    4  A    between atoms: O22_22  and  N15_15 
REMARK    5  A    between atoms: O22_22  and  S23_23 
ROOT
ATOM      1  C4  MK7 d   1      17.117   8.134  22.156  0.00  0.00    -0.032 C 
ATOM      2  C7  MK7 d   1      16.011  10.421  22.526  0.00  0.00     0.027 C 
ATOM      3  C8  MK7 d   1      14.508  10.833  20.721  0.00  0.00     0.171 C 
ATOM      4  C10 MK7 d   1      14.629   8.564  21.493  0.00  0.00     0.091 C 
ATOM      5  C1  MK7 d   1      15.868   7.656  21.406  0.00  0.00    -0.036 C 
ATOM      6  C12 MK7 d   1      17.330   9.642  22.273  0.00  0.00     0.147 C 
ATOM      7  N16 MK7 d   1      15.014   9.978  21.545  0.00  0.00    -0.344 N 
ATOM      8  O18 MK7 d   1      13.764  10.527  19.816  0.00  0.00    -0.284 OA
ATOM      9  H1  MK7 d   1      17.993   7.716  21.639  0.00  0.00     0.036 H 
ATOM     10  H2  MK7 d   1      17.065   7.728  23.177  0.00  0.00     0.036 H 
ATOM     11  H7  MK7 d   1      16.190  11.500  22.412  0.00  0.00     0.067 H 
ATOM     12  H8  MK7 d   1      15.648  10.215  23.544  0.00  0.00     0.067 H 
ATOM     13  H9  MK7 d   1      14.764  11.884  20.846  0.00  0.00     0.180 H 
ATOM     14  H10 MK7 d   1      14.029   8.412  20.584  0.00  0.00     0.087 H 
ATOM     15  H11 MK7 d   1      15.591   6.672  21.811  0.00  0.00     0.036 H 
ATOM     16  H12 MK7 d   1      16.134   7.554  20.344  0.00  0.00     0.036 H 
ATOM     17  H18 MK7 d   1      17.955   9.804  23.164  0.00  0.00     0.091 H 
ENDROOT
BRANCH   4  18
ATOM     18  C11 MK7 d   1      13.760   8.160  22.716  0.00  0.00     0.240 C 
ATOM     19  N14 MK7 d   1      13.266   6.769  22.777  0.00  0.00    -0.355 N 
ATOM     20  H21 MK7 d   1      13.519   6.134  22.047  0.00  0.00     0.162 HD
ATOM     21  O19 MK7 d   1      13.456   8.977  23.539  0.00  0.00    -0.271 OA
BRANCH  19  22
ATOM     22  C9  MK7 d   1      12.417   6.288  23.871  0.00  0.00     0.015 C 
ATOM     23  C2  MK7 d   1      13.294   5.796  25.023  0.00  0.00    -0.024 C 
ATOM     24  C5  MK7 d   1      13.936   4.455  24.679  0.00  0.00     0.083 C 
ATOM     25  H13 MK7 d   1      14.085   6.536  25.216  0.00  0.00     0.038 H 
ATOM     26  H14 MK7 d   1      12.674   5.679  25.924  0.00  0.00     0.038 H 
ATOM     27  N13 MK7 d   1      12.895   3.500  24.482  0.00  0.00    -0.075 N 
ATOM     28  H3  MK7 d   1      14.587   4.131  25.504  0.00  0.00     0.075 H 
ATOM     29  H4  MK7 d   1      14.531   4.552  23.759  0.00  0.00     0.075 H 
ATOM     30  C6  MK7 d   1      12.202   3.840  23.279  0.00  0.00     0.083 C 
ATOM     31  H19 MK7 d   1      12.257   3.524  25.262  0.00  0.00     0.277 HD
ATOM     32  H20 MK7 d   1      13.290   2.576  24.399  0.00  0.00     0.277 HD
ATOM     33  C3  MK7 d   1      11.487   5.186  23.356  0.00  0.00    -0.024 C 
ATOM     34  H5  MK7 d   1      12.930   3.878  22.455  0.00  0.00     0.075 H 
ATOM     35  H6  MK7 d   1      11.455   3.059  23.073  0.00  0.00     0.075 H 
ATOM     36  H15 MK7 d   1      10.628   5.096  24.038  0.00  0.00     0.038 H 
ATOM     37  H16 MK7 d   1      11.131   5.459  22.352  0.00  0.00     0.038 H 
ATOM     38  H17 MK7 d   1      11.800   7.122  24.235  0.00  0.00     0.072 H 
ENDBRANCH  19  22
ENDBRANCH   4  18
BRANCH   6  39
ATOM     39  N15 MK7 d   1      18.103  10.151  21.118  0.00  0.00     0.061 N 
ATOM     40  H22 MK7 d   1      18.417   9.385  20.543  0.00  0.00     0.316 HD
ATOM     41  H23 MK7 d   1      18.899  10.681  21.436  0.00  0.00     0.316 HD
BRANCH  39  42
ATOM     42  O22 MK7 d   1      17.212  10.989  20.383  0.00  0.00    -0.054 OA
BRANCH  42  43
ATOM     43  S23 MK7 d   1      17.658  10.792  18.865  0.00  0.00     0.279 S 
ATOM     44  O17 MK7 d   1      17.229   9.421  18.539  0.00  0.00    -0.571 OA
ATOM     45  O20 MK7 d   1      19.130  10.878  18.718  0.00  0.00    -0.571 OA
ATOM     46  O21 MK7 d   1      16.956  11.745  18.086  0.00  0.00    -0.571 OA
ENDBRANCH  42  43
ENDBRANCH  39  42
ENDBRANCH   6  39
TORSDOF 5
