REMARK  11 active torsions:
REMARK  status: ('A' for Active; 'I' for Inactive)
REMARK    1  A    between atoms: C13_2  and  C14_7 
REMARK    2  A    between atoms: O03_17  and  C13_2 
REMARK    3  A    between atoms: C15_3  and  C16_8 
REMARK    4  A    between atoms: O04_20  and  C15_3 
REMARK    5  A    between atoms: C01_9  and  C17_4 
REMARK    6  A    between atoms: C11_5  and  O03_17 
REMARK    7  A    between atoms: C14_7  and  O04_20 
REMARK    8  A    between atoms: N02_13  and  C01_9 
REMARK    9  A    between atoms: C05_21  and  O01_11 
REMARK   10  A    between atoms: C04_18  and  O02_14 
REMARK   11  A    between atoms: C07_23  and  C08_24 
ROOT
ATOM      1  C10 JJW d   1      34.769  -3.983  56.168  0.00  0.00    -0.050 A 
ATOM      2  C11 JJW d   1      35.255  -5.284  56.068  0.00  0.00     0.068 A 
ATOM      3  C12 JJW d   1      36.338  -5.703  56.884  0.00  0.00    -0.050 A 
ATOM      4  C02 JJW d   1      35.336  -3.070  57.070  0.00  0.00    -0.068 A 
ATOM      5  C06 JJW d   1      36.921  -4.808  57.806  0.00  0.00    -0.068 A 
ATOM      6  C07 JJW d   1      36.411  -3.468  57.909  0.00  0.00    -0.004 A 
ATOM      7  H1  JJW d   1      33.942  -3.671  55.541  0.00  0.00     0.087 H 
ATOM      8  H7  JJW d   1      36.719  -6.714  56.799  0.00  0.00     0.087 H 
ATOM      9  H18 JJW d   1      34.953  -2.058  57.127  0.00  0.00     0.085 H 
ATOM     10  H24 JJW d   1      37.746  -5.128  58.431  0.00  0.00     0.085 H 
ENDROOT
BRANCH   6  11
ATOM     11  C08 JJW d   1      36.904  -2.523  58.751  0.00  0.00     0.108 A 
ATOM     12  N04 JJW d   1      36.426  -1.306  58.946  0.00  0.00    -0.130 NA
ATOM     13  N03 JJW d   1      37.183  -0.740  59.800  0.00  0.00    -0.066 NA
ATOM     14  N02 JJW d   1      38.181  -1.406  60.272  0.00  0.00    -0.258 N 
ATOM     15  C09 JJW d   1      38.145  -2.748  59.619  0.00  0.00     0.030 A 
ATOM     16  H25 JJW d   1      38.796  -3.614  59.726  0.00  0.00     0.118 H 
BRANCH  14  17
ATOM     17  C01 JJW d   1      39.326  -1.137  61.264  0.00  0.00     0.047 C 
ATOM     18  H13 JJW d   1      40.181  -1.774  60.992  0.00  0.00     0.070 H 
ATOM     19  H14 JJW d   1      39.617  -0.079  61.183  0.00  0.00     0.070 H 
BRANCH  17  20
ATOM     20  C17 JJW d   1      38.951  -1.425  62.707  0.00  0.00     0.146 C 
ATOM     21  N01 JJW d   1      37.844  -0.416  62.923  0.00  0.00    -0.064 N 
ATOM     22  C03 JJW d   1      37.282  -0.657  64.220  0.00  0.00     0.108 C 
ATOM     23  H15 JJW d   1      37.135  -0.527  62.215  0.00  0.00     0.277 HD
ATOM     24  H16 JJW d   1      38.218   0.519  62.879  0.00  0.00     0.277 HD
ATOM     25  C04 JJW d   1      38.702  -0.724  64.969  0.00  0.00     0.085 C 
ATOM     26  H20 JJW d   1      36.721  -1.601  64.277  0.00  0.00     0.079 H 
ATOM     27  H21 JJW d   1      36.647   0.169  64.574  0.00  0.00     0.079 H 
ATOM     28  C05 JJW d   1      39.772  -1.061  63.921  0.00  0.00     0.091 C 
ATOM     29  H22 JJW d   1      38.921   0.266  65.396  0.00  0.00     0.089 H 
ATOM     30  H23 JJW d   1      40.412  -0.198  63.687  0.00  0.00     0.090 H 
ATOM     31  H6  JJW d   1      38.636  -2.476  62.784  0.00  0.00     0.091 H 
BRANCH  25  32
ATOM     32  O02 JJW d   1      38.710  -1.675  66.034  0.00  0.00    -0.391 OA
ATOM     33  H19 JJW d   1      38.050  -1.437  66.675  0.00  0.00     0.210 HD
ENDBRANCH  25  32
BRANCH  28  34
ATOM     34  O01 JJW d   1      40.596  -2.122  64.541  0.00  0.00    -0.391 OA
ATOM     35  H17 JJW d   1      40.033  -2.833  64.825  0.00  0.00     0.210 HD
ENDBRANCH  28  34
ENDBRANCH  17  20
ENDBRANCH  14  17
ENDBRANCH   6  11
BRANCH   2  36
ATOM     36  O03 JJW d   1      34.546  -6.077  55.092  0.00  0.00    -0.349 OA
BRANCH  36  37
ATOM     37  C13 JJW d   1      35.091  -7.348  54.735  0.00  0.00     0.046 C 
ATOM     38  H2  JJW d   1      36.181  -7.266  54.611  0.00  0.00     0.078 H 
ATOM     39  H3  JJW d   1      34.866  -8.085  55.520  0.00  0.00     0.078 H 
BRANCH  37  40
ATOM     40  C14 JJW d   1      34.442  -7.788  53.399  0.00  0.00     0.040 C 
ATOM     41  H8  JJW d   1      33.975  -6.915  52.920  0.00  0.00     0.077 H 
ATOM     42  H9  JJW d   1      33.674  -8.548  53.605  0.00  0.00     0.077 H 
BRANCH  40  43
ATOM     43  O04 JJW d   1      35.414  -8.335  52.522  0.00  0.00    -0.389 OA
BRANCH  43  44
ATOM     44  C15 JJW d   1      35.153  -8.611  51.155  0.00  0.00     0.016 C 
ATOM     45  H4  JJW d   1      34.249  -8.066  50.846  0.00  0.00     0.073 H 
ATOM     46  H5  JJW d   1      36.009  -8.273  50.552  0.00  0.00     0.073 H 
BRANCH  44  47
ATOM     47  C16 JJW d   1      34.933 -10.135  50.914  0.00  0.00    -0.056 C 
ATOM     48  H10 JJW d   1      34.734 -10.312  49.847  0.00  0.00     0.030 H 
ATOM     49  H11 JJW d   1      34.075 -10.480  51.510  0.00  0.00     0.030 H 
ATOM     50  H12 JJW d   1      35.835 -10.688  51.215  0.00  0.00     0.030 H 
ENDBRANCH  44  47
ENDBRANCH  43  44
ENDBRANCH  40  43
ENDBRANCH  37  40
ENDBRANCH  36  37
ENDBRANCH   2  36
TORSDOF 11
