REMARK  4 active torsions:
REMARK  status: ('A' for Active; 'I' for Inactive)
REMARK    1  A    between atoms: C02_3  and  C03_4 
REMARK       I    between atoms: N12_19  and  C02_3 
REMARK    2  A    between atoms: C14_12  and  C13_11 
REMARK    3  A    between atoms: C13_11  and  N12_19 
REMARK    4  A    between atoms: C18_15  and  N19_20 
ROOT
ATOM      1  C02 GQB d   1     -55.488  12.269  -3.327  0.00  0.00     0.268 C 
ATOM      2  N12 GQB d   1     -55.127  13.274  -4.310  0.00  0.00    -0.351 N 
ATOM      3  O01 GQB d   1     -56.500  11.595  -3.632  0.00  0.00    -0.266 OA
ATOM      4  H12 GQB d   1     -54.333  13.854  -4.128  0.00  0.00     0.163 HD
ENDROOT
BRANCH   2   5
ATOM      5  C13 GQB d   1     -55.893  13.486  -5.595  0.00  0.00     0.019 C 
ATOM      6  H6  GQB d   1     -56.777  14.101  -5.370  0.00  0.00     0.071 H 
ATOM      7  H7  GQB d   1     -55.241  14.025  -6.298  0.00  0.00     0.071 H 
BRANCH   5   8
ATOM      8  C14 GQB d   1     -56.388  12.137  -6.304  0.00  0.00    -0.039 A 
ATOM      9  C15 GQB d   1     -55.573  11.167  -6.928  0.00  0.00    -0.056 A 
ATOM     10  C16 GQB d   1     -56.149  10.003  -7.500  0.00  0.00     0.037 A 
ATOM     11  H8  GQB d   1     -54.500  11.313  -6.970  0.00  0.00     0.086 H 
ATOM     12  C21 GQB d   1     -57.524   9.732  -7.470  0.00  0.00     0.076 A 
ATOM     13  S17 GQB d   1     -55.376   8.657  -8.352  0.00  0.00    -0.050 SA
ATOM     14  C22 GQB d   1     -58.342  10.696  -6.825  0.00  0.00    -0.053 A 
ATOM     15  N20 GQB d   1     -57.989   8.501  -8.093  0.00  0.00    -0.224 NA
ATOM     16  C23 GQB d   1     -57.763  11.851  -6.259  0.00  0.00    -0.073 A 
ATOM     17  H9  GQB d   1     -59.414  10.544  -6.767  0.00  0.00     0.087 H 
ATOM     18  H10 GQB d   1     -58.416  12.558  -5.761  0.00  0.00     0.084 H 
ATOM     19  C18 GQB d   1     -57.000   7.809  -8.609  0.00  0.00     0.165 A 
BRANCH  19  20
ATOM     20  N19 GQB d   1     -57.060   6.601  -9.270  0.00  0.00    -0.378 N 
ATOM     21  H13 GQB d   1     -57.968   6.135  -9.409  0.00  0.00     0.158 HD
ATOM     22  H14 GQB d   1     -56.197   6.165  -9.625  0.00  0.00     0.158 HD
ENDBRANCH  19  20
ENDBRANCH   5   8
ENDBRANCH   2   5
BRANCH   1  23
ATOM     23  C03 GQB d   1     -54.843  11.853  -1.994  0.00  0.00     0.102 A 
ATOM     24  C04 GQB d   1     -54.593  12.620  -0.831  0.00  0.00    -0.040 A 
ATOM     25  C05 GQB d   1     -53.968  11.727   0.170  0.00  0.00    -0.007 A 
ATOM     26  H1  GQB d   1     -54.820  13.677  -0.697  0.00  0.00     0.088 H 
ATOM     27  C10 GQB d   1     -53.858  10.453  -0.400  0.00  0.00     0.043 A 
ATOM     28  C06 GQB d   1     -53.505  11.965   1.509  0.00  0.00    -0.071 A 
ATOM     29  C09 GQB d   1     -53.276   9.367   0.362  0.00  0.00    -0.056 A 
ATOM     30  N11 GQB d   1     -54.380  10.528  -1.679  0.00  0.00    -0.351 N 
ATOM     31  C08 GQB d   1     -52.838   9.618   1.649  0.00  0.00    -0.081 A 
ATOM     32  H5  GQB d   1     -53.186   8.376  -0.069  0.00  0.00     0.086 H 
ATOM     33  C07 GQB d   1     -52.943  10.896   2.223  0.00  0.00    -0.082 A 
ATOM     34  H4  GQB d   1     -52.404   8.811   2.228  0.00  0.00     0.083 H 
ATOM     35  H3  GQB d   1     -52.584  11.059   3.233  0.00  0.00     0.083 H 
ATOM     36  H11 GQB d   1     -54.431   9.730  -2.328  0.00  0.00     0.166 HD
ATOM     37  H2  GQB d   1     -53.588  12.948   1.958  0.00  0.00     0.084 H 
ENDBRANCH   1  23
TORSDOF 4
