REMARK  5 active torsions:
REMARK  status: ('A' for Active; 'I' for Inactive)
REMARK    1  A    between atoms: C03_3  and  C07_7 
REMARK    2  A    between atoms: C07_7  and  N08_8 
REMARK       I    between atoms: N11_11  and  C14_14 
REMARK    3  A    between atoms: C14_14  and  C15_15 
REMARK    4  A    between atoms: C17_17  and  N26_25 
REMARK    5  A    between atoms: C18_18  and  N23_22 
ROOT
ATOM      1  N08 JKB d   1      27.819  18.631  95.744  0.00  0.00    -0.064 N 
ATOM      2  C09 JKB d   1      29.448  19.500  94.332  0.00  0.00     0.021 C 
ATOM      3  C10 JKB d   1      28.280  19.790  95.240  0.00  0.00     0.099 C 
ATOM      4  N11 JKB d   1      30.432  18.868  95.203  0.00  0.00    -0.345 N 
ATOM      5  C12 JKB d   1      30.062  17.729  96.026  0.00  0.00     0.021 C 
ATOM      6  C13 JKB d   1      28.632  17.921  96.543  0.00  0.00     0.099 C 
ATOM      7  C14 JKB d   1      31.802  19.424  95.197  0.00  0.00     0.256 C 
ATOM      8  O22 JKB d   1      31.994  20.374  94.500  0.00  0.00    -0.267 OA
ATOM      9  H7  JKB d   1      27.588  18.041  94.960  0.00  0.00     0.280 HD
ATOM     10  H8  JKB d   1      29.848  20.430  93.902  0.00  0.00     0.067 H 
ATOM     11  H9  JKB d   1      29.151  18.819  93.521  0.00  0.00     0.067 H 
ATOM     12  H10 JKB d   1      28.605  20.446  96.061  0.00  0.00     0.078 H 
ATOM     13  H11 JKB d   1      27.483  20.287  94.668  0.00  0.00     0.078 H 
ATOM     14  H12 JKB d   1      30.753  17.651  96.878  0.00  0.00     0.067 H 
ATOM     15  H13 JKB d   1      30.115  16.809  95.425  0.00  0.00     0.067 H 
ATOM     16  H14 JKB d   1      28.186  16.925  96.682  0.00  0.00     0.078 H 
ATOM     17  H15 JKB d   1      28.689  18.436  97.513  0.00  0.00     0.078 H 
ENDROOT
BRANCH   7  18
ATOM     18  C15 JKB d   1      32.993  18.966  96.101  0.00  0.00     0.065 A 
ATOM     19  C17 JKB d   1      32.750  18.775  97.472  0.00  0.00     0.120 A 
ATOM     20  C16 JKB d   1      33.773  18.428  98.340  0.00  0.00    -0.018 A 
ATOM     21  C18 JKB d   1      35.055  18.284  97.864  0.00  0.00     0.105 A 
ATOM     22  H16 JKB d   1      33.563  18.270  99.392  0.00  0.00     0.091 H 
ATOM     23  C19 JKB d   1      35.328  18.496  96.497  0.00  0.00    -0.050 A 
ATOM     24  C20 JKB d   1      34.291  18.850  95.613  0.00  0.00    -0.063 A 
ATOM     25  H17 JKB d   1      36.340  18.386  96.125  0.00  0.00     0.087 H 
ATOM     26  H18 JKB d   1      34.501  19.030  94.565  0.00  0.00     0.085 H 
BRANCH  19  27
ATOM     27  N26 JKB d   1      31.481  18.907  98.042  0.00  0.00    -0.115 N 
ATOM     28  O28 JKB d   1      30.961  17.842  98.755  0.00  0.00    -0.532 OA
ATOM     29  O27 JKB d   1      30.906  19.897  97.949  0.00  0.00    -0.532 OA
ENDBRANCH  19  27
BRANCH  21  30
ATOM     30  N23 JKB d   1      36.059  17.931  98.890  0.00  0.00    -0.116 N 
ATOM     31  O24 JKB d   1      35.663  18.045 100.236  0.00  0.00    -0.532 OA
ATOM     32  O25 JKB d   1      37.166  17.596  98.628  0.00  0.00    -0.532 OA
ENDBRANCH  21  30
ENDBRANCH   7  18
BRANCH   1  33
ATOM     33  C07 JKB d   1      26.768  18.886  96.392  0.00  0.00     0.107 C 
ATOM     34  H5  JKB d   1      27.006  19.026  97.457  0.00  0.00     0.083 H 
ATOM     35  H6  JKB d   1      26.295  19.798  95.999  0.00  0.00     0.083 H 
BRANCH  33  36
ATOM     36  C03 JKB d   1      25.814  17.670  96.213  0.00  0.00    -0.032 A 
ATOM     37  C01 JKB d   1      24.464  17.873  96.316  0.00  0.00    -0.072 A 
ATOM     38  C02 JKB d   1      23.560  16.780  96.157  0.00  0.00    -0.045 A 
ATOM     39  H1  JKB d   1      24.081  18.866  96.519  0.00  0.00     0.084 H 
ATOM     40  C04 JKB d   1      24.074  15.479  95.901  0.00  0.00     0.116 A 
ATOM     41  H2  JKB d   1      22.490  16.940  96.231  0.00  0.00     0.088 H 
ATOM     42  C06 JKB d   1      25.425  15.267  95.790  0.00  0.00    -0.045 A 
ATOM     43  F21 JKB d   1      23.220  14.481  95.763  0.00  0.00    -0.206 F 
ATOM     44  C05 JKB d   1      26.325  16.359  95.947  0.00  0.00    -0.072 A 
ATOM     45  H4  JKB d   1      25.805  14.273  95.584  0.00  0.00     0.088 H 
ATOM     46  H3  JKB d   1      27.394  16.198  95.865  0.00  0.00     0.084 H 
ENDBRANCH  33  36
ENDBRANCH   1  33
TORSDOF 5
