REMARK  7 active torsions:
REMARK  status: ('A' for Active; 'I' for Inactive)
REMARK    1  A    between atoms: N3_2  and  C8_7 
REMARK    2  A    between atoms: C9_20  and  N3_2 
REMARK    3  A    between atoms: C4_3  and  C12_22 
REMARK    4  A    between atoms: C9_20  and  C10_8 
REMARK    5  A    between atoms: C2_15  and  C1_12 
REMARK    6  A    between atoms: C3_18  and  C2_15 
REMARK    7  A    between atoms: C9_20  and  C11_21 
ROOT
ATOM      1  N1  JKQ d   1      14.339  54.491  -3.013  0.00  0.00    -0.234 NA
ATOM      2  C4  JKQ d   1      12.180  57.305  -3.919  0.00  0.00     0.004 A 
ATOM      3  C5  JKQ d   1      13.401  56.533  -3.985  0.00  0.00     0.058 A 
ATOM      4  C6  JKQ d   1      13.353  55.385  -3.123  0.00  0.00     0.114 A 
ATOM      5  C7  JKQ d   1      15.435  54.763  -3.725  0.00  0.00     0.090 A 
ATOM      6  C8  JKQ d   1      14.608  56.712  -4.729  0.00  0.00     0.139 A 
ATOM      7  S1  JKQ d   1      11.839  55.310  -2.290  0.00  0.00    -0.073 SA
ATOM      8  N2  JKQ d   1      15.607  55.810  -4.558  0.00  0.00    -0.224 NA
ATOM      9  C3  JKQ d   1      11.221  56.753  -3.026  0.00  0.00    -0.004 A 
ATOM     10  H2  JKQ d   1      16.267  54.076  -3.624  0.00  0.00     0.146 H 
ENDROOT
BRANCH   2  11
ATOM     11  C12 JKQ d   1      11.928  58.535  -4.712  0.00  0.00    -0.023 A 
ATOM     12  C13 JKQ d   1      11.952  58.459  -6.104  0.00  0.00    -0.060 A 
ATOM     13  C14 JKQ d   1      11.715  59.613  -6.869  0.00  0.00    -0.007 A 
ATOM     14  H6  JKQ d   1      12.153  57.513  -6.594  0.00  0.00     0.086 H 
ATOM     15  C15 JKQ d   1      11.408  60.814  -6.192  0.00  0.00     0.042 A 
ATOM     16  C17 JKQ d   1      11.697  59.911  -8.262  0.00  0.00    -0.056 A 
ATOM     17  N4  JKQ d   1      11.217  61.789  -7.146  0.00  0.00    -0.365 N 
ATOM     18  C18 JKQ d   1      11.341  60.884  -4.797  0.00  0.00    -0.056 A 
ATOM     19  C16 JKQ d   1      11.403  61.231  -8.386  0.00  0.00    -0.022 A 
ATOM     20  H13 JKQ d   1      10.975  62.773  -6.960  0.00  0.00     0.165 HD
ATOM     21  H15 JKQ d   1      11.326  61.768  -9.330  0.00  0.00     0.111 H 
ATOM     22  C19 JKQ d   1      11.605  59.741  -4.071  0.00  0.00    -0.070 A 
ATOM     23  H16 JKQ d   1      11.088  61.813  -4.299  0.00  0.00     0.087 H 
ATOM     24  H17 JKQ d   1      11.562  59.775  -2.988  0.00  0.00     0.084 H 
ATOM     25  H7  JKQ d   1      11.884  59.211  -9.075  0.00  0.00     0.086 H 
ENDBRANCH   2  11
BRANCH   9  26
ATOM     26  C2  JKQ d   1       9.851  57.223  -2.686  0.00  0.00    -0.037 C 
ATOM     27  H11 JKQ d   1       9.866  57.629  -1.664  0.00  0.00     0.040 H 
ATOM     28  H12 JKQ d   1       9.571  58.018  -3.392  0.00  0.00     0.040 H 
BRANCH  26  29
ATOM     29  C1  JKQ d   1       8.798  56.126  -2.753  0.00  0.00    -0.072 C 
ATOM     30  H8  JKQ d   1       7.815  56.545  -2.491  0.00  0.00     0.028 H 
ATOM     31  H9  JKQ d   1       9.057  55.326  -2.044  0.00  0.00     0.028 H 
ATOM     32  H10 JKQ d   1       8.761  55.715  -3.773  0.00  0.00     0.028 H 
ENDBRANCH  26  29
ENDBRANCH   9  26
BRANCH   6  33
ATOM     33  N3  JKQ d   1      14.825  57.781  -5.533  0.00  0.00    -0.360 N 
ATOM     34  H1  JKQ d   1      14.162  58.565  -5.450  0.00  0.00     0.162 HD
BRANCH  33  35
ATOM     35  C9  JKQ d   1      15.896  57.934  -6.499  0.00  0.00     0.091 C 
ATOM     36  H14 JKQ d   1      16.773  58.085  -5.853  0.00  0.00     0.088 H 
BRANCH  35  37
ATOM     37  C10 JKQ d   1      15.830  59.262  -7.200  0.00  0.00    -0.048 C 
ATOM     38  H3  JKQ d   1      16.657  59.337  -7.921  0.00  0.00     0.030 H 
ATOM     39  H4  JKQ d   1      15.914  60.072  -6.460  0.00  0.00     0.030 H 
ATOM     40  H5  JKQ d   1      14.871  59.349  -7.731  0.00  0.00     0.030 H 
ENDBRANCH  35  37
BRANCH  35  41
ATOM     41  C11 JKQ d   1      16.305  56.653  -7.216  0.00  0.00     0.196 C 
ATOM     42  O1  JKQ d   1      17.529  56.409  -7.275  0.00  0.00    -0.646 OA
ATOM     43  O2  JKQ d   1      15.404  55.944  -7.715  0.00  0.00    -0.646 OA
ENDBRANCH  35  41
ENDBRANCH  33  35
ENDBRANCH   6  33
TORSDOF 7
