REMARK  5 active torsions:
REMARK  status: ('A' for Active; 'I' for Inactive)
REMARK    1  A    between atoms: N1_1  and  C1'_10 
REMARK    2  A    between atoms: C3'_12  and  O3'_14 
REMARK    3  A    between atoms: C4'_13  and  C5'_16 
REMARK    4  A    between atoms: C5'_16  and  O5'_17 
REMARK    5  A    between atoms: O5'_17  and  P_18 
ROOT
ATOM      1  C1' UFP d   1      43.093   6.647  28.627  0.00  0.00     0.116 C 
ATOM      2  C2' UFP d   1      41.797   7.425  28.476  0.00  0.00     0.002 C 
ATOM      3  C3' UFP d   1      41.898   8.428  29.600  0.00  0.00     0.066 C 
ATOM      4  C4' UFP d   1      42.695   7.730  30.684  0.00  0.00     0.087 C 
ATOM      5  O4' UFP d   1      43.415   6.696  30.020  0.00  0.00    -0.356 OA
ATOM      6  H3  UFP d   1      43.872   7.194  28.076  0.00  0.00     0.118 H 
ATOM      7  H4  UFP d   1      40.922   6.771  28.602  0.00  0.00     0.043 H 
ATOM      8  H5  UFP d   1      41.743   7.925  27.498  0.00  0.00     0.043 H 
ATOM      9  H6  UFP d   1      40.905   8.725  29.968  0.00  0.00     0.087 H 
ATOM     10  H7  UFP d   1      43.368   8.441  31.186  0.00  0.00     0.090 H 
ENDROOT
BRANCH   1  11
ATOM     11  N1  UFP d   1      43.098   5.271  28.085  0.00  0.00    -0.279 N 
ATOM     12  C2  UFP d   1      42.880   5.044  26.690  0.00  0.00     0.331 A 
ATOM     13  N3  UFP d   1      42.894   3.796  26.189  0.00  0.00    -0.273 N 
ATOM     14  O2  UFP d   1      42.662   5.999  25.894  0.00  0.00    -0.246 OA
ATOM     15  C4  UFP d   1      43.123   2.728  26.965  0.00  0.00     0.289 A 
ATOM     16  H1  UFP d   1      42.729   3.662  25.212  0.00  0.00     0.173 HD
ATOM     17  C5  UFP d   1      43.376   2.936  28.429  0.00  0.00     0.199 A 
ATOM     18  O4  UFP d   1      43.134   1.594  26.433  0.00  0.00    -0.265 OA
ATOM     19  C6  UFP d   1      43.345   4.242  28.912  0.00  0.00     0.029 A 
ATOM     20  F5  UFP d   1      43.614   1.915  29.289  0.00  0.00    -0.199 F 
ATOM     21  H2  UFP d   1      43.523   4.431  29.970  0.00  0.00     0.117 H 
ENDBRANCH   1  11
BRANCH   3  22
ATOM     22  O3' UFP d   1      42.614   9.570  29.108  0.00  0.00    -0.393 OA
ATOM     23  H8  UFP d   1      42.766  10.179  29.821  0.00  0.00     0.210 HD
ENDBRANCH   3  22
BRANCH   4  24
ATOM     24  C5' UFP d   1      41.810   7.031  31.700  0.00  0.00     0.059 C 
ATOM     25  H9  UFP d   1      42.321   6.122  32.051  0.00  0.00     0.079 H 
ATOM     26  H10 UFP d   1      40.862   6.754  31.215  0.00  0.00     0.079 H 
BRANCH  24  27
ATOM     27  O5' UFP d   1      41.528   7.859  32.818  0.00  0.00    -0.280 OA
BRANCH  27  28
ATOM     28  P   UFP d   1      40.094   7.657  33.489  0.00  0.00     0.422 P 
ATOM     29  O1P UFP d   1      39.263   7.950  32.271  0.00  0.00    -0.617 OA
ATOM     30  O2P UFP d   1      40.000   6.224  33.934  0.00  0.00    -0.617 OA
ATOM     31  O3P UFP d   1      40.060   8.668  34.597  0.00  0.00    -0.617 OA
ENDBRANCH  27  28
ENDBRANCH  24  27
ENDBRANCH   4  24
TORSDOF 5
