REMARK  5 active torsions:
REMARK  status: ('A' for Active; 'I' for Inactive)
REMARK    1  A    between atoms: C11_6  and  C12_7 
REMARK    2  A    between atoms: C15_10  and  C18_19 
REMARK    3  A    between atoms: C18_19  and  C22_12 
REMARK    4  A    between atoms: C18_19  and  O19_20 
REMARK    5  A    between atoms: C18_19  and  C23_23 
ROOT
ATOM      1  C12 JKN d   1     -27.990 -15.716  -0.133  0.00  0.00     0.010 A 
ATOM      2  C13 JKN d   1     -29.207 -15.079  -0.418  0.00  0.00    -0.069 A 
ATOM      3  C14 JKN d   1     -29.446 -14.634  -1.708  0.00  0.00    -0.073 A 
ATOM      4  C15 JKN d   1     -28.483 -14.694  -2.713  0.00  0.00    -0.025 A 
ATOM      5  C16 JKN d   1     -27.243 -15.275  -2.421  0.00  0.00    -0.073 A 
ATOM      6  C17 JKN d   1     -27.002 -15.765  -1.132  0.00  0.00    -0.069 A 
ATOM      7  H3  JKN d   1     -29.949 -14.937   0.359  0.00  0.00     0.085 H 
ATOM      8  H4  JKN d   1     -30.421 -14.223  -1.945  0.00  0.00     0.084 H 
ATOM      9  H5  JKN d   1     -26.477 -15.345  -3.185  0.00  0.00     0.084 H 
ATOM     10  H10 JKN d   1     -26.033 -16.191  -0.899  0.00  0.00     0.085 H 
ENDROOT
BRANCH   1  11
ATOM     11  C11 JKN d   1     -27.772 -16.177   1.233  0.00  0.00     0.141 A 
ATOM     12  N5  JKN d   1     -28.531 -15.718   2.193  0.00  0.00    -0.226 NA
ATOM     13  C2  JKN d   1     -28.311 -16.092   3.461  0.00  0.00     0.113 A 
ATOM     14  C1  JKN d   1     -29.112 -15.651   4.517  0.00  0.00     0.149 A 
ATOM     15  C4  JKN d   1     -27.248 -16.978   3.785  0.00  0.00     0.067 A 
ATOM     16  C3  JKN d   1     -28.857 -15.915   5.821  0.00  0.00    -0.006 A 
ATOM     17  F20 JKN d   1     -30.115 -14.804   4.204  0.00  0.00    -0.203 F 
ATOM     18  C6  JKN d   1     -27.808 -16.783   6.116  0.00  0.00     0.120 A 
ATOM     19  H1  JKN d   1     -29.450 -15.466   6.609  0.00  0.00     0.093 H 
ATOM     20  C7  JKN d   1     -26.976 -17.288   5.119  0.00  0.00    -0.028 A 
ATOM     21  F21 JKN d   1     -27.542 -17.051   7.407  0.00  0.00    -0.206 F 
ATOM     22  H2  JKN d   1     -26.129 -17.913   5.376  0.00  0.00     0.089 H 
ATOM     23  C8  JKN d   1     -26.455 -17.526   2.688  0.00  0.00     0.259 A 
ATOM     24  N9  JKN d   1     -26.779 -17.104   1.458  0.00  0.00    -0.307 N 
ATOM     25  O10 JKN d   1     -25.560 -18.372   2.893  0.00  0.00    -0.267 OA
ATOM     26  H9  JKN d   1     -26.281 -17.476   0.675  0.00  0.00     0.170 HD
ENDBRANCH   1  11
BRANCH   4  27
ATOM     27  C18 JKN d   1     -28.733 -14.138  -4.111  0.00  0.00     0.077 C 
BRANCH  27  28
ATOM     28  C22 JKN d   1     -29.859 -14.913  -4.812  0.00  0.00    -0.044 C 
ATOM     29  H6  JKN d   1     -30.021 -14.495  -5.817  0.00  0.00     0.032 H 
ATOM     30  H7  JKN d   1     -30.785 -14.826  -4.225  0.00  0.00     0.032 H 
ATOM     31  H8  JKN d   1     -29.577 -15.973  -4.897  0.00  0.00     0.032 H 
ENDBRANCH  27  28
BRANCH  27  32
ATOM     32  O19 JKN d   1     -27.577 -14.281  -4.947  0.00  0.00    -0.386 OA
ATOM     33  H11 JKN d   1     -27.762 -13.918  -5.806  0.00  0.00     0.211 HD
ENDBRANCH  27  32
BRANCH  27  34
ATOM     34  C23 JKN d   1     -29.071 -12.641  -4.071  0.00  0.00    -0.044 C 
ATOM     35  H12 JKN d   1     -28.259 -12.095  -3.568  0.00  0.00     0.032 H 
ATOM     36  H13 JKN d   1     -30.011 -12.492  -3.519  0.00  0.00     0.032 H 
ATOM     37  H14 JKN d   1     -29.185 -12.263  -5.098  0.00  0.00     0.032 H 
ENDBRANCH  27  34
ENDBRANCH   4  27
TORSDOF 5
