REMARK  7 active torsions:
REMARK  status: ('A' for Active; 'I' for Inactive)
REMARK    1  A    between atoms: C18_23  and  C10_1 
REMARK    2  A    between atoms: C12_20  and  C13_2 
REMARK    3  A    between atoms: C02_11  and  O03_12 
REMARK    4  A    between atoms: O03_12  and  C04_13 
REMARK    5  A    between atoms: C04_13  and  C05_14 
REMARK    6  A    between atoms: C04_13  and  C06_15 
REMARK    7  A    between atoms: C11_19  and  C12_20 
ROOT
ATOM      1  C10 JLB d   1      12.009  56.338  -3.830  0.00  0.00     0.005 A 
ATOM      2  C15 JLB d   1      12.944  54.568  -2.811  0.00  0.00     0.114 A 
ATOM      3  C17 JLB d   1      14.993  53.625  -3.294  0.00  0.00     0.090 A 
ATOM      4  N01 JLB d   1      15.188  54.517  -4.249  0.00  0.00    -0.217 NA
ATOM      5  C02 JLB d   1      14.262  55.442  -4.517  0.00  0.00     0.180 A 
ATOM      6  C09 JLB d   1      13.098  55.499  -3.802  0.00  0.00     0.065 A 
ATOM      7  C11 JLB d   1      11.130  55.964  -2.862  0.00  0.00    -0.004 A 
ATOM      8  S14 JLB d   1      11.635  54.691  -2.046  0.00  0.00    -0.073 SA
ATOM      9  N16 JLB d   1      13.878  53.651  -2.589  0.00  0.00    -0.234 NA
ATOM     10  H4  JLB d   1      15.747  52.874  -3.090  0.00  0.00     0.146 H 
ENDROOT
BRANCH   1  11
ATOM     11  C18 JLB d   1      11.738  57.481  -4.698  0.00  0.00    -0.023 A 
ATOM     12  C19 JLB d   1      11.475  58.742  -4.150  0.00  0.00    -0.070 A 
ATOM     13  C20 JLB d   1      11.176  59.820  -4.971  0.00  0.00    -0.056 A 
ATOM     14  H14 JLB d   1      11.505  58.877  -3.075  0.00  0.00     0.084 H 
ATOM     15  C21 JLB d   1      11.188  59.652  -6.350  0.00  0.00     0.042 A 
ATOM     16  H5  JLB d   1      10.935  60.785  -4.540  0.00  0.00     0.087 H 
ATOM     17  C22 JLB d   1      11.453  58.405  -6.895  0.00  0.00    -0.007 A 
ATOM     18  N25 JLB d   1      10.964  60.500  -7.359  0.00  0.00    -0.365 N 
ATOM     19  C24 JLB d   1      11.381  58.528  -8.261  0.00  0.00    -0.056 A 
ATOM     20  C23 JLB d   1      11.718  57.320  -6.084  0.00  0.00    -0.060 A 
ATOM     21  C26 JLB d   1      11.078  59.854  -8.526  0.00  0.00    -0.022 A 
ATOM     22  H6  JLB d   1      11.533  57.737  -8.994  0.00  0.00     0.086 H 
ATOM     23  H7  JLB d   1      10.954  60.295  -9.514  0.00  0.00     0.111 H 
ATOM     24  H15 JLB d   1      11.910  56.347  -6.522  0.00  0.00     0.086 H 
ATOM     25  H16 JLB d   1      10.738  61.499  -7.254  0.00  0.00     0.165 HD
ENDBRANCH   1  11
BRANCH   7  26
ATOM     26  C12 JLB d   1       9.800  56.632  -2.626  0.00  0.00    -0.037 C 
ATOM     27  H12 JLB d   1       9.796  57.136  -1.648  0.00  0.00     0.040 H 
ATOM     28  H13 JLB d   1       9.598  57.368  -3.419  0.00  0.00     0.040 H 
BRANCH  26  29
ATOM     29  C13 JLB d   1       8.757  55.535  -2.653  0.00  0.00    -0.072 C 
ATOM     30  H1  JLB d   1       7.761  55.971  -2.485  0.00  0.00     0.028 H 
ATOM     31  H2  JLB d   1       8.975  54.803  -1.862  0.00  0.00     0.028 H 
ATOM     32  H3  JLB d   1       8.777  55.034  -3.632  0.00  0.00     0.028 H 
ENDBRANCH  26  29
ENDBRANCH   7  26
BRANCH   5  33
ATOM     33  O03 JLB d   1      14.457  56.323  -5.472  0.00  0.00    -0.318 OA
BRANCH  33  34
ATOM     34  C04 JLB d   1      15.750  56.443  -6.012  0.00  0.00     0.127 C 
ATOM     35  H8  JLB d   1      16.517  56.066  -5.319  0.00  0.00     0.100 H 
BRANCH  34  36
ATOM     36  C05 JLB d   1      15.922  57.912  -6.300  0.00  0.00    -0.042 C 
ATOM     37  H9  JLB d   1      16.920  58.087  -6.729  0.00  0.00     0.031 H 
ATOM     38  H10 JLB d   1      15.819  58.483  -5.366  0.00  0.00     0.031 H 
ATOM     39  H11 JLB d   1      15.153  58.238  -7.016  0.00  0.00     0.031 H 
ENDBRANCH  34  36
BRANCH  34  40
ATOM     40  C06 JLB d   1      15.801  55.709  -7.341  0.00  0.00     0.203 C 
ATOM     41  O07 JLB d   1      16.831  55.092  -7.571  0.00  0.00    -0.646 OA
ATOM     42  O08 JLB d   1      14.831  55.756  -8.122  0.00  0.00    -0.646 OA
ENDBRANCH  34  40
ENDBRANCH  33  34
ENDBRANCH   5  33
TORSDOF 7
