REMARK  8 active torsions:
REMARK  status: ('A' for Active; 'I' for Inactive)
REMARK    1  A    between atoms: N19_28  and  C4_3 
REMARK    2  A    between atoms: C8_5  and  C31_30 
REMARK    3  A    between atoms: C21_11  and  C22_10 
REMARK    4  A    between atoms: C20_20  and  C21_11 
REMARK    5  A    between atoms: C9_12  and  C10_18 
REMARK    6  A    between atoms: C20_20  and  C28_25 
REMARK    7  A    between atoms: C20_20  and  N19_28 
REMARK    8  A    between atoms: C31_30  and  C32_31 
ROOT
ATOM      1  C5  JLE d   1     -13.493  11.730  -4.173  0.00  0.00     0.058 A 
ATOM      2  C6  JLE d   1     -13.542  12.372  -2.918  0.00  0.00     0.114 A 
ATOM      3  C4  JLE d   1     -14.608  11.880  -5.012  0.00  0.00     0.139 A 
ATOM      4  C2  JLE d   1     -15.658  13.191  -3.375  0.00  0.00     0.090 A 
ATOM      5  C8  JLE d   1     -11.468  11.170  -3.222  0.00  0.00    -0.004 A 
ATOM      6  N3  JLE d   1     -14.608  13.092  -2.557  0.00  0.00    -0.234 NA
ATOM      7  C9  JLE d   1     -12.292  11.038  -4.343  0.00  0.00     0.005 A 
ATOM      8  N1  JLE d   1     -15.655  12.592  -4.578  0.00  0.00    -0.224 NA
ATOM      9  S7  JLE d   1     -12.151  12.156  -1.964  0.00  0.00    -0.073 SA
ATOM     10  H1  JLE d   1     -16.525  13.762  -3.065  0.00  0.00     0.146 H 
ENDROOT
BRANCH   3  11
ATOM     11  N19 JLE d   1     -14.744  11.295  -6.270  0.00  0.00    -0.359 N 
ATOM     12  H15 JLE d   1     -13.919  10.877  -6.723  0.00  0.00     0.162 HD
BRANCH  11  13
ATOM     13  C20 JLE d   1     -16.057  11.261  -6.974  0.00  0.00     0.099 C 
ATOM     14  H10 JLE d   1     -16.819  10.785  -6.340  0.00  0.00     0.090 H 
BRANCH  13  15
ATOM     15  C21 JLE d   1     -15.895  10.523  -8.308  0.00  0.00    -0.013 C 
ATOM     16  H5  JLE d   1     -16.800  10.659  -8.919  0.00  0.00     0.043 H 
ATOM     17  H6  JLE d   1     -15.024  10.922  -8.849  0.00  0.00     0.043 H 
BRANCH  15  18
ATOM     18  C22 JLE d   1     -15.687   9.044  -8.024  0.00  0.00    -0.056 A 
ATOM     19  C23 JLE d   1     -14.400   8.518  -7.998  0.00  0.00    -0.077 A 
ATOM     20  C24 JLE d   1     -14.200   7.160  -7.741  0.00  0.00    -0.082 A 
ATOM     21  H4  JLE d   1     -13.549   9.165  -8.178  0.00  0.00     0.084 H 
ATOM     22  C25 JLE d   1     -15.307   6.352  -7.506  0.00  0.00    -0.083 A 
ATOM     23  H3  JLE d   1     -13.200   6.743  -7.725  0.00  0.00     0.083 H 
ATOM     24  C26 JLE d   1     -16.605   6.889  -7.524  0.00  0.00    -0.082 A 
ATOM     25  H2  JLE d   1     -15.167   5.296  -7.307  0.00  0.00     0.083 H 
ATOM     26  C27 JLE d   1     -16.800   8.245  -7.768  0.00  0.00    -0.077 A 
ATOM     27  H13 JLE d   1     -17.458   6.244  -7.347  0.00  0.00     0.083 H 
ATOM     28  H14 JLE d   1     -17.797   8.671  -7.759  0.00  0.00     0.084 H 
ENDBRANCH  15  18
ENDBRANCH  13  15
BRANCH  13  29
ATOM     29  C28 JLE d   1     -16.468  12.664  -7.371  0.00  0.00     0.197 C 
ATOM     30  O30 JLE d   1     -15.603  13.447  -7.754  0.00  0.00    -0.646 OA
ATOM     31  O29 JLE d   1     -17.659  12.995  -7.311  0.00  0.00    -0.646 OA
ENDBRANCH  13  29
ENDBRANCH  11  13
ENDBRANCH   3  11
BRANCH   7  32
ATOM     32  C10 JLE d   1     -11.882  10.242  -5.528  0.00  0.00    -0.011 A 
ATOM     33  C13 JLE d   1     -11.645  10.875  -6.762  0.00  0.00    -0.071 A 
ATOM     34  C12 JLE d   1     -11.231  10.124  -7.871  0.00  0.00    -0.080 A 
ATOM     35  H9  JLE d   1     -11.783  11.946  -6.855  0.00  0.00     0.084 H 
ATOM     36  C11 JLE d   1     -11.032   8.748  -7.746  0.00  0.00    -0.056 A 
ATOM     37  H8  JLE d   1     -11.066  10.611  -8.825  0.00  0.00     0.083 H 
ATOM     38  C14 JLE d   1     -11.262   8.116  -6.515  0.00  0.00     0.043 A 
ATOM     39  H7  JLE d   1     -10.700   8.168  -8.600  0.00  0.00     0.086 H 
ATOM     40  C15 JLE d   1     -11.684   8.855  -5.415  0.00  0.00     0.003 A 
ATOM     41  N18 JLE d   1     -11.144   6.837  -6.125  0.00  0.00    -0.365 N 
ATOM     42  C16 JLE d   1     -11.802   7.965  -4.356  0.00  0.00    -0.055 A 
ATOM     43  C17 JLE d   1     -11.464   6.710  -4.831  0.00  0.00    -0.022 A 
ATOM     44  H12 JLE d   1     -12.105   8.210  -3.339  0.00  0.00     0.087 H 
ATOM     45  H11 JLE d   1     -11.459   5.785  -4.256  0.00  0.00     0.111 H 
ATOM     46  H21 JLE d   1     -10.849   6.062  -6.736  0.00  0.00     0.165 HD
ENDBRANCH   7  32
BRANCH   5  47
ATOM     47  C31 JLE d   1     -10.097  10.554  -3.087  0.00  0.00    -0.037 C 
ATOM     48  H16 JLE d   1      -9.669  10.376  -4.085  0.00  0.00     0.040 H 
ATOM     49  H17 JLE d   1     -10.169   9.600  -2.544  0.00  0.00     0.040 H 
BRANCH  47  50
ATOM     50  C32 JLE d   1      -9.199  11.537  -2.300  0.00  0.00    -0.072 C 
ATOM     51  H18 JLE d   1      -8.193  11.107  -2.190  0.00  0.00     0.028 H 
ATOM     52  H19 JLE d   1      -9.633  11.714  -1.305  0.00  0.00     0.028 H 
ATOM     53  H20 JLE d   1      -9.133  12.490  -2.845  0.00  0.00     0.028 H 
ENDBRANCH  47  50
ENDBRANCH   5  47
TORSDOF 8
