REMARK  10 active torsions:
REMARK  status: ('A' for Active; 'I' for Inactive)
REMARK    1  A    between atoms: C6_1  and  C10_3 
REMARK    2  A    between atoms: C10_3  and  C22_21 
REMARK    3  A    between atoms: C13_4  and  C17_5 
REMARK    4  A    between atoms: C12_27  and  C13_4 
REMARK    5  A    between atoms: C7_20  and  C24_7 
REMARK    6  A    between atoms: C25_16  and  C30_15 
REMARK    7  A    between atoms: C26_18  and  O31_19 
REMARK    8  A    between atoms: O11_26  and  C4_25 
REMARK    9  A    between atoms: O11_26  and  C12_27 
REMARK   10  A    between atoms: C12_27  and  C14_28 
ROOT
ATOM      1  C6  JL8 d   1      11.032  56.305  -3.140  0.00  0.00    -0.004 A 
ATOM      2  C8  JL8 d   1      13.109  55.957  -4.019  0.00  0.00     0.065 A 
ATOM      3  C2  JL8 d   1      15.248  54.431  -3.462  0.00  0.00     0.090 A 
ATOM      4  C9  JL8 d   1      13.103  55.097  -2.930  0.00  0.00     0.114 A 
ATOM      5  C7  JL8 d   1      11.907  56.651  -4.129  0.00  0.00     0.005 A 
ATOM      6  S5  JL8 d   1      11.692  55.160  -2.093  0.00  0.00    -0.073 SA
ATOM      7  N3  JL8 d   1      14.157  54.351  -2.680  0.00  0.00    -0.234 NA
ATOM      8  N1  JL8 d   1      15.283  55.269  -4.526  0.00  0.00    -0.217 NA
ATOM      9  C4  JL8 d   1      14.228  56.022  -4.819  0.00  0.00     0.180 A 
ATOM     10  H6  JL8 d   1      16.112  53.816  -3.238  0.00  0.00     0.146 H 
ENDROOT
BRANCH   9  11
ATOM     11  O11 JL8 d   1      14.254  56.852  -5.889  0.00  0.00    -0.317 OA
BRANCH  11  12
ATOM     12  C12 JL8 d   1      15.518  56.794  -6.626  0.00  0.00     0.134 C 
ATOM     13  H18 JL8 d   1      16.319  57.166  -5.970  0.00  0.00     0.101 H 
BRANCH  12  14
ATOM     14  C13 JL8 d   1      15.406  57.641  -7.849  0.00  0.00    -0.007 C 
ATOM     15  H3  JL8 d   1      16.293  57.480  -8.479  0.00  0.00     0.044 H 
ATOM     16  H4  JL8 d   1      14.503  57.349  -8.406  0.00  0.00     0.044 H 
BRANCH  14  17
ATOM     17  C17 JL8 d   1      15.314  59.090  -7.497  0.00  0.00    -0.055 A 
ATOM     18  C18 JL8 d   1      14.939  59.472  -6.208  0.00  0.00    -0.077 A 
ATOM     19  C21 JL8 d   1      14.852  60.814  -5.888  0.00  0.00    -0.082 A 
ATOM     20  H7  JL8 d   1      14.717  58.719  -5.460  0.00  0.00     0.084 H 
ATOM     21  C19 JL8 d   1      15.128  61.777  -6.859  0.00  0.00    -0.083 A 
ATOM     22  H5  JL8 d   1      14.570  61.117  -4.886  0.00  0.00     0.083 H 
ATOM     23  C20 JL8 d   1      15.497  61.387  -8.144  0.00  0.00    -0.082 A 
ATOM     24  H19 JL8 d   1      15.055  62.830  -6.613  0.00  0.00     0.083 H 
ATOM     25  C23 JL8 d   1      15.587  60.046  -8.460  0.00  0.00    -0.077 A 
ATOM     26  H20 JL8 d   1      15.714  62.137  -8.896  0.00  0.00     0.083 H 
ATOM     27  H8  JL8 d   1      15.871  59.742  -9.461  0.00  0.00     0.084 H 
ENDBRANCH  14  17
ENDBRANCH  12  14
BRANCH  12  28
ATOM     28  C14 JL8 d   1      15.904  55.414  -7.161  0.00  0.00     0.204 C 
ATOM     29  O16 JL8 d   1      17.077  55.184  -7.441  0.00  0.00    -0.646 OA
ATOM     30  O15 JL8 d   1      15.032  54.565  -7.396  0.00  0.00    -0.646 OA
ENDBRANCH  12  28
ENDBRANCH  11  12
ENDBRANCH   9  11
BRANCH   5  31
ATOM     31  C24 JL8 d   1      11.611  57.625  -5.153  0.00  0.00    -0.016 A 
ATOM     32  C29 JL8 d   1      11.415  57.216  -6.463  0.00  0.00    -0.069 A 
ATOM     33  C27 JL8 d   1      11.103  58.151  -7.441  0.00  0.00    -0.048 A 
ATOM     34  H10 JL8 d   1      11.505  56.168  -6.723  0.00  0.00     0.085 H 
ATOM     35  C26 JL8 d   1      10.993  59.491  -7.106  0.00  0.00     0.087 A 
ATOM     36  H9  JL8 d   1      10.946  57.833  -8.465  0.00  0.00     0.087 H 
ATOM     37  C28 JL8 d   1      11.186  59.897  -5.787  0.00  0.00     0.073 A 
ATOM     38  C25 JL8 d   1      11.498  58.962  -4.814  0.00  0.00    -0.026 A 
ATOM     39 CL   JL8 d   1      11.033  61.556  -5.362  0.00  0.00    -0.081 Cl
BRANCH  35  40
ATOM     40  O31 JL8 d   1      10.704  60.395  -8.055  0.00  0.00    -0.359 OA
ATOM     41  H14 JL8 d   1      10.665  61.260  -7.665  0.00  0.00     0.217 HD
ENDBRANCH  35  40
BRANCH  38  42
ATOM     42  C30 JL8 d   1      11.700  59.406  -3.360  0.00  0.00    -0.049 C 
ATOM     43  H11 JL8 d   1      11.939  58.530  -2.739  0.00  0.00     0.033 H 
ATOM     44  H12 JL8 d   1      10.778  59.878  -2.989  0.00  0.00     0.033 H 
ATOM     45  H13 JL8 d   1      12.528  60.129  -3.309  0.00  0.00     0.033 H 
ENDBRANCH  38  42
ENDBRANCH   5  31
BRANCH   1  46
ATOM     46  C10 JL8 d   1       9.636  56.897  -3.004  0.00  0.00    -0.037 C 
ATOM     47  H1  JL8 d   1       9.216  57.062  -4.007  0.00  0.00     0.040 H 
ATOM     48  H2  JL8 d   1       9.703  57.857  -2.472  0.00  0.00     0.040 H 
BRANCH  46  49
ATOM     49  C22 JL8 d   1       8.716  55.956  -2.225  0.00  0.00    -0.072 C 
ATOM     50  H15 JL8 d   1       7.716  56.407  -2.142  0.00  0.00     0.028 H 
ATOM     51  H16 JL8 d   1       9.128  55.790  -1.219  0.00  0.00     0.028 H 
ATOM     52  H17 JL8 d   1       8.642  54.995  -2.754  0.00  0.00     0.028 H 
ENDBRANCH  46  49
ENDBRANCH   1  46
TORSDOF 10
