REMARK  14 active torsions:
REMARK  status: ('A' for Active; 'I' for Inactive)
REMARK    1  A    between atoms: C10_1  and  C22_6 
REMARK    2  A    between atoms: C06_16  and  C10_1 
REMARK    3  A    between atoms: C13_2  and  C17_3 
REMARK    4  A    between atoms: C12_21  and  C13_2 
REMARK    5  A    between atoms: C07_17  and  C24_7 
REMARK    6  A    between atoms: C26_8  and  O31_32 
REMARK    7  A    between atoms: O11_20  and  C04_14 
REMARK    8  A    between atoms: O11_20  and  C12_21 
REMARK    9  A    between atoms: C12_21  and  C14_22 
REMARK   10  A    between atoms: C25_28  and  C30_31 
REMARK   11  A    between atoms: O31_32  and  C32_33 
REMARK   12  A    between atoms: C32_33  and  C33_34 
REMARK   13  A    between atoms: C33_34  and  N34_35 
REMARK   14  A    between atoms: N37_38  and  C40_41 
ROOT
ATOM      1  C24 JLH d   1      11.049  57.018  -4.757  0.00  0.00    -0.016 A 
ATOM      2  C26 JLH d   1      10.377  58.862  -6.766  0.00  0.00     0.091 A 
ATOM      3  C28 JLH d   1      10.654  59.263  -5.465  0.00  0.00     0.074 A 
ATOM      4 CL   JLH d   1      10.577  60.882  -5.091  0.00  0.00    -0.081 Cl
ATOM      5  C25 JLH d   1      10.999  58.351  -4.456  0.00  0.00    -0.026 A 
ATOM      6  C27 JLH d   1      10.438  57.503  -7.037  0.00  0.00    -0.048 A 
ATOM      7  C29 JLH d   1      10.750  56.598  -6.059  0.00  0.00    -0.069 A 
ATOM      8  H15 JLH d   1      10.235  57.151  -8.042  0.00  0.00     0.087 H 
ATOM      9  H16 JLH d   1      10.766  55.540  -6.296  0.00  0.00     0.085 H 
ENDROOT
BRANCH   1  10
ATOM     10  C07 JLH d   1      11.368  55.989  -3.769  0.00  0.00     0.005 A 
ATOM     11  C06 JLH d   1      10.509  55.667  -2.777  0.00  0.00    -0.004 A 
ATOM     12  S05 JLH d   1      11.143  54.371  -1.850  0.00  0.00    -0.073 SA
ATOM     13  C09 JLH d   1      12.386  54.290  -2.663  0.00  0.00     0.114 A 
ATOM     14  N03 JLH d   1      13.345  53.438  -2.403  0.00  0.00    -0.234 NA
ATOM     15  C08 JLH d   1      12.493  55.182  -3.703  0.00  0.00     0.065 A 
ATOM     16  C02 JLH d   1      14.425  53.371  -3.170  0.00  0.00     0.090 A 
ATOM     17  N01 JLH d   1      14.563  54.177  -4.173  0.00  0.00    -0.217 NA
ATOM     18  H10 JLH d   1      15.195  52.639  -2.956  0.00  0.00     0.146 H 
ATOM     19  C04 JLH d   1      13.629  55.102  -4.471  0.00  0.00     0.180 A 
BRANCH  11  20
ATOM     20  C10 JLH d   1       9.154  56.345  -2.626  0.00  0.00    -0.037 C 
ATOM     21  H1  JLH d   1       9.280  57.425  -2.789  0.00  0.00     0.040 H 
ATOM     22  H2  JLH d   1       8.469  55.937  -3.384  0.00  0.00     0.040 H 
BRANCH  20  23
ATOM     23  C22 JLH d   1       8.547  56.128  -1.257  0.00  0.00    -0.072 C 
ATOM     24  H7  JLH d   1       7.573  56.637  -1.203  0.00  0.00     0.028 H 
ATOM     25  H8  JLH d   1       9.219  56.539  -0.489  0.00  0.00     0.028 H 
ATOM     26  H9  JLH d   1       8.408  55.051  -1.084  0.00  0.00     0.028 H 
ENDBRANCH  20  23
ENDBRANCH  11  20
BRANCH  19  27
ATOM     27  O11 JLH d   1      13.800  55.918  -5.525  0.00  0.00    -0.317 OA
BRANCH  27  28
ATOM     28  C12 JLH d   1      14.894  55.562  -6.396  0.00  0.00     0.134 C 
ATOM     29  H11 JLH d   1      15.818  55.492  -5.803  0.00  0.00     0.101 H 
BRANCH  28  30
ATOM     30  C13 JLH d   1      15.039  56.554  -7.498  0.00  0.00    -0.007 C 
ATOM     31  H3  JLH d   1      15.988  56.388  -8.028  0.00  0.00     0.044 H 
ATOM     32  H4  JLH d   1      14.202  56.453  -8.204  0.00  0.00     0.044 H 
BRANCH  30  33
ATOM     33  C17 JLH d   1      15.029  57.894  -6.902  0.00  0.00    -0.055 A 
ATOM     34  C18 JLH d   1      13.787  58.467  -6.627  0.00  0.00    -0.077 A 
ATOM     35  C21 JLH d   1      13.754  59.718  -6.048  0.00  0.00    -0.082 A 
ATOM     36  H12 JLH d   1      12.869  57.941  -6.863  0.00  0.00     0.084 H 
ATOM     37  C19 JLH d   1      14.990  60.330  -5.785  0.00  0.00    -0.083 A 
ATOM     38  H6  JLH d   1      12.817  60.206  -5.807  0.00  0.00     0.083 H 
ATOM     39  C20 JLH d   1      16.234  59.718  -6.042  0.00  0.00    -0.082 A 
ATOM     40  H13 JLH d   1      14.988  61.328  -5.361  0.00  0.00     0.083 H 
ATOM     41  C23 JLH d   1      16.275  58.473  -6.623  0.00  0.00    -0.077 A 
ATOM     42  H5  JLH d   1      17.155  60.228  -5.782  0.00  0.00     0.083 H 
ATOM     43  H14 JLH d   1      17.209  57.972  -6.850  0.00  0.00     0.084 H 
ENDBRANCH  30  33
ENDBRANCH  28  30
BRANCH  28  44
ATOM     44  C14 JLH d   1      14.640  54.265  -7.150  0.00  0.00     0.204 C 
ATOM     45  O15 JLH d   1      13.495  53.728  -7.126  0.00  0.00    -0.646 OA
ATOM     46  O16 JLH d   1      15.640  53.779  -7.691  0.00  0.00    -0.646 OA
ENDBRANCH  28  44
ENDBRANCH  27  28
ENDBRANCH  19  27
ENDBRANCH   1  10
BRANCH   5  47
ATOM     47  C30 JLH d   1      11.290  58.848  -3.050  0.00  0.00    -0.049 C 
ATOM     48  H17 JLH d   1      11.540  57.994  -2.404  0.00  0.00     0.033 H 
ATOM     49  H18 JLH d   1      10.403  59.362  -2.652  0.00  0.00     0.033 H 
ATOM     50  H19 JLH d   1      12.138  59.548  -3.077  0.00  0.00     0.033 H 
ENDBRANCH   5  47
BRANCH   2  51
ATOM     51  O31 JLH d   1      10.087  59.782  -7.725  0.00  0.00    -0.348 OA
BRANCH  51  52
ATOM     52  C32 JLH d   1       9.182  59.250  -8.689  0.00  0.00     0.049 C 
ATOM     53  H20 JLH d   1       8.198  59.116  -8.216  0.00  0.00     0.077 H 
ATOM     54  H21 JLH d   1       9.560  58.275  -9.031  0.00  0.00     0.077 H 
BRANCH  52  55
ATOM     55  C33 JLH d   1       9.030  60.155  -9.877  0.00  0.00     0.103 C 
ATOM     56  H22 JLH d   1       8.468  59.617 -10.655  0.00  0.00     0.079 H 
ATOM     57  H23 JLH d   1      10.032  60.405 -10.255  0.00  0.00     0.079 H 
BRANCH  55  58
ATOM     58  N34 JLH d   1       8.327  61.397  -9.575  0.00  0.00    -0.066 N 
ATOM     59  C35 JLH d   1       6.984  61.476 -10.178  0.00  0.00     0.106 C 
ATOM     60  C36 JLH d   1       6.472  62.918 -10.048  0.00  0.00     0.105 C 
ATOM     61  H25 JLH d   1       6.301  60.792  -9.653  0.00  0.00     0.078 H 
ATOM     62  H26 JLH d   1       7.038  61.196 -11.241  0.00  0.00     0.078 H 
ATOM     63  N37 JLH d   1       6.628  63.480  -8.676  0.00  0.00    -0.072 N 
ATOM     64  H27 JLH d   1       5.404  62.934 -10.312  0.00  0.00     0.078 H 
ATOM     65  H28 JLH d   1       7.033  63.552 -10.750  0.00  0.00     0.078 H 
ATOM     66  C38 JLH d   1       7.913  63.133  -8.017  0.00  0.00     0.105 C 
ATOM     67  H29 JLH d   1       5.882  63.103  -8.113  0.00  0.00     0.279 HD
ATOM     68  C39 JLH d   1       8.199  61.724  -8.138  0.00  0.00     0.106 C 
ATOM     69  H30 JLH d   1       7.852  63.396  -6.951  0.00  0.00     0.078 H 
ATOM     70  H31 JLH d   1       8.725  63.706  -8.490  0.00  0.00     0.078 H 
ATOM     71  H32 JLH d   1       9.140  61.490  -7.618  0.00  0.00     0.078 H 
ATOM     72  H33 JLH d   1       7.380  61.139  -7.695  0.00  0.00     0.078 H 
ATOM     73  H24 JLH d   1       8.881  62.130  -9.990  0.00  0.00     0.280 HD
BRANCH  63  74
ATOM     74  C40 JLH d   1       6.505  64.949  -8.691  0.00  0.00     0.066 C 
ATOM     75  H34 JLH d   1       5.559  65.233  -9.175  0.00  0.00     0.068 H 
ATOM     76  H35 JLH d   1       7.347  65.382  -9.250  0.00  0.00     0.068 H 
ATOM     77  H36 JLH d   1       6.517  65.329  -7.659  0.00  0.00     0.068 H 
ENDBRANCH  63  74
ENDBRANCH  55  58
ENDBRANCH  52  55
ENDBRANCH  51  52
ENDBRANCH   2  51
TORSDOF 14
