REMARK  12 active torsions:
REMARK  status: ('A' for Active; 'I' for Inactive)
REMARK    1  A    between atoms: C4_1  and  O11_31 
REMARK    2  A    between atoms: C6_6  and  C10_12 
REMARK    3  A    between atoms: C12_7  and  C13_8 
REMARK    4  A    between atoms: C12_7  and  C14_9 
REMARK    5  A    between atoms: O11_31  and  C12_7 
REMARK    6  A    between atoms: C13_8  and  C17_34 
REMARK    7  A    between atoms: C23_28  and  C7_10 
REMARK    8  A    between atoms: C10_12  and  C22_29 
REMARK    9  A    between atoms: N36_15  and  C39_16 
REMARK   10  A    between atoms: C26_20  and  N32_19 
REMARK   11  A    between atoms: C25_22  and  O30_23 
REMARK   12  A    between atoms: C24_26  and  C29_27 
ROOT
ATOM      1  C4  JL5 d   1       4.288   0.583  -5.916  0.00  0.00     0.180 A 
ATOM      2  C8  JL5 d   1       5.072   1.565  -6.510  0.00  0.00     0.065 A 
ATOM      3  N3  JL5 d   1       3.738   1.402  -8.442  0.00  0.00    -0.234 NA
ATOM      4  C2  JL5 d   1       2.994   0.477  -7.822  0.00  0.00     0.090 A 
ATOM      5  N1  JL5 d   1       3.270   0.051  -6.590  0.00  0.00    -0.217 NA
ATOM      6  C6  JL5 d   1       6.690   3.153  -6.903  0.00  0.00    -0.004 A 
ATOM      7  C7  JL5 d   1       6.175   2.246  -6.003  0.00  0.00     0.005 A 
ATOM      8  C9  JL5 d   1       4.772   1.956  -7.801  0.00  0.00     0.114 A 
ATOM      9  S5  JL5 d   1       5.840   3.153  -8.371  0.00  0.00    -0.073 SA
ATOM     10  H1  JL5 d   1       2.138   0.060  -8.340  0.00  0.00     0.146 H 
ENDROOT
BRANCH   7  11
ATOM     11  C23 JL5 d   1       6.790   2.100  -4.669  0.00  0.00    -0.014 A 
ATOM     12  C28 JL5 d   1       7.483   0.955  -4.408  0.00  0.00    -0.043 A 
ATOM     13  C26 JL5 d   1       8.135   0.742  -3.195  0.00  0.00     0.066 A 
ATOM     14  H19 JL5 d   1       7.528   0.185  -5.170  0.00  0.00     0.088 H 
ATOM     15  C25 JL5 d   1       8.040   1.711  -2.206  0.00  0.00     0.114 A 
ATOM     16  C27 JL5 d   1       7.330   2.862  -2.452  0.00  0.00     0.076 A 
ATOM     17 CL   JL5 d   1       7.285   4.027  -1.180  0.00  0.00    -0.081 Cl
ATOM     18  C24 JL5 d   1       6.705   3.082  -3.682  0.00  0.00    -0.026 A 
BRANCH  13  19
ATOM     19  N32 JL5 d   1       8.793  -0.487  -3.074  0.00  0.00    -0.375 N 
ATOM     20  C34 JL5 d   1       9.862  -0.853  -4.106  0.00  0.00     0.018 C 
ATOM     21  C35 JL5 d   1      10.627  -2.144  -3.703  0.00  0.00     0.098 C 
ATOM     22  H7  JL5 d   1       9.377  -1.014  -5.080  0.00  0.00     0.066 H 
ATOM     23  H8  JL5 d   1      10.579  -0.023  -4.186  0.00  0.00     0.066 H 
ATOM     24  N36 JL5 d   1       9.682  -3.137  -3.206  0.00  0.00    -0.072 N 
ATOM     25  H9  JL5 d   1      11.357  -1.906  -2.915  0.00  0.00     0.078 H 
ATOM     26  H10 JL5 d   1      11.153  -2.547  -4.581  0.00  0.00     0.078 H 
ATOM     27  C37 JL5 d   1       9.164  -2.668  -1.932  0.00  0.00     0.098 C 
ATOM     28  H11 JL5 d   1       8.927  -3.247  -3.865  0.00  0.00     0.279 HD
ATOM     29  C38 JL5 d   1       8.191  -1.538  -2.174  0.00  0.00     0.018 C 
ATOM     30  H15 JL5 d   1       9.995  -2.310  -1.307  0.00  0.00     0.078 H 
ATOM     31  H16 JL5 d   1       8.649  -3.493  -1.419  0.00  0.00     0.078 H 
ATOM     32  H17 JL5 d   1       7.928  -1.078  -1.210  0.00  0.00     0.066 H 
ATOM     33  H18 JL5 d   1       7.284  -1.940  -2.648  0.00  0.00     0.066 H 
BRANCH  24  34
ATOM     34  C39 JL5 d   1      10.353  -4.427  -3.010  0.00  0.00     0.066 C 
ATOM     35  H12 JL5 d   1       9.628  -5.164  -2.635  0.00  0.00     0.068 H 
ATOM     36  H13 JL5 d   1      11.167  -4.310  -2.280  0.00  0.00     0.068 H 
ATOM     37  H14 JL5 d   1      10.767  -4.774  -3.968  0.00  0.00     0.068 H 
ENDBRANCH  24  34
ENDBRANCH  13  19
BRANCH  15  38
ATOM     38  O30 JL5 d   1       8.598   1.606  -1.008  0.00  0.00    -0.357 OA
ATOM     39  H20 JL5 d   1       8.402   2.384  -0.499  0.00  0.00     0.218 HD
ENDBRANCH  15  38
BRANCH  18  40
ATOM     40  C29 JL5 d   1       5.947   4.376  -3.930  0.00  0.00    -0.049 C 
ATOM     41  H21 JL5 d   1       6.001   5.010  -3.033  0.00  0.00     0.033 H 
ATOM     42  H22 JL5 d   1       4.895   4.147  -4.155  0.00  0.00     0.033 H 
ATOM     43  H23 JL5 d   1       6.397   4.907  -4.782  0.00  0.00     0.033 H 
ENDBRANCH  18  40
ENDBRANCH   7  11
BRANCH   6  44
ATOM     44  C10 JL5 d   1       7.902   4.047  -6.636  0.00  0.00    -0.037 C 
ATOM     45  H5  JL5 d   1       8.671   3.479  -6.092  0.00  0.00     0.040 H 
ATOM     46  H6  JL5 d   1       7.598   4.918  -6.037  0.00  0.00     0.040 H 
BRANCH  44  47
ATOM     47  C22 JL5 d   1       8.454   4.510  -7.972  0.00  0.00    -0.072 C 
ATOM     48  H24 JL5 d   1       9.328   5.156  -7.803  0.00  0.00     0.028 H 
ATOM     49  H25 JL5 d   1       7.680   5.074  -8.513  0.00  0.00     0.028 H 
ATOM     50  H26 JL5 d   1       8.754   3.635  -8.568  0.00  0.00     0.028 H 
ENDBRANCH  44  47
ENDBRANCH   6  44
BRANCH   1  51
ATOM     51  O11 JL5 d   1       4.524   0.209  -4.642  0.00  0.00    -0.317 OA
BRANCH  51  52
ATOM     52  C12 JL5 d   1       3.676  -0.839  -4.116  0.00  0.00     0.134 C 
ATOM     53  H2  JL5 d   1       2.623  -0.576  -4.298  0.00  0.00     0.101 H 
BRANCH  52  54
ATOM     54  C13 JL5 d   1       3.913  -0.910  -2.631  0.00  0.00    -0.007 C 
ATOM     55  H3  JL5 d   1       4.993  -1.002  -2.445  0.00  0.00     0.044 H 
ATOM     56  H4  JL5 d   1       3.395  -1.793  -2.228  0.00  0.00     0.044 H 
BRANCH  54  57
ATOM     57  C17 JL5 d   1       3.387   0.349  -1.916  0.00  0.00    -0.055 A 
ATOM     58  C18 JL5 d   1       4.274   1.319  -1.517  0.00  0.00    -0.077 A 
ATOM     59  C21 JL5 d   1       3.796   2.432  -0.851  0.00  0.00    -0.082 A 
ATOM     60  H27 JL5 d   1       5.333   1.213  -1.721  0.00  0.00     0.084 H 
ATOM     61  C19 JL5 d   1       2.445   2.621  -0.621  0.00  0.00    -0.083 A 
ATOM     62  H28 JL5 d   1       4.500   3.178  -0.499  0.00  0.00     0.083 H 
ATOM     63  C20 JL5 d   1       1.535   1.661  -1.038  0.00  0.00    -0.082 A 
ATOM     64  H29 JL5 d   1       2.099   3.516  -0.117  0.00  0.00     0.083 H 
ATOM     65  C33 JL5 d   1       2.024   0.523  -1.667  0.00  0.00    -0.077 A 
ATOM     66  H30 JL5 d   1       0.471   1.795  -0.877  0.00  0.00     0.083 H 
ATOM     67  H31 JL5 d   1       1.329  -0.251  -1.973  0.00  0.00     0.084 H 
ENDBRANCH  54  57
ENDBRANCH  52  54
BRANCH  52  68
ATOM     68  C14 JL5 d   1       3.963  -2.183  -4.807  0.00  0.00     0.204 C 
ATOM     69  O16 JL5 d   1       4.997  -2.267  -5.428  0.00  0.00    -0.646 OA
ATOM     70  O15 JL5 d   1       3.167  -3.124  -4.787  0.00  0.00    -0.646 OA
ENDBRANCH  52  68
ENDBRANCH  51  52
ENDBRANCH   1  51
TORSDOF 12
