REMARK  8 active torsions:
REMARK  status: ('A' for Active; 'I' for Inactive)
REMARK    1  A    between atoms: N19_28  and  C4_3 
REMARK    2  A    between atoms: C8_5  and  C31_30 
REMARK    3  A    between atoms: C21_11  and  C22_10 
REMARK    4  A    between atoms: C20_20  and  C21_11 
REMARK    5  A    between atoms: C9_12  and  C10_18 
REMARK    6  A    between atoms: C20_20  and  C28_25 
REMARK    7  A    between atoms: C20_20  and  N19_28 
REMARK    8  A    between atoms: C31_30  and  C32_31 
ROOT
ATOM      1  C5  JLE d   1       6.394   1.854  -6.457  0.00  0.00     0.058 A 
ATOM      2  C6  JLE d   1       6.163   2.077  -7.814  0.00  0.00     0.114 A 
ATOM      3  C4  JLE d   1       5.616   0.854  -5.837  0.00  0.00     0.139 A 
ATOM      4  C2  JLE d   1       4.481   0.500  -7.837  0.00  0.00     0.090 A 
ATOM      5  C8  JLE d   1       7.897   3.474  -7.004  0.00  0.00    -0.004 A 
ATOM      6  N3  JLE d   1       5.201   1.418  -8.550  0.00  0.00    -0.234 NA
ATOM      7  C9  JLE d   1       7.447   2.665  -5.993  0.00  0.00     0.005 A 
ATOM      8  N1  JLE d   1       4.646   0.202  -6.569  0.00  0.00    -0.224 NA
ATOM      9  S7  JLE d   1       7.164   3.216  -8.476  0.00  0.00    -0.073 SA
ATOM     10  H1  JLE d   1       3.700  -0.032  -8.369  0.00  0.00     0.146 H 
ENDROOT
BRANCH   3  11
ATOM     11  N19 JLE d   1       5.705   0.534  -4.534  0.00  0.00    -0.359 N 
ATOM     12  H15 JLE d   1       6.309   1.106  -3.926  0.00  0.00     0.162 HD
BRANCH  11  13
ATOM     13  C20 JLE d   1       4.948  -0.643  -3.917  0.00  0.00     0.099 C 
ATOM     14  H10 JLE d   1       3.866  -0.474  -4.017  0.00  0.00     0.090 H 
BRANCH  13  15
ATOM     15  C21 JLE d   1       5.319  -0.725  -2.466  0.00  0.00    -0.013 C 
ATOM     16  H5  JLE d   1       4.891  -1.635  -2.022  0.00  0.00     0.043 H 
ATOM     17  H6  JLE d   1       6.414  -0.746  -2.361  0.00  0.00     0.043 H 
BRANCH  15  18
ATOM     18  C22 JLE d   1       4.743   0.532  -1.754  0.00  0.00    -0.056 A 
ATOM     19  C23 JLE d   1       5.619   1.559  -1.408  0.00  0.00    -0.077 A 
ATOM     20  C24 JLE d   1       5.052   2.708  -0.795  0.00  0.00    -0.082 A 
ATOM     21  H4  JLE d   1       6.684   1.484  -1.598  0.00  0.00     0.084 H 
ATOM     22  C25 JLE d   1       3.686   2.816  -0.591  0.00  0.00    -0.083 A 
ATOM     23  H3  JLE d   1       5.701   3.517  -0.480  0.00  0.00     0.083 H 
ATOM     24  C26 JLE d   1       2.800   1.801  -0.954  0.00  0.00    -0.082 A 
ATOM     25  H2  JLE d   1       3.293   3.717  -0.135  0.00  0.00     0.083 H 
ATOM     26  C27 JLE d   1       3.374   0.621  -1.506  0.00  0.00    -0.077 A 
ATOM     27  H13 JLE d   1       1.729   1.906  -0.822  0.00  0.00     0.083 H 
ATOM     28  H14 JLE d   1       2.735  -0.224  -1.738  0.00  0.00     0.084 H 
ENDBRANCH  15  18
ENDBRANCH  13  15
BRANCH  13  29
ATOM     29  C28 JLE d   1       5.332  -2.013  -4.629  0.00  0.00     0.197 C 
ATOM     30  O30 JLE d   1       6.451  -2.084  -5.137  0.00  0.00    -0.646 OA
ATOM     31  O29 JLE d   1       4.543  -2.987  -4.607  0.00  0.00    -0.646 OA
ENDBRANCH  13  29
ENDBRANCH  11  13
ENDBRANCH   3  11
BRANCH   7  32
ATOM     32  C10 JLE d   1       7.949   2.806  -4.606  0.00  0.00    -0.011 A 
ATOM     33  C13 JLE d   1       7.746   4.062  -4.018  0.00  0.00    -0.071 A 
ATOM     34  C12 JLE d   1       8.216   4.287  -2.724  0.00  0.00    -0.080 A 
ATOM     35  H9  JLE d   1       7.231   4.847  -4.561  0.00  0.00     0.084 H 
ATOM     36  C11 JLE d   1       8.860   3.271  -2.015  0.00  0.00    -0.056 A 
ATOM     37  H8  JLE d   1       8.080   5.259  -2.265  0.00  0.00     0.083 H 
ATOM     38  C14 JLE d   1       9.056   2.043  -2.597  0.00  0.00     0.043 A 
ATOM     39  H7  JLE d   1       9.206   3.452  -1.004  0.00  0.00     0.086 H 
ATOM     40  C15 JLE d   1       8.601   1.815  -3.894  0.00  0.00     0.003 A 
ATOM     41  N18 JLE d   1       9.567   0.921  -2.126  0.00  0.00    -0.365 N 
ATOM     42  C16 JLE d   1       8.934   0.533  -4.213  0.00  0.00    -0.055 A 
ATOM     43  C17 JLE d   1       9.536  -0.009  -3.085  0.00  0.00    -0.022 A 
ATOM     44  H12 JLE d   1       8.762   0.032  -5.165  0.00  0.00     0.087 H 
ATOM     45  H11 JLE d   1       9.919  -1.024  -2.997  0.00  0.00     0.111 H 
ATOM     46  H21 JLE d   1       9.931   0.784  -1.172  0.00  0.00     0.165 HD
ENDBRANCH   7  32
BRANCH   5  47
ATOM     47  C31 JLE d   1       9.017   4.510  -6.900  0.00  0.00    -0.037 C 
ATOM     48  H16 JLE d   1       9.604   4.326  -5.988  0.00  0.00     0.040 H 
ATOM     49  H17 JLE d   1       8.581   5.519  -6.858  0.00  0.00     0.040 H 
BRANCH  47  50
ATOM     50  C32 JLE d   1       9.890   4.404  -8.072  0.00  0.00    -0.072 C 
ATOM     51  H18 JLE d   1      10.696   5.149  -7.997  0.00  0.00     0.028 H 
ATOM     52  H19 JLE d   1       9.303   4.588  -8.984  0.00  0.00     0.028 H 
ATOM     53  H20 JLE d   1      10.326   3.395  -8.114  0.00  0.00     0.028 H 
ENDBRANCH  47  50
ENDBRANCH   5  47
TORSDOF 8
