REMARK  8 active torsions:
REMARK  status: ('A' for Active; 'I' for Inactive)
REMARK    1  A    between atoms: N19_28  and  C4_3 
REMARK    2  A    between atoms: C8_5  and  C31_30 
REMARK    3  A    between atoms: C21_11  and  C22_10 
REMARK    4  A    between atoms: C20_20  and  C21_11 
REMARK    5  A    between atoms: C9_12  and  C10_18 
REMARK    6  A    between atoms: C20_20  and  C28_25 
REMARK    7  A    between atoms: C20_20  and  N19_28 
REMARK    8  A    between atoms: C31_30  and  C32_31 
ROOT
ATOM      1  C5  JLE d   1     -13.556  11.770  -3.925  0.00  0.00     0.058 A 
ATOM      2  C6  JLE d   1     -13.497  12.820  -3.017  0.00  0.00     0.114 A 
ATOM      3  C4  JLE d   1     -14.696  11.662  -4.708  0.00  0.00     0.139 A 
ATOM      4  C2  JLE d   1     -15.556  13.549  -3.661  0.00  0.00     0.090 A 
ATOM      5  C8  JLE d   1     -11.508  11.473  -2.922  0.00  0.00    -0.004 A 
ATOM      6  N3  JLE d   1     -14.474  13.695  -2.899  0.00  0.00    -0.234 NA
ATOM      7  C9  JLE d   1     -12.391  11.020  -3.868  0.00  0.00     0.005 A 
ATOM      8  N1  JLE d   1     -15.674  12.553  -4.542  0.00  0.00    -0.224 NA
ATOM      9  S7  JLE d   1     -12.085  12.866  -2.113  0.00  0.00    -0.073 SA
ATOM     10  H1  JLE d   1     -16.367  14.262  -3.563  0.00  0.00     0.146 H 
ENDROOT
BRANCH   3  11
ATOM     11  N19 JLE d   1     -14.913  10.665  -5.649  0.00  0.00    -0.359 N 
ATOM     12  H15 JLE d   1     -14.400   9.776  -5.568  0.00  0.00     0.162 HD
BRANCH  11  13
ATOM     13  C20 JLE d   1     -15.868  10.852  -6.769  0.00  0.00     0.099 C 
ATOM     14  H10 JLE d   1     -16.840  10.422  -6.484  0.00  0.00     0.090 H 
BRANCH  13  15
ATOM     15  C21 JLE d   1     -15.294  10.145  -7.976  0.00  0.00    -0.013 C 
ATOM     16  H5  JLE d   1     -15.814  10.479  -8.886  0.00  0.00     0.043 H 
ATOM     17  H6  JLE d   1     -14.221  10.369  -8.064  0.00  0.00     0.043 H 
BRANCH  15  18
ATOM     18  C22 JLE d   1     -15.493   8.667  -7.788  0.00  0.00    -0.056 A 
ATOM     19  C23 JLE d   1     -14.378   7.832  -7.774  0.00  0.00    -0.077 A 
ATOM     20  C24 JLE d   1     -14.552   6.473  -7.584  0.00  0.00    -0.082 A 
ATOM     21  H4  JLE d   1     -13.384   8.243  -7.911  0.00  0.00     0.084 H 
ATOM     22  C25 JLE d   1     -15.833   5.966  -7.420  0.00  0.00    -0.083 A 
ATOM     23  H3  JLE d   1     -13.695   5.810  -7.563  0.00  0.00     0.083 H 
ATOM     24  C26 JLE d   1     -16.940   6.817  -7.448  0.00  0.00    -0.082 A 
ATOM     25  H2  JLE d   1     -15.976   4.902  -7.269  0.00  0.00     0.083 H 
ATOM     26  C27 JLE d   1     -16.785   8.181  -7.613  0.00  0.00    -0.077 A 
ATOM     27  H13 JLE d   1     -17.936   6.402  -7.339  0.00  0.00     0.083 H 
ATOM     28  H14 JLE d   1     -17.640   8.848  -7.606  0.00  0.00     0.084 H 
ENDBRANCH  15  18
ENDBRANCH  13  15
BRANCH  13  29
ATOM     29  C28 JLE d   1     -16.065  12.295  -7.226  0.00  0.00     0.197 C 
ATOM     30  O30 JLE d   1     -15.099  13.056  -7.348  0.00  0.00    -0.646 OA
ATOM     31  O29 JLE d   1     -17.207  12.684  -7.462  0.00  0.00    -0.646 OA
ENDBRANCH  13  29
ENDBRANCH  11  13
ENDBRANCH   3  11
BRANCH   7  32
ATOM     32  C10 JLE d   1     -12.081   9.802  -4.600  0.00  0.00    -0.011 A 
ATOM     33  C13 JLE d   1     -12.133   8.644  -3.835  0.00  0.00    -0.071 A 
ATOM     34  C12 JLE d   1     -11.865   7.409  -4.391  0.00  0.00    -0.080 A 
ATOM     35  H9  JLE d   1     -12.388   8.711  -2.784  0.00  0.00     0.084 H 
ATOM     36  C11 JLE d   1     -11.545   7.347  -5.739  0.00  0.00    -0.056 A 
ATOM     37  H8  JLE d   1     -11.904   6.509  -3.788  0.00  0.00     0.083 H 
ATOM     38  C14 JLE d   1     -11.500   8.504  -6.505  0.00  0.00     0.043 A 
ATOM     39  H7  JLE d   1     -11.329   6.389  -6.197  0.00  0.00     0.086 H 
ATOM     40  C15 JLE d   1     -11.767   9.744  -5.937  0.00  0.00     0.003 A 
ATOM     41  N18 JLE d   1     -11.213   8.675  -7.795  0.00  0.00    -0.365 N 
ATOM     42  C16 JLE d   1     -11.640  10.689  -6.923  0.00  0.00    -0.055 A 
ATOM     43  C17 JLE d   1     -11.289   9.985  -8.074  0.00  0.00    -0.022 A 
ATOM     44  H12 JLE d   1     -11.783  11.764  -6.827  0.00  0.00     0.087 H 
ATOM     45  H11 JLE d   1     -11.105  10.431  -9.050  0.00  0.00     0.111 H 
ATOM     46  H21 JLE d   1     -10.974   7.929  -8.464  0.00  0.00     0.165 HD
ENDBRANCH   7  32
BRANCH   5  47
ATOM     47  C31 JLE d   1     -10.193  10.811  -2.666  0.00  0.00    -0.037 C 
ATOM     48  H16 JLE d   1      -9.794  10.404  -3.607  0.00  0.00     0.040 H 
ATOM     49  H17 JLE d   1     -10.324   9.996  -1.939  0.00  0.00     0.040 H 
BRANCH  47  50
ATOM     50  C32 JLE d   1      -9.224  11.853  -2.103  0.00  0.00    -0.072 C 
ATOM     51  H18 JLE d   1      -8.250  11.381  -1.909  0.00  0.00     0.028 H 
ATOM     52  H19 JLE d   1      -9.628  12.260  -1.164  0.00  0.00     0.028 H 
ATOM     53  H20 JLE d   1      -9.098  12.668  -2.831  0.00  0.00     0.028 H 
ENDBRANCH  47  50
ENDBRANCH   5  47
TORSDOF 8
