REMARK  10 active torsions:
REMARK  status: ('A' for Active; 'I' for Inactive)
REMARK    1  A    between atoms: C6_1  and  C10_3 
REMARK    2  A    between atoms: C10_3  and  C22_21 
REMARK    3  A    between atoms: C13_4  and  C17_5 
REMARK    4  A    between atoms: C12_27  and  C13_4 
REMARK    5  A    between atoms: C7_20  and  C24_7 
REMARK    6  A    between atoms: C25_16  and  C30_15 
REMARK    7  A    between atoms: C26_18  and  O31_19 
REMARK    8  A    between atoms: O11_26  and  C4_25 
REMARK    9  A    between atoms: O11_26  and  C12_27 
REMARK   10  A    between atoms: C12_27  and  C14_28 
ROOT
ATOM      1  C6  JL8 d   1       5.886   2.913  -6.856  0.00  0.00    -0.004 A 
ATOM      2  C8  JL8 d   1       4.193   1.379  -6.433  0.00  0.00     0.065 A 
ATOM      3  C2  JL8 d   1       2.098   0.303  -7.760  0.00  0.00     0.090 A 
ATOM      4  C9  JL8 d   1       3.934   1.720  -7.745  0.00  0.00     0.114 A 
ATOM      5  C7  JL8 d   1       5.295   2.081  -5.914  0.00  0.00     0.005 A 
ATOM      6  S5  JL8 d   1       5.126   2.871  -8.360  0.00  0.00    -0.073 SA
ATOM      7  N3  JL8 d   1       2.907   1.182  -8.399  0.00  0.00    -0.234 NA
ATOM      8  N1  JL8 d   1       2.325  -0.076  -6.465  0.00  0.00    -0.217 NA
ATOM      9  C4  JL8 d   1       3.337   0.477  -5.812  0.00  0.00     0.180 A 
ATOM     10  H6  JL8 d   1       1.248  -0.111  -8.289  0.00  0.00     0.146 H 
ENDROOT
BRANCH   9  11
ATOM     11  O11 JL8 d   1       3.552   0.184  -4.521  0.00  0.00    -0.317 OA
BRANCH  11  12
ATOM     12  C12 JL8 d   1       2.671  -0.854  -4.013  0.00  0.00     0.134 C 
ATOM     13  H18 JL8 d   1       1.631  -0.604  -4.270  0.00  0.00     0.101 H 
BRANCH  12  14
ATOM     14  C13 JL8 d   1       2.821  -0.860  -2.548  0.00  0.00    -0.007 C 
ATOM     15  H3  JL8 d   1       2.224  -1.692  -2.147  0.00  0.00     0.044 H 
ATOM     16  H4  JL8 d   1       3.883  -1.024  -2.314  0.00  0.00     0.044 H 
BRANCH  14  17
ATOM     17  C17 JL8 d   1       2.385   0.392  -1.868  0.00  0.00    -0.055 A 
ATOM     18  C18 JL8 d   1       1.045   0.563  -1.616  0.00  0.00    -0.077 A 
ATOM     19  C21 JL8 d   1       0.654   1.737  -1.008  0.00  0.00    -0.082 A 
ATOM     20  H7  JL8 d   1       0.321  -0.198  -1.886  0.00  0.00     0.084 H 
ATOM     21  C19 JL8 d   1       1.583   2.662  -0.583  0.00  0.00    -0.083 A 
ATOM     22  H5  JL8 d   1      -0.402   1.936  -0.862  0.00  0.00     0.083 H 
ATOM     23  C20 JL8 d   1       2.921   2.495  -0.865  0.00  0.00    -0.082 A 
ATOM     24  H19 JL8 d   1       1.258   3.530  -0.021  0.00  0.00     0.083 H 
ATOM     25  C23 JL8 d   1       3.341   1.329  -1.483  0.00  0.00    -0.077 A 
ATOM     26  H20 JL8 d   1       3.637   3.267  -0.606  0.00  0.00     0.083 H 
ATOM     27  H8  JL8 d   1       4.394   1.149  -1.664  0.00  0.00     0.084 H 
ENDBRANCH  14  17
ENDBRANCH  12  14
BRANCH  12  28
ATOM     28  C14 JL8 d   1       3.005  -2.243  -4.626  0.00  0.00     0.204 C 
ATOM     29  O16 JL8 d   1       2.136  -3.116  -4.614  0.00  0.00    -0.646 OA
ATOM     30  O15 JL8 d   1       4.110  -2.425  -5.136  0.00  0.00    -0.646 OA
ENDBRANCH  12  28
ENDBRANCH  11  12
ENDBRANCH   9  11
BRANCH   5  31
ATOM     31  C24 JL8 d   1       5.880   2.026  -4.556  0.00  0.00    -0.016 A 
ATOM     32  C29 JL8 d   1       6.586   0.878  -4.179  0.00  0.00    -0.069 A 
ATOM     33  C27 JL8 d   1       7.167   0.788  -2.918  0.00  0.00    -0.048 A 
ATOM     34  H10 JL8 d   1       6.681   0.052  -4.875  0.00  0.00     0.085 H 
ATOM     35  C26 JL8 d   1       7.056   1.885  -2.054  0.00  0.00     0.087 A 
ATOM     36  H9  JL8 d   1       7.693  -0.109  -2.612  0.00  0.00     0.087 H 
ATOM     37  C28 JL8 d   1       6.372   3.052  -2.425  0.00  0.00     0.073 A 
ATOM     38  C25 JL8 d   1       5.781   3.110  -3.663  0.00  0.00    -0.026 A 
ATOM     39 CL   JL8 d   1       6.267   4.358  -1.288  0.00  0.00    -0.081 Cl
BRANCH  35  40
ATOM     40  O31 JL8 d   1       7.617   1.840  -0.823  0.00  0.00    -0.359 OA
ATOM     41  H14 JL8 d   1       8.554   1.709  -0.908  0.00  0.00     0.217 HD
ENDBRANCH  35  40
BRANCH  38  42
ATOM     42  C30 JL8 d   1       5.050   4.391  -4.018  0.00  0.00    -0.049 C 
ATOM     43  H11 JL8 d   1       4.627   4.303  -5.030  0.00  0.00     0.033 H 
ATOM     44  H12 JL8 d   1       5.754   5.236  -3.987  0.00  0.00     0.033 H 
ATOM     45  H13 JL8 d   1       4.239   4.563  -3.295  0.00  0.00     0.033 H 
ENDBRANCH  38  42
ENDBRANCH   5  31
BRANCH   1  46
ATOM     46  C10 JL8 d   1       7.109   3.792  -6.542  0.00  0.00    -0.037 C 
ATOM     47  H1  JL8 d   1       7.798   3.247  -5.880  0.00  0.00     0.040 H 
ATOM     48  H2  JL8 d   1       6.783   4.720  -6.049  0.00  0.00     0.040 H 
BRANCH  46  49
ATOM     49  C22 JL8 d   1       7.802   4.121  -7.836  0.00  0.00    -0.072 C 
ATOM     50  H15 JL8 d   1       8.681   4.750  -7.632  0.00  0.00     0.028 H 
ATOM     51  H16 JL8 d   1       7.109   4.663  -8.496  0.00  0.00     0.028 H 
ATOM     52  H17 JL8 d   1       8.123   3.191  -8.327  0.00  0.00     0.028 H 
ENDBRANCH  46  49
ENDBRANCH   1  46
TORSDOF 10
