REMARK  9 active torsions:
REMARK  status: ('A' for Active; 'I' for Inactive)
REMARK    1  A    between atoms: N10_1  and  C11_2 
REMARK    2  A    between atoms: C4_26  and  N10_1 
REMARK    3  A    between atoms: C11_2  and  C13_3 
REMARK    4  A    between atoms: C11_2  and  C12_29 
REMARK    5  A    between atoms: C9_16  and  C18_4 
REMARK    6  A    between atoms: C23_9  and  C24_10 
REMARK    7  A    between atoms: C12_29  and  C25_11 
REMARK    8  A    between atoms: C8_18  and  C16_19 
REMARK    9  A    between atoms: C16_19  and  C17_20 
ROOT
ATOM      1  C9  JLK d   1      -7.430   2.579   6.007  0.00  0.00     0.005 A 
ATOM      2  C5  JLK d   1      -6.360   1.742   6.440  0.00  0.00     0.058 A 
ATOM      3  C8  JLK d   1      -7.901   3.349   7.047  0.00  0.00    -0.004 A 
ATOM      4  S7  JLK d   1      -7.054   3.131   8.508  0.00  0.00    -0.073 SA
ATOM      5  C6  JLK d   1      -6.074   1.964   7.782  0.00  0.00     0.114 A 
ATOM      6  N3  JLK d   1      -5.040   1.347   8.419  0.00  0.00    -0.234 NA
ATOM      7  C2  JLK d   1      -4.286   0.476   7.751  0.00  0.00     0.090 A 
ATOM      8  N1  JLK d   1      -4.516   0.174   6.477  0.00  0.00    -0.224 NA
ATOM      9  C4  JLK d   1      -5.507   0.817   5.793  0.00  0.00     0.139 A 
ATOM     10  H19 JLK d   1      -3.458  -0.002   8.262  0.00  0.00     0.146 H 
ENDROOT
BRANCH   9  11
ATOM     11  N10 JLK d   1      -5.675   0.511   4.511  0.00  0.00    -0.359 N 
ATOM     12  H1  JLK d   1      -6.312   1.070   3.925  0.00  0.00     0.162 HD
BRANCH  11  13
ATOM     13  C11 JLK d   1      -4.942  -0.638   3.928  0.00  0.00     0.099 C 
ATOM     14  H2  JLK d   1      -3.865  -0.431   4.015  0.00  0.00     0.090 H 
BRANCH  13  15
ATOM     15  C13 JLK d   1      -5.230  -1.993   4.654  0.00  0.00     0.197 C 
ATOM     16  O15 JLK d   1      -6.332  -2.125   5.208  0.00  0.00    -0.646 OA
ATOM     17  O14 JLK d   1      -4.406  -2.933   4.527  0.00  0.00    -0.646 OA
ENDBRANCH  13  15
BRANCH  13  18
ATOM     18  C12 JLK d   1      -5.294  -0.767   2.463  0.00  0.00    -0.013 C 
ATOM     19  H20 JLK d   1      -6.384  -0.851   2.339  0.00  0.00     0.043 H 
ATOM     20  H21 JLK d   1      -4.807  -1.653   2.031  0.00  0.00     0.043 H 
BRANCH  18  21
ATOM     21  C25 JLK d   1      -4.779   0.505   1.785  0.00  0.00    -0.056 A 
ATOM     22  C30 JLK d   1      -5.627   1.535   1.397  0.00  0.00    -0.077 A 
ATOM     23  C29 JLK d   1      -5.112   2.697   0.779  0.00  0.00    -0.082 A 
ATOM     24  H13 JLK d   1      -6.694   1.446   1.570  0.00  0.00     0.084 H 
ATOM     25  C28 JLK d   1      -3.749   2.837   0.574  0.00  0.00    -0.083 A 
ATOM     26  H12 JLK d   1      -5.788   3.484   0.463  0.00  0.00     0.083 H 
ATOM     27  C27 JLK d   1      -2.908   1.796   0.976  0.00  0.00    -0.082 A 
ATOM     28  H11 JLK d   1      -3.345   3.731   0.113  0.00  0.00     0.083 H 
ATOM     29  C26 JLK d   1      -3.423   0.650   1.573  0.00  0.00    -0.077 A 
ATOM     30  H10 JLK d   1      -1.839   1.883   0.820  0.00  0.00     0.083 H 
ATOM     31  H22 JLK d   1      -2.748  -0.142   1.877  0.00  0.00     0.084 H 
ENDBRANCH  18  21
ENDBRANCH  13  18
ENDBRANCH  11  13
ENDBRANCH   9  11
BRANCH   1  32
ATOM     32  C18 JLK d   1      -8.020   2.572   4.651  0.00  0.00    -0.018 A 
ATOM     33  C21 JLK d   1      -8.759   1.457   4.209  0.00  0.00    -0.072 A 
ATOM     34  C20 JLK d   1      -9.326   1.384   2.945  0.00  0.00    -0.082 A 
ATOM     35  H5  JLK d   1      -8.890   0.620   4.886  0.00  0.00     0.084 H 
ATOM     36  C19 JLK d   1      -9.179   2.485   2.102  0.00  0.00    -0.082 A 
ATOM     37  H4  JLK d   1      -9.865   0.500   2.623  0.00  0.00     0.083 H 
ATOM     38  C22 JLK d   1      -8.446   3.614   2.508  0.00  0.00    -0.076 A 
ATOM     39  H3  JLK d   1      -9.636   2.470   1.119  0.00  0.00     0.083 H 
ATOM     40  C23 JLK d   1      -7.855   3.653   3.777  0.00  0.00    -0.051 A 
ATOM     41  H6  JLK d   1      -8.338   4.458   1.836  0.00  0.00     0.084 H 
BRANCH  40  42
ATOM     42  C24 JLK d   1      -7.077   4.846   4.201  0.00  0.00    -0.050 C 
ATOM     43  H7  JLK d   1      -6.694   4.691   5.220  0.00  0.00     0.033 H 
ATOM     44  H8  JLK d   1      -7.728   5.733   4.185  0.00  0.00     0.033 H 
ATOM     45  H9  JLK d   1      -6.233   4.998   3.512  0.00  0.00     0.033 H 
ENDBRANCH  40  42
ENDBRANCH   1  32
BRANCH   3  46
ATOM     46  C16 JLK d   1      -9.056   4.324   6.944  0.00  0.00    -0.037 C 
ATOM     47  H14 JLK d   1      -9.681   4.023   6.091  0.00  0.00     0.040 H 
ATOM     48  H15 JLK d   1      -8.641   5.326   6.759  0.00  0.00     0.040 H 
BRANCH  46  49
ATOM     49  C17 JLK d   1      -9.929   4.400   8.154  0.00  0.00    -0.072 C 
ATOM     50  H16 JLK d   1     -10.733   5.131   7.981  0.00  0.00     0.028 H 
ATOM     51  H17 JLK d   1      -9.328   4.714   9.020  0.00  0.00     0.028 H 
ATOM     52  H18 JLK d   1     -10.369   3.411   8.352  0.00  0.00     0.028 H 
ENDBRANCH  46  49
ENDBRANCH   3  46
TORSDOF 9
