REMARK  15 active torsions:
REMARK  status: ('A' for Active; 'I' for Inactive)
REMARK       I    between atoms: C1_15  and  N1_1 
REMARK    1  A    between atoms: N1_1  and  C2_22 
REMARK    2  A    between atoms: N1_1  and  C3_23 
REMARK    3  A    between atoms: C4_3  and  C1_15 
REMARK    4  A    between atoms: C6_5  and  C10_8 
REMARK    5  A    between atoms: C7_6  and  O2_29 
REMARK    6  A    between atoms: N2_25  and  C8_7 
REMARK    7  A    between atoms: C13_9  and  C15_10 
REMARK    8  A    between atoms: C13_9  and  C14_18 
REMARK    9  A    between atoms: N5_27  and  C13_9 
REMARK   10  A    between atoms: C14_18  and  C17_11 
REMARK   11  A    between atoms: C21_13  and  C22_14 
REMARK   12  A    between atoms: C11_16  and  N2_25 
REMARK   13  A    between atoms: C12_17  and  N5_27 
REMARK   14  A    between atoms: C14_18  and  C16_19 
REMARK   15  A    between atoms: C14_18  and  C18_20 
ROOT
ATOM      1  N3  JLW d   1     -19.471 -17.355 -17.193  0.00  0.00    -0.122 NA
ATOM      2  C11 JLW d   1     -18.427 -18.138 -17.090  0.00  0.00     0.189 A 
ATOM      3  C12 JLW d   1     -18.678 -19.500 -16.696  0.00  0.00     0.185 A 
ATOM      4  N4  JLW d   1     -19.948 -19.755 -16.497  0.00  0.00    -0.122 NA
ATOM      5  O3  JLW d   1     -21.378 -17.854 -15.599  0.00  0.00    -0.178 OA
ATOM      6  O4  JLW d   1     -21.613 -18.488 -17.936  0.00  0.00    -0.178 OA
ATOM      7  S1  JLW d   1     -20.764 -18.328 -16.799  0.00  0.00     0.368 S 
ENDROOT
BRANCH   3   8
ATOM      8  N5  JLW d   1     -17.746 -20.466 -16.530  0.00  0.00    -0.360 N 
ATOM      9  H28 JLW d   1     -16.756 -20.290 -16.755  0.00  0.00     0.162 HD
BRANCH   8  10
ATOM     10  C13 JLW d   1     -18.178 -21.758 -16.026  0.00  0.00     0.064 C 
ATOM     11  H5  JLW d   1     -19.264 -21.698 -15.864  0.00  0.00     0.084 H 
BRANCH  10  12
ATOM     12  C15 JLW d   1     -17.948 -22.803 -17.058  0.00  0.00     0.076 A 
ATOM     13  C19 JLW d   1     -18.749 -23.693 -17.670  0.00  0.00    -0.050 A 
ATOM     14  C20 JLW d   1     -17.938 -24.439 -18.563  0.00  0.00    -0.052 A 
ATOM     15  H19 JLW d   1     -19.819 -23.817 -17.510  0.00  0.00     0.087 H 
ATOM     16  C21 JLW d   1     -16.687 -23.964 -18.450  0.00  0.00     0.049 A 
ATOM     17  H9  JLW d   1     -18.268 -25.245 -19.217  0.00  0.00     0.087 H 
ATOM     18  O5  JLW d   1     -16.664 -22.950 -17.526  0.00  0.00    -0.318 OA
BRANCH  16  19
ATOM     19  C22 JLW d   1     -15.389 -24.299 -19.090  0.00  0.00    -0.031 C 
ATOM     20  H10 JLW d   1     -14.603 -23.642 -18.691  0.00  0.00     0.036 H 
ATOM     21  H11 JLW d   1     -15.469 -24.156 -20.178  0.00  0.00     0.036 H 
ATOM     22  H12 JLW d   1     -15.134 -25.347 -18.875  0.00  0.00     0.036 H 
ENDBRANCH  16  19
ENDBRANCH  10  12
BRANCH  10  23
ATOM     23  C14 JLW d   1     -17.542 -22.099 -14.645  0.00  0.00    -0.025 C 
BRANCH  23  24
ATOM     24  C17 JLW d   1     -16.042 -21.804 -14.654  0.00  0.00    -0.067 C 
ATOM     25  H6  JLW d   1     -15.614 -22.051 -13.671  0.00  0.00     0.028 H 
ATOM     26  H7  JLW d   1     -15.879 -20.737 -14.867  0.00  0.00     0.028 H 
ATOM     27  H8  JLW d   1     -15.553 -22.411 -15.430  0.00  0.00     0.028 H 
ENDBRANCH  23  24
BRANCH  23  28
ATOM     28  C16 JLW d   1     -17.752 -23.580 -14.329  0.00  0.00    -0.067 C 
ATOM     29  H13 JLW d   1     -18.829 -23.804 -14.320  0.00  0.00     0.028 H 
ATOM     30  H14 JLW d   1     -17.322 -23.809 -13.343  0.00  0.00     0.028 H 
ATOM     31  H15 JLW d   1     -17.257 -24.193 -15.097  0.00  0.00     0.028 H 
ENDBRANCH  23  28
BRANCH  23  32
ATOM     32  C18 JLW d   1     -18.200 -21.266 -13.544  0.00  0.00    -0.067 C 
ATOM     33  H16 JLW d   1     -18.057 -20.197 -13.758  0.00  0.00     0.028 H 
ATOM     34  H17 JLW d   1     -17.741 -21.511 -12.575  0.00  0.00     0.028 H 
ATOM     35  H18 JLW d   1     -19.276 -21.492 -13.507  0.00  0.00     0.028 H 
ENDBRANCH  23  32
ENDBRANCH  10  23
ENDBRANCH   8  10
ENDBRANCH   3   8
BRANCH   2  36
ATOM     36  N2  JLW d   1     -17.144 -17.732 -17.331  0.00  0.00    -0.335 N 
ATOM     37  H27 JLW d   1     -16.403 -18.438 -17.212  0.00  0.00     0.168 HD
BRANCH  36  38
ATOM     38  C8  JLW d   1     -16.734 -16.437 -17.728  0.00  0.00     0.068 A 
ATOM     39  C7  JLW d   1     -15.824 -16.280 -18.786  0.00  0.00     0.108 A 
ATOM     40  C4  JLW d   1     -15.420 -15.007 -19.235  0.00  0.00     0.073 A 
ATOM     41  C6  JLW d   1     -15.943 -13.867 -18.602  0.00  0.00    -0.043 A 
ATOM     42  C5  JLW d   1     -16.836 -14.043 -17.548  0.00  0.00    -0.074 A 
ATOM     43  C9  JLW d   1     -17.229 -15.294 -17.111  0.00  0.00    -0.054 A 
ATOM     44  H1  JLW d   1     -17.238 -13.167 -17.052  0.00  0.00     0.084 H 
ATOM     45  H26 JLW d   1     -17.925 -15.384 -16.285  0.00  0.00     0.087 H 
BRANCH  39  46
ATOM     46  O2  JLW d   1     -15.326 -17.398 -19.374  0.00  0.00    -0.357 OA
ATOM     47  H29 JLW d   1     -16.040 -17.908 -19.737  0.00  0.00     0.217 HD
ENDBRANCH  39  46
BRANCH  40  48
ATOM     48  C1  JLW d   1     -14.089 -14.908 -19.939  0.00  0.00     0.256 C 
ATOM     49  N1  JLW d   1     -14.065 -14.845 -21.278  0.00  0.00    -0.357 N 
ATOM     50  O1  JLW d   1     -13.076 -14.888 -19.265  0.00  0.00    -0.267 OA
BRANCH  49  51
ATOM     51  C2  JLW d   1     -15.274 -14.876 -22.094  0.00  0.00    -0.016 C 
ATOM     52  H20 JLW d   1     -15.000 -14.812 -23.157  0.00  0.00     0.056 H 
ATOM     53  H21 JLW d   1     -15.917 -14.024 -21.829  0.00  0.00     0.056 H 
ATOM     54  H22 JLW d   1     -15.816 -15.816 -21.911  0.00  0.00     0.056 H 
ENDBRANCH  49  51
BRANCH  49  55
ATOM     55  C3  JLW d   1     -12.811 -14.729 -22.015  0.00  0.00    -0.016 C 
ATOM     56  H23 JLW d   1     -11.970 -14.715 -21.307  0.00  0.00     0.056 H 
ATOM     57  H24 JLW d   1     -12.814 -13.797 -22.599  0.00  0.00     0.056 H 
ATOM     58  H25 JLW d   1     -12.704 -15.588 -22.694  0.00  0.00     0.056 H 
ENDBRANCH  49  55
ENDBRANCH  40  48
BRANCH  41  59
ATOM     59  C10 JLW d   1     -15.569 -12.474 -19.039  0.00  0.00    -0.050 C 
ATOM     60  H2  JLW d   1     -14.859 -12.531 -19.877  0.00  0.00     0.033 H 
ATOM     61  H3  JLW d   1     -15.102 -11.939 -18.199  0.00  0.00     0.033 H 
ATOM     62  H4  JLW d   1     -16.473 -11.935 -19.360  0.00  0.00     0.033 H 
ENDBRANCH  41  59
ENDBRANCH  36  38
ENDBRANCH   2  36
TORSDOF 15
