REMARK WARNING: 32 MAX_TORS EXCEEDED!!!
REMARK  35 active torsions:
REMARK  status: ('A' for Active; 'I' for Inactive)
REMARK    1  A    between atoms: N_1  and  CA_2 
REMARK    2  A    between atoms: CA_2  and  C_3 
REMARK    3  A    between atoms: CA_2  and  CB_5 
REMARK       I    between atoms: C_3  and  N_12 
REMARK    4  A    between atoms: CB_5  and  CG_6 
REMARK    5  A    between atoms: CG_6  and  CD_7 
REMARK    6  A    between atoms: CD_7  and  NE_8 
REMARK       I    between atoms: NE_8  and  CZ_9 
REMARK       I    between atoms: CZ_9  and  NH1_10 
REMARK    7  A    between atoms: N_12  and  CA_13 
REMARK    8  A    between atoms: CA_13  and  C_14 
REMARK    9  A    between atoms: CA_13  and  CB_16 
REMARK       I    between atoms: C_14  and  N_18 
REMARK   10  A    between atoms: CB_16  and  OG_17 
REMARK   11  A    between atoms: N_18  and  CA_19 
REMARK   12  A    between atoms: CA_19  and  C_20 
REMARK   13  A    between atoms: CA_19  and  CB_22 
REMARK       I    between atoms: C_20  and  N_24 
REMARK   14  A    between atoms: CB_22  and  SG_23 
REMARK   15  A    between atoms: N_24  and  CA_25 
REMARK   16  A    between atoms: CA_25  and  CB_26 
REMARK   17  A    between atoms: CA_25  and  C_33 
REMARK   18  A    between atoms: CB_26  and  CG2_27 
REMARK   19  A    between atoms: CB_26  and  OG1_28 
REMARK   20  A    between atoms: OG1_28  and  P_29 
REMARK       I    between atoms: C_33  and  N_35 
REMARK   21  A    between atoms: N_35  and  CA_36 
REMARK   22  A    between atoms: CA_36  and  C_37 
REMARK   23  A    between atoms: CA_36  and  CB_39 
REMARK       I    between atoms: C_37  and  N_49 
REMARK   24  A    between atoms: CB_39  and  CG_40 
REMARK   25  A    between atoms: CA_50  and  C_51 
REMARK       I    between atoms: C_51  and  N_56 
REMARK   26  A    between atoms: N_56  and  CA_57 
REMARK   27  A    between atoms: CA_57  and  C_58 
REMARK   28  A    between atoms: CA_57  and  CB_60 
REMARK       I    between atoms: C_58  and  N_64 
REMARK   29  A    between atoms: CB_60  and  CG_61 
REMARK   30  A    between atoms: CG_61  and  CD1_62 
REMARK   31  A    between atoms: CG_61  and  CD2_63 
REMARK   32  A    between atoms: CA_65  and  C_66 
REMARK       I    between atoms: C_66  and  N_71 
REMARK   33  A    between atoms: N_71  and  CA_72 
REMARK   34  A    between atoms: CA_72  and  C_73 
REMARK   35  A    between atoms: CA_72  and  CB_75 
ROOT
ATOM      1  CA  ARG d   1      38.525   0.690  51.490  0.00  0.00     0.093 C 
ATOM      2  H33 ARG d   1      39.367   1.218  51.020  0.00  0.00     0.088 H 
ENDROOT
BRANCH   1   3
ATOM      3  N   ARG d   1      38.882  -0.712  51.651  0.00  0.00    -0.346 N 
ATOM      4  C   ARG d   1      40.005  -1.193  51.103  0.00  0.00     0.243 C 
ATOM      5  O   ARG d   1      40.781  -0.491  50.478  0.00  0.00    -0.271 OA
ATOM      6  H32 ARG d   1      38.285  -1.320  52.174  0.00  0.00     0.163 HD
BRANCH   4   7
ATOM      7  CA  ARG d   1      40.263  -2.694  51.242  0.00  0.00     0.114 C 
ATOM      8  H27 ARG d   1      39.329  -3.230  51.019  0.00  0.00     0.091 H 
BRANCH   7   9
ATOM      9  N   ARG d   1      41.277  -3.139  50.293  0.00  0.00    -0.344 N 
ATOM     10  C   ARG d   1      41.081  -4.146  49.437  0.00  0.00     0.242 C 
ATOM     11  O   ARG d   1      40.041  -4.770  49.364  0.00  0.00    -0.271 OA
ATOM     12  H26 ARG d   1      42.160  -2.669  50.282  0.00  0.00     0.163 HD
BRANCH  10  13
ATOM     13  CA  ARG d   1      42.223  -4.469  48.491  0.00  0.00     0.097 C 
ATOM     14  H22 ARG d   1      43.173  -4.159  48.950  0.00  0.00     0.088 H 
BRANCH  13  15
ATOM     15  N   ARG d   1      42.294  -5.912  48.207  0.00  0.00    -0.345 N 
ATOM     16  C   ARG d   1      42.922  -6.776  49.009  0.00  0.00     0.243 C 
ATOM     17  O   ARG d   1      43.374  -6.456  50.108  0.00  0.00    -0.271 OA
ATOM     18  H21 ARG d   1      41.854  -6.260  47.379  0.00  0.00     0.163 HD
BRANCH  16  19
ATOM     19  CA  ARG d   1      43.057  -8.225  48.522  0.00  0.00     0.109 C 
ATOM     20  H17 ARG d   1      42.986  -8.232  47.424  0.00  0.00     0.090 H 
BRANCH  19  21
ATOM     21  N   ARG d   1      44.400  -8.749  48.904  0.00  0.00    -0.344 N 
ATOM     22  C   ARG d   1      45.543  -8.229  48.423  0.00  0.00     0.249 C 
ATOM     23  O   ARG d   1      45.558  -7.321  47.626  0.00  0.00    -0.271 OA
ATOM     24  H16 ARG d   1      44.453  -9.517  49.543  0.00  0.00     0.163 HD
BRANCH  22  25
ATOM     25  CA  ARG d   1      46.885  -8.819  48.892  0.00  0.00     0.176 C 
ATOM     26  H4  ARG d   1      47.007  -8.597  49.962  0.00  0.00     0.099 H 
BRANCH  25  27
ATOM     27  N   ARG d   1      46.901 -10.302  48.704  0.00  0.00    -0.067 N 
ATOM     28  H1  ARG d   1      47.786 -10.671  49.016  0.00  0.00     0.275 HD
ATOM     29  H2  ARG d   1      46.772 -10.518  47.728  0.00  0.00     0.275 HD
ATOM     30  H3  ARG d   1      46.156 -10.717  49.241  0.00  0.00     0.275 HD
ENDBRANCH  25  27
BRANCH  25  31
ATOM     31  CB  ARG d   1      48.062  -8.194  48.123  0.00  0.00    -0.029 C 
ATOM     32  H5  ARG d   1      48.987  -8.691  48.451  0.00  0.00     0.036 H 
ATOM     33  H6  ARG d   1      48.109  -7.125  48.379  0.00  0.00     0.036 H 
BRANCH  31  34
ATOM     34  CG  ARG d   1      47.972  -8.314  46.605  0.00  0.00    -0.047 C 
ATOM     35  H7  ARG d   1      47.445  -7.428  46.222  0.00  0.00     0.035 H 
ATOM     36  H8  ARG d   1      47.391  -9.217  46.367  0.00  0.00     0.035 H 
BRANCH  34  37
ATOM     37  CD  ARG d   1      49.313  -8.412  45.895  0.00  0.00     0.009 C 
ATOM     38  H9  ARG d   1      49.939  -7.561  46.203  0.00  0.00     0.064 H 
ATOM     39  H10 ARG d   1      49.142  -8.368  44.809  0.00  0.00     0.064 H 
BRANCH  37  40
ATOM     40  NE  ARG d   1      50.019  -9.650  46.208  0.00  0.00    -0.227 N 
ATOM     41  CZ  ARG d   1      49.654 -10.863  45.799  0.00  0.00     0.665 C 
ATOM     42  NH1 ARG d   1      50.332 -11.926  46.196  0.00  0.00    -0.235 N 
ATOM     43  NH2 ARG d   1      48.610 -11.015  45.005  0.00  0.00    -0.235 N 
ATOM     44  H12 ARG d   1      50.050 -12.865  45.880  0.00  0.00     0.174 HD
ATOM     45  H13 ARG d   1      51.143 -11.816  46.822  0.00  0.00     0.174 HD
ATOM     46  H14 ARG d   1      48.077 -10.191  44.692  0.00  0.00     0.174 HD
ATOM     47  H15 ARG d   1      48.329 -11.957  44.699  0.00  0.00     0.174 HD
ATOM     48  H11 ARG d   1      50.865  -9.580  46.791  0.00  0.00     0.177 HD
ENDBRANCH  37  40
ENDBRANCH  34  37
ENDBRANCH  31  34
ENDBRANCH  25  31
ENDBRANCH  22  25
ENDBRANCH  19  21
BRANCH  19  49
ATOM     49  CB  ARG d   1      41.935  -9.075  49.063  0.00  0.00     0.044 C 
ATOM     50  H18 ARG d   1      41.233  -9.300  48.246  0.00  0.00     0.077 H 
ATOM     51  H19 ARG d   1      41.412  -8.514  49.852  0.00  0.00     0.077 H 
BRANCH  49  52
ATOM     52  OG  ARG d   1      42.416 -10.307  49.612  0.00  0.00    -0.398 OA
ATOM     53  H20 ARG d   1      43.019 -10.122  50.322  0.00  0.00     0.209 HD
ENDBRANCH  49  52
ENDBRANCH  19  49
ENDBRANCH  16  19
ENDBRANCH  13  15
BRANCH  13  54
ATOM     54  CB  ARG d   1      41.993  -3.662  47.223  0.00  0.00     0.001 C 
ATOM     55  H23 ARG d   1      41.663  -2.651  47.503  0.00  0.00     0.052 H 
ATOM     56  H24 ARG d   1      41.207  -4.153  46.630  0.00  0.00     0.052 H 
BRANCH  54  57
ATOM     57  SG  ARG d   1      43.486  -3.526  46.209  0.00  0.00    -0.180 SA
ATOM     58  H25 ARG d   1      44.211  -3.071  46.740  0.00  0.00     0.101 HD
ENDBRANCH  54  57
ENDBRANCH  13  54
ENDBRANCH  10  13
ENDBRANCH   7   9
BRANCH   7  59
ATOM     59  CB  ARG d   1      40.674  -3.014  52.703  0.00  0.00     0.076 C 
ATOM     60  H28 ARG d   1      39.990  -2.516  53.406  0.00  0.00     0.087 H 
BRANCH  59  61
ATOM     61  CG2 ARG d   1      40.526  -4.507  52.858  0.00  0.00    -0.049 C 
ATOM     62  H29 ARG d   1      40.805  -4.799  53.881  0.00  0.00     0.031 H 
ATOM     63  H30 ARG d   1      41.184  -5.017  52.139  0.00  0.00     0.031 H 
ATOM     64  H31 ARG d   1      39.481  -4.794  52.667  0.00  0.00     0.031 H 
ENDBRANCH  59  61
BRANCH  59  65
ATOM     65  OG1 ARG d   1      42.008  -2.500  52.928  0.00  0.00    -0.275 OA
BRANCH  65  66
ATOM     66  P   ARG d   1      42.556  -2.609  54.436  0.00  0.00     0.422 P 
ATOM     67  O1P ARG d   1      43.744  -1.694  54.456  0.00  0.00    -0.617 OA
ATOM     68  O2P ARG d   1      42.980  -4.028  54.773  0.00  0.00    -0.617 OA
ATOM     69  O3P ARG d   1      41.440  -2.197  55.382  0.00  0.00    -0.617 OA
ENDBRANCH  65  66
ENDBRANCH  59  65
ENDBRANCH   7  59
ENDBRANCH   4   7
ENDBRANCH   1   3
BRANCH   1  70
ATOM     70  C   ARG d   1      38.258   1.308  52.852  0.00  0.00     0.243 C 
ATOM     71  O   ARG d   1      37.466   0.759  53.609  0.00  0.00    -0.271 OA
ATOM     72  N   ARG d   1      38.839   2.474  53.133  0.00  0.00    -0.337 N 
ATOM     73  CA  ARG d   1      39.523   3.321  52.172  0.00  0.00     0.091 C 
ATOM     74  CD  ARG d   1      38.437   3.243  54.320  0.00  0.00    -0.001 C 
ATOM     75  CB  ARG d   1      39.495   4.751  52.757  0.00  0.00    -0.036 C 
ATOM     76  H42 ARG d   1      38.996   3.305  51.207  0.00  0.00     0.087 H 
ATOM     77  CG  ARG d   1      39.185   4.563  54.228  0.00  0.00    -0.048 C 
ATOM     78  H43 ARG d   1      38.714   5.353  52.270  0.00  0.00     0.036 H 
ATOM     79  H44 ARG d   1      40.471   5.242  52.627  0.00  0.00     0.036 H 
ATOM     80  H45 ARG d   1      38.557   5.387  54.597  0.00  0.00     0.035 H 
ATOM     81  H46 ARG d   1      40.115   4.520  54.814  0.00  0.00     0.035 H 
ATOM     82  H47 ARG d   1      38.718   2.706  55.238  0.00  0.00     0.064 H 
ATOM     83  H48 ARG d   1      37.351   3.417  54.315  0.00  0.00     0.064 H 
BRANCH  73  84
ATOM     84  C   ARG d   1      40.954   2.809  51.971  0.00  0.00     0.241 C 
ATOM     85  O   ARG d   1      41.457   2.050  52.815  0.00  0.00    -0.271 OA
ATOM     86  N   ARG d   1      41.557   3.204  50.840  0.00  0.00    -0.346 N 
ATOM     87  H49 ARG d   1      41.031   3.762  50.198  0.00  0.00     0.163 HD
BRANCH  86  88
ATOM     88  CA  ARG d   1      42.951   2.865  50.484  0.00  0.00     0.090 C 
ATOM     89  H50 ARG d   1      43.169   1.829  50.784  0.00  0.00     0.087 H 
BRANCH  88  90
ATOM     90  C   ARG d   1      43.871   3.813  51.250  0.00  0.00     0.243 C 
ATOM     91  O   ARG d   1      43.395   4.755  51.877  0.00  0.00    -0.271 OA
ATOM     92  N   ARG d   1      45.195   3.562  51.292  0.00  0.00    -0.337 N 
ATOM     93  CA  ARG d   1      46.156   4.523  51.848  0.00  0.00     0.091 C 
ATOM     94  CD  ARG d   1      45.841   2.309  50.883  0.00  0.00    -0.001 C 
ATOM     95  CB  ARG d   1      47.289   3.616  52.386  0.00  0.00    -0.036 C 
ATOM     96  H60 ARG d   1      45.692   5.078  52.677  0.00  0.00     0.087 H 
ATOM     97  CG  ARG d   1      47.039   2.214  51.810  0.00  0.00    -0.048 C 
ATOM     98  H61 ARG d   1      47.261   3.585  53.485  0.00  0.00     0.036 H 
ATOM     99  H62 ARG d   1      48.267   3.994  52.054  0.00  0.00     0.036 H 
ATOM    100  H63 ARG d   1      46.828   1.505  52.624  0.00  0.00     0.035 H 
ATOM    101  H64 ARG d   1      47.922   1.875  51.249  0.00  0.00     0.035 H 
ATOM    102  H65 ARG d   1      46.160   2.355  49.831  0.00  0.00     0.064 H 
ATOM    103  H66 ARG d   1      45.165   1.453  51.024  0.00  0.00     0.064 H 
BRANCH  93 104
ATOM    104  C   ARG d   1      46.668   5.551  50.811  0.00  0.00     0.241 C 
ATOM    105  O   ARG d   1      46.055   5.709  49.753  0.00  0.00    -0.271 OA
ATOM    106  N   ARG d   1      47.762   6.263  51.145  0.00  0.00    -0.345 N 
ATOM    107  H67 ARG d   1      48.111   6.151  52.075  0.00  0.00     0.163 HD
BRANCH 106 108
ATOM    108  CA  ARG d   1      48.500   7.205  50.249  0.00  0.00     0.093 C 
ATOM    109  H68 ARG d   1      49.526   7.309  50.633  0.00  0.00     0.089 H 
BRANCH 108 110
ATOM    110  C   ARG d   1      47.827   8.584  50.281  0.00  0.00     0.196 C 
ATOM    111  O   ARG d   1      47.539   9.114  51.353  0.00  0.00    -0.646 OA
ATOM    112  OXT ARG d   1      47.567   9.177  49.235  0.00  0.00    -0.646 OA
ENDBRANCH 108 110
BRANCH 108 113
ATOM    113  CB  ARG d   1      48.584   6.685  48.808  0.00  0.00    -0.048 C 
ATOM    114  H69 ARG d   1      49.134   7.409  48.188  0.00  0.00     0.030 H 
ATOM    115  H70 ARG d   1      47.569   6.554  48.406  0.00  0.00     0.030 H 
ATOM    116  H71 ARG d   1      49.110   5.719  48.797  0.00  0.00     0.030 H 
ENDBRANCH 108 113
ENDBRANCH 106 108
ENDBRANCH  93 104
ENDBRANCH  88  90
BRANCH  88 117
ATOM    117  CB  ARG d   1      43.136   2.991  48.967  0.00  0.00    -0.035 C 
ATOM    118  H51 ARG d   1      44.078   2.489  48.700  0.00  0.00     0.037 H 
ATOM    119  H52 ARG d   1      43.209   4.061  48.725  0.00  0.00     0.037 H 
BRANCH 117 120
ATOM    120  CG  ARG d   1      42.021   2.389  48.101  0.00  0.00    -0.059 C 
ATOM    121  H53 ARG d   1      41.059   2.664  48.557  0.00  0.00     0.038 H 
BRANCH 120 122
ATOM    122  CD1 ARG d   1      42.045   2.949  46.681  0.00  0.00    -0.073 C 
ATOM    123  H54 ARG d   1      41.233   2.494  46.094  0.00  0.00     0.028 H 
ATOM    124  H55 ARG d   1      43.012   2.716  46.211  0.00  0.00     0.028 H 
ATOM    125  H56 ARG d   1      41.907   4.040  46.715  0.00  0.00     0.028 H 
ENDBRANCH 120 122
BRANCH 120 126
ATOM    126  CD2 ARG d   1      42.106   0.870  48.065  0.00  0.00    -0.073 C 
ATOM    127  H57 ARG d   1      42.088   0.477  49.092  0.00  0.00     0.028 H 
ATOM    128  H58 ARG d   1      43.042   0.567  47.573  0.00  0.00     0.028 H 
ATOM    129  H59 ARG d   1      41.250   0.468  47.504  0.00  0.00     0.028 H 
ENDBRANCH 120 126
ENDBRANCH 117 120
ENDBRANCH  88 117
ENDBRANCH  86  88
ENDBRANCH  73  84
ENDBRANCH   1  70
BRANCH   1 130
ATOM    130  CB  ARG d   1      37.293   0.832  50.589  0.00  0.00    -0.012 C 
ATOM    131  H34 ARG d   1      36.392   0.722  51.210  0.00  0.00     0.044 H 
ATOM    132  H35 ARG d   1      37.318   0.032  49.834  0.00  0.00     0.044 H 
BRANCH 130 133
ATOM    133  CG  ARG d   1      37.227   2.149  49.884  0.00  0.00    -0.028 A 
ATOM    134  CD1 ARG d   1      37.983   2.566  48.823  0.00  0.00    -0.015 A 
ATOM    135  NE1 ARG d   1      37.641   3.843  48.459  0.00  0.00    -0.365 N 
ATOM    136  H36 ARG d   1      38.750   1.967  48.335  0.00  0.00     0.112 H 
ATOM    137  CE2 ARG d   1      36.646   4.280  49.292  0.00  0.00     0.042 A 
ATOM    138  H37 ARG d   1      38.062   4.383  47.689  0.00  0.00     0.165 HD
ATOM    139  CD2 ARG d   1      36.354   3.239  50.203  0.00  0.00    -0.002 A 
ATOM    140  CZ2 ARG d   1      35.970   5.493  49.313  0.00  0.00    -0.056 A 
ATOM    141  CE3 ARG d   1      35.376   3.431  51.177  0.00  0.00    -0.070 A 
ATOM    142  CZ3 ARG d   1      34.715   4.639  51.212  0.00  0.00    -0.082 A 
ATOM    143  H38 ARG d   1      35.141   2.649  51.890  0.00  0.00     0.084 H 
ATOM    144  CH2 ARG d   1      35.006   5.649  50.286  0.00  0.00    -0.081 A 
ATOM    145  H40 ARG d   1      33.958   4.811  51.968  0.00  0.00     0.083 H 
ATOM    146  H41 ARG d   1      34.456   6.582  50.336  0.00  0.00     0.083 H 
ATOM    147  H39 ARG d   1      36.190   6.279  48.599  0.00  0.00     0.086 H 
ENDBRANCH 130 133
ENDBRANCH   1 130
TORSDOF 35
