REMARK  6 active torsions:
REMARK  status: ('A' for Active; 'I' for Inactive)
REMARK       I    between atoms: C1_2  and  N1_3 
REMARK    1  A    between atoms: C1_2  and  C2_5 
REMARK    2  A    between atoms: N1_3  and  O2_4 
REMARK    3  A    between atoms: C4_7  and  C5_8 
REMARK    4  A    between atoms: C5_8  and  C6_9 
REMARK    5  A    between atoms: C6_9  and  N2_10 
REMARK       I    between atoms: N2_10  and  C7_11 
REMARK    6  A    between atoms: C7_11  and  C8_13 
ROOT
ATOM      1  C6  JNN d   1      -2.303  29.638  -3.507  0.00  0.00     0.001 C 
ATOM      2  H6  JNN d   1      -2.200  28.765  -2.846  0.00  0.00     0.064 H 
ATOM      3  H7  JNN d   1      -1.899  30.529  -3.004  0.00  0.00     0.064 H 
ENDROOT
BRANCH   1   4
ATOM      4  C5  JNN d   1      -3.789  29.867  -3.784  0.00  0.00    -0.004 C 
ATOM      5  H4  JNN d   1      -4.258  30.233  -2.859  0.00  0.00     0.045 H 
ATOM      6  H5  JNN d   1      -3.877  30.634  -4.568  0.00  0.00     0.045 H 
BRANCH   4   7
ATOM      7  C4  JNN d   1      -4.530  28.657  -4.233  0.00  0.00     0.083 A 
ATOM      8  C3  JNN d   1      -5.801  28.237  -4.095  0.00  0.00    -0.017 A 
ATOM      9  C2  JNN d   1      -5.882  27.027  -4.794  0.00  0.00     0.156 A 
ATOM     10  H3  JNN d   1      -6.602  28.736  -3.551  0.00  0.00     0.091 H 
ATOM     11  N3  JNN d   1      -4.728  26.711  -5.325  0.00  0.00    -0.123 NA
ATOM     12  O4  JNN d   1      -3.856  27.757  -4.987  0.00  0.00    -0.217 OA
BRANCH   9  13
ATOM     13  C1  JNN d   1      -7.029  26.124  -4.896  0.00  0.00     0.295 C 
ATOM     14  O1  JNN d   1      -7.080  25.208  -5.727  0.00  0.00    -0.264 OA
ATOM     15  N1  JNN d   1      -7.924  26.229  -3.927  0.00  0.00    -0.232 N 
ATOM     16  H1  JNN d   1      -7.962  27.042  -3.346  0.00  0.00     0.197 HD
BRANCH  15  17
ATOM     17  O2  JNN d   1      -8.808  25.175  -3.743  0.00  0.00    -0.287 OA
ATOM     18  H2  JNN d   1      -9.393  25.376  -3.022  0.00  0.00     0.244 HD
ENDBRANCH  15  17
ENDBRANCH   9  13
ENDBRANCH   4   7
ENDBRANCH   1   4
BRANCH   1  19
ATOM     19  N2  JNN d   1      -1.528  29.397  -4.723  0.00  0.00    -0.356 N 
ATOM     20  C7  JNN d   1      -1.160  30.364  -5.575  0.00  0.00     0.251 C 
ATOM     21  O3  JNN d   1      -1.428  31.556  -5.394  0.00  0.00    -0.268 OA
ATOM     22  H8  JNN d   1      -1.257  28.457  -4.931  0.00  0.00     0.162 HD
BRANCH  20  23
ATOM     23  C8  JNN d   1      -0.356  29.945  -6.772  0.00  0.00     0.033 A 
ATOM     24  C9  JNN d   1      -0.296  30.724  -7.922  0.00  0.00    -0.066 A 
ATOM     25  C10 JNN d   1       0.467  30.328  -9.011  0.00  0.00    -0.059 A 
ATOM     26  H9  JNN d   1      -0.853  31.653  -7.968  0.00  0.00     0.085 H 
ATOM     27  C11 JNN d   1       1.181  29.142  -8.942  0.00  0.00     0.055 A 
ATOM     28  H10 JNN d   1       0.504  30.939  -9.905  0.00  0.00     0.086 H 
ATOM     29 CL1  JNN d   1       2.147  28.630 -10.287  0.00  0.00    -0.083 Cl
ATOM     30  C12 JNN d   1       1.123  28.372  -7.793  0.00  0.00     0.056 A 
ATOM     31 CL2  JNN d   1       2.002  26.892  -7.671  0.00  0.00    -0.083 Cl
ATOM     32  C13 JNN d   1       0.363  28.768  -6.717  0.00  0.00    -0.045 A 
ATOM     33  H11 JNN d   1       0.329  28.154  -5.824  0.00  0.00     0.087 H 
ENDBRANCH  20  23
ENDBRANCH   1  19
TORSDOF 6
