REMARK  2 active torsions:
REMARK  status: ('A' for Active; 'I' for Inactive)
REMARK    1  A    between atoms: N2_3  and  C1_4 
REMARK    2  A    between atoms: C12_18  and  N3_19 
ROOT
ATOM      1  O3  JOH d   1      24.742 -12.025   2.487  0.00  0.00    -0.267 OA
ATOM      2  C5  JOH d   1      25.275 -13.105   2.578  0.00  0.00     0.262 C 
ATOM      3  N2  JOH d   1      25.372 -14.033   1.533  0.00  0.00    -0.265 N 
ATOM      4  C6  JOH d   1      26.042 -13.675   3.711  0.00  0.00     0.050 A 
ATOM      5  C7  JOH d   1      26.510 -14.926   3.325  0.00  0.00     0.081 A 
ATOM      6  C8  JOH d   1      25.967 -15.222   1.971  0.00  0.00     0.265 C 
ATOM      7  O4  JOH d   1      25.935 -16.280   1.389  0.00  0.00    -0.267 OA
ATOM      8  C9  JOH d   1      26.359 -13.106   4.929  0.00  0.00    -0.067 A 
ATOM      9  C10 JOH d   1      27.154 -13.855   5.796  0.00  0.00    -0.080 A 
ATOM     10  C11 JOH d   1      27.620 -15.116   5.447  0.00  0.00    -0.050 A 
ATOM     11  C12 JOH d   1      27.292 -15.677   4.203  0.00  0.00     0.119 A 
ATOM     12  H5  JOH d   1      26.005 -12.118   5.200  0.00  0.00     0.085 H 
ATOM     13  H6  JOH d   1      27.414 -13.444   6.765  0.00  0.00     0.083 H 
ATOM     14  H7  JOH d   1      28.241 -15.671   6.140  0.00  0.00     0.087 H 
ENDROOT
BRANCH   3  15
ATOM     15  C1  JOH d   1      24.843 -13.788   0.199  0.00  0.00     0.108 C 
ATOM     16  C4  JOH d   1      25.570 -14.371  -1.028  0.00  0.00     0.037 C 
ATOM     17  C3  JOH d   1      24.436 -14.614  -1.991  0.00  0.00     0.226 C 
ATOM     18  H2  JOH d   1      26.086 -15.309  -0.776  0.00  0.00     0.051 H 
ATOM     19  H3  JOH d   1      26.295 -13.653  -1.440  0.00  0.00     0.051 H 
ATOM     20  O1  JOH d   1      24.469 -14.735  -3.206  0.00  0.00    -0.273 OA
ATOM     21  N1  JOH d   1      23.276 -14.675  -1.262  0.00  0.00    -0.296 N 
ATOM     22  C2  JOH d   1      23.457 -14.370   0.052  0.00  0.00     0.248 C 
ATOM     23  H4  JOH d   1      22.389 -14.918  -1.655  0.00  0.00     0.171 HD
ATOM     24  O2  JOH d   1      22.640 -14.515   0.931  0.00  0.00    -0.271 OA
ATOM     25  H1  JOH d   1      24.802 -12.695   0.080  0.00  0.00     0.089 H 
ENDBRANCH   3  15
BRANCH  11  26
ATOM     26  N3  JOH d   1      27.832 -16.995   3.854  0.00  0.00    -0.115 N 
ATOM     27  O5  JOH d   1      27.090 -17.814   3.329  0.00  0.00    -0.532 OA
ATOM     28  O6  JOH d   1      29.025 -17.189   4.062  0.00  0.00    -0.532 OA
ENDBRANCH  11  26
TORSDOF 2
