REMARK  2 active torsions:
REMARK  status: ('A' for Active; 'I' for Inactive)
REMARK    1  A    between atoms: N2_11  and  C9_7 
REMARK    2  A    between atoms: C3_12  and  N1_10 
ROOT
ATOM      1  C4  JO5 d   1      27.237 -15.336   5.622  0.00  0.00    -0.057 A 
ATOM      2  C5  JO5 d   1      26.853 -14.034   5.914  0.00  0.00    -0.080 A 
ATOM      3  C6  JO5 d   1      26.304 -13.214   4.929  0.00  0.00    -0.067 A 
ATOM      4  C7  JO5 d   1      26.130 -13.763   3.671  0.00  0.00     0.050 A 
ATOM      5  C8  JO5 d   1      25.603 -13.122   2.451  0.00  0.00     0.262 A 
ATOM      6  N2  JO5 d   1      25.711 -14.059   1.416  0.00  0.00    -0.265 N 
ATOM      7  C3  JO5 d   1      27.073 -15.876   4.337  0.00  0.00     0.042 A 
ATOM      8  O1  JO5 d   1      26.168 -16.354   1.321  0.00  0.00    -0.267 OA
ATOM      9  C1  JO5 d   1      26.176 -15.297   1.914  0.00  0.00     0.264 A 
ATOM     10  C2  JO5 d   1      26.511 -15.061   3.342  0.00  0.00     0.074 A 
ATOM     11  O2  JO5 d   1      25.135 -12.016   2.324  0.00  0.00    -0.267 OA
ATOM     12  H1  JO5 d   1      27.673 -15.948   6.403  0.00  0.00     0.086 H 
ATOM     13  H2  JO5 d   1      26.982 -13.650   6.920  0.00  0.00     0.083 H 
ATOM     14  H3  JO5 d   1      26.025 -12.188   5.140  0.00  0.00     0.085 H 
ENDROOT
BRANCH   6  15
ATOM     15  C9  JO5 d   1      25.135 -13.786   0.100  0.00  0.00     0.108 C 
ATOM     16  C10 JO5 d   1      25.804 -14.149  -1.247  0.00  0.00     0.037 C 
ATOM     17  C11 JO5 d   1      24.620 -14.473  -2.140  0.00  0.00     0.226 C 
ATOM     18  H5  JO5 d   1      26.378 -13.299  -1.645  0.00  0.00     0.051 H 
ATOM     19  H6  JO5 d   1      26.466 -15.020  -1.137  0.00  0.00     0.051 H 
ATOM     20  N3  JO5 d   1      23.528 -14.634  -1.331  0.00  0.00    -0.296 N 
ATOM     21  O3  JO5 d   1      24.546 -14.620  -3.358  0.00  0.00    -0.273 OA
ATOM     22  C12 JO5 d   1      23.806 -14.490  -0.013  0.00  0.00     0.248 C 
ATOM     23  H9  JO5 d   1      22.613 -14.838  -1.679  0.00  0.00     0.171 HD
ATOM     24  O4  JO5 d   1      23.075 -14.778   0.889  0.00  0.00    -0.271 OA
ATOM     25  H4  JO5 d   1      24.977 -12.698   0.081  0.00  0.00     0.089 H 
ENDBRANCH   6  15
BRANCH   7  26
ATOM     26  N1  JO5 d   1      27.444 -17.161   4.059  0.00  0.00    -0.398 N 
ATOM     27  H7  JO5 d   1      27.855 -17.750   4.798  0.00  0.00     0.156 HD
ATOM     28  H8  JO5 d   1      27.312 -17.541   3.111  0.00  0.00     0.156 HD
ENDBRANCH   7  26
TORSDOF 2
