REMARK WARNING: 32 MAX_TORS EXCEEDED!!!
REMARK  55 active torsions:
REMARK  status: ('A' for Active; 'I' for Inactive)
REMARK    1  A    between atoms: C1_1  and  O1_8 
REMARK    2  A    between atoms: C2_2  and  N_7 
REMARK    3  A    between atoms: C3_3  and  O3_9 
REMARK    4  A    between atoms: O1_26  and  C4_4 
REMARK    5  A    between atoms: C5_5  and  C6_6 
REMARK    6  A    between atoms: C6_6  and  O6_11 
REMARK    7  A    between atoms: N_7  and  S1_12 
REMARK    8  A    between atoms: O6_11  and  S2_16 
REMARK    9  A    between atoms: C1_20  and  O1_26 
REMARK   10  A    between atoms: C2_21  and  O2_27 
REMARK   11  A    between atoms: C3_22  and  O3_28 
REMARK   12  A    between atoms: O1_43  and  C4_23 
REMARK   13  A    between atoms: C5_24  and  C6_25 
REMARK   14  A    between atoms: O2_27  and  S_32 
REMARK   15  A    between atoms: C1_36  and  O1_43 
REMARK   16  A    between atoms: C2_37  and  N_42 
REMARK   17  A    between atoms: C3_38  and  O3_44 
REMARK   18  A    between atoms: O1_61  and  C4_39 
REMARK   19  A    between atoms: C5_40  and  C6_41 
REMARK   20  A    between atoms: C6_41  and  O6_46 
REMARK   21  A    between atoms: N_42  and  S1_47 
REMARK   22  A    between atoms: O6_46  and  S2_51 
REMARK   23  A    between atoms: C1_55  and  O1_61 
REMARK   24  A    between atoms: C2_56  and  O2_62 
REMARK   25  A    between atoms: C3_57  and  O3_63 
REMARK   26  A    between atoms: O1_78  and  C4_58 
REMARK   27  A    between atoms: C5_59  and  C6_60 
REMARK   28  A    between atoms: O2_62  and  S_67 
REMARK   29  A    between atoms: C1_71  and  O1_78 
REMARK   30  A    between atoms: C2_72  and  N_77 
REMARK   31  A    between atoms: C3_73  and  O3_79 
REMARK   32  A    between atoms: O1_96  and  C4_74 
REMARK   33  A    between atoms: C5_75  and  C6_76 
REMARK   34  A    between atoms: C6_76  and  O6_81 
REMARK   35  A    between atoms: N_77  and  S1_82 
REMARK   36  A    between atoms: O6_81  and  S2_86 
REMARK   37  A    between atoms: C1_90  and  O1_96 
REMARK   38  A    between atoms: C2_91  and  O2_97 
REMARK   39  A    between atoms: C3_92  and  O3_98 
REMARK   40  A    between atoms: O1_113  and  C4_93 
REMARK   41  A    between atoms: C5_94  and  C6_95 
REMARK   42  A    between atoms: O2_97  and  S_102 
REMARK   43  A    between atoms: C1_106  and  O1_113 
REMARK   44  A    between atoms: C2_107  and  N_112 
REMARK   45  A    between atoms: C3_108  and  O3_114 
REMARK   46  A    between atoms: O1_131  and  C4_109 
REMARK   47  A    between atoms: C5_110  and  C6_111 
REMARK   48  A    between atoms: C6_111  and  O6_116 
REMARK   49  A    between atoms: N_112  and  S1_117 
REMARK   50  A    between atoms: O6_116  and  S2_121 
REMARK   51  A    between atoms: C1_125  and  O1_131 
REMARK   52  A    between atoms: C2_126  and  O2_132 
REMARK   53  A    between atoms: C3_127  and  O3_133 
REMARK   54  A    between atoms: C5_129  and  C6_130 
REMARK   55  A    between atoms: O2_132  and  S_137 
ROOT
ATOM      1  C1  SGN d   1      58.738 -38.120  19.539  0.00  0.00     0.161 C 
ATOM      2  C2  SGN d   1      57.447 -38.027  18.732  0.00  0.00     0.134 C 
ATOM      3  C3  SGN d   1      57.655 -37.509  17.312  0.00  0.00     0.094 C 
ATOM      4  C4  SGN d   1      58.862 -36.580  17.235  0.00  0.00     0.103 C 
ATOM      5  C5  SGN d   1      59.101 -35.949  18.615  0.00  0.00     0.152 C 
ATOM      6  O5  SGN d   1      59.581 -36.961  19.507  0.00  0.00    -0.340 OA
ATOM      7  H26 SGN d   1      59.319 -38.952  19.114  0.00  0.00     0.133 H 
ATOM      8  H27 SGN d   1      56.749 -37.354  19.252  0.00  0.00     0.097 H 
ATOM      9  H28 SGN d   1      57.822 -38.366  16.642  0.00  0.00     0.091 H 
ATOM     10  H29 SGN d   1      58.675 -35.755  16.532  0.00  0.00     0.092 H 
ATOM     11  H30 SGN d   1      58.136 -35.577  18.990  0.00  0.00     0.104 H 
ENDROOT
BRANCH   4  12
ATOM     12  O1  SGN d   1      59.892 -37.490  16.636  0.00  0.00    -0.348 OA
BRANCH  12  13
ATOM     13  C1  SGN d   1      60.442 -37.680  15.371  0.00  0.00     0.155 C 
ATOM     14  C2  SGN d   1      61.923 -38.054  15.411  0.00  0.00     0.097 C 
ATOM     15  C3  SGN d   1      62.830 -36.846  15.648  0.00  0.00     0.087 C 
ATOM     16  H33 SGN d   1      62.177 -38.459  14.421  0.00  0.00     0.085 H 
ATOM     17  C4  SGN d   1      62.464 -35.701  14.706  0.00  0.00     0.095 C 
ATOM     18  H34 SGN d   1      62.704 -36.502  16.685  0.00  0.00     0.090 H 
ATOM     19  C5  SGN d   1      60.977 -35.381  14.840  0.00  0.00     0.091 C 
ATOM     20  H35 SGN d   1      62.396 -36.199  13.727  0.00  0.00     0.091 H 
ATOM     21  O5  SGN d   1      60.199 -36.551  14.533  0.00  0.00    -0.349 OA
ATOM     22  H36 SGN d   1      60.785 -35.067  15.877  0.00  0.00     0.090 H 
ATOM     23  H32 SGN d   1      59.915 -38.534  14.921  0.00  0.00     0.132 H 
BRANCH  14  24
ATOM     24  N   SGN d   1      62.193 -39.109  16.396  0.00  0.00    -0.289 N 
ATOM     25  H39 SGN d   1      62.673 -38.862  17.238  0.00  0.00     0.175 HD
BRANCH  24  26
ATOM     26  S1  SGN d   1      61.758 -40.632  16.189  0.00  0.00     0.205 S 
ATOM     27  O1S SGN d   1      60.442 -40.805  16.686  0.00  0.00    -0.578 OA
ATOM     28  O2S SGN d   1      62.169 -41.046  14.896  0.00  0.00    -0.578 OA
ATOM     29  O3S SGN d   1      62.684 -41.499  17.103  0.00  0.00    -0.578 OA
ENDBRANCH  24  26
ENDBRANCH  14  24
BRANCH  15  30
ATOM     30  O3  SGN d   1      64.183 -37.240  15.451  0.00  0.00    -0.391 OA
ATOM     31  H40 SGN d   1      64.755 -36.502  15.625  0.00  0.00     0.210 HD
ENDBRANCH  15  30
BRANCH  17  32
ATOM     32  O1  SGN d   1      63.651 -35.015  14.470  0.00  0.00    -0.348 OA
BRANCH  32  33
ATOM     33  C1  SGN d   1      64.301 -34.319  13.479  0.00  0.00     0.161 C 
ATOM     34  C2  SGN d   1      64.520 -32.862  13.846  0.00  0.00     0.134 C 
ATOM     35  C3  SGN d   1      65.296 -32.164  12.739  0.00  0.00     0.094 C 
ATOM     36  H42 SGN d   1      65.080 -32.791  14.790  0.00  0.00     0.097 H 
ATOM     37  C4  SGN d   1      66.653 -32.836  12.557  0.00  0.00     0.103 C 
ATOM     38  H43 SGN d   1      64.729 -32.248  11.800  0.00  0.00     0.091 H 
ATOM     39  C5  SGN d   1      66.695 -34.202  13.268  0.00  0.00     0.152 C 
ATOM     40  H44 SGN d   1      66.582 -33.152  11.506  0.00  0.00     0.092 H 
ATOM     41  O5  SGN d   1      65.505 -34.976  13.051  0.00  0.00    -0.340 OA
ATOM     42  H45 SGN d   1      66.831 -34.033  14.346  0.00  0.00     0.104 H 
ATOM     43  H41 SGN d   1      63.627 -34.318  12.610  0.00  0.00     0.133 H 
BRANCH  34  44
ATOM     44  O2  SGN d   1      63.204 -32.244  13.997  0.00  0.00    -0.244 OA
BRANCH  44  45
ATOM     45  S   SGN d   1      62.616 -31.563  15.295  0.00  0.00     0.252 S 
ATOM     46  O1S SGN d   1      61.235 -31.187  14.969  0.00  0.00    -0.572 OA
ATOM     47  O2S SGN d   1      63.436 -30.278  15.287  0.00  0.00    -0.572 OA
ATOM     48  O3S SGN d   1      63.040 -32.367  16.495  0.00  0.00    -0.572 OA
ENDBRANCH  44  45
ENDBRANCH  34  44
BRANCH  35  49
ATOM     49  O3  SGN d   1      65.465 -30.786  13.048  0.00  0.00    -0.390 OA
ATOM     50  H46 SGN d   1      65.931 -30.358  12.339  0.00  0.00     0.210 HD
ENDBRANCH  35  49
BRANCH  37  51
ATOM     51  O1  SGN d   1      67.841 -32.059  12.476  0.00  0.00    -0.348 OA
BRANCH  51  52
ATOM     52  C1  SGN d   1      69.082 -31.708  11.956  0.00  0.00     0.155 C 
ATOM     53  C2  SGN d   1      68.902 -30.829  10.717  0.00  0.00     0.097 C 
ATOM     54  C3  SGN d   1      69.712 -31.406   9.559  0.00  0.00     0.087 C 
ATOM     55  H48 SGN d   1      69.319 -29.841  10.960  0.00  0.00     0.085 H 
ATOM     56  C4  SGN d   1      71.136 -31.713  10.015  0.00  0.00     0.095 C 
ATOM     57  H49 SGN d   1      69.237 -32.339   9.221  0.00  0.00     0.090 H 
ATOM     58  C5  SGN d   1      71.138 -32.804  11.088  0.00  0.00     0.091 C 
ATOM     59  H50 SGN d   1      71.550 -30.799  10.465  0.00  0.00     0.091 H 
ATOM     60  O5  SGN d   1      69.871 -32.902  11.779  0.00  0.00    -0.349 OA
ATOM     61  H51 SGN d   1      71.302 -33.758  10.566  0.00  0.00     0.090 H 
ATOM     62  H47 SGN d   1      69.602 -31.092  12.704  0.00  0.00     0.132 H 
BRANCH  53  63
ATOM     63  N   SGN d   1      67.501 -30.612  10.314  0.00  0.00    -0.289 N 
ATOM     64  H54 SGN d   1      66.961 -31.417  10.067  0.00  0.00     0.175 HD
BRANCH  63  65
ATOM     65  S1  SGN d   1      66.778 -29.188  10.241  0.00  0.00     0.205 S 
ATOM     66  O1S SGN d   1      65.329 -29.357  10.807  0.00  0.00    -0.578 OA
ATOM     67  O2S SGN d   1      66.538 -28.869   8.881  0.00  0.00    -0.578 OA
ATOM     68  O3S SGN d   1      67.436 -28.295  11.122  0.00  0.00    -0.578 OA
ENDBRANCH  63  65
ENDBRANCH  53  63
BRANCH  54  69
ATOM     69  O3  SGN d   1      69.733 -30.479   8.476  0.00  0.00    -0.391 OA
ATOM     70  H55 SGN d   1      70.219 -30.852   7.750  0.00  0.00     0.210 HD
ENDBRANCH  54  69
BRANCH  56  71
ATOM     71  O1  SGN d   1      72.001 -32.082   8.862  0.00  0.00    -0.348 OA
BRANCH  71  72
ATOM     72  C1  SGN d   1      72.548 -33.030   7.967  0.00  0.00     0.161 C 
ATOM     73  C2  SGN d   1      71.450 -33.970   7.482  0.00  0.00     0.132 C 
ATOM     74  C3  SGN d   1      71.371 -33.983   5.959  0.00  0.00     0.069 C 
ATOM     75  H57 SGN d   1      70.480 -33.661   7.899  0.00  0.00     0.097 H 
ATOM     76  C4  SGN d   1      71.367 -32.556   5.413  0.00  0.00    -0.005 C 
ATOM     77  H58 SGN d   1      72.248 -34.514   5.560  0.00  0.00     0.087 H 
ATOM     78  C5  SGN d   1      72.619 -31.769   5.900  0.00  0.00     0.127 C 
ATOM     79  H59 SGN d   1      70.460 -32.040   5.761  0.00  0.00     0.041 H 
ATOM     80  H60 SGN d   1      71.370 -32.591   4.314  0.00  0.00     0.041 H 
ATOM     81  O5  SGN d   1      73.358 -32.452   6.937  0.00  0.00    -0.343 OA
ATOM     82  H61 SGN d   1      72.282 -30.794   6.283  0.00  0.00     0.100 H 
ATOM     83  H56 SGN d   1      73.237 -33.650   8.559  0.00  0.00     0.133 H 
BRANCH  73  84
ATOM     84  O2  SGN d   1      71.802 -35.313   7.945  0.00  0.00    -0.244 OA
BRANCH  84  85
ATOM     85  S   SGN d   1      70.823 -36.442   8.467  0.00  0.00     0.252 S 
ATOM     86  O1S SGN d   1      69.643 -36.541   7.587  0.00  0.00    -0.572 OA
ATOM     87  O2S SGN d   1      71.702 -37.552   8.863  0.00  0.00    -0.572 OA
ATOM     88  O3S SGN d   1      70.350 -35.746   9.728  0.00  0.00    -0.572 OA
ENDBRANCH  84  85
ENDBRANCH  73  84
BRANCH  74  89
ATOM     89  O3  SGN d   1      70.188 -34.663   5.548  0.00  0.00    -0.393 OA
ATOM     90  H62 SGN d   1      70.198 -35.549   5.891  0.00  0.00     0.210 HD
ENDBRANCH  74  89
BRANCH  78  91
ATOM     91  C6  SGN d   1      73.606 -31.554   4.749  0.00  0.00     0.203 C 
ATOM     92  O61 SGN d   1      73.544 -30.565   4.052  0.00  0.00    -0.646 OA
ATOM     93  O62 SGN d   1      74.501 -32.503   4.602  0.00  0.00    -0.646 OA
ENDBRANCH  78  91
ENDBRANCH  71  72
ENDBRANCH  56  71
BRANCH  58  94
ATOM     94  C6  SGN d   1      72.251 -32.651  12.099  0.00  0.00     0.067 C 
ATOM     95  H52 SGN d   1      71.829 -32.597  13.114  0.00  0.00     0.080 H 
ATOM     96  H53 SGN d   1      72.822 -31.735  11.890  0.00  0.00     0.080 H 
BRANCH  94  97
ATOM     97  O6  SGN d   1      73.132 -33.826  11.986  0.00  0.00    -0.254 OA
BRANCH  97  98
ATOM     98  S2  SGN d   1      74.531 -34.030  11.241  0.00  0.00     0.251 S 
ATOM     99  O4S SGN d   1      74.333 -35.002  10.146  0.00  0.00    -0.572 OA
ATOM    100  O5S SGN d   1      75.168 -32.707  11.098  0.00  0.00    -0.572 OA
ATOM    101  O6S SGN d   1      75.336 -34.692  12.340  0.00  0.00    -0.572 OA
ENDBRANCH  97  98
ENDBRANCH  94  97
ENDBRANCH  58  94
ENDBRANCH  51  52
ENDBRANCH  37  51
BRANCH  39 102
ATOM    102  C6  SGN d   1      67.844 -35.045  12.723  0.00  0.00     0.206 C 
ATOM    103  O61 SGN d   1      67.750 -35.684  11.693  0.00  0.00    -0.646 OA
ATOM    104  O62 SGN d   1      68.931 -34.967  13.448  0.00  0.00    -0.646 OA
ENDBRANCH  39 102
ENDBRANCH  32  33
ENDBRANCH  17  32
BRANCH  19 105
ATOM    105  C6  SGN d   1      60.493 -34.303  13.906  0.00  0.00     0.067 C 
ATOM    106  H37 SGN d   1      61.009 -34.383  12.938  0.00  0.00     0.080 H 
ATOM    107  H38 SGN d   1      60.685 -33.312  14.343  0.00  0.00     0.080 H 
BRANCH 105 108
ATOM    108  O6  SGN d   1      59.048 -34.502  13.724  0.00  0.00    -0.254 OA
BRANCH 108 109
ATOM    109  S2  SGN d   1      57.798 -33.668  14.174  0.00  0.00     0.251 S 
ATOM    110  O4S SGN d   1      57.603 -32.611  13.134  0.00  0.00    -0.572 OA
ATOM    111  O5S SGN d   1      56.804 -34.628  14.592  0.00  0.00    -0.572 OA
ATOM    112  O6S SGN d   1      58.238 -33.076  15.511  0.00  0.00    -0.572 OA
ENDBRANCH 108 109
ENDBRANCH 105 108
ENDBRANCH  19 105
ENDBRANCH  12  13
ENDBRANCH   4  12
BRANCH   3 113
ATOM    113  O3  SGN d   1      56.494 -36.802  16.889  0.00  0.00    -0.390 OA
ATOM    114  H31 SGN d   1      56.613 -36.506  15.994  0.00  0.00     0.210 HD
ENDBRANCH   3 113
BRANCH   5 115
ATOM    115  C6  SGN d   1      60.077 -34.769  18.589  0.00  0.00     0.206 C 
ATOM    116  O61 SGN d   1      59.855 -33.762  17.931  0.00  0.00    -0.646 OA
ATOM    117  O62 SGN d   1      61.126 -34.918  19.360  0.00  0.00    -0.646 OA
ENDBRANCH   5 115
BRANCH   2 118
ATOM    118  O2  SGN d   1      56.884 -39.373  18.668  0.00  0.00    -0.244 OA
BRANCH 118 119
ATOM    119  S   SGN d   1      55.489 -39.827  19.260  0.00  0.00     0.252 S 
ATOM    120  O1S SGN d   1      55.352 -41.276  19.070  0.00  0.00    -0.572 OA
ATOM    121  O2S SGN d   1      54.589 -39.181  18.234  0.00  0.00    -0.572 OA
ATOM    122  O3S SGN d   1      55.260 -39.068  20.493  0.00  0.00    -0.572 OA
ENDBRANCH 118 119
ENDBRANCH   2 118
BRANCH   1 123
ATOM    123  O1  SGN d   1      58.452 -38.421  20.849  0.00  0.00    -0.348 OA
BRANCH 123 124
ATOM    124  C4  SGN d   1      58.408 -38.002  22.202  0.00  0.00     0.095 C 
ATOM    125  C3  SGN d   1      58.650 -36.614  22.788  0.00  0.00     0.087 C 
ATOM    126  C2  SGN d   1      59.309 -36.702  24.164  0.00  0.00     0.097 C 
ATOM    127  H19 SGN d   1      57.678 -36.109  22.894  0.00  0.00     0.090 H 
ATOM    128  C1  SGN d   1      58.730 -37.789  25.073  0.00  0.00     0.155 C 
ATOM    129  H18 SGN d   1      60.365 -36.960  23.996  0.00  0.00     0.085 H 
ATOM    130  O5  SGN d   1      58.390 -39.013  24.404  0.00  0.00    -0.349 OA
ATOM    131  H17 SGN d   1      59.505 -38.034  25.814  0.00  0.00     0.132 H 
ATOM    132  C5  SGN d   1      57.615 -38.838  23.204  0.00  0.00     0.091 C 
ATOM    133  H21 SGN d   1      56.691 -38.292  23.446  0.00  0.00     0.090 H 
ATOM    134  H20 SGN d   1      59.408 -38.396  22.436  0.00  0.00     0.091 H 
BRANCH 125 135
ATOM    135  O3  SGN d   1      59.478 -35.837  21.930  0.00  0.00    -0.391 OA
ATOM    136  H25 SGN d   1      59.055 -35.742  21.084  0.00  0.00     0.210 HD
ENDBRANCH 125 135
BRANCH 126 137
ATOM    137  N   SGN d   1      59.274 -35.390  24.828  0.00  0.00    -0.289 N 
ATOM    138  H24 SGN d   1      58.394 -34.914  24.843  0.00  0.00     0.175 HD
BRANCH 137 139
ATOM    139  S1  SGN d   1      60.505 -34.652  25.527  0.00  0.00     0.205 S 
ATOM    140  O1S SGN d   1      61.530 -34.465  24.565  0.00  0.00    -0.578 OA
ATOM    141  O2S SGN d   1      59.993 -33.597  26.326  0.00  0.00    -0.578 OA
ATOM    142  O3S SGN d   1      61.058 -35.688  26.578  0.00  0.00    -0.578 OA
ENDBRANCH 137 139
ENDBRANCH 126 137
BRANCH 128 143
ATOM    143  O1  SGN d   1      57.627 -37.292  25.757  0.00  0.00    -0.348 OA
BRANCH 143 144
ATOM    144  C4  SGN d   1      56.318 -36.892  26.059  0.00  0.00     0.103 C 
ATOM    145  C3  SGN d   1      56.111 -35.489  26.623  0.00  0.00     0.094 C 
ATOM    146  C2  SGN d   1      55.290 -35.538  27.902  0.00  0.00     0.134 C 
ATOM    147  H13 SGN d   1      55.569 -34.889  25.878  0.00  0.00     0.091 H 
ATOM    148  C1  SGN d   1      53.918 -36.154  27.644  0.00  0.00     0.161 C 
ATOM    149  H12 SGN d   1      55.825 -36.107  28.677  0.00  0.00     0.097 H 
ATOM    150  O5  SGN d   1      53.890 -37.024  26.506  0.00  0.00    -0.340 OA
ATOM    151  H11 SGN d   1      53.250 -35.314  27.401  0.00  0.00     0.133 H 
ATOM    152  C5  SGN d   1      55.094 -37.790  26.340  0.00  0.00     0.152 C 
ATOM    153  H15 SGN d   1      55.292 -38.364  27.257  0.00  0.00     0.104 H 
ATOM    154  H14 SGN d   1      56.054 -36.671  25.014  0.00  0.00     0.092 H 
BRANCH 145 155
ATOM    155  O3  SGN d   1      57.366 -34.869  26.886  0.00  0.00    -0.390 OA
ATOM    156  H16 SGN d   1      57.863 -34.808  26.079  0.00  0.00     0.210 HD
ENDBRANCH 145 155
BRANCH 146 157
ATOM    157  O2  SGN d   1      55.068 -34.166  28.322  0.00  0.00    -0.244 OA
BRANCH 157 158
ATOM    158  S   SGN d   1      54.551 -33.693  29.736  0.00  0.00     0.252 S 
ATOM    159  O1S SGN d   1      53.129 -33.490  29.664  0.00  0.00    -0.572 OA
ATOM    160  O2S SGN d   1      55.172 -32.322  29.710  0.00  0.00    -0.572 OA
ATOM    161  O3S SGN d   1      55.256 -34.494  30.752  0.00  0.00    -0.572 OA
ENDBRANCH 157 158
ENDBRANCH 146 157
BRANCH 148 162
ATOM    162  O1  SGN d   1      53.381 -36.765  28.786  0.00  0.00    -0.348 OA
BRANCH 162 163
ATOM    163  C4  SGN d   1      52.213 -37.407  29.433  0.00  0.00     0.095 C 
ATOM    164  C3  SGN d   1      52.561 -38.351  30.581  0.00  0.00     0.087 C 
ATOM    165  C2  SGN d   1      51.557 -39.501  30.669  0.00  0.00     0.096 C 
ATOM    166  H3  SGN d   1      52.525 -37.785  31.523  0.00  0.00     0.090 H 
ATOM    167  C1  SGN d   1      50.133 -38.944  30.736  0.00  0.00     0.151 C 
ATOM    168  H2  SGN d   1      51.636 -40.093  29.745  0.00  0.00     0.085 H 
ATOM    169  O5  SGN d   1      49.864 -38.022  29.670  0.00  0.00    -0.349 OA
ATOM    170  H1  SGN d   1      49.451 -39.796  30.600  0.00  0.00     0.132 H 
ATOM    171  C5  SGN d   1      50.773 -36.908  29.563  0.00  0.00     0.091 C 
ATOM    172  H5  SGN d   1      50.703 -36.286  30.467  0.00  0.00     0.090 H 
ATOM    173  H4  SGN d   1      52.026 -38.141  28.636  0.00  0.00     0.091 H 
BRANCH 164 174
ATOM    174  O3  SGN d   1      53.880 -38.858  30.402  0.00  0.00    -0.391 OA
ATOM    175  H10 SGN d   1      54.497 -38.136  30.389  0.00  0.00     0.210 HD
ENDBRANCH 164 174
BRANCH 165 176
ATOM    176  N   SGN d   1      51.893 -40.394  31.791  0.00  0.00    -0.289 N 
ATOM    177  H8  SGN d   1      52.438 -40.003  32.533  0.00  0.00     0.175 HD
BRANCH 176 178
ATOM    178  S1  SGN d   1      51.470 -41.928  31.936  0.00  0.00     0.205 S 
ATOM    179  O1S SGN d   1      50.129 -41.993  32.414  0.00  0.00    -0.578 OA
ATOM    180  O2S SGN d   1      51.933 -42.617  30.786  0.00  0.00    -0.578 OA
ATOM    181  O3S SGN d   1      52.374 -42.520  33.084  0.00  0.00    -0.578 OA
ENDBRANCH 176 178
ENDBRANCH 165 176
BRANCH 167 182
ATOM    182  O1  SGN d   1      49.843 -38.386  31.995  0.00  0.00    -0.369 OA
ATOM    183  H9  SGN d   1      48.924 -38.148  32.031  0.00  0.00     0.212 HD
ENDBRANCH 167 182
BRANCH 171 184
ATOM    184  C6  SGN d   1      50.319 -36.100  28.371  0.00  0.00     0.067 C 
ATOM    185  H6  SGN d   1      49.676 -36.716  27.724  0.00  0.00     0.080 H 
ATOM    186  H7  SGN d   1      51.193 -35.755  27.798  0.00  0.00     0.080 H 
BRANCH 184 187
ATOM    187  O6  SGN d   1      49.564 -34.947  28.871  0.00  0.00    -0.254 OA
BRANCH 187 188
ATOM    188  S2  SGN d   1      49.906 -33.414  28.781  0.00  0.00     0.251 S 
ATOM    189  O4S SGN d   1      50.934 -33.230  27.738  0.00  0.00    -0.572 OA
ATOM    190  O5S SGN d   1      48.644 -32.690  28.843  0.00  0.00    -0.572 OA
ATOM    191  O6S SGN d   1      50.498 -33.178  30.151  0.00  0.00    -0.572 OA
ENDBRANCH 187 188
ENDBRANCH 184 187
ENDBRANCH 171 184
ENDBRANCH 162 163
ENDBRANCH 148 162
BRANCH 152 192
ATOM    192  C6  SGN d   1      54.818 -38.753  25.187  0.00  0.00     0.206 C 
ATOM    193  O61 SGN d   1      54.304 -38.404  24.141  0.00  0.00    -0.646 OA
ATOM    194  O62 SGN d   1      55.200 -39.973  25.447  0.00  0.00    -0.646 OA
ENDBRANCH 152 192
ENDBRANCH 143 144
ENDBRANCH 128 143
BRANCH 132 195
ATOM    195  C6  SGN d   1      57.238 -40.206  22.698  0.00  0.00     0.067 C 
ATOM    196  H22 SGN d   1      56.654 -40.113  21.770  0.00  0.00     0.080 H 
ATOM    197  H23 SGN d   1      56.640 -40.732  23.456  0.00  0.00     0.080 H 
BRANCH 195 198
ATOM    198  O6  SGN d   1      58.461 -40.943  22.438  0.00  0.00    -0.254 OA
BRANCH 198 199
ATOM    199  S2  SGN d   1      58.737 -42.411  22.825  0.00  0.00     0.251 S 
ATOM    200  O4S SGN d   1      57.451 -43.104  22.753  0.00  0.00    -0.572 OA
ATOM    201  O5S SGN d   1      59.968 -42.836  22.132  0.00  0.00    -0.572 OA
ATOM    202  O6S SGN d   1      59.170 -42.232  24.273  0.00  0.00    -0.572 OA
ENDBRANCH 198 199
ENDBRANCH 195 198
ENDBRANCH 132 195
ENDBRANCH 123 124
ENDBRANCH   1 123
TORSDOF 55
