REMARK  3 active torsions:
REMARK  status: ('A' for Active; 'I' for Inactive)
REMARK    1  A    between atoms: C5_2  and  C6_3 
REMARK       I    between atoms: N2_11  and  C5_2 
REMARK    2  A    between atoms: C6_3  and  C7_5 
REMARK    3  A    between atoms: C3_12  and  N2_11 
ROOT
ATOM      1  C5  JOT d   1      24.448  15.509  28.226  0.00  0.00     0.222 C 
ATOM      2  N2  JOT d   1      23.989  14.278  27.995  0.00  0.00    -0.347 N 
ATOM      3  O3  JOT d   1      24.947  16.198  27.335  0.00  0.00    -0.273 OA
ATOM      4  H9  JOT d   1      23.752  13.698  28.775  0.00  0.00     0.163 HD
ENDROOT
BRANCH   1   5
ATOM      5  C6  JOT d   1      24.310  15.992  29.653  0.00  0.00     0.033 C 
ATOM      6  H1  JOT d   1      25.302  16.285  30.028  0.00  0.00     0.054 H 
ATOM      7  H2  JOT d   1      23.911  15.173  30.270  0.00  0.00     0.054 H 
BRANCH   5   8
ATOM      8  C7  JOT d   1      23.380  17.177  29.751  0.00  0.00    -0.050 A 
ATOM      9  C8  JOT d   1      23.872  18.473  29.711  0.00  0.00    -0.076 A 
ATOM     10  C9  JOT d   1      23.016  19.559  29.801  0.00  0.00    -0.082 A 
ATOM     11  H4  JOT d   1      24.938  18.638  29.608  0.00  0.00     0.084 H 
ATOM     12  C10 JOT d   1      21.663  19.364  29.932  0.00  0.00    -0.083 A 
ATOM     13  H5  JOT d   1      23.416  20.566  29.768  0.00  0.00     0.083 H 
ATOM     14  C11 JOT d   1      21.159  18.088  29.973  0.00  0.00    -0.082 A 
ATOM     15  H6  JOT d   1      20.995  20.215  30.003  0.00  0.00     0.083 H 
ATOM     16  C12 JOT d   1      22.012  16.998  29.883  0.00  0.00    -0.076 A 
ATOM     17  H3  JOT d   1      20.091  17.932  30.076  0.00  0.00     0.083 H 
ATOM     18  H7  JOT d   1      21.604  15.994  29.916  0.00  0.00     0.084 H 
ENDBRANCH   5   8
ENDBRANCH   1   5
BRANCH   2  19
ATOM     19  C3  JOT d   1      23.823  13.754  26.667  0.00  0.00     0.098 C 
ATOM     20  C4  JOT d   1      22.415  13.993  26.165  0.00  0.00     0.247 C 
ATOM     21  N1  JOT d   1      21.943  12.823  25.640  0.00  0.00    -0.296 N 
ATOM     22  O2  JOT d   1      21.806  15.045  26.219  0.00  0.00    -0.271 OA
ATOM     23  C1  JOT d   1      22.821  11.773  25.775  0.00  0.00     0.226 C 
ATOM     24  H8  JOT d   1      21.048  12.739  25.201  0.00  0.00     0.171 HD
ATOM     25  C2  JOT d   1      23.979  12.230  26.617  0.00  0.00     0.036 C 
ATOM     26  O1  JOT d   1      22.655  10.672  25.279  0.00  0.00    -0.273 OA
ATOM     27  H11 JOT d   1      23.922  11.798  27.627  0.00  0.00     0.051 H 
ATOM     28  H12 JOT d   1      24.935  11.950  26.151  0.00  0.00     0.051 H 
ATOM     29  H10 JOT d   1      24.556  14.233  26.002  0.00  0.00     0.088 H 
ENDBRANCH   2  19
TORSDOF 3
