REMARK  9 active torsions:
REMARK  status: ('A' for Active; 'I' for Inactive)
REMARK       I    between atoms: N3_15  and  C14_2 
REMARK    1  A    between atoms: C14_2  and  C15_22 
REMARK       I    between atoms: N2_13  and  C5_3 
REMARK    2  A    between atoms: C5_3  and  O3_20 
REMARK    3  A    between atoms: C6_4  and  C7_6 
REMARK    4  A    between atoms: O3_20  and  C6_4 
REMARK    5  A    between atoms: C10_9  and  C13_11 
REMARK    6  A    between atoms: C13_11  and  N3_15 
REMARK    7  A    between atoms: N2_13  and  C3_14 
REMARK    8  A    between atoms: C15_22  and  C16_24 
REMARK    9  A    between atoms: C16_24  and  C17_25 
ROOT
ATOM      1  C11 JOW d   1      29.311  16.516  30.199  0.00  0.00    -0.075 A 
ATOM      2  C7  JOW d   1      26.992  17.038  29.833  0.00  0.00    -0.034 A 
ATOM      3  C8  JOW d   1      27.382  18.152  29.111  0.00  0.00    -0.074 A 
ATOM      4  C9  JOW d   1      28.723  18.446  28.935  0.00  0.00    -0.075 A 
ATOM      5  C10 JOW d   1      29.705  17.631  29.477  0.00  0.00    -0.041 A 
ATOM      6  C12 JOW d   1      27.970  16.223  30.375  0.00  0.00    -0.074 A 
ATOM      7  H3  JOW d   1      30.062  15.865  30.631  0.00  0.00     0.084 H 
ATOM      8  H4  JOW d   1      26.629  18.801  28.679  0.00  0.00     0.084 H 
ATOM      9  H5  JOW d   1      29.009  19.324  28.367  0.00  0.00     0.084 H 
ATOM     10  H6  JOW d   1      27.683  15.346  30.943  0.00  0.00     0.084 H 
ENDROOT
BRANCH   2  11
ATOM     11  C6  JOW d   1      25.537  16.720  30.023  0.00  0.00     0.054 C 
ATOM     12  H1  JOW d   1      24.928  17.436  29.452  0.00  0.00     0.082 H 
ATOM     13  H2  JOW d   1      25.282  16.792  31.091  0.00  0.00     0.082 H 
BRANCH  11  14
ATOM     14  O3  JOW d   1      25.270  15.375  29.552  0.00  0.00    -0.299 OA
BRANCH  14  15
ATOM     15  C5  JOW d   1      24.989  15.268  28.245  0.00  0.00     0.361 C 
ATOM     16  N2  JOW d   1      24.379  14.098  28.011  0.00  0.00    -0.323 N 
ATOM     17  H10 JOW d   1      24.124  13.522  28.788  0.00  0.00     0.165 HD
ATOM     18  O4  JOW d   1      25.247  16.100  27.405  0.00  0.00    -0.238 OA
BRANCH  16  19
ATOM     19  C3  JOW d   1      24.079  13.644  26.681  0.00  0.00     0.100 C 
ATOM     20  C4  JOW d   1      22.622  13.880  26.347  0.00  0.00     0.247 C 
ATOM     21  N1  JOW d   1      22.108  12.726  25.825  0.00  0.00    -0.296 N 
ATOM     22  O2  JOW d   1      22.010  14.919  26.513  0.00  0.00    -0.271 OA
ATOM     23  C1  JOW d   1      23.015  11.693  25.797  0.00  0.00     0.226 C 
ATOM     24  H9  JOW d   1      21.167  12.642  25.497  0.00  0.00     0.171 HD
ATOM     25  C2  JOW d   1      24.252  12.128  26.530  0.00  0.00     0.037 C 
ATOM     26  O1  JOW d   1      22.813  10.619  25.257  0.00  0.00    -0.273 OA
ATOM     27  H13 JOW d   1      24.315  11.642  27.515  0.00  0.00     0.051 H 
ATOM     28  H14 JOW d   1      25.155  11.893  25.947  0.00  0.00     0.051 H 
ATOM     29  H11 JOW d   1      24.729  14.174  25.969  0.00  0.00     0.088 H 
ENDBRANCH  16  19
ENDBRANCH  14  15
ENDBRANCH  11  14
ENDBRANCH   2  11
BRANCH   5  30
ATOM     30  C13 JOW d   1      31.166  17.951  29.286  0.00  0.00     0.019 C 
ATOM     31  H7  JOW d   1      31.441  17.723  28.245  0.00  0.00     0.071 H 
ATOM     32  H8  JOW d   1      31.755  17.319  29.967  0.00  0.00     0.071 H 
BRANCH  30  33
ATOM     33  N3  JOW d   1      31.486  19.345  29.555  0.00  0.00    -0.357 N 
ATOM     34  C14 JOW d   1      32.670  19.729  30.020  0.00  0.00     0.218 C 
ATOM     35  O5  JOW d   1      33.612  20.005  29.280  0.00  0.00    -0.274 OA
ATOM     36  H12 JOW d   1      30.788  20.040  29.383  0.00  0.00     0.162 HD
BRANCH  34  37
ATOM     37  C15 JOW d   1      32.797  19.809  31.519  0.00  0.00     0.018 C 
ATOM     38  H15 JOW d   1      32.620  20.848  31.834  0.00  0.00     0.047 H 
ATOM     39  H16 JOW d   1      33.815  19.507  31.805  0.00  0.00     0.047 H 
BRANCH  37  40
ATOM     40  C16 JOW d   1      31.808  18.912  32.225  0.00  0.00     0.024 C 
ATOM     41  H17 JOW d   1      30.957  18.742  31.549  0.00  0.00     0.049 H 
ATOM     42  H18 JOW d   1      31.460  19.432  33.130  0.00  0.00     0.049 H 
BRANCH  40  43
ATOM     43  C17 JOW d   1      32.359  17.559  32.640  0.00  0.00     0.172 C 
ATOM     44  O6  JOW d   1      33.576  17.344  32.481  0.00  0.00    -0.648 OA
ATOM     45  O7  JOW d   1      31.568  16.723  33.122  0.00  0.00    -0.648 OA
ENDBRANCH  40  43
ENDBRANCH  37  40
ENDBRANCH  34  37
ENDBRANCH  30  33
ENDBRANCH   5  30
TORSDOF 9
