REMARK  2 active torsions:
REMARK  status: ('A' for Active; 'I' for Inactive)
REMARK    1  A    between atoms: N2_10  and  C4_1 
REMARK    2  A    between atoms: C5_2  and  C6_3 
REMARK       I    between atoms: C5_2  and  N2_10 
ROOT
ATOM      1  C5  JPB d   1      25.892  19.840  -7.163  0.00  0.00     0.255 C 
ATOM      2  N2  JPB d   1      24.707  19.341  -7.488  0.00  0.00    -0.343 N 
ATOM      3  O3  JPB d   1      26.640  19.261  -6.376  0.00  0.00    -0.268 OA
ATOM      4  H5  JPB d   1      24.103  19.884  -8.071  0.00  0.00     0.163 HD
ENDROOT
BRANCH   1   5
ATOM      5  C6  JPB d   1      26.265  21.159  -7.762  0.00  0.00     0.075 A 
ATOM      6  C11 JPB d   1      26.375  22.280  -6.939  0.00  0.00     0.053 A 
ATOM      7  C10 JPB d   1      26.758  23.505  -7.463  0.00  0.00    -0.040 A 
ATOM      8 CL3  JPB d   1      25.971  22.179  -5.235  0.00  0.00    -0.083 Cl
ATOM      9  C9  JPB d   1      27.070  23.586  -8.808  0.00  0.00     0.037 A 
ATOM     10  H3  JPB d   1      26.812  24.383  -6.830  0.00  0.00     0.088 H 
ATOM     11  C8  JPB d   1      26.990  22.497  -9.651  0.00  0.00    -0.040 A 
ATOM     12 CL2  JPB d   1      27.582  25.107  -9.466  0.00  0.00    -0.084 Cl
ATOM     13  C7  JPB d   1      26.597  21.283  -9.112  0.00  0.00     0.053 A 
ATOM     14  H2  JPB d   1      27.228  22.589 -10.705  0.00  0.00     0.088 H 
ATOM     15 CL1  JPB d   1      26.500  19.925 -10.196  0.00  0.00    -0.083 Cl
ENDBRANCH   1   5
BRANCH   2  16
ATOM     16  C4  JPB d   1      24.258  18.067  -7.044  0.00  0.00     0.098 C 
ATOM     17  C3  JPB d   1      22.734  18.033  -6.854  0.00  0.00     0.036 C 
ATOM     18  C2  JPB d   1      22.305  16.835  -7.655  0.00  0.00     0.226 C 
ATOM     19  H6  JPB d   1      22.269  18.951  -7.242  0.00  0.00     0.051 H 
ATOM     20  H7  JPB d   1      22.473  17.910  -5.793  0.00  0.00     0.051 H 
ATOM     21  N1  JPB d   1      23.387  16.378  -8.366  0.00  0.00    -0.296 N 
ATOM     22  O2  JPB d   1      21.218  16.290  -7.658  0.00  0.00    -0.273 OA
ATOM     23  C1  JPB d   1      24.530  17.087  -8.152  0.00  0.00     0.247 C 
ATOM     24  H4  JPB d   1      23.340  15.595  -8.986  0.00  0.00     0.171 HD
ATOM     25  O1  JPB d   1      25.573  16.994  -8.791  0.00  0.00    -0.271 OA
ATOM     26  H1  JPB d   1      24.773  17.784  -6.114  0.00  0.00     0.088 H 
ENDBRANCH   2  16
TORSDOF 2
