REMARK  4 active torsions:
REMARK  status: ('A' for Active; 'I' for Inactive)
REMARK    1  A    between atoms: N2_8  and  C4_1 
REMARK    2  A    between atoms: C5_2  and  C6_3 
REMARK       I    between atoms: C5_2  and  N2_8 
REMARK    3  A    between atoms: C7_4  and  C8_5 
REMARK    4  A    between atoms: C7_4  and  C9_6 
ROOT
ATOM      1  C5  JPQ d   1      25.445  19.061  -6.419  0.00  0.00     0.242 C 
ATOM      2  N2  JPQ d   1      24.285  18.695  -6.987  0.00  0.00    -0.344 N 
ATOM      3  O3  JPQ d   1      26.159  18.256  -5.826  0.00  0.00    -0.269 OA
ATOM      4  H10 JPQ d   1      23.781  19.356  -7.543  0.00  0.00     0.163 HD
ENDROOT
BRANCH   1   5
ATOM      5  C6  JPQ d   1      25.804  20.488  -6.557  0.00  0.00    -0.016 C 
ATOM      6  C7  JPQ d   1      26.667  21.170  -5.783  0.00  0.00    -0.082 C 
ATOM      7  H2  JPQ d   1      25.323  21.041  -7.363  0.00  0.00     0.092 H 
BRANCH   6   8
ATOM      8  C8  JPQ d   1      27.103  22.572  -6.116  0.00  0.00    -0.055 C 
ATOM      9  H3  JPQ d   1      27.806  22.929  -5.349  0.00  0.00     0.033 H 
ATOM     10  H4  JPQ d   1      26.224  23.233  -6.143  0.00  0.00     0.033 H 
ATOM     11  H5  JPQ d   1      27.598  22.579  -7.099  0.00  0.00     0.033 H 
ENDBRANCH   6   8
BRANCH   6  12
ATOM     12  C9  JPQ d   1      27.292  20.635  -4.518  0.00  0.00    -0.055 C 
ATOM     13  H6  JPQ d   1      26.932  19.612  -4.335  0.00  0.00     0.033 H 
ATOM     14  H7  JPQ d   1      27.013  21.279  -3.671  0.00  0.00     0.033 H 
ATOM     15  H8  JPQ d   1      28.387  20.625  -4.626  0.00  0.00     0.033 H 
ENDBRANCH   6  12
ENDBRANCH   1   5
BRANCH   2  16
ATOM     16  C4  JPQ d   1      23.755  17.376  -6.812  0.00  0.00     0.098 C 
ATOM     17  C3  JPQ d   1      22.236  17.327  -6.613  0.00  0.00     0.036 C 
ATOM     18  C2  JPQ d   1      21.804  16.155  -7.447  0.00  0.00     0.226 C 
ATOM     19  H11 JPQ d   1      21.764  18.255  -6.967  0.00  0.00     0.051 H 
ATOM     20  H12 JPQ d   1      21.984  17.169  -5.554  0.00  0.00     0.051 H 
ATOM     21  N1  JPQ d   1      22.859  15.786  -8.250  0.00  0.00    -0.296 N 
ATOM     22  O2  JPQ d   1      20.760  15.539  -7.373  0.00  0.00    -0.273 OA
ATOM     23  C1  JPQ d   1      23.989  16.523  -8.040  0.00  0.00     0.247 C 
ATOM     24  H9  JPQ d   1      22.803  15.049  -8.923  0.00  0.00     0.171 HD
ATOM     25  O1  JPQ d   1      25.012  16.491  -8.712  0.00  0.00    -0.271 OA
ATOM     26  H1  JPQ d   1      24.252  16.924  -5.941  0.00  0.00     0.088 H 
ENDBRANCH   2  16
TORSDOF 4
