REMARK  5 active torsions:
REMARK  status: ('A' for Active; 'I' for Inactive)
REMARK    1  A    between atoms: C02_6  and  C01_5 
REMARK    2  A    between atoms: C02_6  and  C03_7 
REMARK    3  A    between atoms: C04_8  and  C02_6 
REMARK    4  A    between atoms: C06_10  and  O07_11 
REMARK    5  A    between atoms: N08_12  and  C09_13 
ROOT
ATOM      1  C15 JSB d   1      -9.812  13.806 -17.091  0.00  0.00    -0.022 A 
ATOM      2  C20 JSB d   1     -11.999  15.729 -17.018  0.00  0.00    -0.082 A 
ATOM      3  C21 JSB d   1     -12.235  14.352 -16.820  0.00  0.00    -0.072 A 
ATOM      4  C04 JSB d   1      -9.696  10.452 -17.494  0.00  0.00     0.213 C 
ATOM      5  C05 JSB d   1     -11.041  11.117 -17.841  0.00  0.00     0.026 C 
ATOM      6  C06 JSB d   1     -11.525  11.940 -16.632  0.00  0.00     0.168 C 
ATOM      7  N08 JSB d   1     -10.735  11.331 -15.529  0.00  0.00    -0.309 N 
ATOM      8  C12 JSB d   1      -9.676  10.532 -15.934  0.00  0.00     0.260 C 
ATOM      9  O13 JSB d   1      -8.876  10.051 -15.143  0.00  0.00    -0.270 OA
ATOM     10  C14 JSB d   1     -11.175  13.420 -16.844  0.00  0.00     0.005 A 
ATOM     11  C16 JSB d   1      -8.560  12.759 -17.136  0.00  0.00     0.107 C 
ATOM     12  N17 JSB d   1      -8.627  11.440 -17.927  0.00  0.00    -0.053 N 
ATOM     13  C18 JSB d   1      -9.626  15.199 -17.288  0.00  0.00    -0.075 A 
ATOM     14  C19 JSB d   1     -10.685  16.151 -17.257  0.00  0.00    -0.082 A 
ATOM     15  H3  JSB d   1     -12.814  16.442 -16.986  0.00  0.00     0.083 H 
ATOM     16  H4  JSB d   1     -13.247  14.004 -16.647  0.00  0.00     0.084 H 
ATOM     17  H12 JSB d   1     -11.784  10.342 -18.080  0.00  0.00     0.045 H 
ATOM     18  H13 JSB d   1     -10.911  11.780 -18.709  0.00  0.00     0.045 H 
ATOM     19  H18 JSB d   1      -8.353  12.482 -16.092  0.00  0.00     0.083 H 
ATOM     20  H19 JSB d   1      -7.705  13.319 -17.543  0.00  0.00     0.083 H 
ATOM     21  H20 JSB d   1      -8.794  11.670 -18.894  0.00  0.00     0.279 HD
ATOM     22  H21 JSB d   1      -7.733  10.983 -17.840  0.00  0.00     0.279 HD
ATOM     23  H22 JSB d   1      -8.620  15.559 -17.473  0.00  0.00     0.084 H 
ATOM     24  H23 JSB d   1     -10.474  17.202 -17.418  0.00  0.00     0.083 H 
ENDROOT
BRANCH   4  25
ATOM     25  C02 JSB d   1      -9.603   9.024 -18.193  0.00  0.00    -0.020 C 
ATOM     26  H8  JSB d   1     -10.472   8.947 -18.863  0.00  0.00     0.043 H 
BRANCH  25  27
ATOM     27  C01 JSB d   1      -8.338   8.896 -19.071  0.00  0.00    -0.070 C 
ATOM     28  H5  JSB d   1      -8.312   7.898 -19.534  0.00  0.00     0.028 H 
ATOM     29  H6  JSB d   1      -7.443   9.034 -18.447  0.00  0.00     0.028 H 
ATOM     30  H7  JSB d   1      -8.358   9.665 -19.858  0.00  0.00     0.028 H 
ENDBRANCH  25  27
BRANCH  25  31
ATOM     31  C03 JSB d   1      -9.694   7.847 -17.212  0.00  0.00    -0.070 C 
ATOM     32  H9  JSB d   1      -9.622   6.900 -17.768  0.00  0.00     0.028 H 
ATOM     33  H10 JSB d   1     -10.655   7.888 -16.679  0.00  0.00     0.028 H 
ATOM     34  H11 JSB d   1      -8.870   7.910 -16.487  0.00  0.00     0.028 H 
ENDBRANCH  25  31
ENDBRANCH   4  25
BRANCH   6  35
ATOM     35  O07 JSB d   1     -12.897  11.677 -16.433  0.00  0.00    -0.366 OA
ATOM     36  H14 JSB d   1     -13.399  12.067 -17.139  0.00  0.00     0.213 HD
ENDBRANCH   6  35
BRANCH   7  37
ATOM     37  C09 JSB d   1     -10.639  11.925 -14.214  0.00  0.00     0.018 A 
ATOM     38  C10 JSB d   1     -10.887  10.989 -13.066  0.00  0.00    -0.044 A 
ATOM     39  C11 JSB d   1     -11.958  12.099 -13.498  0.00  0.00    -0.044 A 
ATOM     40  H1  JSB d   1     -10.322  11.098 -12.129  0.00  0.00     0.036 H 
ATOM     41  H2  JSB d   1     -11.086   9.923 -13.252  0.00  0.00     0.036 H 
ATOM     42  H16 JSB d   1     -12.134  12.979 -12.863  0.00  0.00     0.036 H 
ATOM     43  H17 JSB d   1     -12.899  11.804 -13.986  0.00  0.00     0.036 H 
ATOM     44  H15 JSB d   1      -9.854  12.694 -14.165  0.00  0.00     0.073 H 
ENDBRANCH   7  37
TORSDOF 5
