REMARK  11 active torsions:
REMARK  status: ('A' for Active; 'I' for Inactive)
REMARK    1  A    between atoms: O3B_8  and  PG_1 
REMARK    2  A    between atoms: PB_5  and  O3B_8 
REMARK    3  A    between atoms: O3A_12  and  PB_5 
REMARK    4  A    between atoms: PA_9  and  O3A_12 
REMARK    5  A    between atoms: PA_9  and  O5'_13 
REMARK    6  A    between atoms: O5'_13  and  C5'_14 
REMARK    7  A    between atoms: C5'_14  and  C4'_15 
REMARK    8  A    between atoms: C3'_17  and  O3'_18 
REMARK    9  A    between atoms: C2'_19  and  O2'_20 
REMARK   10  A    between atoms: C1'_21  and  N9_22 
REMARK   11  A    between atoms: C6_26  and  N6_27 
ROOT
ATOM      1  C4' ATP d   1      25.128   4.742  31.397  0.00  0.00     0.089 C 
ATOM      2  O4' ATP d   1      25.623   4.863  32.737  0.00  0.00    -0.353 OA
ATOM      3  C3' ATP d   1      23.625   4.575  31.562  0.00  0.00     0.091 C 
ATOM      4  C2' ATP d   1      23.496   3.825  32.895  0.00  0.00     0.105 C 
ATOM      5  C1' ATP d   1      24.883   3.962  33.532  0.00  0.00     0.139 C 
ATOM      6  H3  ATP d   1      25.545   3.841  30.922  0.00  0.00     0.090 H 
ATOM      7  H4  ATP d   1      23.138   5.559  31.631  0.00  0.00     0.091 H 
ATOM      8  H6  ATP d   1      22.719   4.275  33.530  0.00  0.00     0.093 H 
ATOM      9  H8  ATP d   1      25.377   2.979  33.557  0.00  0.00     0.122 H 
ENDROOT
BRANCH   1  10
ATOM     10  C5' ATP d   1      25.523   5.930  30.569  0.00  0.00     0.058 C 
ATOM     11  H1  ATP d   1      26.518   5.745  30.139  0.00  0.00     0.079 H 
ATOM     12  H2  ATP d   1      24.790   6.054  29.758  0.00  0.00     0.079 H 
BRANCH  10  13
ATOM     13  O5' ATP d   1      25.571   7.154  31.345  0.00  0.00    -0.287 OA
BRANCH  13  14
ATOM     14  PA  ATP d   1      24.789   8.421  30.757  0.00  0.00     0.417 P 
ATOM     15  O1A ATP d   1      24.523   9.480  31.760  0.00  0.00    -0.624 OA
ATOM     16  O2A ATP d   1      25.588   8.871  29.518  0.00  0.00    -0.624 OA
BRANCH  14  17
ATOM     17  O3A ATP d   1      23.434   7.761  30.242  0.00  0.00    -0.180 OA
BRANCH  17  18
ATOM     18  PB  ATP d   1      22.742   7.545  28.822  0.00  0.00     0.428 P 
ATOM     19  O1B ATP d   1      21.764   6.450  28.888  0.00  0.00    -0.624 OA
ATOM     20  O2B ATP d   1      23.859   7.454  27.770  0.00  0.00    -0.624 OA
BRANCH  18  21
ATOM     21  O3B ATP d   1      21.991   8.925  28.569  0.00  0.00    -0.173 OA
BRANCH  21  22
ATOM     22  PG  ATP d   1      22.539  10.267  27.911  0.00  0.00     0.431 P 
ATOM     23  O1G ATP d   1      22.138  11.416  28.748  0.00  0.00    -0.616 OA
ATOM     24  O2G ATP d   1      24.068  10.117  27.765  0.00  0.00    -0.616 OA
ATOM     25  O3G ATP d   1      21.998  10.366  26.489  0.00  0.00    -0.616 OA
ENDBRANCH  21  22
ENDBRANCH  18  21
ENDBRANCH  17  18
ENDBRANCH  14  17
ENDBRANCH  13  14
ENDBRANCH  10  13
ENDBRANCH   1  10
BRANCH   3  26
ATOM     26  O3' ATP d   1      23.042   3.858  30.478  0.00  0.00    -0.390 OA
ATOM     27  H5  ATP d   1      23.432   2.993  30.426  0.00  0.00     0.210 HD
ENDBRANCH   3  26
BRANCH   5  28
ATOM     28  N9  ATP d   1      24.807   4.498  34.878  0.00  0.00    -0.294 N 
ATOM     29  C8  ATP d   1      24.576   5.811  35.202  0.00  0.00     0.071 A 
ATOM     30  N7  ATP d   1      24.462   6.033  36.489  0.00  0.00    -0.236 NA
ATOM     31  H9  ATP d   1      24.494   6.600  34.456  0.00  0.00     0.144 H 
ATOM     32  C5  ATP d   1      24.635   4.779  37.054  0.00  0.00     0.149 A 
ATOM     33  C6  ATP d   1      24.603   4.332  38.387  0.00  0.00     0.155 A 
ATOM     34  C4  ATP d   1      24.851   3.823  36.079  0.00  0.00     0.167 A 
ATOM     35  N1  ATP d   1      24.785   3.013  38.612  0.00  0.00    -0.222 NA
ATOM     36  C2  ATP d   1      24.983   2.202  37.564  0.00  0.00     0.091 A 
ATOM     37  N3  ATP d   1      25.034   2.513  36.264  0.00  0.00    -0.222 NA
ATOM     38  H12 ATP d   1      25.120   1.153  37.801  0.00  0.00     0.146 H 
BRANCH  33  39
ATOM     39  N6  ATP d   1      24.386   5.132  39.433  0.00  0.00    -0.382 N 
ATOM     40  H10 ATP d   1      24.375   4.742  40.386  0.00  0.00     0.157 HD
ATOM     41  H11 ATP d   1      24.230   6.140  39.287  0.00  0.00     0.157 HD
ENDBRANCH  33  39
ENDBRANCH   5  28
BRANCH   4  42
ATOM     42  O2' ATP d   1      23.204   2.454  32.667  0.00  0.00    -0.388 OA
ATOM     43  H7  ATP d   1      23.904   2.063  32.158  0.00  0.00     0.210 HD
ENDBRANCH   4  42
TORSDOF 11
