REMARK  12 active torsions:
REMARK  status: ('A' for Active; 'I' for Inactive)
REMARK    1  A    between atoms: P1_1  and  C7_5 
REMARK    2  A    between atoms: C7_5  and  P8_6 
REMARK    3  A    between atoms: C7_5  and  O14_10 
REMARK    4  A    between atoms: C7_5  and  C16_11 
REMARK    5  A    between atoms: C16_11  and  C19_12 
REMARK    6  A    between atoms: C19_12  and  N22_13 
REMARK    7  A    between atoms: N22_13  and  C23_14 
REMARK    8  A    between atoms: N22_13  and  C39_19 
REMARK    9  A    between atoms: C23_14  and  C26_15 
REMARK   10  A    between atoms: C26_15  and  C29_16 
REMARK   11  A    between atoms: C29_16  and  C32_17 
REMARK   12  A    between atoms: C32_17  and  C35_18 
ROOT
ATOM      1  N22 BFQ d   1      96.887  32.674  19.412  0.00  0.00    -0.075 N 
ATOM      2  H6  BFQ d   1      96.677  31.751  19.759  0.00  0.00     0.279 HD
ENDROOT
BRANCH   1   3
ATOM      3  C19 BFQ d   1      95.699  33.506  19.514  0.00  0.00     0.087 C 
ATOM      4  H4  BFQ d   1      95.619  34.115  18.602  0.00  0.00     0.076 H 
ATOM      5  H5  BFQ d   1      94.819  32.851  19.596  0.00  0.00     0.076 H 
BRANCH   3   6
ATOM      6  C16 BFQ d   1      95.724  34.440  20.722  0.00  0.00     0.012 C 
ATOM      7  H2  BFQ d   1      95.551  33.864  21.643  0.00  0.00     0.042 H 
ATOM      8  H3  BFQ d   1      96.700  34.944  20.783  0.00  0.00     0.042 H 
BRANCH   6   9
ATOM      9  C7  BFQ d   1      94.613  35.478  20.542  0.00  0.00     0.286 C 
BRANCH   9  10
ATOM     10  P1  BFQ d   1      93.760  35.758  22.177  0.00  0.00     0.310 P 
ATOM     11  O2  BFQ d   1      94.631  36.586  23.092  0.00  0.00    -0.637 OA
ATOM     12  O3  BFQ d   1      93.513  34.404  22.801  0.00  0.00    -0.637 OA
ATOM     13  O5  BFQ d   1      92.445  36.473  21.966  0.00  0.00    -0.637 OA
ENDBRANCH   9  10
BRANCH   9  14
ATOM     14  P8  BFQ d   1      95.364  37.037  19.847  0.00  0.00     0.310 P 
ATOM     15  O9  BFQ d   1      94.351  37.753  18.985  0.00  0.00    -0.637 OA
ATOM     16  O10 BFQ d   1      96.542  36.633  18.988  0.00  0.00    -0.637 OA
ATOM     17  O12 BFQ d   1      95.839  37.935  20.966  0.00  0.00    -0.637 OA
ENDBRANCH   9  14
BRANCH   9  18
ATOM     18  O14 BFQ d   1      93.660  34.995  19.629  0.00  0.00    -0.365 OA
ATOM     19  H1  BFQ d   1      92.965  35.635  19.530  0.00  0.00     0.212 HD
ENDBRANCH   9  18
ENDBRANCH   6   9
ENDBRANCH   3   6
ENDBRANCH   1   3
BRANCH   1  20
ATOM     20  C23 BFQ d   1      98.003  33.214  20.163  0.00  0.00     0.083 C 
ATOM     21  H7  BFQ d   1      97.805  33.100  21.239  0.00  0.00     0.075 H 
ATOM     22  H8  BFQ d   1      98.119  34.281  19.923  0.00  0.00     0.075 H 
BRANCH  20  23
ATOM     23  C26 BFQ d   1      99.290  32.475  19.807  0.00  0.00    -0.042 C 
ATOM     24  H9  BFQ d   1      99.277  32.191  18.744  0.00  0.00     0.035 H 
ATOM     25  H10 BFQ d   1      99.387  31.572  20.427  0.00  0.00     0.035 H 
BRANCH  23  26
ATOM     26  C29 BFQ d   1     100.455  33.416  20.077  0.00  0.00    -0.064 C 
ATOM     27  H11 BFQ d   1     100.354  33.825  21.093  0.00  0.00     0.033 H 
ATOM     28  H12 BFQ d   1     100.425  34.238  19.346  0.00  0.00     0.033 H 
BRANCH  26  29
ATOM     29  C32 BFQ d   1     101.797  32.703  19.963  0.00  0.00    -0.069 C 
ATOM     30  H13 BFQ d   1     102.288  32.984  19.020  0.00  0.00     0.032 H 
ATOM     31  H14 BFQ d   1     101.642  31.614  19.986  0.00  0.00     0.032 H 
BRANCH  29  32
ATOM     32  C35 BFQ d   1     102.670  33.125  21.145  0.00  0.00    -0.077 C 
ATOM     33  H15 BFQ d   1     103.645  32.620  21.080  0.00  0.00     0.027 H 
ATOM     34  H16 BFQ d   1     102.174  32.845  22.086  0.00  0.00     0.027 H 
ATOM     35  H17 BFQ d   1     102.820  34.215  21.120  0.00  0.00     0.027 H 
ENDBRANCH  29  32
ENDBRANCH  26  29
ENDBRANCH  23  26
ENDBRANCH  20  23
ENDBRANCH   1  20
BRANCH   1  36
ATOM     36  C39 BFQ d   1      97.245  32.604  18.010  0.00  0.00     0.066 C 
ATOM     37  H18 BFQ d   1      96.401  32.195  17.436  0.00  0.00     0.068 H 
ATOM     38  H19 BFQ d   1      98.122  31.952  17.888  0.00  0.00     0.068 H 
ATOM     39  H20 BFQ d   1      97.484  33.613  17.642  0.00  0.00     0.068 H 
ENDBRANCH   1  36
TORSDOF 12
