REMARK  4 active torsions:
REMARK  status: ('A' for Active; 'I' for Inactive)
REMARK    1  A    between atoms: C13_2  and  C10_1 
REMARK       I    between atoms: N15_24  and  C13_2 
REMARK    2  A    between atoms: C19_16  and  C20_4 
REMARK    3  A    between atoms: C02_9  and  C01_8 
REMARK    4  A    between atoms: N07_23  and  C05_10 
ROOT
ATOM      1  C13 JSW d   1      11.598  12.224   8.695  0.00  0.00     0.248 C 
ATOM      2  C17 JSW d   1      14.774  13.482   9.549  0.00  0.00     0.105 C 
ATOM      3  C18 JSW d   1      14.593  14.282   8.261  0.00  0.00    -0.016 C 
ATOM      4  C19 JSW d   1      13.276  13.785   7.662  0.00  0.00     0.070 C 
ATOM      5  N15 JSW d   1      12.840  12.713   8.578  0.00  0.00    -0.170 N 
ATOM      6  N16 JSW d   1      13.951  12.288   9.361  0.00  0.00     0.009 N 
ATOM      7  O14 JSW d   1      10.682  12.645   8.001  0.00  0.00    -0.271 OA
ATOM      8  H2  JSW d   1      14.426  14.060  10.418  0.00  0.00     0.079 H 
ATOM      9  H3  JSW d   1      15.830  13.207   9.690  0.00  0.00     0.079 H 
ATOM     10  H17 JSW d   1      15.427  14.093   7.569  0.00  0.00     0.039 H 
ATOM     11  H18 JSW d   1      14.535  15.358   8.480  0.00  0.00     0.039 H 
ATOM     12  H19 JSW d   1      12.538  14.601   7.675  0.00  0.00     0.083 H 
ATOM     13  H21 JSW d   1      13.639  11.931  10.251  0.00  0.00     0.306 HD
ATOM     14  H22 JSW d   1      14.471  11.574   8.876  0.00  0.00     0.306 HD
ENDROOT
BRANCH   1  15
ATOM     15  C10 JSW d   1      11.366  11.156   9.753  0.00  0.00     0.028 C 
ATOM     16  C09 JSW d   1      10.686   9.926   9.145  0.00  0.00    -0.038 C 
ATOM     17  C08 JSW d   1      10.423   8.894  10.232  0.00  0.00    -0.001 C 
ATOM     18  H11 JSW d   1      11.341   9.489   8.377  0.00  0.00     0.036 H 
ATOM     19  H12 JSW d   1       9.732  10.225   8.687  0.00  0.00     0.036 H 
ATOM     20  N07 JSW d   1       9.589   9.470  11.284  0.00  0.00    -0.344 N 
ATOM     21  H9  JSW d   1      11.381   8.570  10.665  0.00  0.00     0.064 H 
ATOM     22  H10 JSW d   1       9.907   8.027   9.793  0.00  0.00     0.064 H 
ATOM     23  C12 JSW d   1      10.206  10.613  11.930  0.00  0.00    -0.001 C 
ATOM     24  C11 JSW d   1      10.515  11.709  10.912  0.00  0.00    -0.038 C 
ATOM     25  H15 JSW d   1       9.519  11.011  12.691  0.00  0.00     0.064 H 
ATOM     26  H16 JSW d   1      11.142  10.293  12.411  0.00  0.00     0.064 H 
ATOM     27  H13 JSW d   1       9.570  12.104  10.509  0.00  0.00     0.036 H 
ATOM     28  H14 JSW d   1      11.068  12.519  11.411  0.00  0.00     0.036 H 
ATOM     29  H1  JSW d   1      12.343  10.850  10.154  0.00  0.00     0.054 H 
BRANCH  20  30
ATOM     30  C05 JSW d   1       8.359   9.047  11.554  0.00  0.00     0.269 A 
ATOM     31  N04 JSW d   1       7.562   8.206  10.882  0.00  0.00    -0.103 NA
ATOM     32  N03 JSW d   1       6.370   8.136  11.572  0.00  0.00    -0.126 NA
ATOM     33  C02 JSW d   1       6.507   8.949  12.613  0.00  0.00     0.167 A 
ATOM     34  O06 JSW d   1       7.758   9.551  12.670  0.00  0.00    -0.260 OA
BRANCH  33  35
ATOM     35  C01 JSW d   1       5.394   9.131  13.586  0.00  0.00    -0.013 C 
ATOM     36  H6  JSW d   1       4.531   8.524  13.274  0.00  0.00     0.038 H 
ATOM     37  H7  JSW d   1       5.104  10.192  13.618  0.00  0.00     0.038 H 
ATOM     38  H8  JSW d   1       5.724   8.811  14.585  0.00  0.00     0.038 H 
ENDBRANCH  33  35
ENDBRANCH  20  30
ENDBRANCH   1  15
BRANCH   4  39
ATOM     39  C20 JSW d   1      13.415  13.312   6.232  0.00  0.00    -0.028 A 
ATOM     40  C21 JSW d   1      14.334  12.328   5.866  0.00  0.00    -0.037 A 
ATOM     41  C22 JSW d   1      14.432  11.964   4.539  0.00  0.00     0.119 A 
ATOM     42  H4  JSW d   1      14.962  11.857   6.613  0.00  0.00     0.089 H 
ATOM     43  C24 JSW d   1      13.648  12.493   3.545  0.00  0.00    -0.009 A 
ATOM     44  F23 JSW d   1      15.378  11.055   4.183  0.00  0.00    -0.206 F 
ATOM     45  C25 JSW d   1      12.744  13.444   3.944  0.00  0.00     0.119 A 
ATOM     46  H5  JSW d   1      13.737  12.180   2.511  0.00  0.00     0.092 H 
ATOM     47  C27 JSW d   1      12.598  13.859   5.245  0.00  0.00    -0.037 A 
ATOM     48  F26 JSW d   1      11.958  14.011   3.002  0.00  0.00    -0.206 F 
ATOM     49  H20 JSW d   1      11.854  14.605   5.501  0.00  0.00     0.089 H 
ENDBRANCH   4  39
TORSDOF 4
