REMARK  9 active torsions:
REMARK  status: ('A' for Active; 'I' for Inactive)
REMARK    1  A    between atoms: N11_20  and  C7_4 
REMARK    2  A    between atoms: N11_20  and  C12_8 
REMARK    3  A    between atoms: C15_10  and  C16_11 
REMARK    4  A    between atoms: C16_11  and  C17_22 
REMARK    5  A    between atoms: C19_12  and  C20_13 
REMARK    6  A    between atoms: O26_29  and  C27_14 
REMARK    7  A    between atoms: C28_30  and  N11_20 
REMARK    8  A    between atoms: C25_28  and  O26_29 
REMARK    9  A    between atoms: C28_30  and  C29_31 
ROOT
ATOM      1  N11 JUQ d   1       3.965  59.522  29.267  0.00  0.00    -0.341 N 
ENDROOT
BRANCH   1   2
ATOM      2  C7  JUQ d   1       5.010  60.476  29.073  0.00  0.00     0.046 A 
ATOM      3  C8  JUQ d   1       5.222  61.552  29.956  0.00  0.00    -0.056 A 
ATOM      4  C9  JUQ d   1       6.223  62.500  29.745  0.00  0.00    -0.080 A 
ATOM      5  H4  JUQ d   1       4.586  61.647  30.829  0.00  0.00     0.087 H 
ATOM      6  C10 JUQ d   1       7.035  62.394  28.626  0.00  0.00    -0.072 A 
ATOM      7  H5  JUQ d   1       6.365  63.312  30.449  0.00  0.00     0.083 H 
ATOM      8  C4  JUQ d   1       6.859  61.318  27.756  0.00  0.00    -0.024 A 
ATOM      9  H6  JUQ d   1       7.798  63.139  28.430  0.00  0.00     0.084 H 
ATOM     10  C3  JUQ d   1       7.685  61.184  26.658  0.00  0.00    -0.072 A 
ATOM     11  C5  JUQ d   1       5.847  60.363  27.970  0.00  0.00     0.001 A 
ATOM     12  C2  JUQ d   1       7.512  60.126  25.767  0.00  0.00    -0.082 A 
ATOM     13  H3  JUQ d   1       8.474  61.907  26.487  0.00  0.00     0.084 H 
ATOM     14  C1  JUQ d   1       6.498  59.197  25.955  0.00  0.00    -0.082 A 
ATOM     15  H2  JUQ d   1       8.178  60.028  24.917  0.00  0.00     0.083 H 
ATOM     16  C6  JUQ d   1       5.672  59.327  27.066  0.00  0.00    -0.070 A 
ATOM     17  H1  JUQ d   1       6.353  58.386  25.250  0.00  0.00     0.083 H 
ATOM     18  H16 JUQ d   1       4.878  58.606  27.228  0.00  0.00     0.084 H 
ENDBRANCH   1   2
BRANCH   1  19
ATOM     19  C12 JUQ d   1       4.040  58.156  29.655  0.00  0.00     0.106 A 
ATOM     20  C13 JUQ d   1       3.166  57.181  29.171  0.00  0.00     0.035 A 
ATOM     21  N14 JUQ d   1       3.222  55.885  29.521  0.00  0.00    -0.236 NA
ATOM     22  H7  JUQ d   1       2.397  57.488  28.471  0.00  0.00     0.118 H 
ATOM     23  C15 JUQ d   1       4.200  55.572  30.384  0.00  0.00     0.198 A 
ATOM     24  N24 JUQ d   1       5.102  56.402  30.937  0.00  0.00    -0.199 NA
ATOM     25  C25 JUQ d   1       4.995  57.683  30.535  0.00  0.00     0.195 A 
BRANCH  23  26
ATOM     26  C16 JUQ d   1       4.344  54.177  30.792  0.00  0.00     0.202 C 
ATOM     27  O23 JUQ d   1       5.414  53.830  31.314  0.00  0.00    -0.289 OA
BRANCH  26  28
ATOM     28  C17 JUQ d   1       3.188  53.233  30.575  0.00  0.00     0.025 A 
ATOM     29  C19 JUQ d   1       3.229  51.887  31.254  0.00  0.00     0.042 A 
ATOM     30  C18 JUQ d   1       3.298  51.985  29.727  0.00  0.00    -0.041 A 
ATOM     31  H8  JUQ d   1       4.136  51.603  31.808  0.00  0.00     0.058 H 
ATOM     32  H18 JUQ d   1       2.445  51.658  29.114  0.00  0.00     0.035 H 
ATOM     33  H19 JUQ d   1       4.237  51.756  29.201  0.00  0.00     0.035 H 
ATOM     34  H17 JUQ d   1       2.253  53.811  30.548  0.00  0.00     0.053 H 
BRANCH  29  35
ATOM     35  C20 JUQ d   1       2.039  51.296  31.979  0.00  0.00     0.177 C 
ATOM     36  O21 JUQ d   1       2.139  50.612  33.009  0.00  0.00    -0.648 OA
ATOM     37  O22 JUQ d   1       0.862  51.554  31.352  0.00  0.00    -0.648 OA
ENDBRANCH  29  35
ENDBRANCH  26  28
ENDBRANCH  23  26
BRANCH  25  38
ATOM     38  O26 JUQ d   1       5.866  58.627  31.007  0.00  0.00    -0.338 OA
BRANCH  38  39
ATOM     39  C27 JUQ d   1       6.823  58.159  31.970  0.00  0.00     0.012 C 
ATOM     40  H9  JUQ d   1       7.469  58.993  32.280  0.00  0.00     0.067 H 
ATOM     41  H10 JUQ d   1       7.439  57.367  31.520  0.00  0.00     0.067 H 
ATOM     42  H11 JUQ d   1       6.294  57.759  32.848  0.00  0.00     0.067 H 
ENDBRANCH  38  39
ENDBRANCH  25  38
ENDBRANCH   1  19
BRANCH   1  43
ATOM     43  C28 JUQ d   1       2.622  60.120  29.126  0.00  0.00     0.004 C 
ATOM     44  H20 JUQ d   1       2.699  61.197  29.335  0.00  0.00     0.065 H 
ATOM     45  H21 JUQ d   1       1.955  59.650  29.864  0.00  0.00     0.065 H 
BRANCH  43  46
ATOM     46  C29 JUQ d   1       2.026  59.948  27.785  0.00  0.00    -0.038 A 
ATOM     47  C30 JUQ d   1       1.126  60.988  27.161  0.00  0.00    -0.060 A 
ATOM     48  C31 JUQ d   1       2.458  60.695  26.557  0.00  0.00    -0.060 A 
ATOM     49  H12 JUQ d   1       0.207  60.679  26.642  0.00  0.00     0.033 H 
ATOM     50  H13 JUQ d   1       0.954  61.945  27.674  0.00  0.00     0.033 H 
ATOM     51  H14 JUQ d   1       3.266  61.439  26.623  0.00  0.00     0.033 H 
ATOM     52  H15 JUQ d   1       2.519  60.173  25.591  0.00  0.00     0.033 H 
ATOM     53  H22 JUQ d   1       1.761  58.886  27.677  0.00  0.00     0.042 H 
ENDBRANCH  43  46
ENDBRANCH   1  43
TORSDOF 9
