REMARK  12 active torsions:
REMARK  status: ('A' for Active; 'I' for Inactive)
REMARK    1  A    between atoms: C2_2  and  C1_1 
REMARK    2  A    between atoms: S3_18  and  C2_2 
REMARK    3  A    between atoms: C12_10  and  C9_7 
REMARK    4  A    between atoms: C12_10  and  N13_20 
REMARK    5  A    between atoms: C17_22  and  C12_10 
REMARK    6  A    between atoms: C14_11  and  C16_12 
REMARK       I    between atoms: N13_20  and  C14_11 
REMARK    7  A    between atoms: C20_13  and  N19_24 
REMARK    8  A    between atoms: C26_27  and  C32_17 
REMARK    9  A    between atoms: C6_19  and  S3_18 
REMARK       I    between atoms: N19_24  and  C17_22 
REMARK   10  A    between atoms: C23_25  and  C26_27 
REMARK   11  A    between atoms: C26_27  and  O27_28 
REMARK   12  A    between atoms: C26_27  and  C28_29 
ROOT
ATOM      1  C12 JUN d   1     -28.211   0.755 -12.064  0.00  0.00     0.115 C 
ATOM      2  H10 JUN d   1     -29.305   0.760 -12.176  0.00  0.00     0.095 H 
ENDROOT
BRANCH   1   3
ATOM      3  C9  JUN d   1     -27.628  -0.230 -13.024  0.00  0.00    -0.026 A 
ATOM      4  C8  JUN d   1     -28.163  -0.287 -14.292  0.00  0.00    -0.073 A 
ATOM      5  C7  JUN d   1     -27.584  -1.119 -15.225  0.00  0.00    -0.061 A 
ATOM      6  H7  JUN d   1     -29.027   0.314 -14.552  0.00  0.00     0.084 H 
ATOM      7  C6  JUN d   1     -26.506  -1.895 -14.867  0.00  0.00     0.059 A 
ATOM      8  H6  JUN d   1     -27.975  -1.162 -16.235  0.00  0.00     0.085 H 
ATOM      9  C11 JUN d   1     -25.977  -1.884 -13.598  0.00  0.00    -0.061 A 
ATOM     10  C10 JUN d   1     -26.537  -1.018 -12.684  0.00  0.00    -0.073 A 
ATOM     11  H9  JUN d   1     -25.151  -2.532 -13.327  0.00  0.00     0.085 H 
ATOM     12  H8  JUN d   1     -26.120  -0.951 -11.686  0.00  0.00     0.084 H 
BRANCH   7  13
ATOM     13  S3  JUN d   1     -25.803  -2.970 -16.083  0.00  0.00     0.175 S 
ATOM     14  O4  JUN d   1     -26.746  -2.997 -17.181  0.00  0.00    -0.223 OA
ATOM     15  O5  JUN d   1     -25.423  -4.178 -15.391  0.00  0.00    -0.223 OA
BRANCH  13  16
ATOM     16  C2  JUN d   1     -24.265  -2.186 -16.569  0.00  0.00     0.030 C 
ATOM     17  H4  JUN d   1     -23.561  -2.263 -15.727  0.00  0.00     0.056 H 
ATOM     18  H5  JUN d   1     -23.862  -2.732 -17.435  0.00  0.00     0.056 H 
BRANCH  16  19
ATOM     19  C1  JUN d   1     -24.385  -0.721 -16.950  0.00  0.00    -0.064 C 
ATOM     20  H1  JUN d   1     -23.395  -0.333 -17.231  0.00  0.00     0.028 H 
ATOM     21  H2  JUN d   1     -24.773  -0.150 -16.094  0.00  0.00     0.028 H 
ATOM     22  H3  JUN d   1     -25.074  -0.619 -17.802  0.00  0.00     0.028 H 
ENDBRANCH  16  19
ENDBRANCH  13  16
ENDBRANCH   7  13
ENDBRANCH   1   3
BRANCH   1  23
ATOM     23  N13 JUN d   1     -27.868   0.486 -10.673  0.00  0.00    -0.344 N 
ATOM     24  C14 JUN d   1     -28.410   1.234  -9.654  0.00  0.00     0.214 C 
ATOM     25  O15 JUN d   1     -28.906   2.341  -9.795  0.00  0.00    -0.274 OA
ATOM     26  H17 JUN d   1     -27.230  -0.253 -10.457  0.00  0.00     0.163 HD
BRANCH  24  27
ATOM     27  C16 JUN d   1     -28.291   0.574  -8.307  0.00  0.00    -0.003 C 
ATOM     28  H11 JUN d   1     -28.742   1.221  -7.540  0.00  0.00     0.040 H 
ATOM     29  H12 JUN d   1     -27.229   0.411  -8.071  0.00  0.00     0.040 H 
ATOM     30  H13 JUN d   1     -28.815  -0.393  -8.325  0.00  0.00     0.040 H 
ENDBRANCH  24  27
ENDBRANCH   1  23
BRANCH   1  31
ATOM     31  C17 JUN d   1     -27.636   2.124 -12.388  0.00  0.00     0.249 C 
ATOM     32  O18 JUN d   1     -26.516   2.487 -12.075  0.00  0.00    -0.270 OA
ATOM     33  N19 JUN d   1     -28.529   2.908 -13.062  0.00  0.00    -0.325 N 
ATOM     34  H18 JUN d   1     -29.469   2.579 -13.152  0.00  0.00     0.169 HD
BRANCH  33  35
ATOM     35  C20 JUN d   1     -28.205   4.156 -13.640  0.00  0.00     0.034 A 
ATOM     36  C21 JUN d   1     -29.054   4.682 -14.590  0.00  0.00    -0.057 A 
ATOM     37  C22 JUN d   1     -28.763   5.917 -15.146  0.00  0.00    -0.071 A 
ATOM     38  H14 JUN d   1     -29.938   4.136 -14.898  0.00  0.00     0.086 H 
ATOM     39  C23 JUN d   1     -27.649   6.657 -14.765  0.00  0.00    -0.006 A 
ATOM     40  H15 JUN d   1     -29.426   6.320 -15.903  0.00  0.00     0.084 H 
ATOM     41  C24 JUN d   1     -26.809   6.109 -13.816  0.00  0.00    -0.071 A 
ATOM     42  C25 JUN d   1     -27.079   4.869 -13.265  0.00  0.00    -0.057 A 
ATOM     43  H16 JUN d   1     -25.928   6.656 -13.499  0.00  0.00     0.084 H 
ATOM     44  H19 JUN d   1     -26.401   4.450 -12.530  0.00  0.00     0.086 H 
BRANCH  39  45
ATOM     45  C26 JUN d   1     -27.334   8.029 -15.334  0.00  0.00     0.281 C 
BRANCH  45  46
ATOM     46  C32 JUN d   1     -28.470   9.003 -15.054  0.00  0.00     0.431 C 
ATOM     47  F33 JUN d   1     -28.765   9.042 -13.733  0.00  0.00    -0.167 F 
ATOM     48  F34 JUN d   1     -28.089  10.262 -15.360  0.00  0.00    -0.167 F 
ATOM     49  F35 JUN d   1     -29.610   8.693 -15.746  0.00  0.00    -0.167 F 
ENDBRANCH  45  46
BRANCH  45  50
ATOM     50  O27 JUN d   1     -26.230   8.615 -14.650  0.00  0.00    -0.370 OA
ATOM     51  H20 JUN d   1     -26.048   9.471 -15.019  0.00  0.00     0.211 HD
ENDBRANCH  45  50
BRANCH  45  52
ATOM     52  C28 JUN d   1     -27.002   8.003 -16.823  0.00  0.00     0.431 C 
ATOM     53  F29 JUN d   1     -28.119   7.710 -17.543  0.00  0.00    -0.167 F 
ATOM     54  F30 JUN d   1     -26.002   7.127 -17.157  0.00  0.00    -0.167 F 
ATOM     55  F31 JUN d   1     -26.584   9.232 -17.231  0.00  0.00    -0.167 F 
ENDBRANCH  45  52
ENDBRANCH  39  45
ENDBRANCH  33  35
ENDBRANCH   1  31
TORSDOF 12
