REMARK  13 active torsions:
REMARK  status: ('A' for Active; 'I' for Inactive)
REMARK    1  A    between atoms: C2_2  and  C1_1 
REMARK    2  A    between atoms: S3_23  and  C2_2 
REMARK    3  A    between atoms: C9_7  and  C12_10 
REMARK    4  A    between atoms: C12_10  and  N13_25 
REMARK    5  A    between atoms: C12_10  and  C23_29 
REMARK    6  A    between atoms: C14_11  and  C16_12 
REMARK       I    between atoms: N13_25  and  C14_11 
REMARK    7  A    between atoms: C16_12  and  C17_27 
REMARK       I    between atoms: C23_29  and  N25_17 
REMARK    8  A    between atoms: N25_17  and  C26_31 
REMARK    9  A    between atoms: C32_21  and  C34_22 
REMARK   10  A    between atoms: C29_33  and  C32_21 
REMARK   11  A    between atoms: C32_21  and  O33_34 
REMARK   12  A    between atoms: C32_21  and  C38_38 
REMARK   13  A    between atoms: S3_23  and  C6_24 
ROOT
ATOM      1  C12 JUH d   1     -28.017   0.576 -12.086  0.00  0.00     0.115 C 
ATOM      2  H10 JUH d   1     -29.110   0.608 -12.210  0.00  0.00     0.095 H 
ENDROOT
BRANCH   1   3
ATOM      3  C9  JUH d   1     -27.419  -0.360 -13.089  0.00  0.00    -0.026 A 
ATOM      4  C8  JUH d   1     -27.961  -0.417 -14.358  0.00  0.00    -0.073 A 
ATOM      5  C7  JUH d   1     -27.397  -1.228 -15.326  0.00  0.00    -0.061 A 
ATOM      6  H7  JUH d   1     -28.835   0.178 -14.597  0.00  0.00     0.084 H 
ATOM      7  C6  JUH d   1     -26.303  -1.999 -15.002  0.00  0.00     0.059 A 
ATOM      8  H6  JUH d   1     -27.811  -1.256 -16.327  0.00  0.00     0.085 H 
ATOM      9  C11 JUH d   1     -25.747  -1.956 -13.740  0.00  0.00    -0.061 A 
ATOM     10  C10 JUH d   1     -26.300  -1.116 -12.792  0.00  0.00    -0.073 A 
ATOM     11  H9  JUH d   1     -24.889  -2.572 -13.496  0.00  0.00     0.085 H 
ATOM     12  H8  JUH d   1     -25.852  -1.049 -11.807  0.00  0.00     0.084 H 
BRANCH   7  13
ATOM     13  S3  JUH d   1     -25.584  -3.074 -16.230  0.00  0.00     0.175 S 
ATOM     14  O4  JUH d   1     -25.347  -4.361 -15.580  0.00  0.00    -0.223 OA
ATOM     15  O5  JUH d   1     -26.375  -3.040 -17.464  0.00  0.00    -0.223 OA
BRANCH  13  16
ATOM     16  C2  JUH d   1     -23.969  -2.373 -16.557  0.00  0.00     0.030 C 
ATOM     17  H4  JUH d   1     -23.359  -2.440 -15.644  0.00  0.00     0.056 H 
ATOM     18  H5  JUH d   1     -23.487  -2.946 -17.363  0.00  0.00     0.056 H 
BRANCH  16  19
ATOM     19  C1  JUH d   1     -24.071  -0.920 -16.977  0.00  0.00    -0.064 C 
ATOM     20  H1  JUH d   1     -23.064  -0.522 -17.169  0.00  0.00     0.028 H 
ATOM     21  H2  JUH d   1     -24.547  -0.339 -16.174  0.00  0.00     0.028 H 
ATOM     22  H3  JUH d   1     -24.676  -0.845 -17.893  0.00  0.00     0.028 H 
ENDBRANCH  16  19
ENDBRANCH  13  16
ENDBRANCH   7  13
ENDBRANCH   1   3
BRANCH   1  23
ATOM     23  N13 JUH d   1     -27.682   0.203 -10.710  0.00  0.00    -0.344 N 
ATOM     24  C14 JUH d   1     -27.957   1.032  -9.645  0.00  0.00     0.222 C 
ATOM     25  O15 JUH d   1     -28.577   2.081  -9.705  0.00  0.00    -0.273 OA
ATOM     26  H21 JUH d   1     -27.241  -0.678 -10.539  0.00  0.00     0.163 HD
BRANCH  24  27
ATOM     27  C16 JUH d   1     -27.354   0.535  -8.363  0.00  0.00     0.033 C 
ATOM     28  H11 JUH d   1     -26.710   1.325  -7.949  0.00  0.00     0.054 H 
ATOM     29  H12 JUH d   1     -26.746  -0.355  -8.584  0.00  0.00     0.054 H 
BRANCH  27  30
ATOM     30  C17 JUH d   1     -28.373   0.170  -7.340  0.00  0.00    -0.050 A 
ATOM     31  C22 JUH d   1     -29.220  -0.903  -7.543  0.00  0.00    -0.076 A 
ATOM     32  C21 JUH d   1     -30.139  -1.233  -6.562  0.00  0.00    -0.082 A 
ATOM     33  H16 JUH d   1     -29.165  -1.479  -8.460  0.00  0.00     0.084 H 
ATOM     34  C20 JUH d   1     -30.213  -0.497  -5.394  0.00  0.00    -0.083 A 
ATOM     35  H15 JUH d   1     -30.806  -2.075  -6.711  0.00  0.00     0.083 H 
ATOM     36  C19 JUH d   1     -29.357   0.569  -5.187  0.00  0.00    -0.082 A 
ATOM     37  H14 JUH d   1     -30.945  -0.757  -4.638  0.00  0.00     0.083 H 
ATOM     38  C18 JUH d   1     -28.434   0.896  -6.163  0.00  0.00    -0.076 A 
ATOM     39  H13 JUH d   1     -29.409   1.143  -4.269  0.00  0.00     0.083 H 
ATOM     40  H22 JUH d   1     -27.754   1.726  -6.006  0.00  0.00     0.084 H 
ENDBRANCH  27  30
ENDBRANCH  24  27
ENDBRANCH   1  23
BRANCH   1  41
ATOM     41  C23 JUH d   1     -27.406   1.936 -12.332  0.00  0.00     0.249 C 
ATOM     42  N25 JUH d   1     -28.248   2.741 -13.049  0.00  0.00    -0.325 N 
ATOM     43  H17 JUH d   1     -29.181   2.411 -13.191  0.00  0.00     0.169 HD
ATOM     44  O24 JUH d   1     -26.305   2.269 -11.934  0.00  0.00    -0.270 OA
BRANCH  42  45
ATOM     45  C26 JUH d   1     -27.920   3.993 -13.606  0.00  0.00     0.034 A 
ATOM     46  C27 JUH d   1     -26.830   4.748 -13.208  0.00  0.00    -0.057 A 
ATOM     47  C28 JUH d   1     -26.604   5.980 -13.796  0.00  0.00    -0.071 A 
ATOM     48  H18 JUH d   1     -26.159   4.377 -12.442  0.00  0.00     0.086 H 
ATOM     49  C29 JUH d   1     -27.446   6.464 -14.780  0.00  0.00    -0.006 A 
ATOM     50  H23 JUH d   1     -25.754   6.574 -13.480  0.00  0.00     0.084 H 
ATOM     51  C30 JUH d   1     -28.525   5.686 -15.174  0.00  0.00    -0.071 A 
ATOM     52  C31 JUH d   1     -28.759   4.457 -14.592  0.00  0.00    -0.057 A 
ATOM     53  H19 JUH d   1     -29.192   6.048 -15.948  0.00  0.00     0.084 H 
ATOM     54  H20 JUH d   1     -29.604   3.857 -14.912  0.00  0.00     0.086 H 
BRANCH  49  55
ATOM     55  C32 JUH d   1     -27.179   7.823 -15.379  0.00  0.00     0.281 C 
BRANCH  55  56
ATOM     56  C34 JUH d   1     -26.845   7.776 -16.861  0.00  0.00     0.431 C 
ATOM     57  F35 JUH d   1     -26.413   9.015 -17.263  0.00  0.00    -0.167 F 
ATOM     58  F36 JUH d   1     -25.853   6.872 -17.122  0.00  0.00    -0.167 F 
ATOM     59  F37 JUH d   1     -27.941   7.418 -17.598  0.00  0.00    -0.167 F 
ENDBRANCH  55  56
BRANCH  55  60
ATOM     60  O33 JUH d   1     -26.061   8.400 -14.715  0.00  0.00    -0.370 OA
ATOM     61  H24 JUH d   1     -25.883   9.257 -15.084  0.00  0.00     0.211 HD
ENDBRANCH  55  60
BRANCH  55  62
ATOM     62  C38 JUH d   1     -28.316   8.787 -15.091  0.00  0.00     0.431 C 
ATOM     63  F39 JUH d   1     -27.975  10.048 -15.462  0.00  0.00    -0.167 F 
ATOM     64  F40 JUH d   1     -29.475   8.445 -15.728  0.00  0.00    -0.167 F 
ATOM     65  F41 JUH d   1     -28.543   8.857 -13.755  0.00  0.00    -0.167 F 
ENDBRANCH  55  62
ENDBRANCH  49  55
ENDBRANCH  42  45
ENDBRANCH   1  41
TORSDOF 13
