REMARK  4 active torsions:
REMARK  status: ('A' for Active; 'I' for Inactive)
REMARK    1  A    between atoms: N_1  and  CA_2 
REMARK    2  A    between atoms: CA_2  and  C_3 
REMARK    3  A    between atoms: CA_2  and  CB_5 
REMARK    4  A    between atoms: CB_5  and  CG_6 
ROOT
ATOM      1  CA  DAS d   1      76.383  22.732 348.079  0.00  0.00     0.191 C 
ATOM      2  H4  DAS d   1      75.471  22.126 347.973  0.00  0.00     0.102 H 
ENDROOT
BRANCH   1   3
ATOM      3  N   DAS d   1      75.948  24.038 348.579  0.00  0.00    -0.065 N 
ATOM      4  H1  DAS d   1      75.534  23.928 349.491  0.00  0.00     0.275 HD
ATOM      5  H2  DAS d   1      75.268  24.430 347.947  0.00  0.00     0.275 HD
ATOM      6  H3  DAS d   1      76.743  24.655 348.643  0.00  0.00     0.275 HD
ENDBRANCH   1   3
BRANCH   1   7
ATOM      7  C   DAS d   1      77.045  22.744 346.673  0.00  0.00     0.205 C 
ATOM      8  O   DAS d   1      76.392  22.296 345.746  0.00  0.00    -0.646 OA
ATOM      9  OXT DAS d   1      78.176  23.179 346.380  0.00  0.00    -0.646 OA
ENDBRANCH   1   7
BRANCH   1  10
ATOM     10  CB  DAS d   1      77.253  22.037 349.127  0.00  0.00     0.051 C 
ATOM     11  H5  DAS d   1      77.972  21.382 348.613  0.00  0.00     0.053 H 
ATOM     12  H6  DAS d   1      76.607  21.431 349.779  0.00  0.00     0.053 H 
BRANCH  10  13
ATOM     13  CG  DAS d   1      78.009  23.017 349.971  0.00  0.00     0.175 C 
ATOM     14  OD1 DAS d   1      79.221  22.806 350.207  0.00  0.00    -0.648 OA
ATOM     15  OD2 DAS d   1      77.379  24.004 350.399  0.00  0.00    -0.648 OA
ENDBRANCH  10  13
ENDBRANCH   1  10
TORSDOF 4
