REMARK WARNING: 32 MAX_TORS EXCEEDED!!!
REMARK  55 active torsions:
REMARK  status: ('A' for Active; 'I' for Inactive)
REMARK    1  A    between atoms: N_1  and  CA_2 
REMARK    2  A    between atoms: CA_2  and  C_3 
REMARK    3  A    between atoms: CA_2  and  CB_5 
REMARK       I    between atoms: C_3  and  N_7 
REMARK    4  A    between atoms: CB_5  and  OG_6 
REMARK    5  A    between atoms: N_7  and  CA_8 
REMARK    6  A    between atoms: CA_8  and  C_9 
REMARK    7  A    between atoms: CA_8  and  CB_11 
REMARK       I    between atoms: C_9  and  N_15 
REMARK    8  A    between atoms: CB_11  and  CG_12 
REMARK    9  A    between atoms: CG_12  and  CD1_13 
REMARK   10  A    between atoms: CG_12  and  CD2_14 
REMARK   11  A    between atoms: CA_16  and  C_17 
REMARK       I    between atoms: C_17  and  N_22 
REMARK   12  A    between atoms: N_22  and  CA_23 
REMARK   13  A    between atoms: CA_23  and  C_24 
REMARK   14  A    between atoms: CA_23  and  CB_26 
REMARK       I    between atoms: C_24  and  N_33 
REMARK   15  A    between atoms: CB_26  and  CG_27 
REMARK   16  A    between atoms: N_33  and  CA_34 
REMARK   17  A    between atoms: CA_34  and  C_35 
REMARK   18  A    between atoms: CA_34  and  CB_37 
REMARK       I    between atoms: C_35  and  N_40 
REMARK   19  A    between atoms: CB_37  and  OG1_38 
REMARK   20  A    between atoms: CB_37  and  CG2_39 
REMARK   21  A    between atoms: N_40  and  CA_41 
REMARK   22  A    between atoms: CA_41  and  C_42 
REMARK   23  A    between atoms: CA_41  and  CB_44 
REMARK       I    between atoms: C_42  and  N_51 
REMARK   24  A    between atoms: CB_44  and  CG_45 
REMARK   25  A    between atoms: N_51  and  CA_52 
REMARK   26  A    between atoms: CA_52  and  C_53 
REMARK   27  A    between atoms: CA_52  and  CB_55 
REMARK       I    between atoms: C_53  and  N_60 
REMARK   28  A    between atoms: CB_55  and  CG_56 
REMARK   29  A    between atoms: CG_56  and  CD_57 
REMARK   30  A    between atoms: CD_57  and  CE_58 
REMARK   31  A    between atoms: CE_58  and  NZ_59 
REMARK   32  A    between atoms: N_60  and  CA_61 
REMARK   33  A    between atoms: CA_61  and  C_62 
REMARK   34  A    between atoms: CA_61  and  CB_64 
REMARK       I    between atoms: C_62  and  N_67 
REMARK   35  A    between atoms: CB_64  and  CG1_65 
REMARK   36  A    between atoms: CB_64  and  CG2_66 
REMARK   37  A    between atoms: CA_68  and  C_69 
REMARK       I    between atoms: C_69  and  N_74 
REMARK   38  A    between atoms: N_74  and  CA_75 
REMARK   39  A    between atoms: CA_75  and  C_76 
REMARK   40  A    between atoms: CA_75  and  CB_78 
REMARK       I    between atoms: C_76  and  N_79 
REMARK   41  A    between atoms: CA_80  and  C_81 
REMARK       I    between atoms: C_81  and  N_86 
REMARK   42  A    between atoms: CA_87  and  C_88 
REMARK       I    between atoms: C_88  and  N_93 
REMARK   43  A    between atoms: CA_94  and  C_95 
REMARK       I    between atoms: C_95  and  N_100 
REMARK   44  A    between atoms: N_100  and  CA_101 
REMARK   45  A    between atoms: CA_101  and  C_102 
REMARK   46  A    between atoms: CA_101  and  CB_104 
REMARK       I    between atoms: C_102  and  N_106 
REMARK   47  A    between atoms: CB_104  and  OG_105 
REMARK   48  A    between atoms: N_106  and  CA_107 
REMARK   49  A    between atoms: CA_107  and  C_108 
REMARK   50  A    between atoms: CA_107  and  CB_110 
REMARK       I    between atoms: C_108  and  N_114 
REMARK   51  A    between atoms: CB_110  and  CG_111 
REMARK   52  A    between atoms: CG_111  and  CD1_112 
REMARK   53  A    between atoms: CG_111  and  CD2_113 
REMARK   54  A    between atoms: CA_115  and  C_116 
REMARK       I    between atoms: C_116  and  N_121 
REMARK   55  A    between atoms: CA_122  and  C_123 
ROOT
ATOM      1  CA  SER d   1      40.655  34.851  40.547  0.00  0.00     0.092 C 
ATOM      2  H65 SER d   1      40.996  34.020  39.912  0.00  0.00     0.088 H 
ENDROOT
BRANCH   1   3
ATOM      3  N   SER d   1      39.221  34.719  40.789  0.00  0.00    -0.346 N 
ATOM      4  C   SER d   1      38.449  33.841  40.152  0.00  0.00     0.241 C 
ATOM      5  O   SER d   1      38.861  33.127  39.230  0.00  0.00    -0.271 OA
ATOM      6  H64 SER d   1      38.797  35.319  41.468  0.00  0.00     0.163 HD
BRANCH   4   7
ATOM      7  CA  SER d   1      37.004  33.776  40.635  0.00  0.00     0.089 C 
ATOM      8  H52 SER d   1      36.651  34.798  40.838  0.00  0.00     0.087 H 
BRANCH   7   9
ATOM      9  N   SER d   1      36.165  33.185  39.616  0.00  0.00    -0.346 N 
ATOM     10  C   SER d   1      35.968  33.775  38.446  0.00  0.00     0.241 C 
ATOM     11  O   SER d   1      36.257  34.955  38.203  0.00  0.00    -0.271 OA
ATOM     12  H51 SER d   1      35.722  32.308  39.799  0.00  0.00     0.163 HD
BRANCH  10  13
ATOM     13  CA  SER d   1      35.350  32.892  37.377  0.00  0.00     0.093 C 
ATOM     14  H43 SER d   1      35.218  31.885  37.799  0.00  0.00     0.088 H 
BRANCH  13  15
ATOM     15  N   SER d   1      34.045  33.395  36.987  0.00  0.00    -0.346 N 
ATOM     16  C   SER d   1      32.930  32.736  37.279  0.00  0.00     0.243 C 
ATOM     17  O   SER d   1      32.908  31.812  38.101  0.00  0.00    -0.271 OA
ATOM     18  H42 SER d   1      33.985  34.259  36.486  0.00  0.00     0.163 HD
BRANCH  16  19
ATOM     19  CA  SER d   1      31.654  33.146  36.557  0.00  0.00     0.113 C 
ATOM     20  H36 SER d   1      30.799  32.784  37.146  0.00  0.00     0.091 H 
BRANCH  19  21
ATOM     21  N   SER d   1      31.518  34.589  36.417  0.00  0.00    -0.344 N 
ATOM     22  C   SER d   1      30.765  35.242  37.295  0.00  0.00     0.241 C 
ATOM     23  O   SER d   1      30.207  34.675  38.240  0.00  0.00    -0.271 OA
ATOM     24  H35 SER d   1      31.981  35.077  35.677  0.00  0.00     0.163 HD
BRANCH  22  25
ATOM     25  CA  SER d   1      30.699  36.752  37.133  0.00  0.00     0.093 C 
ATOM     26  H27 SER d   1      30.485  37.014  36.086  0.00  0.00     0.088 H 
BRANCH  25  27
ATOM     27  N   SER d   1      29.631  37.240  37.994  0.00  0.00    -0.346 N 
ATOM     28  C   SER d   1      28.697  38.115  37.634  0.00  0.00     0.241 C 
ATOM     29  O   SER d   1      28.616  38.586  36.493  0.00  0.00    -0.271 OA
ATOM     30  H26 SER d   1      29.597  36.889  38.930  0.00  0.00     0.163 HD
BRANCH  28  31
ATOM     31  CA  SER d   1      27.692  38.485  38.718  0.00  0.00     0.091 C 
ATOM     32  N   SER d   1      27.022  37.300  39.278  0.00  0.00    -0.337 N 
ATOM     33  C   SER d   1      26.322  36.489  38.481  0.00  0.00     0.243 C 
ATOM     34  CD  SER d   1      27.164  37.210  40.741  0.00  0.00    -0.001 C 
ATOM     35  O   SER d   1      26.141  36.751  37.289  0.00  0.00    -0.271 OA
ATOM     36  CG  SER d   1      27.623  38.577  41.122  0.00  0.00    -0.048 C 
ATOM     37  H24 SER d   1      27.910  36.451  41.019  0.00  0.00     0.064 H 
ATOM     38  H25 SER d   1      26.202  36.970  41.217  0.00  0.00     0.064 H 
ATOM     39  CB  SER d   1      28.374  39.116  39.942  0.00  0.00    -0.036 C 
ATOM     40  H22 SER d   1      26.759  39.219  41.349  0.00  0.00     0.035 H 
ATOM     41  H23 SER d   1      28.282  38.526  42.001  0.00  0.00     0.035 H 
ATOM     42  H20 SER d   1      28.300  40.213  39.904  0.00  0.00     0.036 H 
ATOM     43  H21 SER d   1      29.433  38.822  39.990  0.00  0.00     0.036 H 
ATOM     44  H19 SER d   1      26.952  39.178  38.291  0.00  0.00     0.087 H 
BRANCH  33  45
ATOM     45  CA  SER d   1      25.730  35.223  39.096  0.00  0.00     0.090 C 
ATOM     46  H9  SER d   1      25.552  35.394  40.168  0.00  0.00     0.087 H 
BRANCH  45  47
ATOM     47  N   SER d   1      24.465  34.910  38.456  0.00  0.00    -0.346 N 
ATOM     48  C   SER d   1      23.346  35.489  38.873  0.00  0.00     0.251 C 
ATOM     49  O   SER d   1      23.272  36.132  39.921  0.00  0.00    -0.271 OA
ATOM     50  H8  SER d   1      24.437  34.257  37.699  0.00  0.00     0.163 HD
BRANCH  48  51
ATOM     51  CA  SER d   1      22.123  35.311  37.982  0.00  0.00     0.195 C 
ATOM     52  H4  SER d   1      22.212  34.348  37.458  0.00  0.00     0.102 H 
BRANCH  51  53
ATOM     53  N   SER d   1      20.894  35.293  38.768  0.00  0.00    -0.064 N 
ATOM     54  H1  SER d   1      20.104  35.174  38.154  0.00  0.00     0.275 HD
ATOM     55  H2  SER d   1      20.802  36.163  39.269  0.00  0.00     0.275 HD
ATOM     56  H3  SER d   1      20.926  34.529  39.425  0.00  0.00     0.275 HD
ENDBRANCH  51  53
BRANCH  51  57
ATOM     57  CB  SER d   1      22.077  36.431  36.940  0.00  0.00     0.051 C 
ATOM     58  H5  SER d   1      21.410  36.131  36.119  0.00  0.00     0.077 H 
ATOM     59  H6  SER d   1      23.090  36.598  36.546  0.00  0.00     0.077 H 
BRANCH  57  60
ATOM     60  OG  SER d   1      21.597  37.637  37.510  0.00  0.00    -0.398 OA
ATOM     61  H7  SER d   1      21.578  38.315  36.845  0.00  0.00     0.209 HD
ENDBRANCH  57  60
ENDBRANCH  51  57
ENDBRANCH  48  51
ENDBRANCH  45  47
BRANCH  45  62
ATOM     62  CB  SER d   1      26.717  34.070  38.939  0.00  0.00    -0.035 C 
ATOM     63  H10 SER d   1      27.729  34.496  39.011  0.00  0.00     0.037 H 
ATOM     64  H11 SER d   1      26.568  33.649  37.934  0.00  0.00     0.037 H 
BRANCH  62  65
ATOM     65  CG  SER d   1      26.644  32.908  39.931  0.00  0.00    -0.059 C 
ATOM     66  H12 SER d   1      25.900  32.187  39.561  0.00  0.00     0.038 H 
BRANCH  65  67
ATOM     67  CD1 SER d   1      27.990  32.198  40.021  0.00  0.00    -0.073 C 
ATOM     68  H13 SER d   1      27.919  31.367  40.738  0.00  0.00     0.028 H 
ATOM     69  H14 SER d   1      28.758  32.909  40.359  0.00  0.00     0.028 H 
ATOM     70  H15 SER d   1      28.265  31.806  39.031  0.00  0.00     0.028 H 
ENDBRANCH  65  67
BRANCH  65  71
ATOM     71  CD2 SER d   1      26.193  33.390  41.301  0.00  0.00    -0.073 C 
ATOM     72  H16 SER d   1      25.221  33.898  41.209  0.00  0.00     0.028 H 
ATOM     73  H17 SER d   1      26.937  34.092  41.706  0.00  0.00     0.028 H 
ATOM     74  H18 SER d   1      26.094  32.529  41.978  0.00  0.00     0.028 H 
ENDBRANCH  65  71
ENDBRANCH  62  65
ENDBRANCH  45  62
ENDBRANCH  33  45
ENDBRANCH  28  31
ENDBRANCH  25  27
BRANCH  25  75
ATOM     75  CB  SER d   1      32.040  37.351  37.546  0.00  0.00    -0.014 C 
ATOM     76  H28 SER d   1      32.089  38.393  37.197  0.00  0.00     0.043 H 
ATOM     77  H29 SER d   1      32.850  36.770  37.081  0.00  0.00     0.043 H 
BRANCH  75  78
ATOM     78  CG  SER d   1      32.213  37.326  39.020  0.00  0.00    -0.056 A 
ATOM     79  CD1 SER d   1      31.894  38.439  39.777  0.00  0.00    -0.077 A 
ATOM     80  CE1 SER d   1      31.994  38.412  41.139  0.00  0.00    -0.082 A 
ATOM     81  H30 SER d   1      31.560  39.344  39.283  0.00  0.00     0.084 H 
ATOM     82  CZ  SER d   1      32.354  37.248  41.764  0.00  0.00    -0.083 A 
ATOM     83  H32 SER d   1      31.790  39.304  41.720  0.00  0.00     0.083 H 
ATOM     84  CE2 SER d   1      32.652  36.114  41.029  0.00  0.00    -0.082 A 
ATOM     85  H34 SER d   1      32.406  37.215  42.846  0.00  0.00     0.083 H 
ATOM     86  CD2 SER d   1      32.564  36.153  39.665  0.00  0.00    -0.077 A 
ATOM     87  H33 SER d   1      32.953  35.202  41.531  0.00  0.00     0.083 H 
ATOM     88  H31 SER d   1      32.770  35.260  39.086  0.00  0.00     0.084 H 
ENDBRANCH  75  78
ENDBRANCH  25  75
ENDBRANCH  22  25
ENDBRANCH  19  21
BRANCH  19  89
ATOM     89  CB  SER d   1      31.619  32.475  35.186  0.00  0.00     0.060 C 
ATOM     90  H37 SER d   1      32.465  32.839  34.585  0.00  0.00     0.086 H 
BRANCH  89  91
ATOM     91  OG1 SER d   1      30.392  32.798  34.520  0.00  0.00    -0.393 OA
ATOM     92  H38 SER d   1      30.375  32.378  33.668  0.00  0.00     0.210 HD
ENDBRANCH  89  91
BRANCH  89  93
ATOM     93  CG2 SER d   1      31.726  30.980  35.339  0.00  0.00    -0.050 C 
ATOM     94  H39 SER d   1      31.700  30.507  34.346  0.00  0.00     0.031 H 
ATOM     95  H40 SER d   1      30.883  30.612  35.943  0.00  0.00     0.031 H 
ATOM     96  H41 SER d   1      32.673  30.730  35.840  0.00  0.00     0.031 H 
ENDBRANCH  89  93
ENDBRANCH  19  89
ENDBRANCH  16  19
ENDBRANCH  13  15
BRANCH  13  97
ATOM     97  CB  SER d   1      36.268  32.781  36.164  0.00  0.00    -0.014 C 
ATOM     98  H44 SER d   1      37.276  32.509  36.510  0.00  0.00     0.043 H 
ATOM     99  H45 SER d   1      36.304  33.758  35.659  0.00  0.00     0.043 H 
BRANCH  97 100
ATOM    100  CG  SER d   1      35.804  31.749  35.179  0.00  0.00    -0.056 A 
ATOM    101  CD1 SER d   1      35.842  30.415  35.514  0.00  0.00    -0.077 A 
ATOM    102  CE1 SER d   1      35.384  29.454  34.619  0.00  0.00    -0.082 A 
ATOM    103  H46 SER d   1      36.230  30.112  36.480  0.00  0.00     0.084 H 
ATOM    104  CZ  SER d   1      34.892  29.843  33.388  0.00  0.00    -0.083 A 
ATOM    105  H48 SER d   1      35.413  28.404  34.886  0.00  0.00     0.083 H 
ATOM    106  CE2 SER d   1      34.831  31.176  33.055  0.00  0.00    -0.082 A 
ATOM    107  H50 SER d   1      34.553  29.094  32.681  0.00  0.00     0.083 H 
ATOM    108  CD2 SER d   1      35.272  32.124  33.952  0.00  0.00    -0.077 A 
ATOM    109  H49 SER d   1      34.438  31.479  32.091  0.00  0.00     0.083 H 
ATOM    110  H47 SER d   1      35.203  33.175  33.697  0.00  0.00     0.084 H 
ENDBRANCH  97 100
ENDBRANCH  13  97
ENDBRANCH  10  13
ENDBRANCH   7   9
BRANCH   7 111
ATOM    111  CB  SER d   1      36.914  32.958  41.921  0.00  0.00    -0.038 C 
ATOM    112  H53 SER d   1      37.592  33.406  42.663  0.00  0.00     0.036 H 
ATOM    113  H54 SER d   1      37.239  31.931  41.700  0.00  0.00     0.036 H 
BRANCH 111 114
ATOM    114  CG  SER d   1      35.503  32.896  42.533  0.00  0.00    -0.061 C 
ATOM    115  H55 SER d   1      34.853  32.288  41.886  0.00  0.00     0.033 H 
ATOM    116  H56 SER d   1      35.095  33.915  42.609  0.00  0.00     0.033 H 
BRANCH 114 117
ATOM    117  CD  SER d   1      35.557  32.275  43.912  0.00  0.00    -0.043 C 
ATOM    118  H57 SER d   1      36.206  32.892  44.551  0.00  0.00     0.035 H 
ATOM    119  H58 SER d   1      35.981  31.264  43.827  0.00  0.00     0.035 H 
BRANCH 117 120
ATOM    120  CE  SER d   1      34.188  32.175  44.562  0.00  0.00     0.080 C 
ATOM    121  H59 SER d   1      33.675  33.143  44.464  0.00  0.00     0.075 H 
ATOM    122  H60 SER d   1      34.316  31.935  45.628  0.00  0.00     0.075 H 
BRANCH 120 123
ATOM    123  NZ  SER d   1      33.352  31.121  43.928  0.00  0.00    -0.079 N 
ATOM    124  H61 SER d   1      32.454  31.084  44.385  0.00  0.00     0.274 HD
ATOM    125  H62 SER d   1      33.811  30.228  44.018  0.00  0.00     0.274 HD
ATOM    126  H63 SER d   1      33.224  31.336  42.952  0.00  0.00     0.274 HD
ENDBRANCH 120 123
ENDBRANCH 117 120
ENDBRANCH 114 117
ENDBRANCH 111 114
ENDBRANCH   7 111
ENDBRANCH   4   7
ENDBRANCH   1   3
BRANCH   1 127
ATOM    127  C   SER d   1      41.339  34.756  41.905  0.00  0.00     0.243 C 
ATOM    128  O   SER d   1      40.768  35.208  42.911  0.00  0.00    -0.271 OA
ATOM    129  N   SER d   1      42.523  34.161  42.006  0.00  0.00    -0.337 N 
ATOM    130  CA  SER d   1      43.206  34.125  43.303  0.00  0.00     0.091 C 
ATOM    131  CD  SER d   1      43.266  33.436  40.961  0.00  0.00    -0.001 C 
ATOM    132  CB  SER d   1      44.433  33.237  43.067  0.00  0.00    -0.036 C 
ATOM    133  H73 SER d   1      42.553  33.688  44.073  0.00  0.00     0.087 H 
ATOM    134  CG  SER d   1      44.216  32.576  41.750  0.00  0.00    -0.048 C 
ATOM    135  H74 SER d   1      44.518  32.483  43.863  0.00  0.00     0.036 H 
ATOM    136  H75 SER d   1      45.347  33.848  43.042  0.00  0.00     0.036 H 
ATOM    137  H76 SER d   1      43.782  31.576  41.899  0.00  0.00     0.035 H 
ATOM    138  H77 SER d   1      45.172  32.484  41.214  0.00  0.00     0.035 H 
ATOM    139  H78 SER d   1      43.813  34.133  40.310  0.00  0.00     0.064 H 
ATOM    140  H79 SER d   1      42.589  32.819  40.351  0.00  0.00     0.064 H 
BRANCH 130 141
ATOM    141  C   SER d   1      43.625  35.517  43.729  0.00  0.00     0.241 C 
ATOM    142  O   SER d   1      43.694  36.455  42.932  0.00  0.00    -0.271 OA
ATOM    143  N   SER d   1      43.884  35.623  45.023  0.00  0.00    -0.346 N 
ATOM    144  H80 SER d   1      43.719  34.840  45.623  0.00  0.00     0.163 HD
BRANCH 143 145
ATOM    145  CA  SER d   1      44.404  36.856  45.585  0.00  0.00     0.086 C 
ATOM    146  H81 SER d   1      43.728  37.683  45.321  0.00  0.00     0.086 H 
BRANCH 145 147
ATOM    147  C   SER d   1      45.793  37.148  45.024  0.00  0.00     0.243 C 
ATOM    148  O   SER d   1      46.588  36.225  44.828  0.00  0.00    -0.271 OA
ATOM    149  N   SER d   1      46.137  38.412  44.807  0.00  0.00    -0.337 N 
ATOM    150  CA  SER d   1      47.526  38.755  44.498  0.00  0.00     0.092 C 
ATOM    151  CD  SER d   1      45.276  39.606  44.861  0.00  0.00    -0.001 C 
ATOM    152  CB  SER d   1      47.456  40.252  44.139  0.00  0.00    -0.036 C 
ATOM    153  H85 SER d   1      47.903  38.165  43.649  0.00  0.00     0.087 H 
ATOM    154  CG  SER d   1      45.994  40.557  43.962  0.00  0.00    -0.048 C 
ATOM    155  H86 SER d   1      48.005  40.449  43.206  0.00  0.00     0.036 H 
ATOM    156  H87 SER d   1      47.880  40.862  44.950  0.00  0.00     0.036 H 
ATOM    157  H88 SER d   1      45.692  40.399  42.916  0.00  0.00     0.035 H 
ATOM    158  H89 SER d   1      45.780  41.596  44.252  0.00  0.00     0.035 H 
ATOM    159  H90 SER d   1      45.207  40.001  45.885  0.00  0.00     0.064 H 
ATOM    160  H91 SER d   1      44.266  39.386  44.484  0.00  0.00     0.064 H 
BRANCH 150 161
ATOM    161  C   SER d   1      48.402  38.515  45.715  0.00  0.00     0.243 C 
ATOM    162  O   SER d   1      48.095  39.013  46.809  0.00  0.00    -0.271 OA
ATOM    163  N   SER d   1      49.470  37.736  45.573  0.00  0.00    -0.337 N 
ATOM    164  CA  SER d   1      50.293  37.372  46.730  0.00  0.00     0.092 C 
ATOM    165  CD  SER d   1      49.928  37.064  44.340  0.00  0.00    -0.001 C 
ATOM    166  CB  SER d   1      51.113  36.184  46.209  0.00  0.00    -0.036 C 
ATOM    167  H92 SER d   1      49.664  37.076  47.583  0.00  0.00     0.087 H 
ATOM    168  CG  SER d   1      51.247  36.479  44.740  0.00  0.00    -0.048 C 
ATOM    169  H93 SER d   1      50.582  35.235  46.374  0.00  0.00     0.036 H 
ATOM    170  H94 SER d   1      52.099  36.142  46.695  0.00  0.00     0.036 H 
ATOM    171  H95 SER d   1      51.447  35.556  44.177  0.00  0.00     0.035 H 
ATOM    172  H96 SER d   1      52.059  37.200  44.563  0.00  0.00     0.035 H 
ATOM    173  H97 SER d   1      50.049  37.786  43.519  0.00  0.00     0.064 H 
ATOM    174  H98 SER d   1      49.223  36.276  44.035  0.00  0.00     0.064 H 
BRANCH 164 175
ATOM    175  C   SER d   1      51.202  38.509  47.145  0.00  0.00     0.243 C 
ATOM    176  O   SER d   1      51.741  39.247  46.300  0.00  0.00    -0.271 OA
ATOM    177  N   SER d   1      51.431  38.673  48.438  0.00  0.00    -0.337 N 
ATOM    178  CA  SER d   1      52.391  39.673  48.896  0.00  0.00     0.091 C 
ATOM    179  CD  SER d   1      50.828  37.904  49.546  0.00  0.00    -0.001 C 
ATOM    180  CB  SER d   1      52.074  39.807  50.382  0.00  0.00    -0.036 C 
ATOM    181  H99 SER d   1      52.242  40.630  48.374  0.00  0.00     0.087 H 
ATOM    182  CG  SER d   1      51.610  38.383  50.763  0.00  0.00    -0.048 C 
ATOM    183 0H10 SER d   1      51.274  40.543  50.552  0.00  0.00     0.036 H 
ATOM    184 1H10 SER d   1      52.968  40.099  50.953  0.00  0.00     0.036 H 
ATOM    185 2H10 SER d   1      50.966  38.408  51.655  0.00  0.00     0.035 H 
ATOM    186 3H10 SER d   1      52.474  37.729  50.953  0.00  0.00     0.035 H 
ATOM    187 4H10 SER d   1      50.958  36.822  49.393  0.00  0.00     0.064 H 
ATOM    188 5H10 SER d   1      49.757  38.133  49.649  0.00  0.00     0.064 H 
BRANCH 178 189
ATOM    189  C   SER d   1      53.819  39.196  48.680  0.00  0.00     0.241 C 
ATOM    190  O   SER d   1      54.087  37.999  48.541  0.00  0.00    -0.271 OA
ATOM    191  N   SER d   1      54.732  40.169  48.664  0.00  0.00    -0.344 N 
ATOM    192 6H10 SER d   1      54.433  41.123  48.685  0.00  0.00     0.163 HD
BRANCH 191 193
ATOM    193  CA  SER d   1      56.161  39.867  48.617  0.00  0.00     0.109 C 
ATOM    194 7H10 SER d   1      56.355  39.206  47.760  0.00  0.00     0.090 H 
BRANCH 193 195
ATOM    195  C   SER d   1      56.603  39.163  49.887  0.00  0.00     0.243 C 
ATOM    196  O   SER d   1      57.416  38.233  49.836  0.00  0.00    -0.271 OA
ATOM    197  N   SER d   1      56.074  39.595  51.026  0.00  0.00    -0.346 N 
ATOM    198 1H11 SER d   1      55.398  40.328  50.949  0.00  0.00     0.163 HD
BRANCH 197 199
ATOM    199  CA  SER d   1      56.364  39.125  52.374  0.00  0.00     0.090 C 
ATOM    200 2H11 SER d   1      56.978  38.214  52.311  0.00  0.00     0.087 H 
BRANCH 199 201
ATOM    201  C   SER d   1      55.064  38.810  53.110  0.00  0.00     0.243 C 
ATOM    202  O   SER d   1      54.120  39.618  53.092  0.00  0.00    -0.271 OA
ATOM    203  N   SER d   1      54.980  37.656  53.775  0.00  0.00    -0.337 N 
ATOM    204  CA  SER d   1      55.879  36.496  53.794  0.00  0.00     0.092 C 
ATOM    205  CD  SER d   1      54.069  37.658  54.932  0.00  0.00    -0.001 C 
ATOM    206  CB  SER d   1      55.450  35.747  55.052  0.00  0.00    -0.036 C 
ATOM    207 2H12 SER d   1      56.925  36.830  53.865  0.00  0.00     0.087 H 
ATOM    208  CG  SER d   1      54.094  36.246  55.368  0.00  0.00    -0.048 C 
ATOM    209 3H12 SER d   1      56.141  35.961  55.881  0.00  0.00     0.036 H 
ATOM    210 4H12 SER d   1      55.426  34.663  54.865  0.00  0.00     0.036 H 
ATOM    211 5H12 SER d   1      53.903  36.176  56.449  0.00  0.00     0.035 H 
ATOM    212 6H12 SER d   1      53.336  35.664  54.823  0.00  0.00     0.035 H 
ATOM    213 7H12 SER d   1      53.054  37.964  54.637  0.00  0.00     0.064 H 
ATOM    214 8H12 SER d   1      54.437  38.325  55.726  0.00  0.00     0.064 H 
BRANCH 204 215
ATOM    215  C   SER d   1      55.737  35.570  52.600  0.00  0.00     0.243 C 
ATOM    216  O   SER d   1      54.666  35.525  52.002  0.00  0.00    -0.271 OA
ATOM    217  N   SER d   1      56.799  34.819  52.269  0.00  0.00    -0.336 N 
ATOM    218  CA  SER d   1      56.647  33.742  51.286  0.00  0.00     0.098 C 
ATOM    219  CD  SER d   1      58.200  34.995  52.690  0.00  0.00    -0.001 C 
ATOM    220  CB  SER d   1      58.091  33.406  50.905  0.00  0.00    -0.035 C 
ATOM    221 9H12 SER d   1      56.083  34.093  50.410  0.00  0.00     0.089 H 
ATOM    222  CG  SER d   1      58.889  33.790  52.101  0.00  0.00    -0.048 C 
ATOM    223 0H13 SER d   1      58.406  33.985  50.025  0.00  0.00     0.036 H 
ATOM    224 1H13 SER d   1      58.198  32.332  50.694  0.00  0.00     0.036 H 
ATOM    225 2H13 SER d   1      59.919  34.043  51.808  0.00  0.00     0.035 H 
ATOM    226 3H13 SER d   1      58.907  32.966  52.829  0.00  0.00     0.035 H 
ATOM    227 4H13 SER d   1      58.285  35.001  53.787  0.00  0.00     0.064 H 
ATOM    228 5H13 SER d   1      58.620  35.927  52.284  0.00  0.00     0.064 H 
BRANCH 218 229
ATOM    229  C   SER d   1      55.942  32.527  51.882  0.00  0.00     0.196 C 
ATOM    230  O   SER d   1      55.059  31.962  51.237  0.00  0.00    -0.646 OA
ATOM    231  OXT SER d   1      56.265  32.127  53.000  0.00  0.00    -0.646 OA
ENDBRANCH 218 229
ENDBRANCH 204 215
ENDBRANCH 199 201
BRANCH 199 232
ATOM    232  CB  SER d   1      57.125  40.195  53.167  0.00  0.00    -0.035 C 
ATOM    233 3H11 SER d   1      57.257  39.805  54.187  0.00  0.00     0.037 H 
ATOM    234 4H11 SER d   1      56.484  41.088  53.197  0.00  0.00     0.037 H 
BRANCH 232 235
ATOM    235  CG  SER d   1      58.497  40.649  52.684  0.00  0.00    -0.059 C 
ATOM    236 5H11 SER d   1      58.430  40.918  51.620  0.00  0.00     0.038 H 
BRANCH 235 237
ATOM    237  CD1 SER d   1      58.910  41.873  53.476  0.00  0.00    -0.073 C 
ATOM    238 6H11 SER d   1      59.900  42.212  53.137  0.00  0.00     0.028 H 
ATOM    239 7H11 SER d   1      58.955  41.620  54.545  0.00  0.00     0.028 H 
ATOM    240 8H11 SER d   1      58.175  42.676  53.320  0.00  0.00     0.028 H 
ENDBRANCH 235 237
BRANCH 235 241
ATOM    241  CD2 SER d   1      59.518  39.539  52.837  0.00  0.00    -0.073 C 
ATOM    242 9H11 SER d   1      59.197  38.663  52.254  0.00  0.00     0.028 H 
ATOM    243 0H12 SER d   1      59.603  39.263  53.898  0.00  0.00     0.028 H 
ATOM    244 1H12 SER d   1      60.495  39.886  52.469  0.00  0.00     0.028 H 
ENDBRANCH 235 241
ENDBRANCH 232 235
ENDBRANCH 199 232
ENDBRANCH 197 199
ENDBRANCH 193 195
BRANCH 193 245
ATOM    245  CB  SER d   1      56.964  41.164  48.437  0.00  0.00     0.044 C 
ATOM    246 8H10 SER d   1      58.030  40.961  48.620  0.00  0.00     0.077 H 
ATOM    247 9H10 SER d   1      56.606  41.917  49.155  0.00  0.00     0.077 H 
BRANCH 245 248
ATOM    248  OG  SER d   1      56.802  41.651  47.137  0.00  0.00    -0.398 OA
ATOM    249 0H11 SER d   1      57.302  42.452  47.036  0.00  0.00     0.209 HD
ENDBRANCH 245 248
ENDBRANCH 193 245
ENDBRANCH 191 193
ENDBRANCH 178 189
ENDBRANCH 164 175
ENDBRANCH 150 161
ENDBRANCH 145 147
BRANCH 145 250
ATOM    250  CB  SER d   1      44.483  36.739  47.106  0.00  0.00    -0.049 C 
ATOM    251  H82 SER d   1      44.878  37.676  47.526  0.00  0.00     0.030 H 
ATOM    252  H83 SER d   1      45.150  35.907  47.376  0.00  0.00     0.030 H 
ATOM    253  H84 SER d   1      43.478  36.550  47.512  0.00  0.00     0.030 H 
ENDBRANCH 145 250
ENDBRANCH 143 145
ENDBRANCH 130 141
ENDBRANCH   1 127
BRANCH   1 254
ATOM    254  CB  SER d   1      40.975  36.174  39.825  0.00  0.00    -0.033 C 
ATOM    255  H66 SER d   1      40.319  36.236  38.944  0.00  0.00     0.042 H 
BRANCH 254 256
ATOM    256  CG1 SER d   1      40.671  37.373  40.720  0.00  0.00    -0.071 C 
ATOM    257  H67 SER d   1      40.908  38.302  40.181  0.00  0.00     0.028 H 
ATOM    258  H68 SER d   1      41.281  37.313  41.633  0.00  0.00     0.028 H 
ATOM    259  H69 SER d   1      39.605  37.368  40.990  0.00  0.00     0.028 H 
ENDBRANCH 254 256
BRANCH 254 260
ATOM    260  CG2 SER d   1      42.396  36.235  39.339  0.00  0.00    -0.071 C 
ATOM    261  H70 SER d   1      42.601  35.366  38.696  0.00  0.00     0.028 H 
ATOM    262  H71 SER d   1      43.079  36.223  40.201  0.00  0.00     0.028 H 
ATOM    263  H72 SER d   1      42.547  37.160  38.764  0.00  0.00     0.028 H 
ENDBRANCH 254 260
ENDBRANCH   1 254
TORSDOF 55
