REMARK  5 active torsions:
REMARK  status: ('A' for Active; 'I' for Inactive)
REMARK       I    between atoms: C10_1  and  N12_2 
REMARK    1  A    between atoms: C09_12  and  C10_1 
REMARK    2  A    between atoms: N12_2  and  C13_3 
REMARK    3  A    between atoms: C02_6  and  C01_5 
REMARK    4  A    between atoms: O08_17  and  C07_11 
REMARK    5  A    between atoms: C09_12  and  O08_17 
ROOT
ATOM      1  C09 JVB d   1       3.030  -4.446   5.856  0.00  0.00     0.100 C 
ATOM      2  H10 JVB d   1       3.259  -4.858   4.862  0.00  0.00     0.089 H 
ATOM      3  H11 JVB d   1       2.720  -3.396   5.755  0.00  0.00     0.089 H 
ENDROOT
BRANCH   1   4
ATOM      4  C10 JVB d   1       4.233  -4.563   6.774  0.00  0.00     0.246 C 
ATOM      5  N12 JVB d   1       4.194  -5.498   7.945  0.00  0.00    -0.324 N 
ATOM      6  H1  JVB d   1       3.361  -6.032   8.088  0.00  0.00     0.169 HD
ATOM      7  O11 JVB d   1       5.141  -3.910   6.558  0.00  0.00    -0.271 OA
BRANCH   5   8
ATOM      8  C13 JVB d   1       5.363  -5.692   8.952  0.00  0.00     0.052 A 
ATOM      9  C14 JVB d   1       5.105  -6.180  10.231  0.00  0.00    -0.054 A 
ATOM     10  C15 JVB d   1       6.162  -6.354  11.134  0.00  0.00    -0.064 A 
ATOM     11  H12 JVB d   1       4.091  -6.424  10.526  0.00  0.00     0.087 H 
ATOM     12  C16 JVB d   1       7.474  -6.025  10.715  0.00  0.00     0.002 A 
ATOM     13  H2  JVB d   1       5.979  -6.733  12.133  0.00  0.00     0.085 H 
ATOM     14  N17 JVB d   1       7.682  -5.571   9.502  0.00  0.00    -0.271 NA
ATOM     15  H13 JVB d   1       8.307  -6.148  11.397  0.00  0.00     0.114 H 
ATOM     16  C18 JVB d   1       6.696  -5.400   8.619  0.00  0.00     0.028 A 
ATOM     17  H14 JVB d   1       6.928  -5.029   7.627  0.00  0.00     0.118 H 
ENDBRANCH   5   8
ENDBRANCH   1   4
BRANCH   1  18
ATOM     18  O08 JVB d   1       2.029  -5.198   6.483  0.00  0.00    -0.342 OA
BRANCH  18  19
ATOM     19  C07 JVB d   1       0.932  -5.474   5.726  0.00  0.00     0.075 A 
ATOM     20  C02 JVB d   1       0.337  -6.714   5.841  0.00  0.00    -0.029 A 
ATOM     21  C03 JVB d   1      -0.795  -7.020   5.089  0.00  0.00    -0.075 A 
ATOM     22  C04 JVB d   1      -1.316  -6.074   4.229  0.00  0.00    -0.082 A 
ATOM     23  H6  JVB d   1      -1.263  -7.994   5.178  0.00  0.00     0.084 H 
ATOM     24  C05 JVB d   1      -0.716  -4.824   4.112  0.00  0.00    -0.080 A 
ATOM     25  H7  JVB d   1      -2.197  -6.306   3.642  0.00  0.00     0.083 H 
ATOM     26  C06 JVB d   1       0.414  -4.503   4.865  0.00  0.00    -0.050 A 
ATOM     27  H8  JVB d   1      -1.131  -4.092   3.429  0.00  0.00     0.083 H 
ATOM     28  H9  JVB d   1       0.878  -3.526   4.784  0.00  0.00     0.087 H 
BRANCH  20  29
ATOM     29  C01 JVB d   1       0.937  -7.792   6.799  0.00  0.00    -0.049 C 
ATOM     30  H3  JVB d   1       0.326  -8.706   6.751  0.00  0.00     0.033 H 
ATOM     31  H4  JVB d   1       0.940  -7.406   7.829  0.00  0.00     0.033 H 
ATOM     32  H5  JVB d   1       1.967  -8.023   6.491  0.00  0.00     0.033 H 
ENDBRANCH  20  29
ENDBRANCH  18  19
ENDBRANCH   1  18
TORSDOF 5
