REMARK  5 active torsions:
REMARK  status: ('A' for Active; 'I' for Inactive)
REMARK    1  A    between atoms: O_15  and  C6_3 
REMARK    2  A    between atoms: C8_5  and  C7_4 
REMARK    3  A    between atoms: C7_4  and  O_15 
REMARK       I    between atoms: N_13  and  C8_5 
REMARK    4  A    between atoms: C1_8  and  C_14 
REMARK    5  A    between atoms: C9_11  and  N_13 
ROOT
ATOM      1  C7  JV5 d   1      -2.951   3.957   5.542  0.00  0.00     0.100 C 
ATOM      2  H3  JV5 d   1      -2.987   4.183   4.466  0.00  0.00     0.089 H 
ATOM      3  H4  JV5 d   1      -2.504   2.963   5.693  0.00  0.00     0.089 H 
ENDROOT
BRANCH   1   4
ATOM      4  C8  JV5 d   1      -4.341   3.994   6.126  0.00  0.00     0.246 C 
ATOM      5  N   JV5 d   1      -4.566   5.010   6.988  0.00  0.00    -0.325 N 
ATOM      6  H8  JV5 d   1      -3.770   5.576   7.202  0.00  0.00     0.169 HD
ATOM      7  O1  JV5 d   1      -5.165   3.140   5.808  0.00  0.00    -0.271 OA
BRANCH   5   8
ATOM      8  C9  JV5 d   1      -5.769   5.386   7.631  0.00  0.00     0.037 A 
ATOM      9  C10 JV5 d   1      -5.715   6.488   8.486  0.00  0.00    -0.055 A 
ATOM     10  C11 JV5 d   1      -6.852   6.932   9.140  0.00  0.00    -0.051 A 
ATOM     11  H5  JV5 d   1      -4.773   7.002   8.640  0.00  0.00     0.087 H 
ATOM     12  C12 JV5 d   1      -8.055   6.259   8.941  0.00  0.00     0.082 A 
ATOM     13  H12 JV5 d   1      -6.806   7.792   9.798  0.00  0.00     0.087 H 
ATOM     14  C13 JV5 d   1      -8.110   5.162   8.092  0.00  0.00     0.111 A 
ATOM     15  N1  JV5 d   1      -9.317   6.474   9.462  0.00  0.00    -0.258 N 
ATOM     16  C14 JV5 d   1      -6.973   4.714   7.426  0.00  0.00    -0.025 A 
ATOM     17  N3  JV5 d   1      -9.407   4.762   8.142  0.00  0.00    -0.130 NA
ATOM     18  H13 JV5 d   1      -7.023   3.859   6.761  0.00  0.00     0.090 H 
ATOM     19  N2  JV5 d   1     -10.114   5.559   8.967  0.00  0.00    -0.067 NA
ATOM     20  H14 JV5 d   1      -9.583   7.220  10.121  0.00  0.00     0.191 HD
ENDBRANCH   5   8
ENDBRANCH   1   4
BRANCH   1  21
ATOM     21  O   JV5 d   1      -2.186   4.946   6.224  0.00  0.00    -0.342 OA
BRANCH  21  22
ATOM     22  C6  JV5 d   1      -1.041   5.405   5.631  0.00  0.00     0.075 A 
ATOM     23  C5  JV5 d   1      -0.384   4.758   4.594  0.00  0.00    -0.050 A 
ATOM     24  C4  JV5 d   1       0.772   5.321   4.076  0.00  0.00    -0.080 A 
ATOM     25  H2  JV5 d   1      -0.769   3.826   4.195  0.00  0.00     0.087 H 
ATOM     26  C3  JV5 d   1       1.266   6.497   4.600  0.00  0.00    -0.082 A 
ATOM     27  H1  JV5 d   1       1.289   4.835   3.256  0.00  0.00     0.083 H 
ATOM     28  C2  JV5 d   1       0.604   7.128   5.640  0.00  0.00    -0.075 A 
ATOM     29  H7  JV5 d   1       2.175   6.929   4.197  0.00  0.00     0.083 H 
ATOM     30  C1  JV5 d   1      -0.573   6.605   6.164  0.00  0.00    -0.029 A 
ATOM     31  H6  JV5 d   1       1.010   8.045   6.052  0.00  0.00     0.084 H 
BRANCH  30  32
ATOM     32  C   JV5 d   1      -1.355   7.346   7.217  0.00  0.00    -0.049 C 
ATOM     33  H9  JV5 d   1      -2.246   6.762   7.491  0.00  0.00     0.033 H 
ATOM     34  H10 JV5 d   1      -1.666   8.325   6.822  0.00  0.00     0.033 H 
ATOM     35  H11 JV5 d   1      -0.725   7.493   8.106  0.00  0.00     0.033 H 
ENDBRANCH  30  32
ENDBRANCH  21  22
ENDBRANCH   1  21
TORSDOF 5
