REMARK  1 active torsions:
REMARK  status: ('A' for Active; 'I' for Inactive)
REMARK    1  A    between atoms: C14_7  and  O17_9 
ROOT
ATOM      1  C1  JVN d   1       1.429  16.351  20.193  0.00  0.00     0.117 A 
ATOM      2  C2  JVN d   1       2.342  16.561  21.223  0.00  0.00    -0.043 A 
ATOM      3  C3  JVN d   1       2.118  15.999  22.476  0.00  0.00    -0.054 A 
ATOM      4  C8  JVN d   1      -1.166  14.118  21.859  0.00  0.00     0.068 C 
ATOM      5  C10 JVN d   1      -0.912  13.108  23.006  0.00  0.00    -0.016 C 
ATOM      6  C13 JVN d   1      -2.113  15.737  23.556  0.00  0.00     0.046 C 
ATOM      7  C14 JVN d   1      -1.619  14.855  24.726  0.00  0.00     0.075 C 
ATOM      8  C15 JVN d   1      -0.484  13.897  24.282  0.00  0.00     0.039 C 
ATOM      9  C4  JVN d   1       1.000  15.191  22.686  0.00  0.00     0.037 A 
ATOM     10  C5  JVN d   1       0.101  14.952  21.629  0.00  0.00    -0.000 A 
ATOM     11  C6  JVN d   1       0.318  15.540  20.387  0.00  0.00    -0.035 A 
ATOM     12  F7  JVN d   1       1.645  16.908  18.984  0.00  0.00    -0.206 F 
ATOM     13  N9  JVN d   1       0.767  14.641  23.976  0.00  0.00    -0.382 N 
ATOM     14  O12 JVN d   1      -2.246  14.988  22.309  0.00  0.00    -0.378 OA
ATOM     15  H1  JVN d   1       3.227  17.162  21.049  0.00  0.00     0.088 H 
ATOM     16  H2  JVN d   1       2.811  16.189  23.288  0.00  0.00     0.087 H 
ATOM     17  H3  JVN d   1      -1.448  13.594  20.934  0.00  0.00     0.091 H 
ATOM     18  H4  JVN d   1      -0.112  12.412  22.716  0.00  0.00     0.040 H 
ATOM     19  H5  JVN d   1      -1.833  12.543  23.212  0.00  0.00     0.040 H 
ATOM     20  H6  JVN d   1      -1.393  16.554  23.402  0.00  0.00     0.078 H 
ATOM     21  H7  JVN d   1      -3.094  16.158  23.821  0.00  0.00     0.078 H 
ATOM     22  H8  JVN d   1      -1.236  15.508  25.524  0.00  0.00     0.089 H 
ATOM     23  H9  JVN d   1      -0.286  13.186  25.098  0.00  0.00     0.076 H 
ATOM     24  H11 JVN d   1      -0.377  15.366  19.574  0.00  0.00     0.089 H 
ATOM     25  H12 JVN d   1       1.478  14.760  24.712  0.00  0.00     0.160 HD
ENDROOT
BRANCH   7  26
ATOM     26  O17 JVN d   1      -2.720  14.092  25.229  0.00  0.00    -0.391 OA
ATOM     27  H10 JVN d   1      -2.432  13.576  25.973  0.00  0.00     0.210 HD
ENDBRANCH   7  26
TORSDOF 1
