REMARK  2 active torsions:
REMARK  status: ('A' for Active; 'I' for Inactive)
REMARK    1  A    between atoms: C2_2  and  C1_1 
REMARK    2  A    between atoms: N3_12  and  C2_2 
ROOT
ATOM      1  C4  JVQ d   1      -9.645   5.717 -24.628  0.00  0.00     0.024 C 
ATOM      2  C5  JVQ d   1      -8.828   4.511 -24.226  0.00  0.00    -0.011 A 
ATOM      3  C6  JVQ d   1      -7.939   4.031 -25.181  0.00  0.00    -0.038 A 
ATOM      4  C7  JVQ d   1      -7.110   2.951 -24.892  0.00  0.00     0.105 A 
ATOM      5  C11 JVQ d   1      -7.165   2.334 -23.639  0.00  0.00     0.107 A 
ATOM      6  C12 JVQ d   1      -8.055   2.809 -22.668  0.00  0.00    -0.022 A 
ATOM      7  C15 JVQ d   1     -11.128   4.693 -22.010  0.00  0.00     0.001 C 
ATOM      8  C16 JVQ d   1     -11.416   6.168 -22.336  0.00  0.00     0.024 C 
ATOM      9  C17 JVQ d   1     -10.183   7.020 -22.590  0.00  0.00     0.221 C 
ATOM     10  N3  JVQ d   1      -9.370   6.803 -23.673  0.00  0.00    -0.348 N 
ATOM     11  O8  JVQ d   1      -6.215   2.298 -25.672  0.00  0.00    -0.323 OA
ATOM     12  C9  JVQ d   1      -5.511   1.362 -24.831  0.00  0.00     0.115 C 
ATOM     13  O10 JVQ d   1      -6.293   1.278 -23.630  0.00  0.00    -0.323 OA
ATOM     14  C13 JVQ d   1      -8.883   3.906 -22.945  0.00  0.00     0.038 A 
ATOM     15  N14 JVQ d   1      -9.697   4.380 -21.888  0.00  0.00    -0.389 N 
ATOM     16  O18 JVQ d   1      -9.927   7.910 -21.781  0.00  0.00    -0.273 OA
ATOM     17  H6  JVQ d   1     -10.716   5.465 -24.606  0.00  0.00     0.071 H 
ATOM     18  H7  JVQ d   1      -9.364   6.035 -25.643  0.00  0.00     0.071 H 
ATOM     19  H8  JVQ d   1      -7.891   4.501 -26.157  0.00  0.00     0.088 H 
ATOM     20  H9  JVQ d   1      -8.104   2.327 -21.698  0.00  0.00     0.091 H 
ATOM     21  H10 JVQ d   1     -11.552   4.072 -22.813  0.00  0.00     0.064 H 
ATOM     22  H11 JVQ d   1     -11.619   4.446 -21.057  0.00  0.00     0.064 H 
ATOM     23  H12 JVQ d   1     -11.964   6.605 -21.488  0.00  0.00     0.049 H 
ATOM     24  H13 JVQ d   1     -12.046   6.202 -23.237  0.00  0.00     0.049 H 
ATOM     25  H14 JVQ d   1      -4.498   1.729 -24.608  0.00  0.00     0.118 H 
ATOM     26  H15 JVQ d   1      -5.445   0.378 -25.319  0.00  0.00     0.118 H 
ATOM     27  H16 JVQ d   1      -9.255   4.515 -20.968  0.00  0.00     0.159 HD
ENDROOT
BRANCH  10  28
ATOM     28  C2  JVQ d   1      -8.165   7.631 -23.919  0.00  0.00    -0.005 C 
ATOM     29  H4  JVQ d   1      -7.833   7.478 -24.957  0.00  0.00     0.063 H 
ATOM     30  H5  JVQ d   1      -8.423   8.690 -23.768  0.00  0.00     0.063 H 
BRANCH  28  31
ATOM     31  C1  JVQ d   1      -7.015   7.257 -22.967  0.00  0.00    -0.061 C 
ATOM     32  H1  JVQ d   1      -6.142   7.891 -23.180  0.00  0.00     0.029 H 
ATOM     33  H2  JVQ d   1      -6.746   6.201 -23.114  0.00  0.00     0.029 H 
ATOM     34  H3  JVQ d   1      -7.335   7.412 -21.926  0.00  0.00     0.029 H 
ENDBRANCH  28  31
ENDBRANCH  10  28
TORSDOF 2
