REMARK  5 active torsions:
REMARK  status: ('A' for Active; 'I' for Inactive)
REMARK    1  A    between atoms: O2_18  and  C1_1 
REMARK    2  A    between atoms: C3_2  and  O2_18 
REMARK       I    between atoms: N5_19  and  C3_2 
REMARK    3  A    between atoms: C11_7  and  N8_21 
REMARK    4  A    between atoms: N17_22  and  C14_10 
REMARK    5  A    between atoms: C18_23  and  N17_22 
ROOT
ATOM      1  C20 K1H d   1     -24.316 -19.502  -6.743  0.00  0.00     0.089 A 
ATOM      2  C22 K1H d   1     -26.520 -19.578  -7.329  0.00  0.00     0.072 A 
ATOM      3  C24 K1H d   1     -27.222 -19.212  -9.645  0.00  0.00    -0.047 A 
ATOM      4  C27 K1H d   1     -27.875 -19.821  -6.999  0.00  0.00    -0.053 A 
ATOM      5  N29 K1H d   1     -30.340 -19.484 -11.124  0.00  0.00    -0.191 NA
ATOM      6  C18 K1H d   1     -24.783 -19.180  -8.956  0.00  0.00     0.137 A 
ATOM      7  N19 K1H d   1     -23.858 -19.276  -7.983  0.00  0.00    -0.224 NA
ATOM      8  N21 K1H d   1     -25.574 -19.665  -6.340  0.00  0.00    -0.241 NA
ATOM      9  C23 K1H d   1     -26.187 -19.295  -8.677  0.00  0.00     0.040 A 
ATOM     10  C25 K1H d   1     -28.534 -19.457  -9.283  0.00  0.00     0.045 A 
ATOM     11  C26 K1H d   1     -28.849 -19.762  -7.954  0.00  0.00    -0.061 A 
ATOM     12  C28 K1H d   1     -29.555 -19.473 -10.296  0.00  0.00     0.099 C 
ATOM     13  H20 K1H d   1     -23.562 -19.559  -5.966  0.00  0.00     0.146 H 
ATOM     14  H21 K1H d   1     -26.983 -18.956 -10.671  0.00  0.00     0.087 H 
ATOM     15  H22 K1H d   1     -28.143 -20.057  -5.975  0.00  0.00     0.087 H 
ATOM     16  H27 K1H d   1     -29.880 -19.954  -7.679  0.00  0.00     0.086 H 
ENDROOT
BRANCH   6  17
ATOM     17  N17 K1H d   1     -24.382 -19.049 -10.231  0.00  0.00    -0.369 N 
ATOM     18  H26 K1H d   1     -25.099 -19.000 -10.968  0.00  0.00     0.161 HD
BRANCH  17  19
ATOM     19  C14 K1H d   1     -22.990 -18.974 -10.618  0.00  0.00     0.011 C 
ATOM     20  C13 K1H d   1     -22.782 -17.969 -11.737  0.00  0.00    -0.044 C 
ATOM     21  C12 K1H d   1     -21.302 -17.870 -12.104  0.00  0.00    -0.036 C 
ATOM     22  H13 K1H d   1     -23.353 -18.289 -12.621  0.00  0.00     0.036 H 
ATOM     23  H14 K1H d   1     -23.139 -16.982 -11.407  0.00  0.00     0.036 H 
ATOM     24  C11 K1H d   1     -20.732 -19.252 -12.467  0.00  0.00     0.104 C 
ATOM     25  H11 K1H d   1     -21.189 -17.196 -12.966  0.00  0.00     0.036 H 
ATOM     26  H12 K1H d   1     -20.745 -17.465 -11.246  0.00  0.00     0.036 H 
ATOM     27  C16 K1H d   1     -21.014 -20.312 -11.400  0.00  0.00    -0.036 C 
ATOM     28  H10 K1H d   1     -21.258 -19.570 -13.380  0.00  0.00     0.084 H 
ATOM     29  C15 K1H d   1     -22.491 -20.347 -11.031  0.00  0.00    -0.044 C 
ATOM     30  H18 K1H d   1     -20.425 -20.080 -10.500  0.00  0.00     0.036 H 
ATOM     31  H19 K1H d   1     -20.718 -21.298 -11.788  0.00  0.00     0.036 H 
ATOM     32  H16 K1H d   1     -23.069 -20.692 -11.901  0.00  0.00     0.036 H 
ATOM     33  H17 K1H d   1     -22.635 -21.047 -10.195  0.00  0.00     0.036 H 
ATOM     34  H15 K1H d   1     -22.407 -18.641  -9.746  0.00  0.00     0.072 H 
BRANCH  24  35
ATOM     35  N8  K1H d   1     -19.293 -19.235 -12.790  0.00  0.00    -0.064 N 
ATOM     36  C7  K1H d   1     -18.461 -18.501 -11.819  0.00  0.00     0.099 C 
ATOM     37  C6  K1H d   1     -17.005 -18.770 -12.081  0.00  0.00     0.022 C 
ATOM     38  H4  K1H d   1     -18.655 -17.422 -11.915  0.00  0.00     0.078 H 
ATOM     39  H5  K1H d   1     -18.715 -18.830 -10.800  0.00  0.00     0.078 H 
ATOM     40  N5  K1H d   1     -16.671 -18.403 -13.461  0.00  0.00    -0.325 N 
ATOM     41  H23 K1H d   1     -16.798 -19.839 -11.928  0.00  0.00     0.067 H 
ATOM     42  H24 K1H d   1     -16.393 -18.175 -11.387  0.00  0.00     0.067 H 
ATOM     43  C3  K1H d   1     -15.582 -17.650 -13.728  0.00  0.00     0.362 C 
ATOM     44  C10 K1H d   1     -17.512 -19.068 -14.470  0.00  0.00     0.022 C 
ATOM     45  O4  K1H d   1     -14.859 -17.186 -12.878  0.00  0.00    -0.238 OA
ATOM     46  C9  K1H d   1     -18.980 -18.832 -14.172  0.00  0.00     0.099 C 
ATOM     47  H8  K1H d   1     -17.274 -18.663 -15.464  0.00  0.00     0.067 H 
ATOM     48  H9  K1H d   1     -17.308 -20.149 -14.456  0.00  0.00     0.067 H 
ATOM     49  H6  K1H d   1     -19.591 -19.423 -14.870  0.00  0.00     0.078 H 
ATOM     50  H7  K1H d   1     -19.209 -17.764 -14.299  0.00  0.00     0.078 H 
ATOM     51  H25 K1H d   1     -19.002 -20.198 -12.719  0.00  0.00     0.280 HD
BRANCH  43  52
ATOM     52  O2  K1H d   1     -15.383 -17.516 -15.050  0.00  0.00    -0.309 OA
BRANCH  52  53
ATOM     53  C1  K1H d   1     -14.264 -16.681 -15.436  0.00  0.00     0.015 C 
ATOM     54  H1  K1H d   1     -14.196 -16.643 -16.533  0.00  0.00     0.067 H 
ATOM     55  H2  K1H d   1     -13.334 -17.101 -15.026  0.00  0.00     0.067 H 
ATOM     56  H3  K1H d   1     -14.412 -15.665 -15.042  0.00  0.00     0.067 H 
ENDBRANCH  52  53
ENDBRANCH  43  52
ENDBRANCH  24  35
ENDBRANCH  17  19
ENDBRANCH   6  17
TORSDOF 5
