REMARK  9 active torsions:
REMARK  status: ('A' for Active; 'I' for Inactive)
REMARK    1  A    between atoms: N2_17  and  C1_1 
REMARK    2  A    between atoms: C8_2  and  N7_22 
REMARK    3  A    between atoms: N21_28  and  C10_3 
REMARK    4  A    between atoms: C13_5  and  C18_26 
REMARK    5  A    between atoms: C22_10  and  N21_28 
REMARK       I    between atoms: N31_34  and  C34_16 
REMARK    6  A    between atoms: C34_16  and  O36_36 
REMARK    7  A    between atoms: N7_22  and  C5_20 
REMARK    8  A    between atoms: C25_30  and  N28_32 
REMARK    9  A    between atoms: O36_36  and  C37_37 
ROOT
ATOM      1  C19 K1E d   1     -15.246 -40.717 -11.163  0.00  0.00     0.065 C 
ATOM      2  C18 K1E d   1     -14.702 -40.471  -9.829  0.00  0.00     0.054 C 
ATOM      3  N20 K1E d   1     -15.655 -40.909 -12.205  0.00  0.00    -0.197 NA
ATOM      4  H20 K1E d   1     -14.160 -41.364  -9.484  0.00  0.00     0.064 H 
ATOM      5  H21 K1E d   1     -14.013 -39.615  -9.866  0.00  0.00     0.064 H 
ENDROOT
BRANCH   2   6
ATOM      6  C13 K1E d   1     -15.832 -40.167  -8.874  0.00  0.00     0.048 A 
ATOM      7  C14 K1E d   1     -15.573 -39.896  -7.527  0.00  0.00    -0.056 A 
ATOM      8  C15 K1E d   1     -16.615 -39.625  -6.689  0.00  0.00    -0.050 A 
ATOM      9  H4  K1E d   1     -14.556 -39.901  -7.153  0.00  0.00     0.086 H 
ATOM     10  C16 K1E d   1     -17.934 -39.623  -7.187  0.00  0.00     0.108 A 
ATOM     11  H5  K1E d   1     -16.429 -39.412  -5.643  0.00  0.00     0.087 H 
ATOM     12  C11 K1E d   1     -18.116 -39.909  -8.568  0.00  0.00     0.132 A 
ATOM     13  N17 K1E d   1     -18.990 -39.352  -6.350  0.00  0.00    -0.060 NA
ATOM     14  C10 K1E d   1     -19.468 -39.900  -9.054  0.00  0.00     0.174 A 
ATOM     15  N12 K1E d   1     -17.063 -40.177  -9.396  0.00  0.00    -0.246 NA
ATOM     16  N9  K1E d   1     -20.471 -39.635  -8.222  0.00  0.00    -0.043 NA
ATOM     17  C8  K1E d   1     -20.206 -39.375  -6.928  0.00  0.00     0.729 A 
BRANCH  14  18
ATOM     18  N21 K1E d   1     -19.761 -40.155 -10.347  0.00  0.00    -0.368 N 
ATOM     19  H22 K1E d   1     -18.991 -40.358 -11.000  0.00  0.00     0.161 HD
BRANCH  18  20
ATOM     20  C22 K1E d   1     -21.127 -40.153 -10.853  0.00  0.00     0.011 C 
ATOM     21  C27 K1E d   1     -21.279 -41.066 -12.055  0.00  0.00    -0.044 C 
ATOM     22  C26 K1E d   1     -22.754 -41.232 -12.411  0.00  0.00    -0.036 C 
ATOM     23  H9  K1E d   1     -20.850 -42.051 -11.819  0.00  0.00     0.036 H 
ATOM     24  H10 K1E d   1     -20.746 -40.629 -12.912  0.00  0.00     0.036 H 
ATOM     25  C25 K1E d   1     -23.419 -39.876 -12.667  0.00  0.00     0.104 C 
ATOM     26  H26 K1E d   1     -23.270 -41.733 -11.578  0.00  0.00     0.036 H 
ATOM     27  H27 K1E d   1     -22.837 -41.849 -13.318  0.00  0.00     0.036 H 
ATOM     28  C24 K1E d   1     -23.178 -38.857 -11.542  0.00  0.00    -0.036 C 
ATOM     29  H25 K1E d   1     -22.820 -39.466 -13.494  0.00  0.00     0.084 H 
ATOM     30  C23 K1E d   1     -21.689 -38.774 -11.155  0.00  0.00    -0.044 C 
ATOM     31  H7  K1E d   1     -23.514 -37.866 -11.881  0.00  0.00     0.036 H 
ATOM     32  H8  K1E d   1     -23.759 -39.158 -10.658  0.00  0.00     0.036 H 
ATOM     33  H23 K1E d   1     -21.125 -38.330 -11.989  0.00  0.00     0.036 H 
ATOM     34  H24 K1E d   1     -21.584 -38.139 -10.263  0.00  0.00     0.036 H 
ATOM     35  H6  K1E d   1     -21.751 -40.573 -10.050  0.00  0.00     0.072 H 
BRANCH  25  36
ATOM     36  N28 K1E d   1     -24.774 -39.908 -13.256  0.00  0.00    -0.064 N 
ATOM     37  C33 K1E d   1     -24.831 -40.298 -14.678  0.00  0.00     0.099 C 
ATOM     38  C32 K1E d   1     -26.226 -40.039 -15.242  0.00  0.00     0.022 C 
ATOM     39  H15 K1E d   1     -24.095 -39.710 -15.245  0.00  0.00     0.078 H 
ATOM     40  H16 K1E d   1     -24.595 -41.368 -14.771  0.00  0.00     0.078 H 
ATOM     41  N31 K1E d   1     -27.246 -40.727 -14.429  0.00  0.00    -0.325 N 
ATOM     42  H13 K1E d   1     -26.274 -40.413 -16.276  0.00  0.00     0.067 H 
ATOM     43  H14 K1E d   1     -26.425 -38.957 -15.233  0.00  0.00     0.067 H 
ATOM     44  C30 K1E d   1     -27.151 -40.407 -12.997  0.00  0.00     0.022 C 
ATOM     45  C34 K1E d   1     -28.059 -41.699 -14.913  0.00  0.00     0.362 C 
ATOM     46  C29 K1E d   1     -25.752 -40.689 -12.489  0.00  0.00     0.099 C 
ATOM     47  H11 K1E d   1     -27.384 -39.343 -12.846  0.00  0.00     0.067 H 
ATOM     48  H12 K1E d   1     -27.871 -41.023 -12.439  0.00  0.00     0.067 H 
ATOM     49  H29 K1E d   1     -25.532 -41.761 -12.602  0.00  0.00     0.078 H 
ATOM     50  H30 K1E d   1     -25.687 -40.412 -11.427  0.00  0.00     0.078 H 
ATOM     51  O35 K1E d   1     -28.156 -41.983 -16.085  0.00  0.00    -0.238 OA
ATOM     52  H28 K1E d   1     -25.094 -38.953 -13.221  0.00  0.00     0.280 HD
BRANCH  45  53
ATOM     53  O36 K1E d   1     -28.741 -42.308 -13.927  0.00  0.00    -0.309 OA
BRANCH  53  54
ATOM     54  C37 K1E d   1     -29.641 -43.368 -14.342  0.00  0.00     0.015 C 
ATOM     55  H31 K1E d   1     -30.141 -43.791 -13.458  0.00  0.00     0.067 H 
ATOM     56  H32 K1E d   1     -29.068 -44.157 -14.852  0.00  0.00     0.067 H 
ATOM     57  H33 K1E d   1     -30.396 -42.960 -15.030  0.00  0.00     0.067 H 
ENDBRANCH  53  54
ENDBRANCH  45  53
ENDBRANCH  25  36
ENDBRANCH  18  20
ENDBRANCH  14  18
BRANCH  17  58
ATOM     58  N7  K1E d   1     -21.302 -39.109  -6.129  0.00  0.00    -0.185 N 
ATOM     59  H19 K1E d   1     -21.095 -38.912  -5.139  0.00  0.00     0.184 HD
BRANCH  58  60
ATOM     60  C5  K1E d   1     -22.660 -39.071  -6.485  0.00  0.00     0.085 A 
ATOM     61  C4  K1E d   1     -23.264 -39.291  -7.726  0.00  0.00     0.049 A 
ATOM     62  N3  K1E d   1     -24.576 -39.161  -7.647  0.00  0.00    -0.183 NA
ATOM     63  H17 K1E d   1     -22.724 -39.537  -8.639  0.00  0.00     0.121 H 
ATOM     64  N2  K1E d   1     -24.818 -38.850  -6.329  0.00  0.00    -0.283 N 
ATOM     65  C6  K1E d   1     -23.683 -38.794  -5.624  0.00  0.00     0.026 A 
ATOM     66  H18 K1E d   1     -23.592 -38.570  -4.562  0.00  0.00     0.117 H 
BRANCH  64  67
ATOM     67  C1  K1E d   1     -26.176 -38.631  -5.855  0.00  0.00     0.002 C 
ATOM     68  H1  K1E d   1     -26.156 -38.396  -4.781  0.00  0.00     0.059 H 
ATOM     69  H2  K1E d   1     -26.773 -39.540  -6.020  0.00  0.00     0.059 H 
ATOM     70  H3  K1E d   1     -26.626 -37.792  -6.406  0.00  0.00     0.059 H 
ENDBRANCH  64  67
ENDBRANCH  58  60
ENDBRANCH  17  58
ENDBRANCH   2   6
TORSDOF 9
