REMARK  14 active torsions:
REMARK  status: ('A' for Active; 'I' for Inactive)
REMARK    1  A    between atoms: C_1  and  CH3_3 
REMARK       I    between atoms: C_1  and  N_4 
REMARK    2  A    between atoms: N_4  and  CA_5 
REMARK    3  A    between atoms: CA_5  and  C_6 
REMARK    4  A    between atoms: CA_5  and  CB_8 
REMARK       I    between atoms: C_6  and  N_9 
REMARK    5  A    between atoms: N_9  and  CA_10 
REMARK    6  A    between atoms: CA_10  and  C_11 
REMARK    7  A    between atoms: CA_10  and  CB_13 
REMARK       I    between atoms: C_11  and  N_19 
REMARK    8  A    between atoms: CB_13  and  CG_14 
REMARK    9  A    between atoms: N_19  and  CA_20 
REMARK   10  A    between atoms: CA_20  and  C_21 
REMARK   11  A    between atoms: CA_20  and  CB_23 
REMARK       I    between atoms: C_21  and  N_25 
REMARK   12  A    between atoms: CB_23  and  SG_24 
REMARK   13  A    between atoms: N_25  and  CA_26 
REMARK   14  A    between atoms: CA_26  and  C_27 
REMARK       I    between atoms: C_27  and  N_29 
ROOT
ATOM      1  CA  ACY d   1      46.366  -8.971 -11.748  0.00  0.00     0.094 C 
ATOM      2  H10 ACY d   1      47.118  -9.530 -12.323  0.00  0.00     0.088 H 
ENDROOT
BRANCH   1   3
ATOM      3  N   ACY d   1      47.016  -8.422 -10.528  0.00  0.00    -0.346 N 
ATOM      4  C   ACY d   1      47.511  -9.110  -9.442  0.00  0.00     0.240 C 
ATOM      5  O   ACY d   1      47.499 -10.332  -9.284  0.00  0.00    -0.271 OA
ATOM      6  H9  ACY d   1      47.105  -7.427 -10.491  0.00  0.00     0.163 HD
BRANCH   4   7
ATOM      7  CA  ACY d   1      48.169  -8.231  -8.342  0.00  0.00     0.086 C 
ATOM      8  H5  ACY d   1      49.153  -8.661  -8.105  0.00  0.00     0.086 H 
BRANCH   7   9
ATOM      9  N   ACY d   1      48.379  -6.838  -8.848  0.00  0.00    -0.348 N 
ATOM     10  C   ACY d   1      49.608  -6.285  -9.065  0.00  0.00     0.214 C 
ATOM     11  O   ACY d   1      50.665  -6.883  -8.880  0.00  0.00    -0.274 OA
ATOM     12  H4  ACY d   1      47.572  -6.280  -9.038  0.00  0.00     0.163 HD
BRANCH  10  13
ATOM     13  CH3 ACY d   1      49.633  -4.815  -9.568  0.00  0.00    -0.003 C 
ATOM     14  H1  ACY d   1      48.602  -4.447  -9.675  0.00  0.00     0.040 H 
ATOM     15  H2  ACY d   1      50.142  -4.769 -10.542  0.00  0.00     0.040 H 
ATOM     16  H3  ACY d   1      50.173  -4.188  -8.843  0.00  0.00     0.040 H 
ENDBRANCH  10  13
ENDBRANCH   7   9
BRANCH   7  17
ATOM     17  CB  ACY d   1      47.318  -8.230  -7.034  0.00  0.00    -0.049 C 
ATOM     18  H6  ACY d   1      47.180  -9.264  -6.686  0.00  0.00     0.030 H 
ATOM     19  H7  ACY d   1      46.336  -7.777  -7.236  0.00  0.00     0.030 H 
ATOM     20  H8  ACY d   1      47.838  -7.648  -6.259  0.00  0.00     0.030 H 
ENDBRANCH   7  17
ENDBRANCH   4   7
ENDBRANCH   1   3
BRANCH   1  21
ATOM     21  C   ACY d   1      45.868  -7.761 -12.634  0.00  0.00     0.241 C 
ATOM     22  O   ACY d   1      46.229  -6.634 -12.327  0.00  0.00    -0.271 OA
ATOM     23  N   ACY d   1      45.039  -7.988 -13.698  0.00  0.00    -0.345 N 
ATOM     24  H16 ACY d   1      44.800  -8.935 -13.911  0.00  0.00     0.163 HD
BRANCH  23  25
ATOM     25  CA  ACY d   1      44.461  -6.901 -14.571  0.00  0.00     0.097 C 
ATOM     26  H17 ACY d   1      45.183  -6.077 -14.669  0.00  0.00     0.088 H 
BRANCH  25  27
ATOM     27  C   ACY d   1      43.089  -6.330 -14.064  0.00  0.00     0.241 C 
ATOM     28  O   ACY d   1      42.794  -6.442 -12.877  0.00  0.00    -0.271 OA
ATOM     29  N   ACY d   1      42.249  -5.737 -14.979  0.00  0.00    -0.351 N 
ATOM     30  H21 ACY d   1      42.601  -5.629 -15.909  0.00  0.00     0.163 HD
BRANCH  29  31
ATOM     31  CA  ACY d   1      40.875  -5.242 -14.724  0.00  0.00     0.069 C 
ATOM     32  H22 ACY d   1      40.200  -6.110 -14.720  0.00  0.00     0.078 H 
ATOM     33  H23 ACY d   1      40.601  -4.568 -15.549  0.00  0.00     0.078 H 
BRANCH  31  34
ATOM     34  C   ACY d   1      40.665  -4.463 -13.378  0.00  0.00     0.233 C 
ATOM     35  O   ACY d   1      41.574  -3.942 -12.725  0.00  0.00    -0.272 OA
ATOM     36  N   ACY d   1      39.395  -4.376 -12.997  0.00  0.00    -0.369 N 
ATOM     37  H24 ACY d   1      39.158  -3.898 -12.151  0.00  0.00     0.159 HD
ATOM     38  H25 ACY d   1      38.676  -4.788 -13.556  0.00  0.00     0.159 HD
ENDBRANCH  31  34
ENDBRANCH  29  31
ENDBRANCH  25  27
BRANCH  25  39
ATOM     39  CB  ACY d   1      44.210  -7.591 -15.933  0.00  0.00     0.001 C 
ATOM     40  H18 ACY d   1      43.509  -7.003 -16.543  0.00  0.00     0.052 H 
ATOM     41  H19 ACY d   1      43.808  -8.604 -15.787  0.00  0.00     0.052 H 
BRANCH  39  42
ATOM     42  SG  ACY d   1      45.824  -7.657 -16.711  0.00  0.00    -0.180 SA
ATOM     43  H20 ACY d   1      46.180  -6.721 -16.824  0.00  0.00     0.101 HD
ENDBRANCH  39  42
ENDBRANCH  25  39
ENDBRANCH  23  25
ENDBRANCH   1  21
BRANCH   1  44
ATOM     44  CB  ACY d   1      45.238  -9.950 -11.380  0.00  0.00     0.004 C 
ATOM     45  H11 ACY d   1      45.669 -10.757 -10.769  0.00  0.00     0.046 H 
ATOM     46  H12 ACY d   1      44.831 -10.371 -12.311  0.00  0.00     0.046 H 
BRANCH  44  47
ATOM     47  CG  ACY d   1      44.074  -9.313 -10.588  0.00  0.00     0.053 A 
ATOM     48  ND1 ACY d   1      43.221  -8.367 -10.985  0.00  0.00    -0.247 NA
ATOM     49  CE1 ACY d   1      42.361  -8.126  -9.991  0.00  0.00     0.064 A 
ATOM     50  NE2 ACY d   1      42.685  -8.935  -8.986  0.00  0.00    -0.359 N 
ATOM     51  H14 ACY d   1      41.547  -7.403 -10.002  0.00  0.00     0.143 H 
ATOM     52  CD2 ACY d   1      43.743  -9.673  -9.359  0.00  0.00     0.002 A 
ATOM     53  H15 ACY d   1      42.206  -8.987  -8.076  0.00  0.00     0.166 HD
ATOM     54  H13 ACY d   1      44.240 -10.432  -8.757  0.00  0.00     0.114 H 
ENDBRANCH  44  47
ENDBRANCH   1  44
TORSDOF 14
