REMARK  9 active torsions:
REMARK  status: ('A' for Active; 'I' for Inactive)
REMARK    1  A    between atoms: C2_13  and  C5_2 
REMARK       I    between atoms: N6_15  and  C10_5 
REMARK    2  A    between atoms: C10_5  and  C12_18 
REMARK    3  A    between atoms: C15_6  and  C18_22 
REMARK    4  A    between atoms: N13_19  and  C17_7 
REMARK       I    between atoms: N27_28  and  C28_11 
REMARK    5  A    between atoms: C28_11  and  C30_30 
REMARK    6  A    between atoms: C1_12  and  C2_13 
REMARK    7  A    between atoms: C2_13  and  N6_15 
REMARK    8  A    between atoms: S24_25  and  C9_16 
REMARK    9  A    between atoms: S24_25  and  N27_28 
ROOT
ATOM      1  C2  K52 d   1      23.967  -9.263   2.269  0.00  0.00     0.034 C 
ATOM      2  H13 K52 d   1      24.470  -9.831   1.472  0.00  0.00     0.079 H 
ENDROOT
BRANCH   1   3
ATOM      3  C5  K52 d   1      25.007  -8.690   3.231  0.00  0.00    -0.053 C 
ATOM      4  H2  K52 d   1      25.608  -9.509   3.652  0.00  0.00     0.030 H 
ATOM      5  H3  K52 d   1      24.497  -8.154   4.045  0.00  0.00     0.030 H 
ATOM      6  H4  K52 d   1      25.664  -7.994   2.689  0.00  0.00     0.030 H 
ENDBRANCH   1   3
BRANCH   1   7
ATOM      7  C1  K52 d   1      23.145  -8.134   1.695  0.00  0.00    -0.036 A 
ATOM      8  C4  K52 d   1      23.390  -7.663   0.412  0.00  0.00    -0.073 A 
ATOM      9  C8  K52 d   1      22.590  -6.657  -0.117  0.00  0.00    -0.060 A 
ATOM     10  H1  K52 d   1      24.202  -8.078  -0.174  0.00  0.00     0.084 H 
ATOM     11  C9  K52 d   1      21.523  -6.154   0.618  0.00  0.00     0.080 A 
ATOM     12  H6  K52 d   1      22.799  -6.264  -1.105  0.00  0.00     0.085 H 
ATOM     13  C7  K52 d   1      21.272  -6.632   1.893  0.00  0.00    -0.060 A 
ATOM     14  C3  K52 d   1      22.070  -7.628   2.421  0.00  0.00    -0.073 A 
ATOM     15  H5  K52 d   1      20.452  -6.226   2.475  0.00  0.00     0.085 H 
ATOM     16  H14 K52 d   1      21.858  -8.019   3.409  0.00  0.00     0.084 H 
BRANCH  11  17
ATOM     17  S24 K52 d   1      20.513  -4.865  -0.036  0.00  0.00     0.265 S 
ATOM     18  O25 K52 d   1      19.708  -5.430  -1.062  0.00  0.00    -0.200 OA
ATOM     19  O26 K52 d   1      19.974  -4.198   1.109  0.00  0.00    -0.200 OA
BRANCH  17  20
ATOM     20  N27 K52 d   1      21.557  -3.820  -0.779  0.00  0.00    -0.251 N 
ATOM     21  C28 K52 d   1      22.452  -3.082  -0.086  0.00  0.00     0.227 C 
ATOM     22  O29 K52 d   1      22.512  -3.135   1.133  0.00  0.00    -0.273 OA
ATOM     23  H19 K52 d   1      21.525  -3.731  -1.774  0.00  0.00     0.181 HD
BRANCH  21  24
ATOM     24  C30 K52 d   1      23.377  -2.169  -0.853  0.00  0.00    -0.002 C 
ATOM     25  H20 K52 d   1      24.039  -1.643  -0.150  0.00  0.00     0.040 H 
ATOM     26  H21 K52 d   1      22.783  -1.435  -1.417  0.00  0.00     0.040 H 
ATOM     27  H22 K52 d   1      23.983  -2.764  -1.552  0.00  0.00     0.040 H 
ENDBRANCH  21  24
ENDBRANCH  17  20
ENDBRANCH  11  17
ENDBRANCH   1   7
BRANCH   1  28
ATOM     28  N6  K52 d   1      22.999 -10.109   2.976  0.00  0.00    -0.347 N 
ATOM     29  C10 K52 d   1      22.202 -10.952   2.283  0.00  0.00     0.270 C 
ATOM     30  O11 K52 d   1      22.324 -11.065   1.069  0.00  0.00    -0.266 OA
ATOM     31  H15 K52 d   1      22.929 -10.062   3.972  0.00  0.00     0.163 HD
BRANCH  29  32
ATOM     32  C12 K52 d   1      21.153 -11.701   2.997  0.00  0.00     0.122 A 
ATOM     33  N13 K52 d   1      20.566 -12.885   2.634  0.00  0.00    -0.268 N 
ATOM     34  N14 K52 d   1      19.638 -13.177   3.472  0.00  0.00    -0.172 NA
ATOM     35  C15 K52 d   1      19.504 -12.237   4.383  0.00  0.00     0.089 A 
ATOM     36  C16 K52 d   1      20.463 -11.244   4.108  0.00  0.00    -0.020 A 
ATOM     37  H16 K52 d   1      20.627 -10.315   4.652  0.00  0.00     0.091 H 
BRANCH  33  38
ATOM     38  C17 K52 d   1      20.926 -13.704   1.469  0.00  0.00     0.003 C 
ATOM     39  H7  K52 d   1      20.283 -14.596   1.435  0.00  0.00     0.059 H 
ATOM     40  H8  K52 d   1      21.979 -14.014   1.550  0.00  0.00     0.059 H 
ATOM     41  H9  K52 d   1      20.786 -13.116   0.550  0.00  0.00     0.059 H 
ENDBRANCH  33  38
BRANCH  35  42
ATOM     42  C18 K52 d   1      18.554 -12.248   5.523  0.00  0.00    -0.006 A 
ATOM     43  C19 K52 d   1      17.617 -13.276   5.651  0.00  0.00    -0.071 A 
ATOM     44  C20 K52 d   1      16.745 -13.276   6.730  0.00  0.00    -0.082 A 
ATOM     45  H17 K52 d   1      17.572 -14.068   4.912  0.00  0.00     0.084 H 
ATOM     46  C21 K52 d   1      16.804 -12.275   7.688  0.00  0.00    -0.083 A 
ATOM     47  H10 K52 d   1      16.010 -14.067   6.825  0.00  0.00     0.083 H 
ATOM     48  C22 K52 d   1      17.748 -11.260   7.575  0.00  0.00    -0.082 A 
ATOM     49  H11 K52 d   1      16.115 -12.284   8.524  0.00  0.00     0.083 H 
ATOM     50  C23 K52 d   1      18.630 -11.257   6.507  0.00  0.00    -0.071 A 
ATOM     51  H12 K52 d   1      17.793 -10.474   8.320  0.00  0.00     0.083 H 
ATOM     52  H18 K52 d   1      19.384 -10.482   6.433  0.00  0.00     0.084 H 
ENDBRANCH  35  42
ENDBRANCH  29  32
ENDBRANCH   1  28
TORSDOF 9
