REMARK  7 active torsions:
REMARK  status: ('A' for Active; 'I' for Inactive)
REMARK    1  A    between atoms: C5_1  and  C7_3 
REMARK    2  A    between atoms: C6_2  and  C1_18 
REMARK       I    between atoms: N9_23  and  C6_2 
REMARK    3  A    between atoms: N2_22  and  C10_4 
REMARK    4  A    between atoms: C16_20  and  C17_7 
REMARK    5  A    between atoms: C21_9  and  C24_11 
REMARK    6  A    between atoms: C16_20  and  C18_19 
REMARK    7  A    between atoms: C16_20  and  N9_23 
ROOT
ATOM      1  C6  K58 d   1      22.024 -11.457   2.498  0.00  0.00     0.270 C 
ATOM      2  N9  K58 d   1      22.889 -10.573   3.051  0.00  0.00    -0.347 N 
ATOM      3  O8  K58 d   1      22.068 -11.707   1.290  0.00  0.00    -0.266 OA
ATOM      4  H18 K58 d   1      22.847 -10.376   4.031  0.00  0.00     0.163 HD
ENDROOT
BRANCH   1   5
ATOM      5  C1  K58 d   1      20.996 -12.074   3.351  0.00  0.00     0.122 A 
ATOM      6  C3  K58 d   1      20.486 -11.611   4.561  0.00  0.00    -0.020 A 
ATOM      7  C5  K58 d   1      19.510 -12.557   4.932  0.00  0.00     0.089 A 
ATOM      8  H13 K58 d   1      20.778 -10.713   5.103  0.00  0.00     0.091 H 
ATOM      9  N4  K58 d   1      19.518 -13.518   4.040  0.00  0.00    -0.172 NA
ATOM     10  N2  K58 d   1      20.365 -13.264   3.110  0.00  0.00    -0.268 N 
BRANCH   7  11
ATOM     11  C7  K58 d   1      18.670 -12.554   6.148  0.00  0.00    -0.006 A 
ATOM     12  C11 K58 d   1      17.665 -13.528   6.308  0.00  0.00    -0.071 A 
ATOM     13  C13 K58 d   1      16.889 -13.501   7.452  0.00  0.00    -0.082 A 
ATOM     14  H9  K58 d   1      17.503 -14.284   5.549  0.00  0.00     0.084 H 
ATOM     15  C15 K58 d   1      17.097 -12.562   8.447  0.00  0.00    -0.083 A 
ATOM     16  H4  K58 d   1      16.099 -14.233   7.572  0.00  0.00     0.083 H 
ATOM     17  C14 K58 d   1      18.096 -11.601   8.298  0.00  0.00    -0.082 A 
ATOM     18  H5  K58 d   1      16.484 -12.574   9.341  0.00  0.00     0.083 H 
ATOM     19  C12 K58 d   1      18.865 -11.592   7.150  0.00  0.00    -0.071 A 
ATOM     20  H8  K58 d   1      18.268 -10.867   9.077  0.00  0.00     0.083 H 
ATOM     21  H10 K58 d   1      19.628 -10.833   7.022  0.00  0.00     0.084 H 
ENDBRANCH   7  11
BRANCH  10  22
ATOM     22  C10 K58 d   1      20.645 -14.178   2.000  0.00  0.00     0.003 C 
ATOM     23  H1  K58 d   1      19.980 -15.051   2.068  0.00  0.00     0.059 H 
ATOM     24  H2  K58 d   1      21.692 -14.510   2.054  0.00  0.00     0.059 H 
ATOM     25  H3  K58 d   1      20.473 -13.659   1.045  0.00  0.00     0.059 H 
ENDBRANCH  10  22
ENDBRANCH   1   5
BRANCH   2  26
ATOM     26  C16 K58 d   1      23.886  -9.906   2.209  0.00  0.00     0.034 C 
ATOM     27  H17 K58 d   1      24.364 -10.654   1.560  0.00  0.00     0.079 H 
BRANCH  26  28
ATOM     28  C17 K58 d   1      23.230  -8.849   1.326  0.00  0.00    -0.036 A 
ATOM     29  C19 K58 d   1      23.512  -8.835  -0.038  0.00  0.00    -0.074 A 
ATOM     30  C20 K58 d   1      22.956  -7.878  -0.874  0.00  0.00    -0.066 A 
ATOM     31  H11 K58 d   1      24.177  -9.584  -0.453  0.00  0.00     0.084 H 
ATOM     32  C21 K58 d   1      22.087  -6.910  -0.343  0.00  0.00     0.040 A 
ATOM     33  H6  K58 d   1      23.191  -7.877  -1.932  0.00  0.00     0.085 H 
ATOM     34  C22 K58 d   1      21.794  -6.933   1.030  0.00  0.00    -0.066 A 
ATOM     35  C23 K58 d   1      22.368  -7.884   1.854  0.00  0.00    -0.074 A 
ATOM     36  H7  K58 d   1      21.113  -6.200   1.447  0.00  0.00     0.085 H 
ATOM     37  H12 K58 d   1      22.148  -7.881   2.915  0.00  0.00     0.084 H 
BRANCH  32  38
ATOM     38  C24 K58 d   1      21.499  -5.853  -1.194  0.00  0.00     0.209 C 
ATOM     39  O26 K58 d   1      21.017  -4.746  -0.594  0.00  0.00    -0.644 OA
ATOM     40  O25 K58 d   1      21.483  -5.956  -2.410  0.00  0.00    -0.644 OA
ENDBRANCH  32  38
ENDBRANCH  26  28
BRANCH  26  41
ATOM     41  C18 K58 d   1      24.951  -9.284   3.119  0.00  0.00    -0.053 C 
ATOM     42  H14 K58 d   1      25.405 -10.069   3.742  0.00  0.00     0.030 H 
ATOM     43  H15 K58 d   1      24.484  -8.527   3.766  0.00  0.00     0.030 H 
ATOM     44  H16 K58 d   1      25.729  -8.810   2.502  0.00  0.00     0.030 H 
ENDBRANCH  26  41
ENDBRANCH   2  26
TORSDOF 7
