REMARK  9 active torsions:
REMARK  status: ('A' for Active; 'I' for Inactive)
REMARK       I    between atoms: C11_20  and  N1_1 
REMARK    1  A    between atoms: N1_1  and  S13_30 
REMARK    2  A    between atoms: C4_2  and  C11_20 
REMARK    3  A    between atoms: C8_6  and  C7_5 
REMARK    4  A    between atoms: C8_6  and  C10_7 
REMARK    5  A    between atoms: N9_25  and  C8_6 
REMARK    6  A    between atoms: C20_8  and  C25_18 
REMARK    7  A    between atoms: N17_24  and  C22_9 
REMARK    8  A    between atoms: C23_21  and  C18_19 
REMARK       I    between atoms: C23_21  and  N9_25 
REMARK    9  A    between atoms: S13_30  and  C14_22 
ROOT
ATOM      1  C8  K5N d   1      23.702  -9.864   2.533  0.00  0.00     0.034 C 
ATOM      2  H4  K5N d   1      24.191 -10.582   1.859  0.00  0.00     0.079 H 
ENDROOT
BRANCH   1   3
ATOM      3  C7  K5N d   1      22.969  -8.806   1.737  0.00  0.00    -0.036 A 
ATOM      4  C6  K5N d   1      23.068  -8.801   0.351  0.00  0.00    -0.074 A 
ATOM      5  C5  K5N d   1      22.385  -7.844  -0.385  0.00  0.00    -0.067 A 
ATOM      6  H3  K5N d   1      23.677  -9.543  -0.153  0.00  0.00     0.084 H 
ATOM      7  C4  K5N d   1      21.570  -6.892   0.253  0.00  0.00     0.033 A 
ATOM      8  H2  K5N d   1      22.481  -7.830  -1.465  0.00  0.00     0.085 H 
ATOM      9  C3  K5N d   1      21.461  -6.914   1.652  0.00  0.00    -0.067 A 
ATOM     10  C2  K5N d   1      22.155  -7.868   2.379  0.00  0.00    -0.074 A 
ATOM     11  H16 K5N d   1      20.837  -6.188   2.161  0.00  0.00     0.085 H 
ATOM     12  H17 K5N d   1      22.066  -7.887   3.459  0.00  0.00     0.084 H 
BRANCH   7  13
ATOM     13  C11 K5N d   1      20.828  -5.894  -0.558  0.00  0.00     0.264 C 
ATOM     14  N1  K5N d   1      20.688  -6.110  -1.888  0.00  0.00    -0.250 N 
ATOM     15  H1  K5N d   1      21.092  -6.935  -2.284  0.00  0.00     0.181 HD
ATOM     16  O12 K5N d   1      20.363  -4.894  -0.032  0.00  0.00    -0.267 OA
BRANCH  14  17
ATOM     17  S13 K5N d   1      19.877  -5.068  -2.886  0.00  0.00     0.229 S 
ATOM     18  O15 K5N d   1      19.995  -5.620  -4.193  0.00  0.00    -0.206 OA
ATOM     19  O16 K5N d   1      18.597  -4.967  -2.262  0.00  0.00    -0.206 OA
BRANCH  17  20
ATOM     20  C14 K5N d   1      20.763  -3.492  -2.758  0.00  0.00     0.033 C 
ATOM     21  H19 K5N d   1      20.276  -2.744  -3.401  0.00  0.00     0.051 H 
ATOM     22  H20 K5N d   1      21.805  -3.630  -3.081  0.00  0.00     0.051 H 
ATOM     23  H21 K5N d   1      20.746  -3.145  -1.714  0.00  0.00     0.051 H 
ENDBRANCH  17  20
ENDBRANCH  14  17
ENDBRANCH   7  13
ENDBRANCH   1   3
BRANCH   1  24
ATOM     24  C10 K5N d   1      24.754  -9.181   3.410  0.00  0.00    -0.053 C 
ATOM     25  H5  K5N d   1      25.294  -9.941   3.994  0.00  0.00     0.030 H 
ATOM     26  H6  K5N d   1      24.259  -8.476   4.094  0.00  0.00     0.030 H 
ATOM     27  H7  K5N d   1      25.465  -8.635   2.772  0.00  0.00     0.030 H 
ENDBRANCH   1  24
BRANCH   1  28
ATOM     28  N9  K5N d   1      22.700 -10.551   3.359  0.00  0.00    -0.347 N 
ATOM     29  C23 K5N d   1      21.817 -11.426   2.820  0.00  0.00     0.270 C 
ATOM     30  O24 K5N d   1      21.881 -11.699   1.634  0.00  0.00    -0.266 OA
ATOM     31  H22 K5N d   1      22.669 -10.369   4.342  0.00  0.00     0.163 HD
BRANCH  29  32
ATOM     32  C18 K5N d   1      20.772 -12.055   3.658  0.00  0.00     0.122 A 
ATOM     33  C19 K5N d   1      20.247 -11.572   4.846  0.00  0.00    -0.020 A 
ATOM     34  C20 K5N d   1      19.259 -12.515   5.231  0.00  0.00     0.089 A 
ATOM     35  H18 K5N d   1      20.532 -10.662   5.372  0.00  0.00     0.091 H 
ATOM     36  N21 K5N d   1      19.244 -13.463   4.327  0.00  0.00    -0.172 NA
ATOM     37  N17 K5N d   1      20.095 -13.222   3.395  0.00  0.00    -0.268 N 
BRANCH  34  38
ATOM     38  C25 K5N d   1      18.419 -12.499   6.465  0.00  0.00    -0.006 A 
ATOM     39  C26 K5N d   1      17.468 -13.506   6.669  0.00  0.00    -0.071 A 
ATOM     40  C29 K5N d   1      16.697 -13.485   7.829  0.00  0.00    -0.082 A 
ATOM     41  H11 K5N d   1      17.333 -14.291   5.934  0.00  0.00     0.084 H 
ATOM     42  C27 K5N d   1      16.888 -12.499   8.792  0.00  0.00    -0.083 A 
ATOM     43  H14 K5N d   1      15.940 -14.245   7.983  0.00  0.00     0.083 H 
ATOM     44  C28 K5N d   1      17.850 -11.510   8.600  0.00  0.00    -0.082 A 
ATOM     45  H13 K5N d   1      16.287 -12.501   9.694  0.00  0.00     0.083 H 
ATOM     46  C30 K5N d   1      18.601 -11.502   7.433  0.00  0.00    -0.071 A 
ATOM     47  H12 K5N d   1      18.011 -10.751   9.357  0.00  0.00     0.083 H 
ATOM     48  H15 K5N d   1      19.333 -10.720   7.269  0.00  0.00     0.084 H 
ENDBRANCH  34  38
BRANCH  37  49
ATOM     49  C22 K5N d   1      20.316 -14.105   2.249  0.00  0.00     0.003 C 
ATOM     50  H8  K5N d   1      19.626 -14.960   2.307  0.00  0.00     0.059 H 
ATOM     51  H9  K5N d   1      21.354 -14.470   2.262  0.00  0.00     0.059 H 
ATOM     52  H10 K5N d   1      20.134 -13.549   1.317  0.00  0.00     0.059 H 
ENDBRANCH  37  49
ENDBRANCH  29  32
ENDBRANCH   1  28
TORSDOF 9
