REMARK  10 active torsions:
REMARK  status: ('A' for Active; 'I' for Inactive)
REMARK    1  A    between atoms: C10_5  and  C8_4 
REMARK       I    between atoms: N12_6  and  C10_5 
REMARK    2  A    between atoms: C16_14  and  N12_6 
REMARK    3  A    between atoms: N7_23  and  C15_7 
REMARK    4  A    between atoms: C16_14  and  C17_8 
REMARK    5  A    between atoms: C17_8  and  O25_25 
REMARK    6  A    between atoms: S24_30  and  C21_10 
REMARK    7  A    between atoms: C2_17  and  C14_13 
REMARK    8  A    between atoms: C18_15  and  C16_14 
REMARK    9  A    between atoms: C27_19  and  C29_20 
REMARK   10  A    between atoms: C27_19  and  S24_30 
ROOT
ATOM      1  C16 K5K d   1      21.539 -10.152  -1.970  0.00  0.00     0.058 C 
ATOM      2  H12 K5K d   1      22.128 -10.702  -2.719  0.00  0.00     0.083 H 
ENDROOT
BRANCH   1   3
ATOM      3  N12 K5K d   1      20.621 -11.099  -1.337  0.00  0.00    -0.345 N 
ATOM      4  C10 K5K d   1      19.678 -11.810  -1.989  0.00  0.00     0.269 C 
ATOM      5  O11 K5K d   1      19.637 -11.901  -3.218  0.00  0.00    -0.266 OA
ATOM      6  H1  K5K d   1      20.698 -11.229  -0.348  0.00  0.00     0.163 HD
BRANCH   4   7
ATOM      7  C8  K5K d   1      18.635 -12.447  -1.121  0.00  0.00     0.104 A 
ATOM      8  C9  K5K d   1      18.099 -12.005   0.069  0.00  0.00    -0.038 A 
ATOM      9  C5  K5K d   1      17.097 -12.942   0.482  0.00  0.00     0.017 A 
ATOM     10  H18 K5K d   1      18.387 -11.101   0.603  0.00  0.00     0.088 H 
ATOM     11  C4  K5K d   1      16.244 -13.134   1.573  0.00  0.00     0.068 A 
ATOM     12  C6  K5K d   1      17.055 -13.940  -0.508  0.00  0.00     0.047 A 
ATOM     13  C1  K5K d   1      15.381 -14.225   1.677  0.00  0.00     0.062 A 
ATOM     14 CL1  K5K d   1      16.295 -11.961   2.834  0.00  0.00    -0.082 Cl
ATOM     15  C2  K5K d   1      15.337 -15.192   0.664  0.00  0.00    -0.036 A 
ATOM     16 CL2  K5K d   1      14.335 -14.384   3.040  0.00  0.00    -0.082 Cl
ATOM     17  C3  K5K d   1      16.200 -15.037  -0.418  0.00  0.00    -0.049 A 
ATOM     18  H17 K5K d   1      16.207 -15.783  -1.204  0.00  0.00     0.087 H 
ATOM     19  N7  K5K d   1      17.987 -13.626  -1.498  0.00  0.00    -0.346 N 
BRANCH  15  20
ATOM     20  C14 K5K d   1      14.420 -16.387   0.723  0.00  0.00    -0.050 C 
ATOM     21  H9  K5K d   1      14.561 -17.002  -0.178  0.00  0.00     0.033 H 
ATOM     22  H10 K5K d   1      13.376 -16.046   0.774  0.00  0.00     0.033 H 
ATOM     23  H11 K5K d   1      14.654 -16.985   1.616  0.00  0.00     0.033 H 
ENDBRANCH  15  20
BRANCH  19  24
ATOM     24  C15 K5K d   1      18.233 -14.440  -2.688  0.00  0.00    -0.013 C 
ATOM     25  H2  K5K d   1      17.552 -15.304  -2.688  0.00  0.00     0.057 H 
ATOM     26  H3  K5K d   1      19.274 -14.794  -2.681  0.00  0.00     0.057 H 
ATOM     27  H4  K5K d   1      18.057 -13.834  -3.589  0.00  0.00     0.057 H 
ENDBRANCH  19  24
ENDBRANCH   4   7
ENDBRANCH   1   3
BRANCH   1  28
ATOM     28  C17 K5K d   1      22.505  -9.606  -0.928  0.00  0.00     0.039 C 
ATOM     29  H5  K5K d   1      21.930  -9.155  -0.106  0.00  0.00     0.077 H 
ATOM     30  H6  K5K d   1      23.141  -8.839  -1.394  0.00  0.00     0.077 H 
BRANCH  28  31
ATOM     31  O25 K5K d   1      23.328 -10.637  -0.407  0.00  0.00    -0.399 OA
ATOM     32  H19 K5K d   1      22.783 -11.300   0.000  0.00  0.00     0.209 HD
ENDBRANCH  28  31
ENDBRANCH   1  28
BRANCH   1  33
ATOM     33  C18 K5K d   1      20.795  -9.048  -2.701  0.00  0.00    -0.033 A 
ATOM     34  C19 K5K d   1      19.737  -8.378  -2.094  0.00  0.00    -0.073 A 
ATOM     35  C20 K5K d   1      19.008  -7.421  -2.777  0.00  0.00    -0.061 A 
ATOM     36  H13 K5K d   1      19.479  -8.610  -1.067  0.00  0.00     0.084 H 
ATOM     37  C21 K5K d   1      19.340  -7.123  -4.089  0.00  0.00     0.059 A 
ATOM     38  H7  K5K d   1      18.185  -6.909  -2.291  0.00  0.00     0.085 H 
ATOM     39  C22 K5K d   1      20.367  -7.801  -4.729  0.00  0.00    -0.061 A 
ATOM     40  C23 K5K d   1      21.082  -8.762  -4.031  0.00  0.00    -0.073 A 
ATOM     41  H8  K5K d   1      20.608  -7.582  -5.763  0.00  0.00     0.085 H 
ATOM     42  H14 K5K d   1      21.879  -9.300  -4.531  0.00  0.00     0.084 H 
BRANCH  37  43
ATOM     43  S24 K5K d   1      18.388  -5.934  -4.980  0.00  0.00     0.185 S 
ATOM     44  O26 K5K d   1      17.095  -5.837  -4.364  0.00  0.00    -0.222 OA
ATOM     45  O28 K5K d   1      18.452  -6.259  -6.379  0.00  0.00    -0.222 OA
BRANCH  43  46
ATOM     46  C27 K5K d   1      19.217  -4.365  -4.753  0.00  0.00     0.113 C 
ATOM     47  H15 K5K d   1      19.840  -4.178  -5.640  0.00  0.00     0.073 H 
ATOM     48  H16 K5K d   1      18.448  -3.583  -4.674  0.00  0.00     0.073 H 
BRANCH  46  49
ATOM     49  C29 K5K d   1      20.108  -4.273  -3.526  0.00  0.00     0.187 C 
ATOM     50  O30 K5K d   1      19.550  -4.267  -2.405  0.00  0.00    -0.647 OA
ATOM     51  O31 K5K d   1      21.344  -4.185  -3.711  0.00  0.00    -0.647 OA
ENDBRANCH  46  49
ENDBRANCH  43  46
ENDBRANCH  37  43
ENDBRANCH   1  33
TORSDOF 10
