REMARK WARNING: 32 MAX_TORS EXCEEDED!!!
REMARK  65 active torsions:
REMARK  status: ('A' for Active; 'I' for Inactive)
REMARK    1  A    between atoms: CA_2  and  CB_3 
REMARK    2  A    between atoms: CB_3  and  NG_4 
REMARK       I    between atoms: NG_4  and  CD_5 
REMARK    3  A    between atoms: CD_5  and  CE_7 
REMARK    4  A    between atoms: CA_11  and  CB_14 
REMARK    5  A    between atoms: CB_14  and  CG1_15 
REMARK    6  A    between atoms: CB_14  and  CG2_16 
REMARK    7  A    between atoms: CG1_15  and  CD1_17 
REMARK    8  A    between atoms: CA_19  and  CB1_22 
REMARK    9  A    between atoms: CA_19  and  CB2_23 
REMARK   10  A    between atoms: CA_25  and  C_26 
REMARK       I    between atoms: C_26  and  N_32 
REMARK   11  A    between atoms: N_32  and  CA_33 
REMARK   12  A    between atoms: CA_33  and  C_34 
REMARK   13  A    between atoms: CA_33  and  CB_36 
REMARK       I    between atoms: C_34  and  N_37 
REMARK   14  A    between atoms: N_37  and  CA_38 
REMARK   15  A    between atoms: CA_38  and  C_39 
REMARK   16  A    between atoms: CA_38  and  CB_41 
REMARK       I    between atoms: C_39  and  N_45 
REMARK   17  A    between atoms: CB_41  and  CG_42 
REMARK   18  A    between atoms: CG_42  and  CD1_43 
REMARK   19  A    between atoms: CG_42  and  CD2_44 
REMARK   20  A    between atoms: N_45  and  CA_46 
REMARK   21  A    between atoms: CA_46  and  C_47 
REMARK   22  A    between atoms: CA_46  and  CB_49 
REMARK       I    between atoms: C_47  and  N_56 
REMARK   23  A    between atoms: CB_49  and  CG_50 
REMARK   24  A    between atoms: CG_50  and  CD_51 
REMARK   25  A    between atoms: CD_51  and  NE_52 
REMARK       I    between atoms: NE_52  and  CZ_53 
REMARK       I    between atoms: CZ_53  and  NH1_54 
REMARK       I    between atoms: CZ_53  and  NH2_55 
REMARK   26  A    between atoms: N_56  and  CA_57 
REMARK   27  A    between atoms: CA_57  and  C_58 
REMARK   28  A    between atoms: CA_57  and  CB_60 
REMARK       I    between atoms: C_58  and  N_67 
REMARK   29  A    between atoms: CB_60  and  CG_61 
REMARK   30  A    between atoms: CG_61  and  CD_62 
REMARK   31  A    between atoms: CD_62  and  NE_63 
REMARK       I    between atoms: NE_63  and  CZ_64 
REMARK       I    between atoms: CZ_64  and  NH1_65 
REMARK   32  A    between atoms: N_67  and  CA_68 
REMARK   33  A    between atoms: CA_68  and  C_69 
REMARK   34  A    between atoms: CA_68  and  CB_71 
REMARK       I    between atoms: C_69  and  N_75 
REMARK   35  A    between atoms: CB_71  and  CG1_72 
REMARK   36  A    between atoms: CB_71  and  CG2_73 
REMARK   37  A    between atoms: CG1_72  and  CD1_74 
REMARK   38  A    between atoms: N_75  and  CA_76 
REMARK   39  A    between atoms: CA_76  and  C_77 
REMARK       I    between atoms: C_77  and  N_79 
REMARK   40  A    between atoms: N_79  and  CA_80 
REMARK   41  A    between atoms: CA_80  and  C_81 
REMARK   42  A    between atoms: CA_80  and  CB_83 
REMARK       I    between atoms: C_81  and  N_87 
REMARK   43  A    between atoms: CB_83  and  CG_84 
REMARK   44  A    between atoms: N_87  and  CA_88 
REMARK   45  A    between atoms: CA_88  and  C_89 
REMARK   46  A    between atoms: CA_88  and  CB_91 
REMARK       I    between atoms: C_89  and  N_92 
REMARK   47  A    between atoms: N_92  and  CA_93 
REMARK   48  A    between atoms: CA_93  and  C_94 
REMARK   49  A    between atoms: CA_93  and  CB_96 
REMARK       I    between atoms: C_94  and  N_103 
REMARK   50  A    between atoms: CB_96  and  CG_97 
REMARK   51  A    between atoms: N_103  and  CA_104 
REMARK   52  A    between atoms: CA_104  and  C_105 
REMARK   53  A    between atoms: CA_104  and  CB_107 
REMARK       I    between atoms: C_105  and  N_111 
REMARK   54  A    between atoms: CB_107  and  CG_108 
REMARK       I    between atoms: CG_108  and  ND2_110 
REMARK   55  A    between atoms: N_111  and  CA_112 
REMARK   56  A    between atoms: CA_112  and  C_113 
REMARK   57  A    between atoms: CA_112  and  CB_115 
REMARK       I    between atoms: C_113  and  N_116 
REMARK   58  A    between atoms: N_116  and  CA_117 
REMARK   59  A    between atoms: CA_117  and  C_118 
REMARK   60  A    between atoms: CA_117  and  CB_120 
REMARK       I    between atoms: C_118  and  N_121 
REMARK   61  A    between atoms: N_121  and  CA_122 
REMARK   62  A    between atoms: CA_122  and  C_123 
REMARK   63  A    between atoms: CA_122  and  CB_125 
REMARK   64  A    between atoms: CB_125  and  CG_126 
REMARK   65  A    between atoms: CZ_131  and  OH_132 
ROOT
ATOM      1  CA  LV8 d   1      49.428 -24.098  18.983  0.00  0.00     0.089 C 
ATOM      2  H63 LV8 d   1      48.856 -23.710  19.839  0.00  0.00     0.087 H 
ENDROOT
BRANCH   1   3
ATOM      3  N   LV8 d   1      49.104 -25.522  18.762  0.00  0.00    -0.346 N 
ATOM      4  C   LV8 d   1      47.911 -26.026  18.407  0.00  0.00     0.241 C 
ATOM      5  O   LV8 d   1      46.897 -25.343  18.244  0.00  0.00    -0.271 OA
ATOM      6  H62 LV8 d   1      49.849 -26.177  18.890  0.00  0.00     0.163 HD
BRANCH   4   7
ATOM      7  CA  LV8 d   1      47.840 -27.552  18.277  0.00  0.00     0.089 C 
ATOM      8  H50 LV8 d   1      46.852 -27.842  17.891  0.00  0.00     0.087 H 
BRANCH   7   9
ATOM      9  N   LV8 d   1      48.874 -28.000  17.348  0.00  0.00    -0.346 N 
ATOM     10  C   LV8 d   1      48.790 -27.737  16.053  0.00  0.00     0.241 C 
ATOM     11  O   LV8 d   1      47.868 -27.130  15.570  0.00  0.00    -0.271 OA
ATOM     12  H49 LV8 d   1      49.658 -28.514  17.696  0.00  0.00     0.163 HD
BRANCH  10  13
ATOM     13  CA  LV8 d   1      49.857 -28.334  15.146  0.00  0.00     0.089 C 
ATOM     14  H39 LV8 d   1      49.964 -27.716  14.243  0.00  0.00     0.087 H 
BRANCH  13  15
ATOM     15  N   LV8 d   1      51.125 -28.362  15.851  0.00  0.00    -0.346 N 
ATOM     16  C   LV8 d   1      51.663 -27.218  16.234  0.00  0.00     0.240 C 
ATOM     17  O   LV8 d   1      51.063 -26.164  16.146  0.00  0.00    -0.271 OA
ATOM     18  H38 LV8 d   1      51.583 -29.230  16.043  0.00  0.00     0.163 HD
BRANCH  16  19
ATOM     19  CA  LV8 d   1      53.038 -27.256  16.910  0.00  0.00     0.086 C 
ATOM     20  H34 LV8 d   1      53.245 -26.259  17.327  0.00  0.00     0.086 H 
BRANCH  19  21
ATOM     21  N   LV8 d   1      53.022 -28.224  17.969  0.00  0.00    -0.346 N 
ATOM     22  C   LV8 d   1      52.196 -28.116  19.020  0.00  0.00     0.241 C 
ATOM     23  O   LV8 d   1      51.324 -27.189  19.140  0.00  0.00    -0.271 OA
ATOM     24  H33 LV8 d   1      53.646 -29.004  17.922  0.00  0.00     0.163 HD
BRANCH  22  25
ATOM     25  CA  LV8 d   1      52.377 -29.180  20.091  0.00  0.00     0.090 C 
ATOM     26  N   LV8 d   1      52.344 -30.551  19.489  0.00  0.00    -0.346 N 
ATOM     27  C   LV8 d   1      51.311 -31.071  18.807  0.00  0.00     0.246 C 
ATOM     28  H27 LV8 d   1      53.155 -31.124  19.604  0.00  0.00     0.163 HD
ATOM     29  CA  LV8 d   1      51.476 -32.516  18.281  0.00  0.00     0.106 C 
ATOM     30  O   LV8 d   1      50.222 -30.442  18.643  0.00  0.00    -0.271 OA
ATOM     31  N   LV8 d   1      52.805 -32.734  17.679  0.00  0.00    -0.342 N 
ATOM     32  C   LV8 d   1      53.281 -31.907  16.743  0.00  0.00     0.241 C 
ATOM     33  H20 LV8 d   1      53.358 -33.512  17.976  0.00  0.00     0.163 HD
ATOM     34  CA  LV8 d   1      54.700 -32.204  16.227  0.00  0.00     0.092 C 
ATOM     35  O   LV8 d   1      52.640 -30.924  16.306  0.00  0.00    -0.271 OA
ATOM     36  N   LV8 d   1      55.605 -32.281  17.415  0.00  0.00    -0.346 N 
ATOM     37  H10 LV8 d   1      55.023 -31.364  15.594  0.00  0.00     0.088 H 
ATOM     38  C   LV8 d   1      55.962 -31.108  17.947  0.00  0.00     0.242 C 
ATOM     39  H9  LV8 d   1      55.922 -33.153  17.787  0.00  0.00     0.163 HD
ATOM     40  CA  LV8 d   1      57.011 -31.038  19.069  0.00  0.00     0.104 C 
ATOM     41  O   LV8 d   1      55.470 -30.033  17.506  0.00  0.00    -0.271 OA
ATOM     42  N   LV8 d   1      56.247 -30.500  20.244  0.00  0.00    -0.346 N 
ATOM     43  H2  LV8 d   1      57.745 -30.278  18.763  0.00  0.00     0.090 H 
ATOM     44  CD  LV8 d   1      55.153 -31.047  20.691  0.00  0.00     0.218 C 
ATOM     45  H1  LV8 d   1      56.594 -29.683  20.705  0.00  0.00     0.163 HD
ATOM     46  CG  LV8 d   1      54.210 -30.122  21.463  0.00  0.00     0.011 C 
ATOM     47  OE1 LV8 d   1      54.686 -31.896  19.930  0.00  0.00    -0.274 OA
ATOM     48  CB  LV8 d   1      53.732 -28.904  20.699  0.00  0.00    -0.030 C 
ATOM     49  H31 LV8 d   1      53.326 -30.707  21.758  0.00  0.00     0.047 H 
ATOM     50  H32 LV8 d   1      54.737 -29.774  22.363  0.00  0.00     0.047 H 
ATOM     51  H29 LV8 d   1      53.656 -28.049  21.386  0.00  0.00     0.037 H 
ATOM     52  H30 LV8 d   1      54.450 -28.670  19.899  0.00  0.00     0.037 H 
ATOM     53  H28 LV8 d   1      51.588 -29.096  20.853  0.00  0.00     0.087 H 
BRANCH  29  54
ATOM     54  CB1 LV8 d   1      50.334 -32.840  17.322  0.00  0.00    -0.045 C 
ATOM     55  H21 LV8 d   1      49.372 -32.659  17.823  0.00  0.00     0.031 H 
ATOM     56  H22 LV8 d   1      50.397 -33.896  17.020  0.00  0.00     0.031 H 
ATOM     57  H23 LV8 d   1      50.410 -32.198  16.432  0.00  0.00     0.031 H 
ENDBRANCH  29  54
BRANCH  29  58
ATOM     58  CB2 LV8 d   1      51.297 -33.569  19.362  0.00  0.00    -0.045 C 
ATOM     59  H24 LV8 d   1      50.314 -33.442  19.839  0.00  0.00     0.031 H 
ATOM     60  H25 LV8 d   1      52.088 -33.457  20.118  0.00  0.00     0.031 H 
ATOM     61  H26 LV8 d   1      51.359 -34.571  18.912  0.00  0.00     0.031 H 
ENDBRANCH  29  58
BRANCH  34  62
ATOM     62  CB  LV8 d   1      54.760 -33.479  15.373  0.00  0.00    -0.030 C 
ATOM     63  H11 LV8 d   1      54.421 -34.313  16.006  0.00  0.00     0.043 H 
BRANCH  62  64
ATOM     64  CG1 LV8 d   1      56.194 -33.799  14.949  0.00  0.00    -0.063 C 
ATOM     65  H12 LV8 d   1      56.766 -34.104  15.838  0.00  0.00     0.033 H 
ATOM     66  H13 LV8 d   1      56.645 -32.894  14.516  0.00  0.00     0.033 H 
BRANCH  64  67
ATOM     67  CD1 LV8 d   1      56.256 -34.908  13.928  0.00  0.00    -0.076 C 
ATOM     68  H17 LV8 d   1      57.305 -35.099  13.657  0.00  0.00     0.027 H 
ATOM     69  H18 LV8 d   1      55.694 -34.612  13.030  0.00  0.00     0.027 H 
ATOM     70  H19 LV8 d   1      55.815 -35.822  14.352  0.00  0.00     0.027 H 
ENDBRANCH  64  67
ENDBRANCH  62  64
BRANCH  62  71
ATOM     71  CG2 LV8 d   1      53.794 -33.392  14.199  0.00  0.00    -0.071 C 
ATOM     72  H14 LV8 d   1      52.785 -33.160  14.571  0.00  0.00     0.028 H 
ATOM     73  H15 LV8 d   1      53.776 -34.354  13.666  0.00  0.00     0.028 H 
ATOM     74  H16 LV8 d   1      54.123 -32.599  13.512  0.00  0.00     0.028 H 
ENDBRANCH  62  71
ENDBRANCH  34  62
BRANCH  40  75
ATOM     75  CB  LV8 d   1      57.846 -32.269  19.419  0.00  0.00     0.022 C 
ATOM     76  H3  LV8 d   1      57.263 -33.177  19.204  0.00  0.00     0.067 H 
ATOM     77  H4  LV8 d   1      58.102 -32.242  20.488  0.00  0.00     0.067 H 
BRANCH  75  78
ATOM     78  NG  LV8 d   1      59.085 -32.285  18.621  0.00  0.00    -0.359 N 
ATOM     79  CD  LV8 d   1      59.069 -33.289  17.788  0.00  0.00     0.213 C 
ATOM     80  OD2 LV8 d   1      58.136 -34.049  18.040  0.00  0.00    -0.274 OA
ATOM     81  H5  LV8 d   1      59.830 -31.623  18.706  0.00  0.00     0.162 HD
BRANCH  79  82
ATOM     82  CE  LV8 d   1      59.952 -33.343  16.520  0.00  0.00    -0.003 C 
ATOM     83  H6  LV8 d   1      59.763 -34.283  15.981  0.00  0.00     0.040 H 
ATOM     84  H7  LV8 d   1      61.012 -33.293  16.809  0.00  0.00     0.040 H 
ATOM     85  H8  LV8 d   1      59.709 -32.491  15.868  0.00  0.00     0.040 H 
ENDBRANCH  79  82
ENDBRANCH  75  78
ENDBRANCH  40  75
ENDBRANCH  22  25
ENDBRANCH  19  21
BRANCH  19  86
ATOM     86  CB  LV8 d   1      54.148 -27.626  15.980  0.00  0.00    -0.049 C 
ATOM     87  H35 LV8 d   1      54.190 -26.902  15.153  0.00  0.00     0.030 H 
ATOM     88  H36 LV8 d   1      53.968 -28.634  15.577  0.00  0.00     0.030 H 
ATOM     89  H37 LV8 d   1      55.103 -27.614  16.526  0.00  0.00     0.030 H 
ENDBRANCH  19  86
ENDBRANCH  16  19
ENDBRANCH  13  15
BRANCH  13  90
ATOM     90  CB  LV8 d   1      49.405 -29.734  14.745  0.00  0.00    -0.035 C 
ATOM     91  H40 LV8 d   1      48.314 -29.706  14.608  0.00  0.00     0.037 H 
ATOM     92  H41 LV8 d   1      49.653 -30.415  15.572  0.00  0.00     0.037 H 
BRANCH  90  93
ATOM     93  CG  LV8 d   1      50.016 -30.309  13.474  0.00  0.00    -0.059 C 
ATOM     94  H42 LV8 d   1      49.497 -29.851  12.619  0.00  0.00     0.038 H 
BRANCH  93  95
ATOM     95  CD1 LV8 d   1      51.498 -30.008  13.336  0.00  0.00    -0.073 C 
ATOM     96  H43 LV8 d   1      51.876 -30.449  12.402  0.00  0.00     0.028 H 
ATOM     97  H44 LV8 d   1      52.041 -30.438  14.191  0.00  0.00     0.028 H 
ATOM     98  H45 LV8 d   1      51.651 -28.919  13.316  0.00  0.00     0.028 H 
ENDBRANCH  93  95
BRANCH  93  99
ATOM     99  CD2 LV8 d   1      49.807 -31.811  13.413  0.00  0.00    -0.073 C 
ATOM    100  H46 LV8 d   1      48.735 -32.036  13.512  0.00  0.00     0.028 H 
ATOM    101  H47 LV8 d   1      50.360 -32.292  14.233  0.00  0.00     0.028 H 
ATOM    102  H48 LV8 d   1      50.174 -32.194  12.449  0.00  0.00     0.028 H 
ENDBRANCH  93  99
ENDBRANCH  90  93
ENDBRANCH  13  90
ENDBRANCH  10  13
ENDBRANCH   7   9
BRANCH   7 103
ATOM    103  CB  LV8 d   1      48.055 -28.191  19.647  0.00  0.00    -0.036 C 
ATOM    104  H51 LV8 d   1      48.015 -27.389  20.399  0.00  0.00     0.036 H 
ATOM    105  H52 LV8 d   1      49.057 -28.646  19.649  0.00  0.00     0.036 H 
BRANCH 103 106
ATOM    106  CG  LV8 d   1      47.058 -29.268  20.067  0.00  0.00    -0.048 C 
ATOM    107  H53 LV8 d   1      47.132 -30.123  19.378  0.00  0.00     0.035 H 
ATOM    108  H54 LV8 d   1      46.039 -28.856  20.032  0.00  0.00     0.035 H 
BRANCH 106 109
ATOM    109  CD  LV8 d   1      47.369 -29.735  21.492  0.00  0.00     0.009 C 
ATOM    110  H55 LV8 d   1      47.149 -28.893  22.165  0.00  0.00     0.064 H 
ATOM    111  H56 LV8 d   1      48.444 -29.965  21.531  0.00  0.00     0.064 H 
BRANCH 109 112
ATOM    112  NE  LV8 d   1      46.659 -30.901  22.013  0.00  0.00    -0.227 N 
ATOM    113  CZ  LV8 d   1      47.143 -31.695  22.979  0.00  0.00     0.665 C 
ATOM    114  NH1 LV8 d   1      48.430 -31.629  23.304  0.00  0.00    -0.235 N 
ATOM    115  NH2 LV8 d   1      46.344 -32.535  23.632  0.00  0.00    -0.235 N 
ATOM    116  H58 LV8 d   1      48.806 -32.237  24.046  0.00  0.00     0.174 HD
ATOM    117  H59 LV8 d   1      49.052 -30.970  22.814  0.00  0.00     0.174 HD
ATOM    118  H60 LV8 d   1      45.345 -32.592  23.386  0.00  0.00     0.174 HD
ATOM    119  H61 LV8 d   1      46.724 -33.128  24.383  0.00  0.00     0.174 HD
ATOM    120  H57 LV8 d   1      45.735 -31.125  21.616  0.00  0.00     0.177 HD
ENDBRANCH 109 112
ENDBRANCH 106 109
ENDBRANCH 103 106
ENDBRANCH   7 103
ENDBRANCH   4   7
ENDBRANCH   1   3
BRANCH   1 121
ATOM    121  C   LV8 d   1      49.050 -23.276  17.732  0.00  0.00     0.241 C 
ATOM    122  O   LV8 d   1      48.251 -22.314  17.731  0.00  0.00    -0.271 OA
ATOM    123  N   LV8 d   1      49.630 -23.709  16.631  0.00  0.00    -0.346 N 
ATOM    124  H75 LV8 d   1      50.147 -24.564  16.660  0.00  0.00     0.163 HD
BRANCH 123 125
ATOM    125  CA  LV8 d   1      49.541 -22.979  15.369  0.00  0.00     0.092 C 
ATOM    126  H76 LV8 d   1      49.779 -21.921  15.556  0.00  0.00     0.088 H 
BRANCH 125 127
ATOM    127  C   LV8 d   1      48.119 -23.072  14.843  0.00  0.00     0.241 C 
ATOM    128  O   LV8 d   1      47.563 -22.101  14.365  0.00  0.00    -0.271 OA
ATOM    129  N   LV8 d   1      47.561 -24.263  14.950  0.00  0.00    -0.351 N 
ATOM    130  H86 LV8 d   1      48.073 -25.015  15.365  0.00  0.00     0.163 HD
BRANCH 129 131
ATOM    131  CA  LV8 d   1      46.234 -24.486  14.478  0.00  0.00     0.069 C 
ATOM    132  H87 LV8 d   1      45.972 -25.546  14.608  0.00  0.00     0.078 H 
ATOM    133  H88 LV8 d   1      46.175 -24.222  13.412  0.00  0.00     0.078 H 
BRANCH 131 134
ATOM    134  C   LV8 d   1      45.272 -23.630  15.262  0.00  0.00     0.236 C 
ATOM    135  O   LV8 d   1      44.290 -23.174  14.737  0.00  0.00    -0.272 OA
ATOM    136  N   LV8 d   1      45.549 -23.454  16.547  0.00  0.00    -0.346 N 
ATOM    137  H89 LV8 d   1      46.391 -23.842  16.922  0.00  0.00     0.163 HD
BRANCH 136 138
ATOM    138  CA  LV8 d   1      44.646 -22.701  17.436  0.00  0.00     0.098 C 
ATOM    139  H90 LV8 d   1      43.612 -22.977  17.181  0.00  0.00     0.088 H 
BRANCH 138 140
ATOM    140  C   LV8 d   1      44.780 -21.189  17.225  0.00  0.00     0.241 C 
ATOM    141  O   LV8 d   1      43.767 -20.458  17.169  0.00  0.00    -0.271 OA
ATOM    142  N   LV8 d   1      46.042 -20.778  17.047  0.00  0.00    -0.346 N 
ATOM    143  H93 LV8 d   1      46.764 -21.461  17.157  0.00  0.00     0.163 HD
BRANCH 142 144
ATOM    144  CA  LV8 d   1      46.464 -19.398  16.701  0.00  0.00     0.086 C 
ATOM    145  H94 LV8 d   1      46.138 -18.724  17.506  0.00  0.00     0.086 H 
BRANCH 144 146
ATOM    146  C   LV8 d   1      45.806 -18.943  15.393  0.00  0.00     0.240 C 
ATOM    147  O   LV8 d   1      45.277 -17.831  15.348  0.00  0.00    -0.271 OA
ATOM    148  N   LV8 d   1      45.888 -19.775  14.343  0.00  0.00    -0.346 N 
ATOM    149  H98 LV8 d   1      46.327 -20.668  14.438  0.00  0.00     0.163 HD
BRANCH 148 150
ATOM    150  CA  LV8 d   1      45.340 -19.369  13.088  0.00  0.00     0.093 C 
ATOM    151  H99 LV8 d   1      45.712 -18.358  12.865  0.00  0.00     0.088 H 
BRANCH 150 152
ATOM    152  C   LV8 d   1      43.811 -19.300  13.195  0.00  0.00     0.241 C 
ATOM    153  O   LV8 d   1      43.180 -18.621  12.368  0.00  0.00    -0.271 OA
ATOM    154  N   LV8 d   1      43.214 -20.018  14.164  0.00  0.00    -0.346 N 
ATOM    155 7H10 LV8 d   1      43.774 -20.576  14.776  0.00  0.00     0.163 HD
BRANCH 154 156
ATOM    156  CA  LV8 d   1      41.753 -19.998  14.342  0.00  0.00     0.097 C 
ATOM    157 8H10 LV8 d   1      41.272 -20.090  13.357  0.00  0.00     0.088 H 
BRANCH 156 158
ATOM    158  C   LV8 d   1      41.396 -18.644  14.943  0.00  0.00     0.241 C 
ATOM    159  O   LV8 d   1      40.370 -18.065  14.600  0.00  0.00    -0.271 OA
ATOM    160  N   LV8 d   1      42.263 -18.185  15.847  0.00  0.00    -0.346 N 
ATOM    161 3H11 LV8 d   1      43.063 -18.742  16.069  0.00  0.00     0.163 HD
BRANCH 160 162
ATOM    162  CA  LV8 d   1      42.095 -16.912  16.522  0.00  0.00     0.086 C 
ATOM    163 4H11 LV8 d   1      41.100 -16.884  16.990  0.00  0.00     0.086 H 
BRANCH 162 164
ATOM    164  C   LV8 d   1      42.200 -15.785  15.504  0.00  0.00     0.240 C 
ATOM    165  O   LV8 d   1      41.279 -14.997  15.352  0.00  0.00    -0.271 OA
ATOM    166  N   LV8 d   1      43.352 -15.743  14.852  0.00  0.00    -0.346 N 
ATOM    167 8H11 LV8 d   1      44.047 -16.427  15.072  0.00  0.00     0.163 HD
BRANCH 166 168
ATOM    168  CA  LV8 d   1      43.660 -14.749  13.828  0.00  0.00     0.086 C 
ATOM    169 9H11 LV8 d   1      43.784 -13.772  14.318  0.00  0.00     0.086 H 
BRANCH 168 170
ATOM    170  C   LV8 d   1      42.520 -14.631  12.808  0.00  0.00     0.240 C 
ATOM    171  O   LV8 d   1      42.010 -13.548  12.604  0.00  0.00    -0.271 OA
ATOM    172  N   LV8 d   1      42.112 -15.716  12.157  0.00  0.00    -0.344 N 
ATOM    173 3H12 LV8 d   1      42.517 -16.611  12.344  0.00  0.00     0.163 HD
BRANCH 172 174
ATOM    174  CA  LV8 d   1      41.037 -15.560  11.145  0.00  0.00     0.100 C 
ATOM    175 4H12 LV8 d   1      41.144 -14.560  10.699  0.00  0.00     0.090 H 
BRANCH 174 176
ATOM    176  C   LV8 d   1      39.683 -15.595  11.854  0.00  0.00     0.197 C 
ATOM    177  O   LV8 d   1      39.602 -15.609  13.078  0.00  0.00    -0.646 OA
ATOM    178  OXT LV8 d   1      38.676 -15.573  11.161  0.00  0.00    -0.646 OA
ENDBRANCH 174 176
BRANCH 174 179
ATOM    179  CB  LV8 d   1      41.172 -16.565   9.996  0.00  0.00    -0.013 C 
ATOM    180 5H12 LV8 d   1      40.288 -16.480   9.346  0.00  0.00     0.043 H 
ATOM    181 6H12 LV8 d   1      41.221 -17.580  10.418  0.00  0.00     0.043 H 
BRANCH 179 182
ATOM    182  CG  LV8 d   1      42.407 -16.324   9.168  0.00  0.00    -0.056 A 
ATOM    183  CD1 LV8 d   1      42.330 -15.841   7.881  0.00  0.00    -0.074 A 
ATOM    184  CE1 LV8 d   1      43.474 -15.580   7.141  0.00  0.00    -0.051 A 
ATOM    185 7H12 LV8 d   1      41.357 -15.661   7.438  0.00  0.00     0.084 H 
ATOM    186  CZ  LV8 d   1      44.729 -15.787   7.692  0.00  0.00     0.065 A 
ATOM    187 9H12 LV8 d   1      43.386 -15.212   6.125  0.00  0.00     0.087 H 
ATOM    188  CE2 LV8 d   1      44.816 -16.237   8.993  0.00  0.00    -0.051 A 
ATOM    189  CD2 LV8 d   1      43.666 -16.487   9.718  0.00  0.00    -0.074 A 
ATOM    190 0H13 LV8 d   1      45.787 -16.395   9.447  0.00  0.00     0.087 H 
ATOM    191 8H12 LV8 d   1      43.753 -16.820  10.746  0.00  0.00     0.084 H 
BRANCH 186 192
ATOM    192  OH  LV8 d   1      45.880 -15.547   6.984  0.00  0.00    -0.361 OA
ATOM    193 1H13 LV8 d   1      45.657 -15.245   6.112  0.00  0.00     0.217 HD
ENDBRANCH 186 192
ENDBRANCH 179 182
ENDBRANCH 174 179
ENDBRANCH 172 174
ENDBRANCH 168 170
BRANCH 168 194
ATOM    194  CB  LV8 d   1      44.952 -15.110  13.150  0.00  0.00    -0.049 C 
ATOM    195 0H12 LV8 d   1      45.183 -14.361  12.379  0.00  0.00     0.030 H 
ATOM    196 1H12 LV8 d   1      44.856 -16.101  12.681  0.00  0.00     0.030 H 
ATOM    197 2H12 LV8 d   1      45.762 -15.133  13.893  0.00  0.00     0.030 H 
ENDBRANCH 168 194
ENDBRANCH 166 168
ENDBRANCH 162 164
BRANCH 162 198
ATOM    198  CB  LV8 d   1      43.144 -16.736  17.593  0.00  0.00    -0.049 C 
ATOM    199 5H11 LV8 d   1      42.999 -15.766  18.092  0.00  0.00     0.030 H 
ATOM    200 6H11 LV8 d   1      44.144 -16.767  17.136  0.00  0.00     0.030 H 
ATOM    201 7H11 LV8 d   1      43.053 -17.546  18.332  0.00  0.00     0.030 H 
ENDBRANCH 162 198
ENDBRANCH 160 162
ENDBRANCH 156 158
BRANCH 156 202
ATOM    202  CB  LV8 d   1      41.264 -21.159  15.217  0.00  0.00     0.036 C 
ATOM    203 9H10 LV8 d   1      41.699 -21.034  16.220  0.00  0.00     0.051 H 
ATOM    204 0H11 LV8 d   1      41.630 -22.096  14.773  0.00  0.00     0.051 H 
BRANCH 202 205
ATOM    205  CG  LV8 d   1      39.758 -21.272  15.371  0.00  0.00     0.217 C 
ATOM    206  OD1 LV8 d   1      39.083 -21.992  14.636  0.00  0.00    -0.274 OA
ATOM    207  ND2 LV8 d   1      39.222 -20.639  16.395  0.00  0.00    -0.370 N 
ATOM    208 1H11 LV8 d   1      38.234 -20.678  16.546  0.00  0.00     0.159 HD
ATOM    209 2H11 LV8 d   1      39.803 -20.119  17.021  0.00  0.00     0.159 HD
ENDBRANCH 202 205
ENDBRANCH 156 202
ENDBRANCH 154 156
ENDBRANCH 150 152
BRANCH 150 210
ATOM    210  CB  LV8 d   1      45.786 -20.292  11.942  0.00  0.00    -0.014 C 
ATOM    211 0H10 LV8 d   1      44.956 -20.358  11.223  0.00  0.00     0.043 H 
ATOM    212 1H10 LV8 d   1      45.981 -21.287  12.369  0.00  0.00     0.043 H 
BRANCH 210 213
ATOM    213  CG  LV8 d   1      47.024 -19.866  11.181  0.00  0.00    -0.056 A 
ATOM    214  CD1 LV8 d   1      46.926 -19.322   9.915  0.00  0.00    -0.077 A 
ATOM    215  CE1 LV8 d   1      48.056 -18.888   9.242  0.00  0.00    -0.082 A 
ATOM    216 2H10 LV8 d   1      45.954 -19.234   9.443  0.00  0.00     0.084 H 
ATOM    217  CZ  LV8 d   1      49.305 -19.031   9.801  0.00  0.00    -0.083 A 
ATOM    218 4H10 LV8 d   1      47.955 -18.431   8.264  0.00  0.00     0.083 H 
ATOM    219  CE2 LV8 d   1      49.429 -19.610  11.029  0.00  0.00    -0.082 A 
ATOM    220 6H10 LV8 d   1      50.184 -18.686   9.269  0.00  0.00     0.083 H 
ATOM    221  CD2 LV8 d   1      48.293 -20.006  11.728  0.00  0.00    -0.077 A 
ATOM    222 5H10 LV8 d   1      50.412 -19.762  11.460  0.00  0.00     0.083 H 
ATOM    223 3H10 LV8 d   1      48.401 -20.432  12.719  0.00  0.00     0.084 H 
ENDBRANCH 210 213
ENDBRANCH 150 210
ENDBRANCH 148 150
ENDBRANCH 144 146
BRANCH 144 224
ATOM    224  CB  LV8 d   1      47.979 -19.316  16.590  0.00  0.00    -0.049 C 
ATOM    225  H95 LV8 d   1      48.273 -18.288  16.333  0.00  0.00     0.030 H 
ATOM    226  H96 LV8 d   1      48.327 -20.003  15.805  0.00  0.00     0.030 H 
ATOM    227  H97 LV8 d   1      48.433 -19.598  17.552  0.00  0.00     0.030 H 
ENDBRANCH 144 224
ENDBRANCH 142 144
ENDBRANCH 138 140
BRANCH 138 228
ATOM    228  CB  LV8 d   1      44.893 -23.114  18.892  0.00  0.00     0.043 C 
ATOM    229  H91 LV8 d   1      44.585 -22.286  19.547  0.00  0.00     0.052 H 
ATOM    230  H92 LV8 d   1      45.968 -23.305  19.023  0.00  0.00     0.052 H 
BRANCH 228 231
ATOM    231  CG  LV8 d   1      44.096 -24.415  19.318  0.00  0.00     0.175 C 
ATOM    232  OD1 LV8 d   1      43.272 -24.972  18.509  0.00  0.00    -0.648 OA
ATOM    233  OD2 LV8 d   1      44.243 -24.814  20.534  0.00  0.00    -0.648 OA
ENDBRANCH 228 231
ENDBRANCH 138 228
ENDBRANCH 136 138
ENDBRANCH 131 134
ENDBRANCH 129 131
ENDBRANCH 125 127
BRANCH 125 234
ATOM    234  CB  LV8 d   1      50.548 -23.524  14.343  0.00  0.00    -0.030 C 
ATOM    235  H77 LV8 d   1      50.380 -24.606  14.243  0.00  0.00     0.043 H 
BRANCH 234 236
ATOM    236  CG1 LV8 d   1      51.992 -23.315  14.787  0.00  0.00    -0.063 C 
ATOM    237  H78 LV8 d   1      52.079 -23.624  15.839  0.00  0.00     0.033 H 
ATOM    238  H79 LV8 d   1      52.230 -22.245  14.698  0.00  0.00     0.033 H 
BRANCH 236 239
ATOM    239  CD1 LV8 d   1      52.986 -24.083  13.990  0.00  0.00    -0.076 C 
ATOM    240  H83 LV8 d   1      53.998 -23.879  14.371  0.00  0.00     0.027 H 
ATOM    241  H84 LV8 d   1      52.923 -23.779  12.935  0.00  0.00     0.027 H 
ATOM    242  H85 LV8 d   1      52.772 -25.159  14.075  0.00  0.00     0.027 H 
ENDBRANCH 236 239
ENDBRANCH 234 236
BRANCH 234 243
ATOM    243  CG2 LV8 d   1      50.308 -22.884  13.005  0.00  0.00    -0.071 C 
ATOM    244  H80 LV8 d   1      49.263 -23.046  12.703  0.00  0.00     0.028 H 
ATOM    245  H81 LV8 d   1      50.979 -23.333  12.258  0.00  0.00     0.028 H 
ATOM    246  H82 LV8 d   1      50.507 -21.804  13.074  0.00  0.00     0.028 H 
ENDBRANCH 234 243
ENDBRANCH 125 234
ENDBRANCH 123 125
ENDBRANCH   1 121
BRANCH   1 247
ATOM    247  CB  LV8 d   1      50.926 -24.064  19.320  0.00  0.00    -0.036 C 
ATOM    248  H64 LV8 d   1      51.462 -24.587  18.515  0.00  0.00     0.036 H 
ATOM    249  H65 LV8 d   1      51.068 -24.605  20.267  0.00  0.00     0.036 H 
BRANCH 247 250
ATOM    250  CG  LV8 d   1      51.554 -22.690  19.475  0.00  0.00    -0.048 C 
ATOM    251  H66 LV8 d   1      50.940 -22.090  20.163  0.00  0.00     0.035 H 
ATOM    252  H67 LV8 d   1      51.589 -22.199  18.491  0.00  0.00     0.035 H 
BRANCH 250 253
ATOM    253  CD  LV8 d   1      52.973 -22.790  20.033  0.00  0.00     0.009 C 
ATOM    254  H68 LV8 d   1      52.945 -23.436  20.923  0.00  0.00     0.064 H 
ATOM    255  H69 LV8 d   1      53.298 -21.780  20.323  0.00  0.00     0.064 H 
BRANCH 253 256
ATOM    256  NE  LV8 d   1      53.965 -23.338  19.104  0.00  0.00    -0.227 N 
ATOM    257  CZ  LV8 d   1      54.481 -22.689  18.035  0.00  0.00     0.665 C 
ATOM    258  NH1 LV8 d   1      54.163 -21.420  17.800  0.00  0.00    -0.235 N 
ATOM    259  NH2 LV8 d   1      55.326 -23.312  17.218  0.00  0.00    -0.235 N 
ATOM    260  H71 LV8 d   1      54.560 -20.932  16.984  0.00  0.00     0.174 HD
ATOM    261  H72 LV8 d   1      53.520 -20.924  18.434  0.00  0.00     0.174 HD
ATOM    262  H73 LV8 d   1      55.579 -24.295  17.391  0.00  0.00     0.174 HD
ATOM    263  H74 LV8 d   1      55.727 -22.811  16.412  0.00  0.00     0.174 HD
ATOM    264  H70 LV8 d   1      54.297 -24.297  19.279  0.00  0.00     0.177 HD
ENDBRANCH 253 256
ENDBRANCH 250 253
ENDBRANCH 247 250
ENDBRANCH   1 247
TORSDOF 65
