REMARK  4 active torsions:
REMARK  status: ('A' for Active; 'I' for Inactive)
REMARK    1  A    between atoms: C10_1  and  N15_25 
REMARK    2  A    between atoms: C21_3  and  C22_4 
REMARK    3  A    between atoms: C22_4  and  C23_28 
REMARK    4  A    between atoms: C16_13  and  C18_10 
REMARK       I    between atoms: N15_25  and  C16_13 
ROOT
ATOM      1  C16 K8K d   1       5.496 -11.955   2.341  0.00  0.00     0.289 C 
ATOM      2  N15 K8K d   1       6.729 -11.487   2.588  0.00  0.00    -0.341 N 
ATOM      3  O17 K8K d   1       4.817 -11.669   1.351  0.00  0.00    -0.264 OA
ATOM      4  H17 K8K d   1       7.180 -11.782   3.431  0.00  0.00     0.163 HD
ENDROOT
BRANCH   2   5
ATOM      5  C10 K8K d   1       7.453 -10.581   1.714  0.00  0.00     0.090 C 
ATOM      6  C11 K8K d   1       7.119  -9.114   2.021  0.00  0.00    -0.034 C 
ATOM      7  C12 K8K d   1       7.843  -8.119   1.110  0.00  0.00    -0.036 C 
ATOM      8  H8  K8K d   1       7.403  -8.903   3.062  0.00  0.00     0.037 H 
ATOM      9  H9  K8K d   1       6.035  -8.971   1.901  0.00  0.00     0.037 H 
ATOM     10  C13 K8K d   1       8.361  -8.658  -0.211  0.00  0.00    -0.025 C 
ATOM     11  H13 K8K d   1       7.142  -7.302   0.885  0.00  0.00     0.040 H 
ATOM     12  H14 K8K d   1       8.703  -7.721   1.668  0.00  0.00     0.040 H 
ATOM     13  C06 K8K d   1       9.395  -9.614  -0.251  0.00  0.00     0.080 C 
ATOM     14  C14 K8K d   1       7.924  -8.077  -1.404  0.00  0.00    -0.037 C 
ATOM     15  N07 K8K d   1       9.738 -10.382   0.887  0.00  0.00    -0.322 N 
ATOM     16  C04 K8K d   1       9.765 -10.149  -1.478  0.00  0.00     0.146 C 
ATOM     17  C08 K8K d   1       8.938 -10.892   1.851  0.00  0.00     0.245 C 
ATOM     18  H11 K8K d   1      10.713 -10.576   0.994  0.00  0.00     0.169 HD
ATOM     19  O09 K8K d   1       9.362 -11.581   2.777  0.00  0.00    -0.271 OA
ATOM     20  F05 K8K d   1      10.655 -11.168  -1.531  0.00  0.00    -0.204 F 
ATOM     21  C03 K8K d   1       9.335  -9.604  -2.667  0.00  0.00    -0.006 C 
ATOM     22  C02 K8K d   1       8.428  -8.572  -2.583  0.00  0.00     0.119 C 
ATOM     23  H15 K8K d   1       9.693  -9.970  -3.623  0.00  0.00     0.093 H 
ATOM     24  F01 K8K d   1       7.976  -8.028  -3.731  0.00  0.00    -0.206 F 
ATOM     25  H16 K8K d   1       7.210  -7.261  -1.400  0.00  0.00     0.089 H 
ATOM     26  H1  K8K d   1       7.152 -10.780   0.675  0.00  0.00     0.087 H 
ENDBRANCH   2   5
BRANCH   1  27
ATOM     27  C18 K8K d   1       4.979 -12.889   3.395  0.00  0.00     0.214 A 
ATOM     28  N19 K8K d   1       5.696 -13.473   4.348  0.00  0.00    -0.255 N 
ATOM     29  N20 K8K d   1       4.811 -14.256   5.095  0.00  0.00    -0.157 NA
ATOM     30  H7  K8K d   1       6.708 -13.369   4.506  0.00  0.00     0.191 HD
ATOM     31  C21 K8K d   1       3.597 -14.130   4.566  0.00  0.00     0.152 A 
ATOM     32  N29 K8K d   1       3.695 -13.290   3.523  0.00  0.00    -0.207 NA
BRANCH  31  33
ATOM     33  C22 K8K d   1       2.350 -14.772   5.044  0.00  0.00     0.017 C 
ATOM     34  H2  K8K d   1       2.549 -15.229   6.024  0.00  0.00     0.051 H 
ATOM     35  H3  K8K d   1       2.065 -15.555   4.325  0.00  0.00     0.051 H 
BRANCH  33  36
ATOM     36  C23 K8K d   1       1.189 -13.815   5.191  0.00  0.00    -0.051 A 
ATOM     37  C24 K8K d   1       0.993 -13.106   6.372  0.00  0.00    -0.076 A 
ATOM     38  C25 K8K d   1      -0.074 -12.230   6.507  0.00  0.00    -0.082 A 
ATOM     39  H4  K8K d   1       1.683 -13.240   7.197  0.00  0.00     0.084 H 
ATOM     40  C26 K8K d   1      -0.965 -12.058   5.467  0.00  0.00    -0.083 A 
ATOM     41  H10 K8K d   1      -0.208 -11.679   7.431  0.00  0.00     0.083 H 
ATOM     42  C27 K8K d   1      -0.778 -12.748   4.283  0.00  0.00    -0.082 A 
ATOM     43  H5  K8K d   1      -1.808 -11.385   5.578  0.00  0.00     0.083 H 
ATOM     44  C28 K8K d   1       0.296 -13.615   4.144  0.00  0.00    -0.076 A 
ATOM     45  H12 K8K d   1      -1.472 -12.611   3.462  0.00  0.00     0.083 H 
ATOM     46  H6  K8K d   1       0.441 -14.143   3.208  0.00  0.00     0.084 H 
ENDBRANCH  33  36
ENDBRANCH  31  33
ENDBRANCH   1  27
TORSDOF 4
