REMARK  6 active torsions:
REMARK  status: ('A' for Active; 'I' for Inactive)
REMARK    1  A    between atoms: C19_3  and  C20_4 
REMARK    2  A    between atoms: C02_9  and  C19_3 
REMARK    3  A    between atoms: B05_8  and  O06_21 
REMARK    4  A    between atoms: B05_8  and  O07_22 
REMARK       I    between atoms: N03_19  and  C02_9 
REMARK    5  A    between atoms: C04_10  and  N03_19 
REMARK    6  A    between atoms: C10_12  and  C11_13 
ROOT
ATOM      1  C15 K9B d   1      30.359   1.340  18.523  0.00  0.00    -0.081 A 
ATOM      2  C16 K9B d   1      29.955   0.998  17.196  0.00  0.00    -0.074 A 
ATOM      3  B05 K9B d   1      26.759   3.426  15.506  0.00  0.00     0.356 B 
ATOM      4  C04 K9B d   1      27.707   2.462  14.497  0.00  0.00     0.015 C 
ATOM      5  C09 K9B d   1      27.906   2.273  17.429  0.00  0.00     0.073 A 
ATOM      6  C10 K9B d   1      28.273   2.634  18.759  0.00  0.00     0.072 A 
ATOM      7  C14 K9B d   1      29.483   2.181  19.303  0.00  0.00    -0.064 A 
ATOM      8  C17 K9B d   1      28.704   1.468  16.655  0.00  0.00    -0.024 A 
ATOM      9  C18 K9B d   1      28.165   1.180  15.256  0.00  0.00    -0.025 C 
ATOM     10  O08 K9B d   1      26.706   2.719  16.867  0.00  0.00    -0.421 OA
ATOM     11  H1  K9B d   1      31.296   0.979  18.932  0.00  0.00     0.083 H 
ATOM     12  H2  K9B d   1      30.599   0.375  16.586  0.00  0.00     0.084 H 
ATOM     13  H13 K9B d   1      27.088   2.198  13.627  0.00  0.00     0.059 H 
ATOM     14  H14 K9B d   1      29.761   2.463  20.312  0.00  0.00     0.085 H 
ATOM     15  H15 K9B d   1      28.957   0.692  14.670  0.00  0.00     0.042 H 
ATOM     16  H16 K9B d   1      27.304   0.501  15.346  0.00  0.00     0.042 H 
ENDROOT
BRANCH   4  17
ATOM     17  N03 K9B d   1      28.927   3.092  14.078  0.00  0.00    -0.363 N 
ATOM     18  C02 K9B d   1      29.496   2.925  12.794  0.00  0.00     0.217 C 
ATOM     19  O01 K9B d   1      28.930   2.276  11.913  0.00  0.00    -0.274 OA
ATOM     20  H21 K9B d   1      29.401   3.682  14.731  0.00  0.00     0.161 HD
BRANCH  18  21
ATOM     21  C19 K9B d   1      30.764   3.563  12.444  0.00  0.00     0.013 C 
ATOM     22  H3  K9B d   1      31.125   4.124  13.319  0.00  0.00     0.047 H 
ATOM     23  H4  K9B d   1      31.490   2.778  12.187  0.00  0.00     0.047 H 
BRANCH  21  24
ATOM     24  C20 K9B d   1      30.653   4.537  11.250  0.00  0.00    -0.046 C 
ATOM     25  C21 K9B d   1      29.759   5.705  11.687  0.00  0.00    -0.061 C 
ATOM     26  C22 K9B d   1      29.687   6.736  10.625  0.00  0.00    -0.065 C 
ATOM     27  H6  K9B d   1      30.175   6.156  12.600  0.00  0.00     0.033 H 
ATOM     28  H7  K9B d   1      28.747   5.327  11.893  0.00  0.00     0.033 H 
ATOM     29  C23 K9B d   1      31.020   7.456  10.534  0.00  0.00    -0.065 C 
ATOM     30  H8  K9B d   1      28.895   7.459  10.868  0.00  0.00     0.033 H 
ATOM     31  H9  K9B d   1      29.462   6.256   9.661  0.00  0.00     0.033 H 
ATOM     32  C28 K9B d   1      32.063   6.410   9.980  0.00  0.00    -0.065 C 
ATOM     33  H10 K9B d   1      31.329   7.809  11.529  0.00  0.00     0.033 H 
ATOM     34  H11 K9B d   1      30.942   8.313   9.849  0.00  0.00     0.033 H 
ATOM     35  C29 K9B d   1      32.076   5.050  10.756  0.00  0.00    -0.061 C 
ATOM     36  H17 K9B d   1      33.067   6.855  10.045  0.00  0.00     0.033 H 
ATOM     37  H18 K9B d   1      31.821   6.205   8.927  0.00  0.00     0.033 H 
ATOM     38  H19 K9B d   1      32.502   4.284  10.092  0.00  0.00     0.033 H 
ATOM     39  H20 K9B d   1      32.720   5.169  11.640  0.00  0.00     0.033 H 
ATOM     40  H5  K9B d   1      30.171   4.014  10.411  0.00  0.00     0.040 H 
ENDBRANCH  21  24
ENDBRANCH  18  21
ENDBRANCH   4  17
BRANCH   3  41
ATOM     41  O06 K9B d   1      25.419   3.646  15.065  0.00  0.00     0.000 OA
ATOM     42  H22 K9B d   1      24.991   2.809  14.926  0.00  0.00     0.000 HD
ATOM     43  H23 K9B d   1      24.991   2.809  14.926  0.00  0.00     0.000 HD
ENDBRANCH   3  41
BRANCH   3  44
ATOM     44  O07 K9B d   1      27.410   4.688  15.717  0.00  0.00     0.000 OA
ATOM     45  H24 K9B d   1      26.937   5.181  16.377  0.00  0.00     0.000 HD
ATOM     46  H25 K9B d   1      26.937   5.181  16.377  0.00  0.00     0.000 HD
ENDBRANCH   3  44
BRANCH   6  47
ATOM     47  C11 K9B d   1      27.358   3.533  19.561  0.00  0.00     0.212 C 
ATOM     48  O12 K9B d   1      27.820   4.378  20.435  0.00  0.00    -0.644 OA
ATOM     49  O13 K9B d   1      26.068   3.562  19.403  0.00  0.00    -0.644 OA
ENDBRANCH   6  47
TORSDOF 6
