REMARK WARNING: 32 MAX_TORS EXCEEDED!!!
REMARK  38 active torsions:
REMARK  status: ('A' for Active; 'I' for Inactive)
REMARK    1  A    between atoms: N_1  and  CA_2 
REMARK    2  A    between atoms: CA_2  and  C_3 
REMARK    3  A    between atoms: CA_2  and  CB_5 
REMARK       I    between atoms: C_3  and  N_10 
REMARK    4  A    between atoms: CB_5  and  CG_6 
REMARK    5  A    between atoms: CG_6  and  CD_7 
REMARK    6  A    between atoms: N_10  and  CA_11 
REMARK    7  A    between atoms: CA_11  and  C_12 
REMARK    8  A    between atoms: CA_11  and  CB_14 
REMARK       I    between atoms: C_12  and  N_19 
REMARK    9  A    between atoms: CB_14  and  CG_15 
REMARK   10  A    between atoms: CG_15  and  CD_16 
REMARK   11  A    between atoms: N_19  and  CA_20 
REMARK   12  A    between atoms: CA_20  and  C_21 
REMARK   13  A    between atoms: CA_20  and  CB_23 
REMARK       I    between atoms: C_21  and  N_27 
REMARK   14  A    between atoms: CB_23  and  CG1_24 
REMARK   15  A    between atoms: CB_23  and  CG2_25 
REMARK   16  A    between atoms: CG1_24  and  CD1_26 
REMARK   17  A    between atoms: CA_28  and  C_29 
REMARK       I    between atoms: C_29  and  N_34 
REMARK   18  A    between atoms: N_34  and  CA_35 
REMARK   19  A    between atoms: CA_35  and  C_36 
REMARK   20  A    between atoms: CA_35  and  CB_38 
REMARK       I    between atoms: C_36  and  N_43 
REMARK   21  A    between atoms: CB_38  and  CG_39 
REMARK   22  A    between atoms: CG_39  and  CD_40 
REMARK   23  A    between atoms: N_43  and  CA_44 
REMARK   24  A    between atoms: CA_44  and  CB_45 
REMARK   25  A    between atoms: CA_44  and  C_52 
REMARK   26  A    between atoms: CB_45  and  CG2_46 
REMARK   27  A    between atoms: CB_45  and  OG1_47 
REMARK   28  A    between atoms: OG1_47  and  P_48 
REMARK       I    between atoms: C_52  and  N_54 
REMARK   29  A    between atoms: CA_55  and  C_56 
REMARK       I    between atoms: C_56  and  N_61 
REMARK   30  A    between atoms: N_61  and  CA_62 
REMARK   31  A    between atoms: CA_62  and  C_63 
REMARK   32  A    between atoms: CA_62  and  CB_65 
REMARK       I    between atoms: C_63  and  N_67 
REMARK   33  A    between atoms: CB_65  and  SG_66 
REMARK   34  A    between atoms: N_67  and  CA_68 
REMARK   35  A    between atoms: CA_68  and  C_69 
REMARK   36  A    between atoms: CA_68  and  CB_71 
REMARK   37  A    between atoms: CB_71  and  CG_72 
REMARK   38  A    between atoms: CG_72  and  CD_73 
ROOT
ATOM      1  CA  GLU d   1       9.348 -32.808  29.573  0.00  0.00     0.090 C 
ATOM      2  H34 GLU d   1       8.820 -33.052  28.639  0.00  0.00     0.087 H 
ENDROOT
BRANCH   1   3
ATOM      3  N   GLU d   1       8.761 -31.596  30.127  0.00  0.00    -0.346 N 
ATOM      4  C   GLU d   1       7.451 -31.471  30.298  0.00  0.00     0.241 C 
ATOM      5  O   GLU d   1       6.645 -32.369  30.035  0.00  0.00    -0.271 OA
ATOM      6  H33 GLU d   1       9.361 -30.838  30.385  0.00  0.00     0.163 HD
BRANCH   4   7
ATOM      7  CA  GLU d   1       7.014 -30.118  30.839  0.00  0.00     0.091 C 
ATOM      8  N   GLU d   1       5.578 -29.902  30.663  0.00  0.00    -0.337 N 
ATOM      9  C   GLU d   1       5.094 -29.571  29.470  0.00  0.00     0.243 C 
ATOM     10  CD  GLU d   1       4.808 -30.261  31.866  0.00  0.00    -0.001 C 
ATOM     11  O   GLU d   1       5.837 -29.469  28.485  0.00  0.00    -0.271 OA
ATOM     12  CG  GLU d   1       5.838 -30.250  32.956  0.00  0.00    -0.048 C 
ATOM     13  H31 GLU d   1       4.357 -31.259  31.761  0.00  0.00     0.064 H 
ATOM     14  H32 GLU d   1       4.019 -29.521  32.063  0.00  0.00     0.064 H 
ATOM     15  CB  GLU d   1       7.207 -30.036  32.357  0.00  0.00    -0.036 C 
ATOM     16  H29 GLU d   1       5.616 -29.436  33.661  0.00  0.00     0.035 H 
ATOM     17  H30 GLU d   1       5.818 -31.212  33.489  0.00  0.00     0.035 H 
ATOM     18  H27 GLU d   1       7.599 -29.048  32.641  0.00  0.00     0.036 H 
ATOM     19  H28 GLU d   1       7.901 -30.818  32.698  0.00  0.00     0.036 H 
ATOM     20  H26 GLU d   1       7.588 -29.328  30.333  0.00  0.00     0.087 H 
BRANCH   9  21
ATOM     21  CA  GLU d   1       3.597 -29.320  29.327  0.00  0.00     0.092 C 
ATOM     22  H16 GLU d   1       3.153 -29.286  30.333  0.00  0.00     0.088 H 
BRANCH  21  23
ATOM     23  N   GLU d   1       3.388 -28.026  28.685  0.00  0.00    -0.346 N 
ATOM     24  C   GLU d   1       2.606 -27.099  29.227  0.00  0.00     0.241 C 
ATOM     25  O   GLU d   1       2.018 -27.254  30.302  0.00  0.00    -0.271 OA
ATOM     26  H15 GLU d   1       3.844 -27.833  27.817  0.00  0.00     0.163 HD
BRANCH  24  27
ATOM     27  CA  GLU d   1       2.447 -25.806  28.445  0.00  0.00     0.090 C 
ATOM     28  H10 GLU d   1       2.804 -25.962  27.416  0.00  0.00     0.087 H 
BRANCH  27  29
ATOM     29  N   GLU d   1       1.033 -25.464  28.406  0.00  0.00    -0.346 N 
ATOM     30  C   GLU d   1       0.449 -24.935  27.335  0.00  0.00     0.249 C 
ATOM     31  O   GLU d   1       1.066 -24.620  26.316  0.00  0.00    -0.271 OA
ATOM     32  H9  GLU d   1       0.477 -25.634  29.220  0.00  0.00     0.163 HD
BRANCH  30  33
ATOM     33  CA  GLU d   1      -1.056 -24.737  27.436  0.00  0.00     0.176 C 
ATOM     34  H4  GLU d   1      -1.282 -24.315  28.426  0.00  0.00     0.099 H 
BRANCH  33  35
ATOM     35  N   GLU d   1      -1.550 -23.808  26.426  0.00  0.00    -0.066 N 
ATOM     36  H1  GLU d   1      -2.548 -23.703  26.525  0.00  0.00     0.275 HD
ATOM     37  H2  GLU d   1      -1.339 -24.167  25.508  0.00  0.00     0.275 HD
ATOM     38  H3  GLU d   1      -1.105 -22.912  26.547  0.00  0.00     0.275 HD
ENDBRANCH  33  35
BRANCH  33  39
ATOM     39  CB  GLU d   1      -1.759 -26.090  27.313  0.00  0.00    -0.021 C 
ATOM     40  H5  GLU d   1      -1.204 -26.823  27.918  0.00  0.00     0.037 H 
ATOM     41  H6  GLU d   1      -1.737 -26.395  26.256  0.00  0.00     0.037 H 
BRANCH  39  42
ATOM     42  CG  GLU d   1      -3.201 -26.088  27.776  0.00  0.00     0.018 C 
ATOM     43  H7  GLU d   1      -3.791 -25.461  27.091  0.00  0.00     0.049 H 
ATOM     44  H8  GLU d   1      -3.246 -25.666  28.791  0.00  0.00     0.049 H 
BRANCH  42  45
ATOM     45  CD  GLU d   1      -3.800 -27.479  27.801  0.00  0.00     0.172 C 
ATOM     46  OE1 GLU d   1      -4.405 -27.891  26.787  0.00  0.00    -0.648 OA
ATOM     47  OE2 GLU d   1      -3.655 -28.166  28.834  0.00  0.00    -0.648 OA
ENDBRANCH  42  45
ENDBRANCH  39  42
ENDBRANCH  33  39
ENDBRANCH  30  33
ENDBRANCH  27  29
BRANCH  27  48
ATOM     48  CB  GLU d   1       3.277 -24.684  29.082  0.00  0.00    -0.029 C 
ATOM     49  H11 GLU d   1       2.836 -24.440  30.059  0.00  0.00     0.037 H 
ATOM     50  H12 GLU d   1       3.227 -23.802  28.426  0.00  0.00     0.037 H 
BRANCH  48  51
ATOM     51  CG  GLU d   1       4.739 -25.039  29.294  0.00  0.00     0.018 C 
ATOM     52  H13 GLU d   1       5.178 -25.320  28.325  0.00  0.00     0.049 H 
ATOM     53  H14 GLU d   1       4.798 -25.893  29.985  0.00  0.00     0.049 H 
BRANCH  51  54
ATOM     54  CD  GLU d   1       5.537 -23.889  29.874  0.00  0.00     0.172 C 
ATOM     55  OE1 GLU d   1       5.085 -22.730  29.750  0.00  0.00    -0.648 OA
ATOM     56  OE2 GLU d   1       6.616 -24.147  30.450  0.00  0.00    -0.648 OA
ENDBRANCH  51  54
ENDBRANCH  48  51
ENDBRANCH  27  48
ENDBRANCH  24  27
ENDBRANCH  21  23
BRANCH  21  57
ATOM     57  CB  GLU d   1       2.909 -30.446  28.541  0.00  0.00    -0.030 C 
ATOM     58  H17 GLU d   1       3.055 -30.257  27.467  0.00  0.00     0.043 H 
BRANCH  57  59
ATOM     59  CG1 GLU d   1       1.407 -30.437  28.828  0.00  0.00    -0.063 C 
ATOM     60  H18 GLU d   1       0.954 -29.596  28.282  0.00  0.00     0.033 H 
ATOM     61  H19 GLU d   1       1.260 -30.294  29.909  0.00  0.00     0.033 H 
BRANCH  59  62
ATOM     62  CD1 GLU d   1       0.707 -31.702  28.417  0.00  0.00    -0.076 C 
ATOM     63  H23 GLU d   1      -0.364 -31.622  28.653  0.00  0.00     0.027 H 
ATOM     64  H24 GLU d   1       1.140 -32.554  28.962  0.00  0.00     0.027 H 
ATOM     65  H25 GLU d   1       0.833 -31.856  27.335  0.00  0.00     0.027 H 
ENDBRANCH  59  62
ENDBRANCH  57  59
BRANCH  57  66
ATOM     66  CG2 GLU d   1       3.531 -31.799  28.871  0.00  0.00    -0.071 C 
ATOM     67  H20 GLU d   1       4.609 -31.770  28.653  0.00  0.00     0.028 H 
ATOM     68  H21 GLU d   1       3.055 -32.580  28.261  0.00  0.00     0.028 H 
ATOM     69  H22 GLU d   1       3.378 -32.023  29.937  0.00  0.00     0.028 H 
ENDBRANCH  57  66
ENDBRANCH  21  57
ENDBRANCH   9  21
ENDBRANCH   4   7
ENDBRANCH   1   3
BRANCH   1  70
ATOM     70  C   GLU d   1       9.195 -33.984  30.531  0.00  0.00     0.241 C 
ATOM     71  O   GLU d   1       9.196 -33.802  31.756  0.00  0.00    -0.271 OA
ATOM     72  N   GLU d   1       9.043 -35.181  29.968  0.00  0.00    -0.344 N 
ATOM     73  H39 GLU d   1       8.882 -35.236  28.983  0.00  0.00     0.163 HD
BRANCH  72  74
ATOM     74  CA  GLU d   1       9.104 -36.415  30.746  0.00  0.00     0.114 C 
ATOM     75  H40 GLU d   1       8.345 -36.376  31.541  0.00  0.00     0.091 H 
BRANCH  74  76
ATOM     76  CB  GLU d   1       8.826 -37.623  29.859  0.00  0.00     0.076 C 
ATOM     77  H41 GLU d   1       9.565 -37.647  29.044  0.00  0.00     0.087 H 
BRANCH  76  78
ATOM     78  CG2 GLU d   1       8.961 -38.897  30.698  0.00  0.00    -0.049 C 
ATOM     79  H42 GLU d   1       8.762 -39.775  30.066  0.00  0.00     0.031 H 
ATOM     80  H43 GLU d   1       8.237 -38.869  31.526  0.00  0.00     0.031 H 
ATOM     81  H44 GLU d   1       9.981 -38.962  31.105  0.00  0.00     0.031 H 
ENDBRANCH  76  78
BRANCH  76  82
ATOM     82  OG1 GLU d   1       7.515 -37.546  29.290  0.00  0.00    -0.275 OA
BRANCH  82  83
ATOM     83  P   GLU d   1       7.654 -37.377  27.690  0.00  0.00     0.422 P 
ATOM     84  O1P GLU d   1       8.335 -38.678  27.026  0.00  0.00    -0.617 OA
ATOM     85  O2P GLU d   1       8.556 -36.085  27.357  0.00  0.00    -0.617 OA
ATOM     86  O3P GLU d   1       6.296 -37.203  27.131  0.00  0.00    -0.617 OA
ENDBRANCH  82  83
ENDBRANCH  76  82
ENDBRANCH  74  76
BRANCH  74  87
ATOM     87  C   GLU d   1      10.486 -36.536  31.379  0.00  0.00     0.246 C 
ATOM     88  O   GLU d   1      11.487 -36.637  30.667  0.00  0.00    -0.271 OA
ATOM     89  N   GLU d   1      10.544 -36.538  32.721  0.00  0.00    -0.337 N 
ATOM     90  CA  GLU d   1      11.848 -36.523  33.390  0.00  0.00     0.091 C 
ATOM     91  CD  GLU d   1       9.445 -36.860  33.649  0.00  0.00    -0.001 C 
ATOM     92  CB  GLU d   1      11.492 -36.229  34.849  0.00  0.00    -0.036 C 
ATOM     93  H45 GLU d   1      12.481 -35.723  32.978  0.00  0.00     0.087 H 
ATOM     94  CG  GLU d   1      10.046 -36.629  35.006  0.00  0.00    -0.048 C 
ATOM     95  H46 GLU d   1      11.619 -35.158  35.066  0.00  0.00     0.036 H 
ATOM     96  H47 GLU d   1      12.128 -36.819  35.525  0.00  0.00     0.036 H 
ATOM     97  H48 GLU d   1       9.496 -35.826  35.520  0.00  0.00     0.035 H 
ATOM     98  H49 GLU d   1       9.983 -37.554  35.598  0.00  0.00     0.035 H 
ATOM     99  H50 GLU d   1       9.128 -37.907  33.533  0.00  0.00     0.064 H 
ATOM    100  H51 GLU d   1       8.584 -36.196  33.483  0.00  0.00     0.064 H 
BRANCH  90 101
ATOM    101  C   GLU d   1      12.583 -37.852  33.253  0.00  0.00     0.241 C 
ATOM    102  O   GLU d   1      11.947 -38.896  33.090  0.00  0.00    -0.271 OA
ATOM    103  N   GLU d   1      13.913 -37.800  33.311  0.00  0.00    -0.345 N 
ATOM    104  H52 GLU d   1      14.353 -36.918  33.477  0.00  0.00     0.163 HD
BRANCH 103 105
ATOM    105  CA  GLU d   1      14.751 -38.982  33.142  0.00  0.00     0.097 C 
ATOM    106  H53 GLU d   1      14.594 -39.376  32.127  0.00  0.00     0.088 H 
BRANCH 105 107
ATOM    107  C   GLU d   1      14.369 -40.074  34.138  0.00  0.00     0.242 C 
ATOM    108  O   GLU d   1      14.988 -40.208  35.201  0.00  0.00    -0.271 OA
ATOM    109  N   GLU d   1      13.347 -40.854  33.791  0.00  0.00    -0.345 N 
ATOM    110  H57 GLU d   1      12.946 -40.735  32.883  0.00  0.00     0.163 HD
BRANCH 109 111
ATOM    111  CA  GLU d   1      12.782 -41.875  34.670  0.00  0.00     0.097 C 
ATOM    112  H58 GLU d   1      12.496 -41.391  35.615  0.00  0.00     0.089 H 
BRANCH 111 113
ATOM    113  C   GLU d   1      13.786 -42.982  34.989  0.00  0.00     0.196 C 
ATOM    114  O   GLU d   1      13.465 -43.938  35.697  0.00  0.00    -0.646 OA
ATOM    115  OXT GLU d   1      14.934 -42.938  34.544  0.00  0.00    -0.646 OA
ENDBRANCH 111 113
BRANCH 111 116
ATOM    116  CB  GLU d   1      11.524 -42.478  34.031  0.00  0.00    -0.028 C 
ATOM    117  H59 GLU d   1      10.814 -41.662  33.829  0.00  0.00     0.037 H 
ATOM    118  H60 GLU d   1      11.078 -43.184  34.746  0.00  0.00     0.037 H 
BRANCH 116 119
ATOM    119  CG  GLU d   1      11.786 -43.223  32.720  0.00  0.00     0.018 C 
ATOM    120  H61 GLU d   1      11.510 -44.279  32.857  0.00  0.00     0.049 H 
ATOM    121  H62 GLU d   1      12.858 -43.152  32.486  0.00  0.00     0.049 H 
BRANCH 119 122
ATOM    122  CD  GLU d   1      10.996 -42.665  31.543  0.00  0.00     0.172 C 
ATOM    123  OE1 GLU d   1       9.900 -42.103  31.763  0.00  0.00    -0.648 OA
ATOM    124  OE2 GLU d   1      11.476 -42.789  30.394  0.00  0.00    -0.648 OA
ENDBRANCH 119 122
ENDBRANCH 116 119
ENDBRANCH 111 116
ENDBRANCH 109 111
ENDBRANCH 105 107
BRANCH 105 125
ATOM    125  CB  GLU d   1      16.224 -38.595  33.285  0.00  0.00     0.001 C 
ATOM    126  H54 GLU d   1      16.841 -39.446  32.960  0.00  0.00     0.052 H 
ATOM    127  H55 GLU d   1      16.426 -38.379  34.344  0.00  0.00     0.052 H 
BRANCH 125 128
ATOM    128  SG  GLU d   1      16.688 -37.138  32.301  0.00  0.00    -0.180 SA
ATOM    129  H56 GLU d   1      17.666 -36.938  32.440  0.00  0.00     0.101 HD
ENDBRANCH 125 128
ENDBRANCH 105 125
ENDBRANCH 103 105
ENDBRANCH  90 101
ENDBRANCH  74  87
ENDBRANCH  72  74
ENDBRANCH   1  70
BRANCH   1 130
ATOM    130  CB  GLU d   1      10.825 -32.577  29.250  0.00  0.00    -0.029 C 
ATOM    131  H35 GLU d   1      11.373 -32.473  30.198  0.00  0.00     0.037 H 
ATOM    132  H36 GLU d   1      10.910 -31.644  28.673  0.00  0.00     0.037 H 
BRANCH 130 133
ATOM    133  CG  GLU d   1      11.469 -33.690  28.450  0.00  0.00     0.018 C 
ATOM    134  H37 GLU d   1      10.873 -33.865  27.543  0.00  0.00     0.049 H 
ATOM    135  H38 GLU d   1      11.483 -34.604  29.062  0.00  0.00     0.049 H 
BRANCH 133 136
ATOM    136  CD  GLU d   1      12.884 -33.354  28.045  0.00  0.00     0.172 C 
ATOM    137  OE1 GLU d   1      13.431 -32.363  28.578  0.00  0.00    -0.648 OA
ATOM    138  OE2 GLU d   1      13.445 -34.075  27.192  0.00  0.00    -0.648 OA
ENDBRANCH 133 136
ENDBRANCH 130 133
ENDBRANCH   1 130
TORSDOF 38
