REMARK WARNING: 32 MAX_TORS EXCEEDED!!!
REMARK  33 active torsions:
REMARK  status: ('A' for Active; 'I' for Inactive)
REMARK    1  A    between atoms: N_1  and  CA_2 
REMARK    2  A    between atoms: CA_2  and  C_3 
REMARK    3  A    between atoms: CA_2  and  CB_5 
REMARK       I    between atoms: C_3  and  N_7 
REMARK    4  A    between atoms: CB_5  and  OG_6 
REMARK    5  A    between atoms: N_7  and  CA_8 
REMARK    6  A    between atoms: CA_8  and  C_9 
REMARK    7  A    between atoms: CA_8  and  CB_11 
REMARK       I    between atoms: C_9  and  N_15 
REMARK    8  A    between atoms: CB_11  and  CG_12 
REMARK    9  A    between atoms: N_15  and  CA_16 
REMARK   10  A    between atoms: CA_16  and  C_17 
REMARK   11  A    between atoms: CA_16  and  CB_19 
REMARK       I    between atoms: C_17  and  N_23 
REMARK   12  A    between atoms: CB_19  and  CG_20 
REMARK   13  A    between atoms: CG_20  and  CD1_21 
REMARK   14  A    between atoms: CG_20  and  CD2_22 
REMARK   15  A    between atoms: N_23  and  CA_24 
REMARK   16  A    between atoms: CA_24  and  C_25 
REMARK   17  A    between atoms: CA_24  and  CB_27 
REMARK       I    between atoms: C_25  and  N_30 
REMARK   18  A    between atoms: CB_27  and  CG1_28 
REMARK   19  A    between atoms: CB_27  and  CG2_29 
REMARK   20  A    between atoms: N_30  and  CA_31 
REMARK   21  A    between atoms: CA_31  and  C_32 
REMARK   22  A    between atoms: CA_31  and  CB_34 
REMARK       I    between atoms: C_32  and  N_35 
REMARK   23  A    between atoms: CA_36  and  C_37 
REMARK       I    between atoms: C_37  and  N_42 
REMARK   24  A    between atoms: N_42  and  CA_43 
REMARK   25  A    between atoms: CA_43  and  CB_44 
REMARK   26  A    between atoms: CA_43  and  C_46 
REMARK   27  A    between atoms: CB_44  and  OG_45 
REMARK   28  A    between atoms: OG_45  and  P_48 
REMARK       I    between atoms: C_46  and  N_52 
REMARK   29  A    between atoms: CA_53  and  C_54 
REMARK       I    between atoms: C_54  and  N_59 
REMARK   30  A    between atoms: N_59  and  CA_60 
REMARK   31  A    between atoms: CA_60  and  C_61 
REMARK   32  A    between atoms: CA_60  and  CB_63 
REMARK   33  A    between atoms: CB_63  and  CG_64 
ROOT
ATOM      1  CA  SER d   1      89.827 -39.804  18.401  0.00  0.00     0.086 C 
ATOM      2  H33 SER d   1      89.179 -40.397  17.738  0.00  0.00     0.086 H 
ENDROOT
BRANCH   1   3
ATOM      3  N   SER d   1      90.670 -40.704  19.155  0.00  0.00    -0.346 N 
ATOM      4  C   SER d   1      91.172 -41.823  18.669  0.00  0.00     0.241 C 
ATOM      5  O   SER d   1      91.274 -42.060  17.452  0.00  0.00    -0.271 OA
ATOM      6  H32 SER d   1      90.886 -40.464  20.102  0.00  0.00     0.163 HD
BRANCH   4   7
ATOM      7  CA  SER d   1      91.787 -42.754  19.693  0.00  0.00     0.092 C 
ATOM      8  H24 SER d   1      91.509 -42.415  20.702  0.00  0.00     0.088 H 
BRANCH   7   9
ATOM      9  N   SER d   1      91.289 -44.120  19.510  0.00  0.00    -0.346 N 
ATOM     10  C   SER d   1      90.329 -44.685  20.258  0.00  0.00     0.241 C 
ATOM     11  O   SER d   1      89.762 -44.096  21.181  0.00  0.00    -0.271 OA
ATOM     12  H23 SER d   1      91.692 -44.669  18.778  0.00  0.00     0.163 HD
BRANCH  10  13
ATOM     13  CA  SER d   1      89.972 -46.135  19.970  0.00  0.00     0.089 C 
ATOM     14  H13 SER d   1      90.434 -46.441  19.020  0.00  0.00     0.087 H 
BRANCH  13  15
ATOM     15  N   SER d   1      90.472 -46.934  21.056  0.00  0.00    -0.346 N 
ATOM     16  C   SER d   1      90.447 -48.249  20.983  0.00  0.00     0.241 C 
ATOM     17  O   SER d   1      90.545 -48.875  19.908  0.00  0.00    -0.271 OA
ATOM     18  H12 SER d   1      90.841 -46.489  21.872  0.00  0.00     0.163 HD
BRANCH  16  19
ATOM     19  CA  SER d   1      90.359 -48.963  22.319  0.00  0.00     0.098 C 
ATOM     20  H9  SER d   1      91.380 -49.155  22.681  0.00  0.00     0.088 H 
BRANCH  19  21
ATOM     21  N   SER d   1      89.686 -48.106  23.289  0.00  0.00    -0.345 N 
ATOM     22  C   SER d   1      90.065 -48.025  24.555  0.00  0.00     0.251 C 
ATOM     23  O   SER d   1      91.003 -48.707  25.041  0.00  0.00    -0.271 OA
ATOM     24  H8  SER d   1      88.907 -47.557  22.985  0.00  0.00     0.163 HD
BRANCH  22  25
ATOM     25  CA  SER d   1      89.195 -47.078  25.393  0.00  0.00     0.195 C 
ATOM     26  H4  SER d   1      88.378 -47.680  25.819  0.00  0.00     0.102 H 
BRANCH  25  27
ATOM     27  N   SER d   1      89.912 -46.454  26.497  0.00  0.00    -0.064 N 
ATOM     28  H1  SER d   1      89.286 -45.848  27.004  0.00  0.00     0.275 HD
ATOM     29  H2  SER d   1      90.683 -45.914  26.135  0.00  0.00     0.275 HD
ATOM     30  H3  SER d   1      90.263 -47.168  27.116  0.00  0.00     0.275 HD
ENDBRANCH  25  27
BRANCH  25  31
ATOM     31  CB  SER d   1      88.578 -45.972  24.542  0.00  0.00     0.051 C 
ATOM     32  H5  SER d   1      87.603 -45.680  24.959  0.00  0.00     0.077 H 
ATOM     33  H6  SER d   1      88.443 -46.327  23.509  0.00  0.00     0.077 H 
BRANCH  31  34
ATOM     34  OG  SER d   1      89.461 -44.861  24.558  0.00  0.00    -0.398 OA
ATOM     35  H7  SER d   1      89.095 -44.159  24.033  0.00  0.00     0.209 HD
ENDBRANCH  31  34
ENDBRANCH  25  31
ENDBRANCH  22  25
ENDBRANCH  19  21
BRANCH  19  36
ATOM     36  CB  SER d   1      89.647 -50.321  22.154  0.00  0.00     0.043 C 
ATOM     37  H10 SER d   1      89.593 -50.565  21.083  0.00  0.00     0.052 H 
ATOM     38  H11 SER d   1      88.629 -50.240  22.564  0.00  0.00     0.052 H 
BRANCH  36  39
ATOM     39  CG  SER d   1      90.391 -51.463  22.889  0.00  0.00     0.175 C 
ATOM     40  OD1 SER d   1      89.958 -52.660  22.719  0.00  0.00    -0.648 OA
ATOM     41  OD2 SER d   1      91.408 -51.125  23.628  0.00  0.00    -0.648 OA
ENDBRANCH  36  39
ENDBRANCH  19  36
ENDBRANCH  16  19
ENDBRANCH  13  15
BRANCH  13  42
ATOM     42  CB  SER d   1      88.479 -46.378  19.908  0.00  0.00    -0.035 C 
ATOM     43  H14 SER d   1      88.112 -46.192  20.928  0.00  0.00     0.037 H 
ATOM     44  H15 SER d   1      88.369 -47.446  19.667  0.00  0.00     0.037 H 
BRANCH  42  45
ATOM     45  CG  SER d   1      87.513 -45.666  19.004  0.00  0.00    -0.059 C 
ATOM     46  H16 SER d   1      87.937 -45.594  17.991  0.00  0.00     0.038 H 
BRANCH  45  47
ATOM     47  CD1 SER d   1      86.251 -46.529  18.972  0.00  0.00    -0.073 C 
ATOM     48  H17 SER d   1      85.500 -46.057  18.321  0.00  0.00     0.028 H 
ATOM     49  H18 SER d   1      85.846 -46.624  19.990  0.00  0.00     0.028 H 
ATOM     50  H19 SER d   1      86.499 -47.527  18.581  0.00  0.00     0.028 H 
ENDBRANCH  45  47
BRANCH  45  51
ATOM     51  CD2 SER d   1      87.225 -44.285  19.499  0.00  0.00    -0.073 C 
ATOM     52  H20 SER d   1      88.155 -43.697  19.507  0.00  0.00     0.028 H 
ATOM     53  H21 SER d   1      86.816 -44.339  20.519  0.00  0.00     0.028 H 
ATOM     54  H22 SER d   1      86.492 -43.803  18.835  0.00  0.00     0.028 H 
ENDBRANCH  45  51
ENDBRANCH  42  45
ENDBRANCH  13  42
ENDBRANCH  10  13
ENDBRANCH   7   9
BRANCH   7  55
ATOM     55  CB  SER d   1      93.304 -42.680  19.547  0.00  0.00    -0.033 C 
ATOM     56  H25 SER d   1      93.584 -43.116  18.576  0.00  0.00     0.042 H 
BRANCH  55  57
ATOM     57  CG1 SER d   1      93.757 -41.203  19.545  0.00  0.00    -0.071 C 
ATOM     58  H26 SER d   1      94.851 -41.155  19.440  0.00  0.00     0.028 H 
ATOM     59  H27 SER d   1      93.459 -40.727  20.491  0.00  0.00     0.028 H 
ATOM     60  H28 SER d   1      93.284 -40.676  18.703  0.00  0.00     0.028 H 
ENDBRANCH  55  57
BRANCH  55  61
ATOM     61  CG2 SER d   1      93.923 -43.482  20.587  0.00  0.00    -0.071 C 
ATOM     62  H29 SER d   1      93.552 -44.515  20.523  0.00  0.00     0.028 H 
ATOM     63  H30 SER d   1      93.671 -43.062  21.572  0.00  0.00     0.028 H 
ATOM     64  H31 SER d   1      95.015 -43.476  20.454  0.00  0.00     0.028 H 
ENDBRANCH  55  61
ENDBRANCH   7  55
ENDBRANCH   4   7
ENDBRANCH   1   3
BRANCH   1  65
ATOM     65  C   SER d   1      90.663 -38.863  17.545  0.00  0.00     0.243 C 
ATOM     66  O   SER d   1      91.862 -38.686  17.811  0.00  0.00    -0.271 OA
ATOM     67  N   SER d   1      90.043 -38.242  16.487  0.00  0.00    -0.337 N 
ATOM     68  CA  SER d   1      90.501 -37.180  15.570  0.00  0.00     0.091 C 
ATOM     69  CD  SER d   1      88.723 -38.724  16.046  0.00  0.00    -0.001 C 
ATOM     70  CB  SER d   1      89.186 -36.572  15.102  0.00  0.00    -0.036 C 
ATOM     71  H37 SER d   1      91.027 -37.656  14.729  0.00  0.00     0.087 H 
ATOM     72  CG  SER d   1      88.313 -37.735  15.000  0.00  0.00    -0.048 C 
ATOM     73  H38 SER d   1      89.303 -36.077  14.127  0.00  0.00     0.036 H 
ATOM     74  H39 SER d   1      88.800 -35.849  15.836  0.00  0.00     0.036 H 
ATOM     75  H40 SER d   1      88.411 -38.187  14.002  0.00  0.00     0.035 H 
ATOM     76  H41 SER d   1      87.269 -37.432  15.164  0.00  0.00     0.035 H 
ATOM     77  H42 SER d   1      88.008 -38.729  16.882  0.00  0.00     0.064 H 
ATOM     78  H43 SER d   1      88.797 -39.736  15.621  0.00  0.00     0.064 H 
BRANCH  68  79
ATOM     79  C   SER d   1      91.419 -36.042  16.091  0.00  0.00     0.241 C 
ATOM     80  O   SER d   1      91.817 -35.898  17.280  0.00  0.00    -0.271 OA
ATOM     81  N   SER d   1      91.766 -35.207  15.113  0.00  0.00    -0.344 N 
ATOM     82  H44 SER d   1      91.310 -35.304  14.228  0.00  0.00     0.163 HD
BRANCH  81  83
ATOM     83  CA  SER d   1      92.775 -34.155  15.256  0.00  0.00     0.110 C 
ATOM     84  H45 SER d   1      93.301 -34.282  16.213  0.00  0.00     0.090 H 
BRANCH  83  85
ATOM     85  CB  SER d   1      93.827 -34.275  14.089  0.00  0.00     0.059 C 
ATOM     86  H46 SER d   1      93.678 -33.421  13.412  0.00  0.00     0.079 H 
ATOM     87  H47 SER d   1      93.625 -35.211  13.548  0.00  0.00     0.079 H 
BRANCH  85  88
ATOM     88  OG  SER d   1      95.220 -34.286  14.491  0.00  0.00    -0.280 OA
BRANCH  88  89
ATOM     89  P   SER d   1      95.674 -35.317  15.684  0.00  0.00     0.422 P 
ATOM     90  O1P SER d   1      95.210 -36.866  15.197  0.00  0.00    -0.617 OA
ATOM     91  O2P SER d   1      95.110 -34.717  17.124  0.00  0.00    -0.617 OA
ATOM     92  O3P SER d   1      97.279 -35.304  15.803  0.00  0.00    -0.617 OA
ENDBRANCH  88  89
ENDBRANCH  85  88
ENDBRANCH  83  85
BRANCH  83  93
ATOM     93  C   SER d   1      92.042 -32.777  15.268  0.00  0.00     0.245 C 
ATOM     94  O   SER d   1      92.559 -31.797  14.688  0.00  0.00    -0.271 OA
ATOM     95  N   SER d   1      90.876 -32.688  15.989  0.00  0.00    -0.337 N 
ATOM     96  CA  SER d   1      89.713 -31.852  15.577  0.00  0.00     0.091 C 
ATOM     97  CD  SER d   1      90.819 -33.059  17.426  0.00  0.00    -0.001 C 
ATOM     98  CB  SER d   1      88.849 -31.763  16.867  0.00  0.00    -0.036 C 
ATOM     99  H48 SER d   1      89.156 -32.379  14.788  0.00  0.00     0.087 H 
ATOM    100  CG  SER d   1      89.361 -32.842  17.799  0.00  0.00    -0.048 C 
ATOM    101  H49 SER d   1      87.790 -31.938  16.628  0.00  0.00     0.036 H 
ATOM    102  H50 SER d   1      88.962 -30.773  17.333  0.00  0.00     0.036 H 
ATOM    103  H51 SER d   1      88.788 -33.771  17.660  0.00  0.00     0.035 H 
ATOM    104  H52 SER d   1      89.279 -32.514  18.846  0.00  0.00     0.035 H 
ATOM    105  H53 SER d   1      91.477 -32.412  18.024  0.00  0.00     0.064 H 
ATOM    106  H54 SER d   1      91.108 -34.110  17.571  0.00  0.00     0.064 H 
BRANCH  96 107
ATOM    107  C   SER d   1      90.057 -30.427  15.038  0.00  0.00     0.241 C 
ATOM    108  O   SER d   1      90.416 -29.533  15.836  0.00  0.00    -0.271 OA
ATOM    109  N   SER d   1      89.957 -30.240  13.704  0.00  0.00    -0.344 N 
ATOM    110  H55 SER d   1      89.692 -31.021  13.138  0.00  0.00     0.163 HD
BRANCH 109 111
ATOM    111  CA  SER d   1      90.219 -28.938  13.025  0.00  0.00     0.105 C 
ATOM    112  H56 SER d   1      89.489 -28.209  13.407  0.00  0.00     0.090 H 
BRANCH 111 113
ATOM    113  C   SER d   1      90.022 -29.029  11.484  0.00  0.00     0.197 C 
ATOM    114  O   SER d   1      88.901 -29.251  10.977  0.00  0.00    -0.646 OA
ATOM    115  OXT SER d   1      90.977 -28.884  10.690  0.00  0.00    -0.646 OA
ENDBRANCH 111 113
BRANCH 111 116
ATOM    116  CB  SER d   1      91.641 -28.423  13.393  0.00  0.00     0.044 C 
ATOM    117  H57 SER d   1      92.362 -29.233  13.207  0.00  0.00     0.053 H 
ATOM    118  H58 SER d   1      91.650 -28.162  14.462  0.00  0.00     0.053 H 
BRANCH 116 119
ATOM    119  CG  SER d   1      92.076 -27.203  12.599  0.00  0.00     0.175 C 
ATOM    120  OD1 SER d   1      91.210 -26.417  12.108  0.00  0.00    -0.648 OA
ATOM    121  OD2 SER d   1      93.316 -27.015  12.534  0.00  0.00    -0.648 OA
ENDBRANCH 116 119
ENDBRANCH 111 116
ENDBRANCH 109 111
ENDBRANCH  96 107
ENDBRANCH  83  93
ENDBRANCH  81  83
ENDBRANCH  68  79
ENDBRANCH   1  65
BRANCH   1 122
ATOM    122  CB  SER d   1      88.952 -39.011  19.366  0.00  0.00    -0.049 C 
ATOM    123  H34 SER d   1      88.308 -38.324  18.797  0.00  0.00     0.030 H 
ATOM    124  H35 SER d   1      89.591 -38.433  20.050  0.00  0.00     0.030 H 
ATOM    125  H36 SER d   1      88.326 -39.704  19.947  0.00  0.00     0.030 H 
ENDBRANCH   1 122
TORSDOF 33
