REMARK  11 active torsions:
REMARK  status: ('A' for Active; 'I' for Inactive)
REMARK    1  A    between atoms: C1_1  and  C2_2 
REMARK    2  A    between atoms: C2_2  and  C3_3 
REMARK    3  A    between atoms: C2_2  and  C4_4 
REMARK    4  A    between atoms: C2_2  and  S5_5 
REMARK    5  A    between atoms: S5_5  and  C8_8 
REMARK    6  A    between atoms: C11_11  and  N12_12 
REMARK    7  A    between atoms: N12_12  and  C13_13 
REMARK    8  A    between atoms: C27_27  and  O28_28 
REMARK    9  A    between atoms: O28_28  and  C29_29 
REMARK   10  A    between atoms: C29_29  and  C30_30 
REMARK   11  A    between atoms: C30_30  and  O31_31 
ROOT
ATOM      1  C8  KA2 d   1     -39.715  39.741  -3.987  0.00  0.00     0.094 A 
ATOM      2  C9  KA2 d   1     -39.579  38.868  -2.941  0.00  0.00    -0.043 A 
ATOM      3  C10 KA2 d   1     -40.058  37.540  -3.059  0.00  0.00     0.040 A 
ATOM      4  C11 KA2 d   1     -39.983  36.517  -2.042  0.00  0.00     0.142 A 
ATOM      5  N22 KA2 d   1     -40.512  35.294  -2.239  0.00  0.00    -0.224 NA
ATOM      6  C23 KA2 d   1     -41.080  35.060  -3.425  0.00  0.00     0.089 A 
ATOM      7  N24 KA2 d   1     -41.191  35.889  -4.465  0.00  0.00    -0.241 NA
ATOM      8  C25 KA2 d   1     -40.691  37.145  -4.272  0.00  0.00     0.075 A 
ATOM      9  C26 KA2 d   1     -40.833  38.088  -5.309  0.00  0.00    -0.021 A 
ATOM     10  C27 KA2 d   1     -40.330  39.367  -5.186  0.00  0.00     0.092 A 
ATOM     11  H10 KA2 d   1     -39.105  39.193  -2.022  0.00  0.00     0.087 H 
ATOM     12  H16 KA2 d   1     -41.505  34.072  -3.560  0.00  0.00     0.146 H 
ATOM     13  H17 KA2 d   1     -41.347  37.804  -6.220  0.00  0.00     0.091 H 
ENDROOT
BRANCH   1  14
ATOM     14  S5  KA2 d   1     -38.975  41.344  -3.744  0.00  0.00     0.185 S 
ATOM     15  O6  KA2 d   1     -37.986  41.114  -2.717  0.00  0.00    -0.222 OA
ATOM     16  O7  KA2 d   1     -38.536  41.812  -5.040  0.00  0.00    -0.222 OA
BRANCH  14  17
ATOM     17  C2  KA2 d   1     -40.243  42.479  -3.074  0.00  0.00     0.058 C 
BRANCH  17  18
ATOM     18  C1  KA2 d   1     -41.372  42.635  -4.051  0.00  0.00    -0.056 C 
ATOM     19  H1  KA2 d   1     -42.126  43.319  -3.634  0.00  0.00     0.029 H 
ATOM     20  H2  KA2 d   1     -41.832  41.654  -4.239  0.00  0.00     0.029 H 
ATOM     21  H3  KA2 d   1     -40.986  43.046  -4.995  0.00  0.00     0.029 H 
ENDBRANCH  17  18
BRANCH  17  22
ATOM     22  C3  KA2 d   1     -40.813  41.966  -1.766  0.00  0.00    -0.056 C 
ATOM     23  H4  KA2 d   1     -41.570  42.672  -1.394  0.00  0.00     0.029 H 
ATOM     24  H5  KA2 d   1     -40.005  41.871  -1.026  0.00  0.00     0.029 H 
ATOM     25  H6  KA2 d   1     -41.278  40.983  -1.929  0.00  0.00     0.029 H 
ENDBRANCH  17  22
BRANCH  17  26
ATOM     26  C4  KA2 d   1     -39.590  43.831  -2.860  0.00  0.00    -0.056 C 
ATOM     27  H7  KA2 d   1     -40.331  44.536  -2.456  0.00  0.00     0.029 H 
ATOM     28  H8  KA2 d   1     -39.208  44.210  -3.820  0.00  0.00     0.029 H 
ATOM     29  H9  KA2 d   1     -38.757  43.727  -2.149  0.00  0.00     0.029 H 
ENDBRANCH  17  26
ENDBRANCH  14  17
ENDBRANCH   1  14
BRANCH  10  30
ATOM     30  O28 KA2 d   1     -40.415  40.303  -6.205  0.00  0.00    -0.347 OA
BRANCH  30  31
ATOM     31  C29 KA2 d   1     -40.523  39.916  -7.570  0.00  0.00     0.045 C 
ATOM     32  H18 KA2 d   1     -40.792  38.852  -7.639  0.00  0.00     0.078 H 
ATOM     33  H19 KA2 d   1     -39.566  40.086  -8.086  0.00  0.00     0.078 H 
BRANCH  31  34
ATOM     34  C30 KA2 d   1     -41.600  40.760  -8.193  0.00  0.00     0.037 C 
ATOM     35  H20 KA2 d   1     -42.568  40.540  -7.720  0.00  0.00     0.077 H 
ATOM     36  H21 KA2 d   1     -41.663  40.551  -9.271  0.00  0.00     0.077 H 
BRANCH  34  37
ATOM     37  O31 KA2 d   1     -41.258  42.123  -7.984  0.00  0.00    -0.399 OA
ATOM     38  H22 KA2 d   1     -41.202  42.295  -7.051  0.00  0.00     0.209 HD
ENDBRANCH  34  37
ENDBRANCH  31  34
ENDBRANCH  30  31
ENDBRANCH  10  30
BRANCH   4  39
ATOM     39  N12 KA2 d   1     -39.361  36.804  -0.862  0.00  0.00    -0.340 N 
ATOM     40  H11 KA2 d   1     -39.057  37.777  -0.712  0.00  0.00     0.167 HD
BRANCH  39  41
ATOM     41  C13 KA2 d   1     -39.103  35.887   0.159  0.00  0.00     0.035 A 
ATOM     42  C14 KA2 d   1     -38.300  34.788  -0.084  0.00  0.00    -0.056 A 
ATOM     43  C15 KA2 d   1     -38.106  33.851   0.897  0.00  0.00    -0.062 A 
ATOM     44  H12 KA2 d   1     -37.824  34.668  -1.050  0.00  0.00     0.087 H 
ATOM     45  C16 KA2 d   1     -38.710  34.056   2.116  0.00  0.00     0.035 A 
ATOM     46  H13 KA2 d   1     -37.495  32.974   0.718  0.00  0.00     0.085 H 
ATOM     47  S17 KA2 d   1     -38.608  33.040   3.515  0.00  0.00    -0.081 SA
ATOM     48  C20 KA2 d   1     -39.499  35.169   2.401  0.00  0.00     0.076 A 
ATOM     49  C18 KA2 d   1     -39.660  34.128   4.329  0.00  0.00     0.041 A 
ATOM     50  N19 KA2 d   1     -40.029  35.172   3.673  0.00  0.00    -0.253 NA
ATOM     51  H14 KA2 d   1     -39.997  33.944   5.348  0.00  0.00     0.126 H 
ATOM     52  C21 KA2 d   1     -39.705  36.088   1.386  0.00  0.00    -0.028 A 
ATOM     53  H15 KA2 d   1     -40.332  36.956   1.552  0.00  0.00     0.090 H 
ENDBRANCH  39  41
ENDBRANCH   4  39
TORSDOF 11
