REMARK  3 active torsions:
REMARK  status: ('A' for Active; 'I' for Inactive)
REMARK    1  A    between atoms: C1_1  and  C_14 
REMARK    2  A    between atoms: C11_8  and  S_17 
REMARK    3  A    between atoms: C5_12  and  C4_13 
ROOT
ATOM      1  C1  KBH d   1      35.618  12.830 -15.782  0.00  0.00     0.042 A 
ATOM      2  C2  KBH d   1      35.189  12.057 -16.850  0.00  0.00    -0.066 A 
ATOM      3  C3  KBH d   1      33.853  12.026 -17.204  0.00  0.00    -0.070 A 
ATOM      4  C11 KBH d   1      33.333  13.522 -15.410  0.00  0.00     0.069 A 
ATOM      5  C12 KBH d   1      34.677  13.550 -15.052  0.00  0.00    -0.045 A 
ATOM      6  C4  KBH d   1      32.879  12.731 -16.486  0.00  0.00    -0.005 A 
ATOM      7  H1  KBH d   1      35.907  11.472 -17.412  0.00  0.00     0.085 H 
ATOM      8  H2  KBH d   1      33.550  11.438 -18.063  0.00  0.00     0.084 H 
ATOM      9  H6  KBH d   1      34.994  14.137 -14.198  0.00  0.00     0.087 H 
ENDROOT
BRANCH   6  10
ATOM     10  C5  KBH d   1      31.464  12.586 -16.934  0.00  0.00    -0.024 A 
ATOM     11  C10 KBH d   1      30.869  13.548 -17.750  0.00  0.00    -0.069 A 
ATOM     12  C9  KBH d   1      29.560  13.421 -18.174  0.00  0.00    -0.045 A 
ATOM     13  H5  KBH d   1      31.445  14.413 -18.058  0.00  0.00     0.085 H 
ATOM     14  C8  KBH d   1      28.855  12.324 -17.772  0.00  0.00     0.116 A 
ATOM     15  H4  KBH d   1      29.105  14.173 -18.809  0.00  0.00     0.088 H 
ATOM     16  C7  KBH d   1      29.393  11.334 -16.986  0.00  0.00    -0.045 A 
ATOM     17  F   KBH d   1      27.571  12.201 -18.177  0.00  0.00    -0.206 F 
ATOM     18  C6  KBH d   1      30.713  11.459 -16.593  0.00  0.00    -0.069 A 
ATOM     19  H3  KBH d   1      28.800  10.479 -16.683  0.00  0.00     0.088 H 
ATOM     20  H7  KBH d   1      31.173  10.669 -16.010  0.00  0.00     0.085 H 
ENDBRANCH   6  10
BRANCH   4  21
ATOM     21  S   KBH d   1      32.256  14.504 -14.381  0.00  0.00     0.170 S 
ATOM     22  O3  KBH d   1      31.042  14.797 -15.065  0.00  0.00    -0.225 OA
ATOM     23  O2  KBH d   1      33.008  15.590 -13.852  0.00  0.00    -0.225 OA
ATOM     24  H8  KBH d   1      31.992  13.938 -13.590  0.00  0.00     0.176 HD
ENDBRANCH   4  21
BRANCH   1  25
ATOM     25  C   KBH d   1      37.063  12.885 -15.415  0.00  0.00     0.209 C 
ATOM     26  O   KBH d   1      37.322  13.627 -14.377  0.00  0.00    -0.644 OA
ATOM     27  O1  KBH d   1      37.922  12.259 -16.036  0.00  0.00    -0.644 OA
ENDBRANCH   1  25
TORSDOF 3
