REMARK  29 active torsions:
REMARK  status: ('A' for Active; 'I' for Inactive)
REMARK    1  A    between atoms: C4_3  and  N1_1 
REMARK    2  A    between atoms: N1_1  and  C3_17 
REMARK    3  A    between atoms: C5_4  and  C4_3 
REMARK    4  A    between atoms: C6_5  and  O1_20 
REMARK    5  A    between atoms: C7_6  and  C8_7 
REMARK    6  A    between atoms: O1_20  and  C7_6 
REMARK    7  A    between atoms: O2_21  and  C15_10 
REMARK       I    between atoms: N_23  and  C1_11 
REMARK    8  A    between atoms: C1_11  and  C_24 
REMARK    9  A    between atoms: C16_15  and  O2_21 
REMARK   10  A    between atoms: C17_26  and  C16_15 
REMARK   11  A    between atoms: C3_17  and  C2_16 
REMARK   12  A    between atoms: C2_16  and  N_23 
REMARK   13  A    between atoms: O3_22  and  C31_40 
REMARK   14  A    between atoms: C32_41  and  O3_22 
REMARK   15  A    between atoms: C24_33  and  C21_30 
REMARK   16  A    between atoms: C22_31  and  C23_32 
REMARK   17  A    between atoms: C31_40  and  C28_37 
REMARK   18  A    between atoms: C29_38  and  C30_39 
REMARK   19  A    between atoms: O5_68  and  C34_43 
REMARK   20  A    between atoms: C35_44  and  C36_45 
REMARK   21  A    between atoms: C36_45  and  N4_63 
REMARK   22  A    between atoms: C37_46  and  C38_47 
REMARK   23  A    between atoms: N4_63  and  C37_46 
REMARK   24  A    between atoms: C38_47  and  N5_64 
REMARK   25  A    between atoms: C39_48  and  C40_49 
REMARK       I    between atoms: N5_64  and  C39_48 
REMARK   26  A    between atoms: C42_51  and  C43_52 
REMARK   27  A    between atoms: C45_54  and  C44_53 
REMARK   28  A    between atoms: C44_53  and  O5_68 
REMARK   29  A    between atoms: C51_60  and  C53_62 
ROOT
ATOM      1  N3  KDW d   1       4.009 -32.415  -8.505  0.00  0.00    -0.191 NA
ATOM      2  C8  KDW d   1       1.709 -28.253  -7.707  0.00  0.00    -0.015 A 
ATOM      3  C10 KDW d   1       3.762 -29.571  -6.481  0.00  0.00     0.022 A 
ATOM      4  C13 KDW d   1       3.646 -31.400  -8.131  0.00  0.00     0.101 C 
ATOM      5  C11 KDW d   1       3.207 -30.126  -7.623  0.00  0.00     0.062 A 
ATOM      6  C12 KDW d   1       2.167 -29.446  -8.243  0.00  0.00    -0.052 A 
ATOM      7  C9  KDW d   1       2.330 -27.803  -6.558  0.00  0.00     0.010 A 
ATOM      8  N2  KDW d   1       3.337 -28.431  -5.945  0.00  0.00    -0.271 NA
ATOM      9  H7  KDW d   1       4.583 -30.092  -6.001  0.00  0.00     0.117 H 
ATOM     10  H8  KDW d   1       1.715 -29.847  -9.143  0.00  0.00     0.086 H 
ATOM     11  H16 KDW d   1       1.975 -26.875  -6.123  0.00  0.00     0.115 H 
ENDROOT
BRANCH   2  12
ATOM     12  C7  KDW d   1       0.603 -27.478  -8.349  0.00  0.00     0.051 C 
ATOM     13  H5  KDW d   1       0.254 -28.007  -9.248  0.00  0.00     0.082 H 
ATOM     14  H6  KDW d   1       0.966 -26.478  -8.629  0.00  0.00     0.082 H 
BRANCH  12  15
ATOM     15  O1  KDW d   1      -0.466 -27.356  -7.420  0.00  0.00    -0.346 OA
BRANCH  15  16
ATOM     16  C6  KDW d   1      -1.528 -26.593  -7.800  0.00  0.00     0.079 A 
ATOM     17  C5  KDW d   1      -2.395 -26.227  -6.778  0.00  0.00     0.001 A 
ATOM     18  C52 KDW d   1      -3.468 -25.413  -7.093  0.00  0.00    -0.064 A 
ATOM     19  C51 KDW d   1      -3.697 -24.961  -8.382  0.00  0.00    -0.028 A 
ATOM     20  H54 KDW d   1      -4.152 -25.119  -6.305  0.00  0.00     0.085 H 
ATOM     21  C15 KDW d   1      -2.820 -25.362  -9.372  0.00  0.00     0.077 A 
ATOM     22  C14 KDW d   1      -1.742 -26.171  -9.092  0.00  0.00    -0.018 A 
ATOM     23  H9  KDW d   1      -1.066 -26.474  -9.884  0.00  0.00     0.092 H 
BRANCH  17  24
ATOM     24  C4  KDW d   1      -2.170 -26.708  -5.371  0.00  0.00     0.108 C 
ATOM     25  H3  KDW d   1      -1.390 -26.086  -4.908  0.00  0.00     0.083 H 
ATOM     26  H4  KDW d   1      -3.109 -26.598  -4.808  0.00  0.00     0.083 H 
BRANCH  24  27
ATOM     27  N1  KDW d   1      -1.752 -28.100  -5.309  0.00  0.00    -0.070 N 
ATOM     28  H1  KDW d   1      -0.893 -28.157  -4.785  0.00  0.00     0.277 HD
ATOM     29  H2  KDW d   1      -1.595 -28.433  -6.247  0.00  0.00     0.277 HD
BRANCH  27  30
ATOM     30  C3  KDW d   1      -2.748 -28.953  -4.670  0.00  0.00     0.096 C 
ATOM     31  H14 KDW d   1      -2.733 -28.776  -3.584  0.00  0.00     0.078 H 
ATOM     32  H15 KDW d   1      -2.506 -30.007  -4.873  0.00  0.00     0.078 H 
BRANCH  30  33
ATOM     33  C2  KDW d   1      -4.127 -28.649  -5.204  0.00  0.00     0.018 C 
ATOM     34  H12 KDW d   1      -4.191 -28.978  -6.252  0.00  0.00     0.066 H 
ATOM     35  H13 KDW d   1      -4.307 -27.565  -5.149  0.00  0.00     0.066 H 
BRANCH  33  36
ATOM     36  N   KDW d   1      -5.135 -29.342  -4.422  0.00  0.00    -0.360 N 
ATOM     37  C1  KDW d   1      -4.817 -30.223  -3.477  0.00  0.00     0.213 C 
ATOM     38  O   KDW d   1      -4.012 -31.124  -3.678  0.00  0.00    -0.274 OA
ATOM     39  H17 KDW d   1      -6.100 -29.151  -4.599  0.00  0.00     0.162 HD
BRANCH  37  40
ATOM     40  C   KDW d   1      -5.489 -30.040  -2.152  0.00  0.00    -0.003 C 
ATOM     41  H18 KDW d   1      -5.149 -30.822  -1.457  0.00  0.00     0.040 H 
ATOM     42  H19 KDW d   1      -6.579 -30.112  -2.281  0.00  0.00     0.040 H 
ATOM     43  H20 KDW d   1      -5.233 -29.051  -1.744  0.00  0.00     0.040 H 
ENDBRANCH  37  40
ENDBRANCH  33  36
ENDBRANCH  30  33
ENDBRANCH  27  30
ENDBRANCH  24  27
ENDBRANCH  17  24
BRANCH  19  44
ATOM     44  C53 KDW d   1      -4.847 -24.048  -8.689  0.00  0.00    -0.049 C 
ATOM     45  H55 KDW d   1      -4.849 -23.810  -9.763  0.00  0.00     0.033 H 
ATOM     46  H56 KDW d   1      -4.744 -23.120  -8.108  0.00  0.00     0.033 H 
ATOM     47  H57 KDW d   1      -5.791 -24.545  -8.421  0.00  0.00     0.033 H 
ENDBRANCH  19  44
BRANCH  21  48
ATOM     48  O2  KDW d   1      -3.143 -24.887 -10.605  0.00  0.00    -0.346 OA
BRANCH  48  49
ATOM     49  C16 KDW d   1      -2.200 -25.074 -11.645  0.00  0.00     0.050 C 
ATOM     50  H10 KDW d   1      -2.017 -26.149 -11.789  0.00  0.00     0.082 H 
ATOM     51  H11 KDW d   1      -1.256 -24.573 -11.383  0.00  0.00     0.082 H 
BRANCH  49  52
ATOM     52  C17 KDW d   1      -2.751 -24.482 -12.910  0.00  0.00    -0.027 A 
ATOM     53  C18 KDW d   1      -3.350 -23.231 -12.889  0.00  0.00    -0.074 A 
ATOM     54  C19 KDW d   1      -3.827 -22.660 -14.047  0.00  0.00    -0.082 A 
ATOM     55  H21 KDW d   1      -3.443 -22.697 -11.950  0.00  0.00     0.084 H 
ATOM     56  C20 KDW d   1      -3.718 -23.330 -15.245  0.00  0.00    -0.072 A 
ATOM     57  H22 KDW d   1      -4.290 -21.680 -14.016  0.00  0.00     0.083 H 
ATOM     58  C21 KDW d   1      -3.126 -24.587 -15.286  0.00  0.00    -0.019 A 
ATOM     59  H23 KDW d   1      -4.094 -22.878 -16.156  0.00  0.00     0.084 H 
ATOM     60  C22 KDW d   1      -2.638 -25.180 -14.115  0.00  0.00    -0.043 A 
BRANCH  58  61
ATOM     61  C24 KDW d   1      -3.023 -25.292 -16.595  0.00  0.00    -0.019 A 
ATOM     62  C25 KDW d   1      -4.000 -26.224 -16.914  0.00  0.00    -0.072 A 
ATOM     63  C26 KDW d   1      -3.959 -26.879 -18.124  0.00  0.00    -0.082 A 
ATOM     64  H27 KDW d   1      -4.796 -26.436 -16.210  0.00  0.00     0.084 H 
ATOM     65  C27 KDW d   1      -2.954 -26.606 -19.023  0.00  0.00    -0.074 A 
ATOM     66  H28 KDW d   1      -4.720 -27.611 -18.369  0.00  0.00     0.083 H 
ATOM     67  C28 KDW d   1      -1.968 -25.677 -18.726  0.00  0.00    -0.027 A 
ATOM     68  H29 KDW d   1      -2.933 -27.123 -19.975  0.00  0.00     0.084 H 
ATOM     69  C29 KDW d   1      -1.982 -25.015 -17.495  0.00  0.00    -0.043 A 
BRANCH  67  70
ATOM     70  C31 KDW d   1      -0.920 -25.380 -19.759  0.00  0.00     0.050 C 
ATOM     71  H33 KDW d   1      -0.641 -24.317 -19.720  0.00  0.00     0.082 H 
ATOM     72  H34 KDW d   1      -0.028 -25.999 -19.582  0.00  0.00     0.082 H 
BRANCH  70  73
ATOM     73  O3  KDW d   1      -1.488 -25.691 -21.027  0.00  0.00    -0.346 OA
BRANCH  73  74
ATOM     74  C32 KDW d   1      -0.836 -25.219 -22.123  0.00  0.00     0.077 A 
ATOM     75  C33 KDW d   1       0.486 -24.851 -22.111  0.00  0.00    -0.018 A 
ATOM     76  C34 KDW d   1       1.075 -24.383 -23.260  0.00  0.00     0.079 A 
ATOM     77  H35 KDW d   1       1.064 -24.930 -21.197  0.00  0.00     0.092 H 
ATOM     78  C35 KDW d   1       0.351 -24.274 -24.442  0.00  0.00     0.001 A 
ATOM     79  C41 KDW d   1      -0.980 -24.657 -24.425  0.00  0.00    -0.064 A 
ATOM     80  C42 KDW d   1      -1.598 -25.130 -23.278  0.00  0.00    -0.028 A 
ATOM     81  H45 KDW d   1      -1.558 -24.584 -25.339  0.00  0.00     0.085 H 
BRANCH  76  82
ATOM     82  O5  KDW d   1       2.375 -23.992 -23.324  0.00  0.00    -0.346 OA
BRANCH  82  83
ATOM     83  C44 KDW d   1       2.767 -22.937 -22.454  0.00  0.00     0.051 C 
ATOM     84  H49 KDW d   1       2.417 -21.972 -22.849  0.00  0.00     0.082 H 
ATOM     85  H50 KDW d   1       2.345 -23.098 -21.451  0.00  0.00     0.082 H 
BRANCH  83  86
ATOM     86  C45 KDW d   1       4.258 -22.955 -22.392  0.00  0.00    -0.015 A 
ATOM     87  C46 KDW d   1       4.989 -23.984 -22.956  0.00  0.00     0.010 A 
ATOM     88  N6  KDW d   1       6.322 -24.061 -22.943  0.00  0.00    -0.271 NA
ATOM     89  H51 KDW d   1       4.442 -24.784 -23.442  0.00  0.00     0.115 H 
ATOM     90  C47 KDW d   1       6.985 -23.074 -22.343  0.00  0.00     0.022 A 
ATOM     91  C48 KDW d   1       6.357 -21.988 -21.748  0.00  0.00     0.062 A 
ATOM     92  H52 KDW d   1       8.068 -23.121 -22.318  0.00  0.00     0.117 H 
ATOM     93  C49 KDW d   1       4.971 -21.939 -21.777  0.00  0.00    -0.052 A 
ATOM     94  C50 KDW d   1       7.105 -20.930 -21.125  0.00  0.00     0.101 C 
ATOM     95  H53 KDW d   1       4.447 -21.108 -21.320  0.00  0.00     0.086 H 
ATOM     96  N7  KDW d   1       7.670 -20.077 -20.621  0.00  0.00    -0.191 NA
ENDBRANCH  83  86
ENDBRANCH  82  83
ENDBRANCH  76  82
BRANCH  78  97
ATOM     97  C36 KDW d   1       0.995 -23.745 -25.697  0.00  0.00     0.108 C 
ATOM     98  H36 KDW d   1       0.291 -23.881 -26.531  0.00  0.00     0.083 H 
ATOM     99  H37 KDW d   1       1.908 -24.327 -25.889  0.00  0.00     0.083 H 
BRANCH  97 100
ATOM    100  N4  KDW d   1       1.357 -22.332 -25.627  0.00  0.00    -0.070 N 
ATOM    101  H58 KDW d   1       1.914 -22.101 -26.435  0.00  0.00     0.277 HD
ATOM    102  H59 KDW d   1       1.898 -22.178 -24.791  0.00  0.00     0.277 HD
BRANCH 100 103
ATOM    103  C37 KDW d   1       0.190 -21.453 -25.597  0.00  0.00     0.096 C 
ATOM    104  H38 KDW d   1      -0.479 -21.771 -24.784  0.00  0.00     0.078 H 
ATOM    105  H39 KDW d   1       0.522 -20.420 -25.416  0.00  0.00     0.078 H 
BRANCH 103 106
ATOM    106  C38 KDW d   1      -0.561 -21.509 -26.907  0.00  0.00     0.018 C 
ATOM    107  H40 KDW d   1      -1.503 -20.950 -26.805  0.00  0.00     0.066 H 
ATOM    108  H41 KDW d   1      -0.782 -22.559 -27.149  0.00  0.00     0.066 H 
BRANCH 106 109
ATOM    109  N5  KDW d   1       0.219 -20.929 -27.986  0.00  0.00    -0.360 N 
ATOM    110  C39 KDW d   1       0.985 -19.855 -27.817  0.00  0.00     0.213 C 
ATOM    111  O4  KDW d   1       1.850 -19.805 -26.950  0.00  0.00    -0.274 OA
ATOM    112  H60 KDW d   1       0.179 -21.353 -28.891  0.00  0.00     0.162 HD
BRANCH 110 113
ATOM    113  C40 KDW d   1       0.728 -18.711 -28.747  0.00  0.00    -0.003 C 
ATOM    114  H42 KDW d   1       1.417 -17.886 -28.513  0.00  0.00     0.040 H 
ATOM    115  H43 KDW d   1      -0.310 -18.367 -28.627  0.00  0.00     0.040 H 
ATOM    116  H44 KDW d   1       0.888 -19.039 -29.785  0.00  0.00     0.040 H 
ENDBRANCH 110 113
ENDBRANCH 106 109
ENDBRANCH 103 106
ENDBRANCH 100 103
ENDBRANCH  97 100
ENDBRANCH  78  97
BRANCH  80 117
ATOM    117  C43 KDW d   1      -3.046 -25.525 -23.288  0.00  0.00    -0.049 C 
ATOM    118  H46 KDW d   1      -3.339 -25.870 -22.285  0.00  0.00     0.033 H 
ATOM    119  H47 KDW d   1      -3.200 -26.336 -24.015  0.00  0.00     0.033 H 
ATOM    120  H48 KDW d   1      -3.661 -24.658 -23.571  0.00  0.00     0.033 H 
ENDBRANCH  80 117
ENDBRANCH  73  74
ENDBRANCH  70  73
ENDBRANCH  67  70
BRANCH  69 121
ATOM    121  C30 KDW d   1      -0.878 -24.055 -17.140  0.00  0.00    -0.050 C 
ATOM    122  H30 KDW d   1      -1.063 -23.637 -16.139  0.00  0.00     0.033 H 
ATOM    123  H31 KDW d   1      -0.850 -23.240 -17.878  0.00  0.00     0.033 H 
ATOM    124  H32 KDW d   1       0.085 -24.586 -17.143  0.00  0.00     0.033 H 
ENDBRANCH  69 121
ENDBRANCH  58  61
BRANCH  60 125
ATOM    125  C23 KDW d   1      -2.005 -26.545 -14.142  0.00  0.00    -0.050 C 
ATOM    126  H24 KDW d   1      -1.692 -26.824 -13.125  0.00  0.00     0.033 H 
ATOM    127  H25 KDW d   1      -1.127 -26.529 -14.805  0.00  0.00     0.033 H 
ATOM    128  H26 KDW d   1      -2.733 -27.280 -14.516  0.00  0.00     0.033 H 
ENDBRANCH  60 125
ENDBRANCH  49  52
ENDBRANCH  48  49
ENDBRANCH  21  48
ENDBRANCH  15  16
ENDBRANCH  12  15
ENDBRANCH   2  12
TORSDOF 29
