REMARK WARNING: 32 MAX_TORS EXCEEDED!!!
REMARK  43 active torsions:
REMARK  status: ('A' for Active; 'I' for Inactive)
REMARK    1  A    between atoms: N_1  and  CA_2 
REMARK    2  A    between atoms: CA_2  and  C_3 
REMARK    3  A    between atoms: CA_2  and  CB_5 
REMARK       I    between atoms: C_3  and  N_9 
REMARK    4  A    between atoms: CB_5  and  CG_6 
REMARK    5  A    between atoms: CG_6  and  CD1_7 
REMARK    6  A    between atoms: CG_6  and  CD2_8 
REMARK    7  A    between atoms: N_9  and  CA_10 
REMARK    8  A    between atoms: CA_10  and  C_11 
REMARK    9  A    between atoms: CA_10  and  CB_13 
REMARK       I    between atoms: C_11  and  N_15 
REMARK   10  A    between atoms: CB_13  and  OG_14 
REMARK   11  A    between atoms: N_15  and  CA_16 
REMARK   12  A    between atoms: CA_16  and  C_17 
REMARK   13  A    between atoms: CA_16  and  CB_19 
REMARK       I    between atoms: C_17  and  N_22 
REMARK   14  A    between atoms: CB_19  and  OG1_20 
REMARK   15  A    between atoms: CB_19  and  CG2_21 
REMARK   16  A    between atoms: N_22  and  CA_23 
REMARK   17  A    between atoms: CA_23  and  C_24 
REMARK   18  A    between atoms: CA_23  and  CB_26 
REMARK       I    between atoms: C_24  and  N_31 
REMARK   19  A    between atoms: CB_26  and  CG_27 
REMARK   20  A    between atoms: CG_27  and  CD_28 
REMARK   21  A    between atoms: N_31  and  CA_32 
REMARK   22  A    between atoms: CA_32  and  C_33 
REMARK   23  A    between atoms: CA_32  and  CB_35 
REMARK       I    between atoms: C_33  and  N_39 
REMARK   24  A    between atoms: CB_35  and  CG_36 
REMARK   25  A    between atoms: CG_36  and  CD1_37 
REMARK   26  A    between atoms: CG_36  and  CD2_38 
REMARK   27  A    between atoms: N_39  and  CA_40 
REMARK   28  A    between atoms: CA_40  and  C_41 
REMARK   29  A    between atoms: CA_40  and  CB_43 
REMARK       I    between atoms: C_41  and  N_45 
REMARK   30  A    between atoms: CB_43  and  OG_44 
REMARK   31  A    between atoms: N_45  and  CA_46 
REMARK   32  A    between atoms: CA_46  and  CB_47 
REMARK   33  A    between atoms: CA_46  and  C_54 
REMARK   34  A    between atoms: CB_47  and  CG2_48 
REMARK   35  A    between atoms: CB_47  and  OG1_49 
REMARK   36  A    between atoms: OG1_49  and  P_50 
REMARK       I    between atoms: C_54  and  N_56 
REMARK   37  A    between atoms: N_56  and  CA_57 
REMARK   38  A    between atoms: CA_57  and  C_58 
REMARK   39  A    between atoms: CA_57  and  CB_60 
REMARK       I    between atoms: C_58  and  N_65 
REMARK   40  A    between atoms: CB_60  and  CG_61 
REMARK   41  A    between atoms: CG_61  and  CD_62 
REMARK   42  A    between atoms: CA_66  and  C_67 
REMARK       I    between atoms: C_67  and  N_72 
REMARK   43  A    between atoms: CA_73  and  C_74 
ROOT
ATOM      1  CA  LEU d   1      -8.079   1.665   2.139  0.00  0.00     0.089 C 
ATOM      2  H33 LEU d   1      -9.146   1.421   2.244  0.00  0.00     0.087 H 
ENDROOT
BRANCH   1   3
ATOM      3  N   LEU d   1      -7.985   2.964   1.468  0.00  0.00    -0.346 N 
ATOM      4  C   LEU d   1      -8.803   3.986   1.773  0.00  0.00     0.241 C 
ATOM      5  O   LEU d   1      -9.667   3.913   2.655  0.00  0.00    -0.271 OA
ATOM      6  H32 LEU d   1      -7.290   3.094   0.761  0.00  0.00     0.163 HD
BRANCH   4   7
ATOM      7  CA  LEU d   1      -8.645   5.309   0.996  0.00  0.00     0.090 C 
ATOM      8  H27 LEU d   1      -9.027   6.099   1.659  0.00  0.00     0.087 H 
BRANCH   7   9
ATOM      9  N   LEU d   1      -7.257   5.668   0.704  0.00  0.00    -0.346 N 
ATOM     10  C   LEU d   1      -6.403   6.053   1.677  0.00  0.00     0.243 C 
ATOM     11  O   LEU d   1      -6.710   6.062   2.876  0.00  0.00    -0.271 OA
ATOM     12  H26 LEU d   1      -6.932   5.627  -0.241  0.00  0.00     0.163 HD
BRANCH  10  13
ATOM     13  CA  LEU d   1      -4.976   6.477   1.260  0.00  0.00     0.113 C 
ATOM     14  H20 LEU d   1      -4.284   5.804   1.788  0.00  0.00     0.091 H 
BRANCH  13  15
ATOM     15  N   LEU d   1      -4.728   6.312  -0.173  0.00  0.00    -0.344 N 
ATOM     16  C   LEU d   1      -4.261   5.190  -0.734  0.00  0.00     0.243 C 
ATOM     17  O   LEU d   1      -4.017   4.160  -0.102  0.00  0.00    -0.271 OA
ATOM     18  H19 LEU d   1      -4.920   7.089  -0.773  0.00  0.00     0.163 HD
BRANCH  16  19
ATOM     19  CA  LEU d   1      -4.034   5.237  -2.239  0.00  0.00     0.109 C 
ATOM     20  H15 LEU d   1      -3.814   6.282  -2.503  0.00  0.00     0.090 H 
BRANCH  19  21
ATOM     21  N   LEU d   1      -2.879   4.435  -2.657  0.00  0.00    -0.344 N 
ATOM     22  C   LEU d   1      -1.595   4.620  -2.230  0.00  0.00     0.249 C 
ATOM     23  O   LEU d   1      -1.264   5.495  -1.424  0.00  0.00    -0.271 OA
ATOM     24  H14 LEU d   1      -3.045   3.693  -3.307  0.00  0.00     0.163 HD
BRANCH  22  25
ATOM     25  CA  LEU d   1      -0.523   3.663  -2.801  0.00  0.00     0.176 C 
ATOM     26  H4  LEU d   1      -0.914   3.264  -3.749  0.00  0.00     0.099 H 
BRANCH  25  27
ATOM     27  N   LEU d   1       0.732   4.355  -3.094  0.00  0.00    -0.066 N 
ATOM     28  H1  LEU d   1       1.400   3.697  -3.463  0.00  0.00     0.275 HD
ATOM     29  H2  LEU d   1       1.095   4.764  -2.248  0.00  0.00     0.275 HD
ATOM     30  H3  LEU d   1       0.565   5.081  -3.773  0.00  0.00     0.275 HD
ENDBRANCH  25  27
BRANCH  25  31
ATOM     31  CB  LEU d   1      -0.255   2.464  -1.863  0.00  0.00    -0.028 C 
ATOM     32  H5  LEU d   1       0.443   2.812  -1.087  0.00  0.00     0.037 H 
ATOM     33  H6  LEU d   1       0.229   1.683  -2.468  0.00  0.00     0.037 H 
BRANCH  31  34
ATOM     34  CG  LEU d   1      -1.441   1.803  -1.140  0.00  0.00    -0.059 C 
ATOM     35  H7  LEU d   1      -2.157   2.598  -0.884  0.00  0.00     0.038 H 
BRANCH  34  36
ATOM     36  CD1 LEU d   1      -2.175   0.802  -2.034  0.00  0.00    -0.073 C 
ATOM     37  H8  LEU d   1      -3.012   0.357  -1.476  0.00  0.00     0.028 H 
ATOM     38  H9  LEU d   1      -1.479   0.009  -2.345  0.00  0.00     0.028 H 
ATOM     39  H10 LEU d   1      -2.562   1.320  -2.924  0.00  0.00     0.028 H 
ENDBRANCH  34  36
BRANCH  34  40
ATOM     40  CD2 LEU d   1      -0.985   1.172   0.144  0.00  0.00    -0.073 C 
ATOM     41  H11 LEU d   1      -0.464   1.922   0.756  0.00  0.00     0.028 H 
ATOM     42  H12 LEU d   1      -0.300   0.341  -0.079  0.00  0.00     0.028 H 
ATOM     43  H13 LEU d   1      -1.857   0.791   0.695  0.00  0.00     0.028 H 
ENDBRANCH  34  40
ENDBRANCH  31  34
ENDBRANCH  25  31
ENDBRANCH  22  25
ENDBRANCH  19  21
BRANCH  19  44
ATOM     44  CB  LEU d   1      -5.302   4.831  -2.992  0.00  0.00     0.044 C 
ATOM     45  H16 LEU d   1      -5.026   4.566  -4.023  0.00  0.00     0.077 H 
ATOM     46  H17 LEU d   1      -5.989   5.690  -3.006  0.00  0.00     0.077 H 
BRANCH  44  47
ATOM     47  OG  LEU d   1      -5.974   3.726  -2.409  0.00  0.00    -0.398 OA
ATOM     48  H18 LEU d   1      -6.749   3.523  -2.919  0.00  0.00     0.209 HD
ENDBRANCH  44  47
ENDBRANCH  19  44
ENDBRANCH  16  19
ENDBRANCH  13  15
BRANCH  13  49
ATOM     49  CB  LEU d   1      -4.622   7.923   1.690  0.00  0.00     0.060 C 
ATOM     50  H21 LEU d   1      -3.606   8.139   1.329  0.00  0.00     0.086 H 
BRANCH  49  51
ATOM     51  OG1 LEU d   1      -4.613   8.002   3.119  0.00  0.00    -0.393 OA
ATOM     52  H22 LEU d   1      -5.472   7.771   3.453  0.00  0.00     0.210 HD
ENDBRANCH  49  51
BRANCH  49  53
ATOM     53  CG2 LEU d   1      -5.560   8.986   1.083  0.00  0.00    -0.050 C 
ATOM     54  H23 LEU d   1      -5.254   9.985   1.427  0.00  0.00     0.031 H 
ATOM     55  H24 LEU d   1      -6.594   8.789   1.403  0.00  0.00     0.031 H 
ATOM     56  H25 LEU d   1      -5.502   8.943  -0.015  0.00  0.00     0.031 H 
ENDBRANCH  49  53
ENDBRANCH  13  49
ENDBRANCH  10  13
ENDBRANCH   7   9
BRANCH   7  57
ATOM     57  CB  LEU d   1      -9.539   5.331  -0.271  0.00  0.00    -0.029 C 
ATOM     58  H28 LEU d   1      -9.419   6.316  -0.745  0.00  0.00     0.037 H 
ATOM     59  H29 LEU d   1     -10.582   5.205   0.056  0.00  0.00     0.037 H 
BRANCH  57  60
ATOM     60  CG  LEU d   1      -9.258   4.272  -1.332  0.00  0.00     0.018 C 
ATOM     61  H30 LEU d   1      -9.429   3.280  -0.887  0.00  0.00     0.049 H 
ATOM     62  H31 LEU d   1      -8.206   4.359  -1.641  0.00  0.00     0.049 H 
BRANCH  60  63
ATOM     63  CD  LEU d   1     -10.134   4.402  -2.568  0.00  0.00     0.172 C 
ATOM     64  OE1 LEU d   1     -10.245   5.535  -3.088  0.00  0.00    -0.648 OA
ATOM     65  OE2 LEU d   1     -10.701   3.382  -3.026  0.00  0.00    -0.648 OA
ENDBRANCH  60  63
ENDBRANCH  57  60
ENDBRANCH   7  57
ENDBRANCH   4   7
ENDBRANCH   1   3
BRANCH   1  66
ATOM     66  C   LEU d   1      -7.488   1.729   3.554  0.00  0.00     0.241 C 
ATOM     67  O   LEU d   1      -6.353   2.145   3.745  0.00  0.00    -0.271 OA
ATOM     68  N   LEU d   1      -8.295   1.387   4.549  0.00  0.00    -0.344 N 
ATOM     69  H43 LEU d   1      -9.219   1.075   4.325  0.00  0.00     0.163 HD
BRANCH  68  70
ATOM     70  CA  LEU d   1      -7.905   1.442   5.952  0.00  0.00     0.109 C 
ATOM     71  H44 LEU d   1      -7.250   2.315   6.089  0.00  0.00     0.090 H 
BRANCH  70  72
ATOM     72  C   LEU d   1      -7.123   0.199   6.366  0.00  0.00     0.243 C 
ATOM     73  O   LEU d   1      -7.415  -0.901   5.903  0.00  0.00    -0.271 OA
ATOM     74  N   LEU d   1      -6.137   0.384   7.254  0.00  0.00    -0.344 N 
ATOM     75  H48 LEU d   1      -5.954   1.321   7.553  0.00  0.00     0.163 HD
BRANCH  74  76
ATOM     76  CA  LEU d   1      -5.305  -0.685   7.822  0.00  0.00     0.114 C 
ATOM     77  H49 LEU d   1      -4.893  -1.306   7.013  0.00  0.00     0.091 H 
BRANCH  76  78
ATOM     78  CB  LEU d   1      -4.139  -0.046   8.641  0.00  0.00     0.076 C 
ATOM     79  H50 LEU d   1      -4.572   0.479   9.505  0.00  0.00     0.087 H 
BRANCH  78  80
ATOM     80  CG2 LEU d   1      -3.097  -1.086   9.160  0.00  0.00    -0.049 C 
ATOM     81  H51 LEU d   1      -2.310  -0.566   9.725  0.00  0.00     0.031 H 
ATOM     82  H52 LEU d   1      -2.648  -1.613   8.305  0.00  0.00     0.031 H 
ATOM     83  H53 LEU d   1      -3.599  -1.812   9.816  0.00  0.00     0.031 H 
ENDBRANCH  78  80
BRANCH  78  84
ATOM     84  OG1 LEU d   1      -3.422   0.909   7.798  0.00  0.00    -0.275 OA
BRANCH  84  85
ATOM     85  P   LEU d   1      -3.505   2.433   8.138  0.00  0.00     0.422 P 
ATOM     86  O1P LEU d   1      -2.375   3.077   7.339  0.00  0.00    -0.617 OA
ATOM     87  O2P LEU d   1      -4.853   2.958   7.738  0.00  0.00    -0.617 OA
ATOM     88  O3P LEU d   1      -3.392   2.732   9.586  0.00  0.00    -0.617 OA
ENDBRANCH  84  85
ENDBRANCH  78  84
ENDBRANCH  76  78
BRANCH  76  89
ATOM     89  C   LEU d   1      -6.166  -1.547   8.747  0.00  0.00     0.243 C 
ATOM     90  O   LEU d   1      -5.951  -2.754   8.851  0.00  0.00    -0.271 OA
ATOM     91  N   LEU d   1      -7.140  -0.913   9.415  0.00  0.00    -0.346 N 
ATOM     92  H54 LEU d   1      -7.241   0.073   9.281  0.00  0.00     0.163 HD
BRANCH  91  93
ATOM     93  CA  LEU d   1      -8.061  -1.582  10.327  0.00  0.00     0.090 C 
ATOM     94  H55 LEU d   1      -7.561  -2.485  10.709  0.00  0.00     0.087 H 
BRANCH  93  95
ATOM     95  C   LEU d   1      -9.315  -2.022   9.582  0.00  0.00     0.243 C 
ATOM     96  O   LEU d   1      -9.832  -1.235   8.788  0.00  0.00    -0.271 OA
ATOM     97  N   LEU d   1      -9.804  -3.273   9.794  0.00  0.00    -0.337 N 
ATOM     98  CA  LEU d   1     -11.014  -3.735   9.078  0.00  0.00     0.092 C 
ATOM     99  CD  LEU d   1      -9.278  -4.324  10.688  0.00  0.00    -0.001 C 
ATOM    100  CB  LEU d   1     -11.117  -5.212   9.471  0.00  0.00    -0.036 C 
ATOM    101  H60 LEU d   1     -10.852  -3.645   7.994  0.00  0.00     0.087 H 
ATOM    102  CG  LEU d   1     -10.399  -5.315  10.755  0.00  0.00    -0.048 C 
ATOM    103  H61 LEU d   1     -10.642  -5.849   8.710  0.00  0.00     0.036 H 
ATOM    104  H62 LEU d   1     -12.170  -5.508   9.592  0.00  0.00     0.036 H 
ATOM    105  H63 LEU d   1     -10.001  -6.332  10.889  0.00  0.00     0.035 H 
ATOM    106  H64 LEU d   1     -11.073  -5.072  11.589  0.00  0.00     0.035 H 
ATOM    107  H65 LEU d   1      -9.053  -3.917  11.685  0.00  0.00     0.064 H 
ATOM    108  H66 LEU d   1      -8.372  -4.783  10.266  0.00  0.00     0.064 H 
BRANCH  98 109
ATOM    109  C   LEU d   1     -12.294  -2.967   9.425  0.00  0.00     0.243 C 
ATOM    110  O   LEU d   1     -12.330  -2.316  10.473  0.00  0.00    -0.271 OA
ATOM    111  N   LEU d   1     -13.354  -3.014   8.573  0.00  0.00    -0.336 N 
ATOM    112  CA  LEU d   1     -14.597  -2.283   8.903  0.00  0.00     0.098 C 
ATOM    113  CD  LEU d   1     -13.498  -3.753   7.303  0.00  0.00    -0.001 C 
ATOM    114  CB  LEU d   1     -15.477  -2.480   7.659  0.00  0.00    -0.035 C 
ATOM    115  H67 LEU d   1     -14.371  -1.216   9.041  0.00  0.00     0.089 H 
ATOM    116  CG  LEU d   1     -14.587  -3.020   6.603  0.00  0.00    -0.048 C 
ATOM    117  H68 LEU d   1     -15.907  -1.519   7.340  0.00  0.00     0.036 H 
ATOM    118  H69 LEU d   1     -16.288  -3.191   7.875  0.00  0.00     0.036 H 
ATOM    119  H70 LEU d   1     -14.168  -2.199   6.003  0.00  0.00     0.035 H 
ATOM    120  H71 LEU d   1     -15.146  -3.705   5.948  0.00  0.00     0.035 H 
ATOM    121  H72 LEU d   1     -13.782  -4.800   7.486  0.00  0.00     0.064 H 
ATOM    122  H73 LEU d   1     -12.565  -3.722   6.721  0.00  0.00     0.064 H 
BRANCH 112 123
ATOM    123  C   LEU d   1     -15.298  -2.786  10.163  0.00  0.00     0.196 C 
ATOM    124  O   LEU d   1     -15.135  -3.942  10.540  0.00  0.00    -0.646 OA
ATOM    125  OXT LEU d   1     -16.027  -2.036  10.804  0.00  0.00    -0.646 OA
ENDBRANCH 112 123
ENDBRANCH  98 109
ENDBRANCH  93  95
BRANCH  93 126
ATOM    126  CB  LEU d   1      -8.407  -0.689  11.544  0.00  0.00    -0.029 C 
ATOM    127  H56 LEU d   1      -9.038  -1.276  12.228  0.00  0.00     0.037 H 
ATOM    128  H57 LEU d   1      -8.973   0.181  11.178  0.00  0.00     0.037 H 
BRANCH 126 129
ATOM    129  CG  LEU d   1      -7.208  -0.173  12.335  0.00  0.00     0.018 C 
ATOM    130  H58 LEU d   1      -7.599   0.339  13.227  0.00  0.00     0.049 H 
ATOM    131  H59 LEU d   1      -6.682   0.552  11.697  0.00  0.00     0.049 H 
BRANCH 129 132
ATOM    132  CD  LEU d   1      -6.179  -1.189  12.810  0.00  0.00     0.172 C 
ATOM    133  OE1 LEU d   1      -6.594  -2.240  13.357  0.00  0.00    -0.648 OA
ATOM    134  OE2 LEU d   1      -4.959  -0.918  12.663  0.00  0.00    -0.648 OA
ENDBRANCH 129 132
ENDBRANCH 126 129
ENDBRANCH  93 126
ENDBRANCH  91  93
ENDBRANCH  76  89
ENDBRANCH  74  76
ENDBRANCH  70  72
BRANCH  70 135
ATOM    135  CB  LEU d   1      -9.138   1.626   6.840  0.00  0.00     0.044 C 
ATOM    136  H45 LEU d   1      -9.797   0.754   6.714  0.00  0.00     0.077 H 
ATOM    137  H46 LEU d   1      -9.669   2.535   6.522  0.00  0.00     0.077 H 
BRANCH 135 138
ATOM    138  OG  LEU d   1      -8.804   1.750   8.213  0.00  0.00    -0.398 OA
ATOM    139  H47 LEU d   1      -9.598   1.862   8.722  0.00  0.00     0.209 HD
ENDBRANCH 135 138
ENDBRANCH  70 135
ENDBRANCH  68  70
ENDBRANCH   1  66
BRANCH   1 140
ATOM    140  CB  LEU d   1      -7.441   0.563   1.275  0.00  0.00    -0.035 C 
ATOM    141  H34 LEU d   1      -6.384   0.490   1.570  0.00  0.00     0.037 H 
ATOM    142  H35 LEU d   1      -7.507   0.892   0.228  0.00  0.00     0.037 H 
BRANCH 140 143
ATOM    143  CG  LEU d   1      -8.028  -0.848   1.343  0.00  0.00    -0.059 C 
ATOM    144  H36 LEU d   1      -7.911  -1.224   2.370  0.00  0.00     0.038 H 
BRANCH 143 145
ATOM    145  CD1 LEU d   1      -9.509  -0.872   0.971  0.00  0.00    -0.073 C 
ATOM    146  H37 LEU d   1      -9.886  -1.903   1.034  0.00  0.00     0.028 H 
ATOM    147  H38 LEU d   1      -9.635  -0.497  -0.056  0.00  0.00     0.028 H 
ATOM    148  H39 LEU d   1     -10.072  -0.233   1.667  0.00  0.00     0.028 H 
ENDBRANCH 143 145
BRANCH 143 149
ATOM    149  CD2 LEU d   1      -7.299  -1.769   0.385  0.00  0.00    -0.073 C 
ATOM    150  H40 LEU d   1      -6.226  -1.774   0.627  0.00  0.00     0.028 H 
ATOM    151  H41 LEU d   1      -7.441  -1.413  -0.646  0.00  0.00     0.028 H 
ATOM    152  H42 LEU d   1      -7.701  -2.788   0.479  0.00  0.00     0.028 H 
ENDBRANCH 143 149
ENDBRANCH 140 143
ENDBRANCH   1 140
TORSDOF 43
