REMARK  3 active torsions:
REMARK  status: ('A' for Active; 'I' for Inactive)
REMARK    1  A    between atoms: N10_15  and  C11_1 
REMARK    2  A    between atoms: C08_7  and  C07_8 
REMARK       I    between atoms: C08_7  and  N10_15 
REMARK    3  A    between atoms: C02_13  and  SE1_14 
ROOT
ATOM      1  C07 9JT d   1      23.033 -86.777  57.585  0.00  0.00     0.043 A 
ATOM      2  C06 9JT d   1      24.096 -87.401  58.218  0.00  0.00    -0.067 A 
ATOM      3  C05 9JT d   1      24.027 -88.739  58.552  0.00  0.00    -0.082 A 
ATOM      4  C04 9JT d   1      22.890 -89.465  58.251  0.00  0.00    -0.082 A 
ATOM      5  C03 9JT d   1      21.826 -88.849  57.618  0.00  0.00    -0.071 A 
ATOM      6  C02 9JT d   1      21.886 -87.505  57.276  0.00  0.00    -0.009 A 
ATOM      7  H5  9JT d   1      24.989 -86.834  58.453  0.00  0.00     0.085 H 
ATOM      8  H6  9JT d   1      24.862 -89.219  59.049  0.00  0.00     0.083 H 
ATOM      9  H7  9JT d   1      22.832 -90.516  58.511  0.00  0.00     0.083 H 
ATOM     10  H8  9JT d   1      20.935 -89.422  57.386  0.00  0.00     0.084 H 
ENDROOT
BRANCH   1  11
ATOM     11  C08 9JT d   1      23.192 -85.298  57.247  0.00  0.00     0.257 C 
ATOM     12  O09 9JT d   1      22.580 -84.827  56.351  0.00  0.00    -0.267 OA
ATOM     13  N10 9JT d   1      24.127 -84.515  58.050  0.00  0.00    -0.323 N 
ATOM     14  H14 9JT d   1      24.607 -84.977  58.796  0.00  0.00     0.169 HD
BRANCH  13  15
ATOM     15  C11 9JT d   1      24.403 -83.100  57.830  0.00  0.00     0.035 A 
ATOM     16  C12 9JT d   1      25.511 -82.536  58.448  0.00  0.00    -0.057 A 
ATOM     17  C13 9JT d   1      25.816 -81.199  58.257  0.00  0.00    -0.081 A 
ATOM     18  H1  9JT d   1      26.142 -83.147  59.084  0.00  0.00     0.086 H 
ATOM     19  C14 9JT d   1      25.014 -80.415  57.445  0.00  0.00    -0.083 A 
ATOM     20  H2  9JT d   1      26.683 -80.766  58.743  0.00  0.00     0.083 H 
ATOM     21  C15 9JT d   1      23.909 -80.971  56.828  0.00  0.00    -0.081 A 
ATOM     22  H3  9JT d   1      25.252 -79.368  57.294  0.00  0.00     0.083 H 
ATOM     23  C16 9JT d   1      23.605 -82.310  57.016  0.00  0.00    -0.057 A 
ATOM     24  H4  9JT d   1      23.278 -80.358  56.195  0.00  0.00     0.083 H 
ATOM     25  H15 9JT d   1      22.740 -82.742  56.525  0.00  0.00     0.086 H 
ENDBRANCH  13  15
ENDBRANCH   1  11
BRANCH   6  26
ATOM     26 SE1  9JT d   1      20.332 -86.727  56.370  0.00  0.00     0.000 Se
ATOM     27  H9  9JT d   1      21.267 -84.944  56.297  0.00  0.00     0.000 HD
ATOM     28  H10 9JT d   1      21.128 -87.217  54.585  0.00  0.00     0.000 HD
ATOM     29  H11 9JT d   1      19.397 -88.510  56.443  0.00  0.00     0.000 HD
ATOM     30  H12 9JT d   1      18.734 -85.927  55.438  0.00  0.00     0.000 HD
ATOM     31  H13 9JT d   1      19.536 -86.237  58.155  0.00  0.00     0.000 HD
ENDBRANCH   6  26
TORSDOF 3
