REMARK  2 active torsions:
REMARK  status: ('A' for Active; 'I' for Inactive)
REMARK    1  A    between atoms: N1_1  and  C1_9 
REMARK    2  A    between atoms: C4_13  and  C5_16 
ROOT
ATOM      1  C1  UVC d   1      30.899  13.890   8.308  0.00  0.00     0.242 C 
ATOM      2  C2  UVC d   1      31.041  15.368   7.854  0.00  0.00     0.234 C 
ATOM      3  O2  UVC d   1      29.722  15.834   7.639  0.00  0.00    -0.216 OA
ATOM      4  C3  UVC d   1      31.862  15.373   6.590  0.00  0.00     0.216 C 
ATOM      5  C4  UVC d   1      31.472  13.945   6.112  0.00  0.00     0.183 C 
ATOM      6  O3  UVC d   1      31.488  16.498   5.719  0.00  0.00    -0.218 OA
ATOM      7  O4  UVC d   1      31.432  13.033   7.258  0.00  0.00    -0.331 OA
ATOM      8  O1V UVC d   1      28.228  17.098   5.741  0.00  0.00     0.000 OA
ATOM      9  O2V UVC d   1      30.159  18.258   4.797  0.00  0.00     0.000 OA
ATOM     10  O3V UVC d   1      29.927  18.625   7.388  0.00  0.00     0.000 OA
ATOM     11  V   UVC d   1      29.854  17.210   6.366  0.00  0.00     0.000 V 
ENDROOT
BRANCH   1  12
ATOM     12  N1  UVC d   1      31.969  13.661   9.352  0.00  0.00    -0.254 N 
ATOM     13  C2  UVC d   1      31.656  13.999  10.612  0.00  0.00     0.354 A 
ATOM     14  N3  UVC d   1      32.670  13.732  11.468  0.00  0.00    -0.153 NA
ATOM     15  O2  UVC d   1      30.578  14.391  10.997  0.00  0.00    -0.244 OA
ATOM     16  C4  UVC d   1      33.945  13.283  11.176  0.00  0.00     0.285 A 
ATOM     17  C5  UVC d   1      34.175  13.003   9.795  0.00  0.00     0.082 A 
ATOM     18  O4  UVC d   1      34.772  13.201  12.075  0.00  0.00    -0.265 OA
ATOM     19  C6  UVC d   1      33.174  13.182   8.937  0.00  0.00     0.087 A 
ENDBRANCH   1  12
BRANCH   5  20
ATOM     20  C5  UVC d   1      32.332  13.231   5.108  0.00  0.00     0.214 C 
ATOM     21  O5  UVC d   1      33.514  12.846   5.813  0.00  0.00    -0.218 OA
ENDBRANCH   5  20
TORSDOF 2
