REMARK  9 active torsions:
REMARK  status: ('A' for Active; 'I' for Inactive)
REMARK    1  A    between atoms: B07_1  and  O08_24 
REMARK    2  A    between atoms: C11_3  and  C12_4 
REMARK    3  A    between atoms: N21_21  and  C20_10 
REMARK    4  A    between atoms: C23_12  and  C22_11 
REMARK       I    between atoms: C22_11  and  N21_21 
REMARK    5  A    between atoms: C24_13  and  C23_12 
REMARK    6  A    between atoms: N28_22  and  C27_16 
REMARK    7  A    between atoms: C29_17  and  C30_18 
REMARK    8  A    between atoms: C29_17  and  N28_22 
REMARK    9  A    between atoms: C30_18  and  N31_23 
ROOT
ATOM      1  C24 KJK d   1      23.588 -18.724  -1.222  0.00  0.00    -0.046 C 
ATOM      2  C25 KJK d   1      24.197 -17.349  -0.831  0.00  0.00    -0.059 C 
ATOM      3  C26 KJK d   1      25.681 -17.476  -0.474  0.00  0.00    -0.038 C 
ATOM      4  C27 KJK d   1      26.500 -18.118  -1.605  0.00  0.00     0.102 C 
ATOM      5  C32 KJK d   1      25.876 -19.423  -2.172  0.00  0.00    -0.038 C 
ATOM      6  C33 KJK d   1      24.345 -19.378  -2.378  0.00  0.00    -0.059 C 
ATOM      7  H10 KJK d   1      23.638 -19.392  -0.350  0.00  0.00     0.040 H 
ATOM      8  H11 KJK d   1      23.653 -16.951   0.038  0.00  0.00     0.033 H 
ATOM      9  H12 KJK d   1      24.091 -16.657  -1.679  0.00  0.00     0.033 H 
ATOM     10  H13 KJK d   1      25.776 -18.098   0.428  0.00  0.00     0.036 H 
ATOM     11  H14 KJK d   1      26.083 -16.472  -0.272  0.00  0.00     0.036 H 
ATOM     12  H15 KJK d   1      26.591 -17.389  -2.423  0.00  0.00     0.084 H 
ATOM     13  H20 KJK d   1      26.102 -20.241  -1.473  0.00  0.00     0.036 H 
ATOM     14  H21 KJK d   1      26.345 -19.631  -3.145  0.00  0.00     0.036 H 
ATOM     15  H22 KJK d   1      24.135 -18.810  -3.296  0.00  0.00     0.033 H 
ATOM     16  H23 KJK d   1      23.980 -20.409  -2.493  0.00  0.00     0.033 H 
ENDROOT
BRANCH   1  17
ATOM     17  C23 KJK d   1      22.124 -18.521  -1.615  0.00  0.00     0.013 C 
ATOM     18  H8  KJK d   1      22.066 -17.748  -2.395  0.00  0.00     0.047 H 
ATOM     19  H9  KJK d   1      21.723 -19.468  -2.006  0.00  0.00     0.047 H 
BRANCH  17  20
ATOM     20  C22 KJK d   1      21.271 -18.075  -0.394  0.00  0.00     0.217 C 
ATOM     21  N21 KJK d   1      20.872 -16.648  -0.242  0.00  0.00    -0.363 N 
ATOM     22  H24 KJK d   1      21.145 -15.982  -0.936  0.00  0.00     0.161 HD
ATOM     23  O34 KJK d   1      20.938 -18.878   0.423  0.00  0.00    -0.274 OA
BRANCH  21  24
ATOM     24  C20 KJK d   1      20.068 -16.199   0.935  0.00  0.00     0.015 C 
ATOM     25  B07 KJK d   1      19.558 -14.718   0.659  0.00  0.00     0.356 B 
ATOM     26  O09 KJK d   1      20.246 -13.719   1.276  0.00  0.00    -0.421 OA
ATOM     27  C10 KJK d   1      21.668 -13.959   1.572  0.00  0.00     0.073 A 
ATOM     28  C11 KJK d   1      22.578 -12.931   1.445  0.00  0.00     0.072 A 
ATOM     29  C18 KJK d   1      22.091 -15.238   2.013  0.00  0.00    -0.024 A 
ATOM     30  C15 KJK d   1      23.933 -13.166   1.733  0.00  0.00    -0.064 A 
ATOM     31  C16 KJK d   1      24.354 -14.444   2.157  0.00  0.00    -0.081 A 
ATOM     32  H1  KJK d   1      24.655 -12.365   1.629  0.00  0.00     0.085 H 
ATOM     33  C17 KJK d   1      23.424 -15.483   2.295  0.00  0.00    -0.074 A 
ATOM     34  H2  KJK d   1      25.400 -14.623   2.377  0.00  0.00     0.083 H 
ATOM     35  H3  KJK d   1      23.744 -16.467   2.619  0.00  0.00     0.084 H 
ATOM     36  C19 KJK d   1      20.990 -16.338   2.126  0.00  0.00    -0.025 C 
ATOM     37  H4  KJK d   1      20.420 -16.202   3.057  0.00  0.00     0.042 H 
ATOM     38  H5  KJK d   1      21.456 -17.334   2.123  0.00  0.00     0.042 H 
ATOM     39  H7  KJK d   1      19.179 -16.835   1.060  0.00  0.00     0.059 H 
BRANCH  25  40
ATOM     40  O08 KJK d   1      19.605 -14.506  -0.696  0.00  0.00     0.000 OA
ATOM     41  H30 KJK d   1      20.510 -14.508  -0.985  0.00  0.00     0.000 HD
ATOM     42  H31 KJK d   1      20.510 -14.508  -0.985  0.00  0.00     0.000 HD
ENDBRANCH  25  40
BRANCH  28  43
ATOM     43  C12 KJK d   1      22.074 -11.558   0.981  0.00  0.00     0.212 C 
ATOM     44  O13 KJK d   1      22.104 -11.251  -0.243  0.00  0.00    -0.644 OA
ATOM     45  O14 KJK d   1      21.616 -10.733   1.803  0.00  0.00    -0.644 OA
ENDBRANCH  28  43
ENDBRANCH  21  24
ENDBRANCH  17  20
ENDBRANCH   1  17
BRANCH   4  46
ATOM     46  N28 KJK d   1      27.839 -18.454  -1.090  0.00  0.00    -0.069 N 
ATOM     47  H25 KJK d   1      28.319 -19.023  -1.770  0.00  0.00     0.277 HD
ATOM     48  H26 KJK d   1      27.739 -18.971  -0.230  0.00  0.00     0.277 HD
BRANCH  46  49
ATOM     49  C29 KJK d   1      28.656 -17.213  -0.825  0.00  0.00     0.104 C 
ATOM     50  H16 KJK d   1      28.862 -16.703  -1.778  0.00  0.00     0.078 H 
ATOM     51  H17 KJK d   1      28.091 -16.540  -0.164  0.00  0.00     0.078 H 
BRANCH  49  52
ATOM     52  C30 KJK d   1      29.972 -17.585  -0.158  0.00  0.00     0.102 C 
ATOM     53  H18 KJK d   1      30.805 -17.171  -0.746  0.00  0.00     0.077 H 
ATOM     54  H19 KJK d   1      30.060 -18.681  -0.118  0.00  0.00     0.077 H 
BRANCH  52  55
ATOM     55  N31 KJK d   1      30.031 -17.053   1.192  0.00  0.00    -0.078 N 
ATOM     56  H27 KJK d   1      30.909 -17.310   1.616  0.00  0.00     0.274 HD
ATOM     57  H28 KJK d   1      29.271 -17.432   1.736  0.00  0.00     0.274 HD
ATOM     58  H29 KJK d   1      29.954 -16.048   1.161  0.00  0.00     0.274 HD
ENDBRANCH  52  55
ENDBRANCH  49  52
ENDBRANCH  46  49
ENDBRANCH   4  46
TORSDOF 9
