REMARK  5 active torsions:
REMARK  status: ('A' for Active; 'I' for Inactive)
REMARK    1  A    between atoms: N1_19  and  C3_3 
REMARK       I    between atoms: C8_8  and  N1_19 
REMARK       I    between atoms: N2_20  and  C8_8 
REMARK    2  A    between atoms: C9_9  and  C10_10 
REMARK    3  A    between atoms: C9_9  and  N2_20 
REMARK    4  A    between atoms: B1_21  and  O3_17 
REMARK    5  A    between atoms: B1_21  and  O2_22 
ROOT
ATOM      1  C1  R29 d   1      -5.075   2.294  15.967  0.00  0.00    -0.061 A 
ATOM      2  C2  R29 d   1      -3.891   2.820  15.396  0.00  0.00    -0.059 A 
ATOM      3  C3  R29 d   1      -3.853   4.114  14.832  0.00  0.00     0.036 A 
ATOM      4  C4  R29 d   1      -5.006   4.897  14.829  0.00  0.00    -0.057 A 
ATOM      5  C5  R29 d   1      -6.169   4.411  15.385  0.00  0.00    -0.073 A 
ATOM      6  C6  R29 d   1      -6.197   3.139  15.948  0.00  0.00    -0.039 A 
ATOM      7  C7  R29 d   1      -7.330   2.440  16.607  0.00  0.00     0.024 C 
ATOM      8  O1  R29 d   1      -6.964   1.081  16.493  0.00  0.00    -0.448 OA
ATOM      9  B1  R29 d   1      -5.514   0.883  16.690  0.00  0.00     0.363 B 
ATOM     10  H2  R29 d   1      -2.992   2.215  15.392  0.00  0.00     0.086 H 
ATOM     11  H3  R29 d   1      -4.988   5.888  14.389  0.00  0.00     0.086 H 
ATOM     12  H4  R29 d   1      -7.065   5.021  15.384  0.00  0.00     0.084 H 
ATOM     13  H5  R29 d   1      -8.277   2.641  16.085  0.00  0.00     0.078 H 
ATOM     14  H6  R29 d   1      -7.421   2.739  17.662  0.00  0.00     0.078 H 
ENDROOT
BRANCH   3  15
ATOM     15  N1  R29 d   1      -2.672   4.672  14.272  0.00  0.00    -0.309 N 
ATOM     16  C8  R29 d   1      -2.563   5.852  13.563  0.00  0.00     0.320 C 
ATOM     17  O4  R29 d   1      -3.521   6.555  13.243  0.00  0.00    -0.247 OA
ATOM     18  N2  R29 d   1      -1.304   6.165  13.187  0.00  0.00    -0.339 N 
ATOM     19  H18 R29 d   1      -0.550   5.579  13.486  0.00  0.00     0.164 HD
ATOM     20  H17 R29 d   1      -1.827   4.153  14.406  0.00  0.00     0.170 HD
BRANCH  18  21
ATOM     21  C9  R29 d   1      -1.007   7.330  12.359  0.00  0.00     0.021 C 
ATOM     22  H7  R29 d   1       0.029   7.236  12.003  0.00  0.00     0.071 H 
ATOM     23  H8  R29 d   1      -1.693   7.317  11.499  0.00  0.00     0.071 H 
BRANCH  21  24
ATOM     24  C10 R29 d   1      -1.144   8.672  13.044  0.00  0.00    -0.040 A 
ATOM     25  C11 R29 d   1      -1.908   9.682  12.468  0.00  0.00    -0.075 A 
ATOM     26  C12 R29 d   1      -2.029  10.924  13.078  0.00  0.00    -0.082 A 
ATOM     27  H9  R29 d   1      -2.417   9.497  11.529  0.00  0.00     0.084 H 
ATOM     28  C13 R29 d   1      -1.386  11.173  14.276  0.00  0.00    -0.083 A 
ATOM     29  H10 R29 d   1      -2.628  11.699  12.614  0.00  0.00     0.083 H 
ATOM     30  C14 R29 d   1      -0.623  10.180  14.862  0.00  0.00    -0.082 A 
ATOM     31  H11 R29 d   1      -1.480  12.142  14.754  0.00  0.00     0.083 H 
ATOM     32  C15 R29 d   1      -0.502   8.939  14.250  0.00  0.00    -0.075 A 
ATOM     33  H12 R29 d   1      -0.118  10.371  15.802  0.00  0.00     0.083 H 
ATOM     34  H13 R29 d   1       0.100   8.168  14.718  0.00  0.00     0.084 H 
ENDBRANCH  21  24
ENDBRANCH  18  21
ENDBRANCH   3  15
BRANCH   9  35
ATOM     35  O3  R29 d   1      -5.294   0.785  18.140  0.00  0.00     0.000 OA
ATOM     36  H15 R29 d   1      -5.786   0.049  18.485  0.00  0.00     0.000 HD
ATOM     37  H16 R29 d   1      -5.786   0.049  18.485  0.00  0.00     0.000 HD
ENDBRANCH   9  35
BRANCH   9  38
ATOM     38  O2  R29 d   1      -5.149  -0.406  16.065  0.00  0.00     0.000 OA
ATOM     39  H19 R29 d   1      -5.357  -0.377  15.139  0.00  0.00     0.000 HD
ATOM     40  H20 R29 d   1      -5.357  -0.377  15.138  0.00  0.00     0.000 HD
ENDBRANCH   9  38
TORSDOF 5
