REMARK  5 active torsions:
REMARK  status: ('A' for Active; 'I' for Inactive)
REMARK    1  A    between atoms: N1_16  and  C3_3 
REMARK    2  A    between atoms: B1_19  and  O3_8 
REMARK    3  A    between atoms: N2_17  and  C9_14 
REMARK    4  A    between atoms: C8_18  and  N1_16 
REMARK    5  A    between atoms: B1_19  and  O2_21 
ROOT
ATOM      1  C5  KKE d   1      -6.773   3.593  16.256  0.00  0.00    -0.073 A 
ATOM      2  C4  KKE d   1      -6.122   4.585  15.546  0.00  0.00    -0.057 A 
ATOM      3  C3  KKE d   1      -4.981   4.282  14.816  0.00  0.00     0.034 A 
ATOM      4  C2  KKE d   1      -4.510   2.967  14.802  0.00  0.00    -0.059 A 
ATOM      5  C1  KKE d   1      -5.152   1.942  15.521  0.00  0.00    -0.061 A 
ATOM      6  C6  KKE d   1      -6.293   2.286  16.249  0.00  0.00    -0.039 A 
ATOM      7  C7  KKE d   1      -6.798   1.090  16.991  0.00  0.00     0.024 C 
ATOM      8  B1  KKE d   1      -4.800   0.383  15.796  0.00  0.00     0.363 B 
ATOM      9  O1  KKE d   1      -6.007  -0.010  16.566  0.00  0.00    -0.448 OA
ATOM     10  H1  KKE d   1      -7.665   3.835  16.823  0.00  0.00     0.084 H 
ATOM     11  H2  KKE d   1      -6.503   5.600  15.559  0.00  0.00     0.086 H 
ATOM     12  H3  KKE d   1      -3.626   2.730  14.221  0.00  0.00     0.086 H 
ATOM     13  H5  KKE d   1      -7.857   0.912  16.751  0.00  0.00     0.078 H 
ATOM     14  H6  KKE d   1      -6.688   1.241  18.075  0.00  0.00     0.078 H 
ENDROOT
BRANCH   3  15
ATOM     15  N1  KKE d   1      -4.298   5.330  14.149  0.00  0.00    -0.333 N 
ATOM     16  H14 KKE d   1      -3.384   5.548  14.492  0.00  0.00     0.168 HD
BRANCH  15  17
ATOM     17  C8  KKE d   1      -4.732   6.067  13.109  0.00  0.00     0.176 C 
ATOM     18  S1  KKE d   1      -6.264   5.892  12.454  0.00  0.00    -0.041 SA
ATOM     19  N2  KKE d   1      -3.881   7.024  12.697  0.00  0.00    -0.333 N 
ATOM     20  H15 KKE d   1      -4.186   7.551  11.903  0.00  0.00     0.168 HD
BRANCH  19  21
ATOM     21  C9  KKE d   1      -2.621   7.397  13.217  0.00  0.00     0.034 A 
ATOM     22  C10 KKE d   1      -1.530   7.568  12.374  0.00  0.00    -0.057 A 
ATOM     23  C11 KKE d   1      -0.353   8.105  12.870  0.00  0.00    -0.081 A 
ATOM     24  H10 KKE d   1      -1.599   7.282  11.331  0.00  0.00     0.086 H 
ATOM     25  C12 KKE d   1      -0.255   8.470  14.199  0.00  0.00    -0.083 A 
ATOM     26  H9  KKE d   1       0.497   8.240  12.211  0.00  0.00     0.083 H 
ATOM     27  C13 KKE d   1      -1.334   8.295  15.042  0.00  0.00    -0.081 A 
ATOM     28  H11 KKE d   1       0.668   8.893  14.579  0.00  0.00     0.083 H 
ATOM     29  C14 KKE d   1      -2.513   7.756  14.557  0.00  0.00    -0.057 A 
ATOM     30  H12 KKE d   1      -1.258   8.580  16.085  0.00  0.00     0.083 H 
ATOM     31  H13 KKE d   1      -3.356   7.613  15.224  0.00  0.00     0.086 H 
ENDBRANCH  19  21
ENDBRANCH  15  17
ENDBRANCH   3  15
BRANCH   8  32
ATOM     32  O3  KKE d   1      -3.607   0.198  16.629  0.00  0.00     0.000 OA
ATOM     33  H7  KKE d   1      -3.564  -0.705  16.922  0.00  0.00     0.000 HD
ATOM     34  H8  KKE d   1      -3.564  -0.705  16.922  0.00  0.00     0.000 HD
ENDBRANCH   8  32
BRANCH   8  35
ATOM     35  O2  KKE d   1      -4.733  -0.503  14.632  0.00  0.00     0.000 OA
ATOM     36  H17 KKE d   1      -5.508  -0.379  14.096  0.00  0.00     0.000 HD
ATOM     37  H18 KKE d   1      -5.508  -0.379  14.096  0.00  0.00     0.000 HD
ENDBRANCH   8  35
TORSDOF 5
