REMARK  6 active torsions:
REMARK  status: ('A' for Active; 'I' for Inactive)
REMARK    1  A    between atoms: N1_18  and  C3_7 
REMARK    2  A    between atoms: C8_12  and  N1_18 
REMARK    3  A    between atoms: C9_13  and  C10_14 
REMARK    4  A    between atoms: C9_13  and  N2_19 
REMARK    5  A    between atoms: B1_20  and  O3_16 
REMARK    6  A    between atoms: B1_20  and  O2_22 
ROOT
ATOM      1  C1  KL5 d   1      -5.079   1.983  15.424  0.00  0.00    -0.061 A 
ATOM      2  C2  KL5 d   1      -4.424   2.932  14.622  0.00  0.00    -0.059 A 
ATOM      3  C3  KL5 d   1      -4.870   4.249  14.519  0.00  0.00     0.034 A 
ATOM      4  C4  KL5 d   1      -6.003   4.643  15.229  0.00  0.00    -0.057 A 
ATOM      5  C5  KL5 d   1      -6.669   3.721  16.030  0.00  0.00    -0.073 A 
ATOM      6  C6  KL5 d   1      -6.212   2.411  16.126  0.00  0.00    -0.039 A 
ATOM      7  C7  KL5 d   1      -6.753   1.261  16.921  0.00  0.00     0.024 C 
ATOM      8  B1  KL5 d   1      -4.785   0.432  15.759  0.00  0.00     0.363 B 
ATOM      9  O1  KL5 d   1      -6.018   0.114  16.513  0.00  0.00    -0.448 OA
ATOM     10  H6  KL5 d   1      -3.544   2.631  14.066  0.00  0.00     0.086 H 
ATOM     11  H7  KL5 d   1      -6.363   5.663  15.157  0.00  0.00     0.086 H 
ATOM     12  H8  KL5 d   1      -7.550   4.026  16.583  0.00  0.00     0.084 H 
ATOM     13  H9  KL5 d   1      -7.824   1.122  16.710  0.00  0.00     0.078 H 
ATOM     14  H10 KL5 d   1      -6.611   1.441  17.997  0.00  0.00     0.078 H 
ENDROOT
BRANCH   3  15
ATOM     15  N1  KL5 d   1      -4.143   5.168  13.722  0.00  0.00    -0.333 N 
ATOM     16  H16 KL5 d   1      -3.151   5.123  13.844  0.00  0.00     0.168 HD
BRANCH  15  17
ATOM     17  C8  KL5 d   1      -4.550   6.091  12.830  0.00  0.00     0.172 C 
ATOM     18  S1  KL5 d   1      -6.153   6.398  12.440  0.00  0.00    -0.041 SA
ATOM     19  N2  KL5 d   1      -3.539   6.766  12.278  0.00  0.00    -0.363 N 
ATOM     20  H17 KL5 d   1      -3.771   7.488  11.626  0.00  0.00     0.162 HD
BRANCH  19  21
ATOM     21  C9  KL5 d   1      -2.122   6.537  12.547  0.00  0.00     0.018 C 
ATOM     22  H11 KL5 d   1      -2.016   5.560  13.042  0.00  0.00     0.071 H 
ATOM     23  H12 KL5 d   1      -1.584   6.523  11.588  0.00  0.00     0.071 H 
BRANCH  21  24
ATOM     24  C10 KL5 d   1      -1.495   7.590  13.430  0.00  0.00    -0.041 A 
ATOM     25  C15 KL5 d   1      -0.452   8.382  12.962  0.00  0.00    -0.075 A 
ATOM     26  C14 KL5 d   1       0.125   9.351  13.773  0.00  0.00    -0.082 A 
ATOM     27  H4  KL5 d   1      -0.085   8.241  11.952  0.00  0.00     0.084 H 
ATOM     28  C13 KL5 d   1      -0.334   9.539  15.064  0.00  0.00    -0.083 A 
ATOM     29  H1  KL5 d   1       0.937   9.961  13.393  0.00  0.00     0.083 H 
ATOM     30  C12 KL5 d   1      -1.368   8.757  15.543  0.00  0.00    -0.082 A 
ATOM     31  H2  KL5 d   1       0.115  10.296  15.697  0.00  0.00     0.083 H 
ATOM     32  C11 KL5 d   1      -1.945   7.790  14.731  0.00  0.00    -0.075 A 
ATOM     33  H3  KL5 d   1      -1.729   8.899  16.555  0.00  0.00     0.083 H 
ATOM     34  H13 KL5 d   1      -2.757   7.183  15.116  0.00  0.00     0.084 H 
ENDBRANCH  21  24
ENDBRANCH  19  21
ENDBRANCH  15  17
ENDBRANCH   3  15
BRANCH   8  35
ATOM     35  O3  KL5 d   1      -3.606   0.244  16.621  0.00  0.00     0.000 OA
ATOM     36  H14 KL5 d   1      -3.582  -0.653  16.931  0.00  0.00     0.000 HD
ATOM     37  H15 KL5 d   1      -3.582  -0.653  16.931  0.00  0.00     0.000 HD
ENDBRANCH   8  35
BRANCH   8  38
ATOM     38  O2  KL5 d   1      -4.711  -0.475  14.614  0.00  0.00     0.000 OA
ATOM     39  H19 KL5 d   1      -5.474  -0.349  14.062  0.00  0.00     0.000 HD
ATOM     40  H20 KL5 d   1      -5.474  -0.349  14.062  0.00  0.00     0.000 HD
ENDBRANCH   8  38
TORSDOF 6
