REMARK  13 active torsions:
REMARK  status: ('A' for Active; 'I' for Inactive)
REMARK    1  A    between atoms: C4_1  and  C5_3 
REMARK    2  A    between atoms: N1_12  and  C4_1 
REMARK    3  A    between atoms: C14_2  and  C13_11 
REMARK    4  A    between atoms: C5_3  and  C6_4 
REMARK    5  A    between atoms: C6_4  and  C7_6 
REMARK    6  A    between atoms: N2_13  and  C12_10 
REMARK       I    between atoms: C13_11  and  N2_13 
REMARK    7  A    between atoms: C1_15  and  C2_21 
REMARK    8  A    between atoms: O6_39  and  C17_18 
REMARK    9  A    between atoms: C18_19  and  C19_20 
REMARK   10  A    between atoms: C18_19  and  O6_39 
REMARK   11  A    between atoms: C19_20  and  C20_22 
REMARK   12  A    between atoms: C20_22  and  C21_23 
REMARK   13  A    between atoms: C21_23  and  C22_24 
ROOT
ATOM      1  C13 KNW d   1     -24.801  14.662 -19.036  0.00  0.00     0.256 C 
ATOM      2  N2  KNW d   1     -23.748  15.293 -19.614  0.00  0.00    -0.320 N 
ATOM      3  O5  KNW d   1     -25.216  14.913 -17.908  0.00  0.00    -0.267 OA
ATOM      4  H10 KNW d   1     -23.568  15.038 -20.564  0.00  0.00     0.169 HD
ENDROOT
BRANCH   1   5
ATOM      5  C14 KNW d   1     -25.450  13.589 -19.851  0.00  0.00     0.032 A 
ATOM      6  C15 KNW d   1     -24.977  13.173 -21.093  0.00  0.00    -0.065 A 
ATOM      7  C16 KNW d   1     -25.616  12.170 -21.798  0.00  0.00    -0.050 A 
ATOM      8  H14 KNW d   1     -24.095  13.643 -21.513  0.00  0.00     0.085 H 
ATOM      9  C17 KNW d   1     -26.759  11.581 -21.270  0.00  0.00     0.068 A 
ATOM     10  H15 KNW d   1     -25.228  11.845 -22.757  0.00  0.00     0.087 H 
ATOM     11  C28 KNW d   1     -27.238  11.987 -20.035  0.00  0.00    -0.050 A 
ATOM     12  C29 KNW d   1     -26.588  12.982 -19.337  0.00  0.00    -0.065 A 
ATOM     13  H27 KNW d   1     -28.124  11.522 -19.618  0.00  0.00     0.087 H 
ATOM     14  H28 KNW d   1     -26.971  13.295 -18.372  0.00  0.00     0.085 H 
BRANCH   9  15
ATOM     15  O6  KNW d   1     -27.452  10.581 -21.900  0.00  0.00    -0.351 OA
BRANCH  15  16
ATOM     16  C18 KNW d   1     -26.865   9.936 -23.037  0.00  0.00     0.026 C 
ATOM     17  H16 KNW d   1     -26.725  10.665 -23.849  0.00  0.00     0.075 H 
ATOM     18  H17 KNW d   1     -25.892   9.505 -22.760  0.00  0.00     0.075 H 
BRANCH  16  19
ATOM     19  C19 KNW d   1     -27.800   8.840 -23.489  0.00  0.00    -0.044 C 
ATOM     20  H18 KNW d   1     -27.334   8.317 -24.337  0.00  0.00     0.036 H 
ATOM     21  H19 KNW d   1     -28.742   9.304 -23.818  0.00  0.00     0.036 H 
BRANCH  19  22
ATOM     22  C20 KNW d   1     -28.126   7.808 -22.411  0.00  0.00    -0.059 C 
ATOM     23  H20 KNW d   1     -28.564   8.329 -21.547  0.00  0.00     0.033 H 
ATOM     24  H21 KNW d   1     -27.193   7.312 -22.106  0.00  0.00     0.033 H 
BRANCH  22  25
ATOM     25  C21 KNW d   1     -29.109   6.744 -22.886  0.00  0.00    -0.039 C 
ATOM     26  H22 KNW d   1     -28.640   6.150 -23.684  0.00  0.00     0.040 H 
ATOM     27  H23 KNW d   1     -30.012   7.235 -23.277  0.00  0.00     0.040 H 
BRANCH  25  28
ATOM     28  C22 KNW d   1     -29.493   5.833 -21.752  0.00  0.00    -0.034 A 
ATOM     29  C23 KNW d   1     -28.783   4.669 -21.453  0.00  0.00    -0.038 A 
ATOM     30  C24 KNW d   1     -29.201   3.874 -20.408  0.00  0.00     0.117 A 
ATOM     31  H24 KNW d   1     -27.912   4.393 -22.037  0.00  0.00     0.089 H 
ATOM     32  C25 KNW d   1     -30.301   4.159 -19.654  0.00  0.00    -0.044 A 
ATOM     33  F1  KNW d   1     -28.509   2.742 -20.106  0.00  0.00    -0.206 F 
ATOM     34  C26 KNW d   1     -31.011   5.305 -19.938  0.00  0.00    -0.059 A 
ATOM     35  H25 KNW d   1     -30.609   3.500 -18.851  0.00  0.00     0.088 H 
ATOM     36  C27 KNW d   1     -30.617   6.117 -20.982  0.00  0.00     0.040 A 
ATOM     37  H26 KNW d   1     -31.878   5.568 -19.343  0.00  0.00     0.086 H 
ATOM     38 CL1  KNW d   1     -31.574   7.543 -21.293  0.00  0.00    -0.084 Cl
ENDBRANCH  25  28
ENDBRANCH  22  25
ENDBRANCH  19  22
ENDBRANCH  16  19
ENDBRANCH  15  16
ENDBRANCH   9  15
ENDBRANCH   1   5
BRANCH   2  39
ATOM     39  C12 KNW d   1     -22.864  16.262 -19.070  0.00  0.00     0.071 A 
ATOM     40  C11 KNW d   1     -23.014  16.743 -17.781  0.00  0.00    -0.054 A 
ATOM     41  C10 KNW d   1     -22.136  17.675 -17.282  0.00  0.00    -0.079 A 
ATOM     42  H7  KNW d   1     -23.828  16.383 -17.162  0.00  0.00     0.087 H 
ATOM     43  C9  KNW d   1     -21.107  18.148 -18.060  0.00  0.00    -0.054 A 
ATOM     44  H9  KNW d   1     -22.256  18.039 -16.268  0.00  0.00     0.083 H 
ATOM     45  C8  KNW d   1     -20.950  17.706 -19.378  0.00  0.00     0.066 A 
ATOM     46  H8  KNW d   1     -20.411  18.870 -17.649  0.00  0.00     0.087 H 
ATOM     47  N1  KNW d   1     -19.908  18.125 -20.172  0.00  0.00    -0.376 N 
ATOM     48  C30 KNW d   1     -21.830  16.744 -19.870  0.00  0.00     0.123 A 
ATOM     49  C3  KNW d   1     -19.827  17.758 -21.587  0.00  0.00     0.029 C 
ATOM     50  C1  KNW d   1     -21.149  17.169 -22.075  0.00  0.00     0.144 C 
ATOM     51  H11 KNW d   1     -19.030  17.012 -21.720  0.00  0.00     0.069 H 
ATOM     52  H12 KNW d   1     -19.593  18.655 -22.179  0.00  0.00     0.069 H 
ATOM     53  O7  KNW d   1     -21.722  16.259 -21.144  0.00  0.00    -0.329 OA
ATOM     54  H13 KNW d   1     -21.852  18.000 -22.232  0.00  0.00     0.103 H 
BRANCH  47  55
ATOM     55  C4  KNW d   1     -18.756  18.830 -19.588  0.00  0.00    -0.004 C 
ATOM     56  H1  KNW d   1     -18.206  19.335 -20.396  0.00  0.00     0.064 H 
ATOM     57  H2  KNW d   1     -19.128  19.579 -18.873  0.00  0.00     0.064 H 
BRANCH  55  58
ATOM     58  C5  KNW d   1     -17.802  17.895 -18.861  0.00  0.00    -0.041 C 
ATOM     59  H3  KNW d   1     -17.433  17.143 -19.574  0.00  0.00     0.036 H 
ATOM     60  H4  KNW d   1     -18.349  17.394 -18.049  0.00  0.00     0.036 H 
BRANCH  58  61
ATOM     61  C6  KNW d   1     -16.611  18.627 -18.266  0.00  0.00     0.017 C 
ATOM     62  H5  KNW d   1     -15.975  17.897 -17.744  0.00  0.00     0.049 H 
ATOM     63  H6  KNW d   1     -16.980  19.372 -17.546  0.00  0.00     0.049 H 
BRANCH  61  64
ATOM     64  C7  KNW d   1     -15.776  19.337 -19.312  0.00  0.00     0.172 C 
ATOM     65  O3  KNW d   1     -15.696  20.579 -19.264  0.00  0.00    -0.648 OA
ATOM     66  O4  KNW d   1     -15.227  18.641 -20.188  0.00  0.00    -0.648 OA
ENDBRANCH  61  64
ENDBRANCH  58  61
ENDBRANCH  55  58
ENDBRANCH  47  55
BRANCH  50  67
ATOM     67  C2  KNW d   1     -20.968  16.422 -23.386  0.00  0.00     0.205 C 
ATOM     68  O1  KNW d   1     -20.616  17.030 -24.372  0.00  0.00    -0.646 OA
ATOM     69  O2  KNW d   1     -21.169  15.226 -23.424  0.00  0.00    -0.646 OA
ENDBRANCH  50  67
ENDBRANCH   2  39
TORSDOF 13
