REMARK WARNING: 32 MAX_TORS EXCEEDED!!!
REMARK  64 active torsions:
REMARK  status: ('A' for Active; 'I' for Inactive)
REMARK    1  A    between atoms: C_1  and  C1_3 
REMARK       I    between atoms: C_1  and  N_10 
REMARK    2  A    between atoms: C2_4  and  N2_6 
REMARK    3  A    between atoms: N_10  and  CA_11 
REMARK    4  A    between atoms: CA_11  and  C_12 
REMARK    5  A    between atoms: CA_11  and  CB_14 
REMARK       I    between atoms: C_12  and  N_15 
REMARK    6  A    between atoms: N_15  and  CA_16 
REMARK    7  A    between atoms: CA_16  and  C_17 
REMARK    8  A    between atoms: CA_16  and  CB_19 
REMARK       I    between atoms: C_17  and  N_22 
REMARK    9  A    between atoms: CB_19  and  OG1_20 
REMARK   10  A    between atoms: CB_19  and  CG2_21 
REMARK   11  A    between atoms: N_22  and  CA_23 
REMARK   12  A    between atoms: CA_23  and  C_24 
REMARK   13  A    between atoms: CA_23  and  CB_26 
REMARK       I    between atoms: C_24  and  N_29 
REMARK   14  A    between atoms: CB_26  and  OG1_27 
REMARK   15  A    between atoms: CB_26  and  CG2_28 
REMARK   16  A    between atoms: CA_30  and  C_31 
REMARK       I    between atoms: C_31  and  N_36 
REMARK   17  A    between atoms: N_36  and  CA_37 
REMARK   18  A    between atoms: CA_37  and  C_38 
REMARK   19  A    between atoms: CA_37  and  CB_40 
REMARK       I    between atoms: C_38  and  N_44 
REMARK   20  A    between atoms: CB_40  and  CG_41 
REMARK   21  A    between atoms: CG_41  and  CD1_42 
REMARK   22  A    between atoms: CG_41  and  CD2_43 
REMARK   23  A    between atoms: N_44  and  CA_45 
REMARK   24  A    between atoms: CA_45  and  C_46 
REMARK   25  A    between atoms: CA_45  and  CB_48 
REMARK       I    between atoms: C_46  and  N_50 
REMARK   26  A    between atoms: CB_48  and  SG_49 
REMARK   27  A    between atoms: N_50  and  CA_51 
REMARK   28  A    between atoms: CA_51  and  C_52 
REMARK       I    between atoms: C_52  and  N_54 
REMARK   29  A    between atoms: CA_55  and  C_56 
REMARK       I    between atoms: C_56  and  N_61 
REMARK   30  A    between atoms: N_61  and  CA_62 
REMARK   31  A    between atoms: CA_62  and  C_63 
REMARK   32  A    between atoms: CA_62  and  CB_65 
REMARK       I    between atoms: C_63  and  N_67 
REMARK   33  A    between atoms: CB_65  and  OG_66 
REMARK   34  A    between atoms: N_67  and  CA_68 
REMARK   35  A    between atoms: CA_68  and  C_69 
REMARK   36  A    between atoms: CA_68  and  CB_71 
REMARK       I    between atoms: C_69  and  N_78 
REMARK   37  A    between atoms: CB_71  and  CG_72 
REMARK   38  A    between atoms: CG_72  and  CD_73 
REMARK   39  A    between atoms: CD_73  and  NE_74 
REMARK       I    between atoms: NE_74  and  CZ_75 
REMARK       I    between atoms: CZ_75  and  NH1_76 
REMARK       I    between atoms: CZ_75  and  NH2_77 
REMARK   40  A    between atoms: N_78  and  CA_79 
REMARK   41  A    between atoms: CA_79  and  C_80 
REMARK   42  A    between atoms: CA_79  and  CB_82 
REMARK       I    between atoms: C_80  and  N_83 
REMARK   43  A    between atoms: N_83  and  CA_84 
REMARK   44  A    between atoms: CA_84  and  C_85 
REMARK   45  A    between atoms: CA_84  and  CB_87 
REMARK       I    between atoms: C_85  and  N_89 
REMARK   46  A    between atoms: CB_87  and  OG_88 
REMARK   47  A    between atoms: N_89  and  CA_90 
REMARK   48  A    between atoms: CA_90  and  C_91 
REMARK   49  A    between atoms: CA_90  and  CB_93 
REMARK       I    between atoms: C_91  and  N_97 
REMARK   50  A    between atoms: CB_93  and  CG1_94 
REMARK   51  A    between atoms: CB_93  and  CG2_95 
REMARK   52  A    between atoms: CG1_94  and  CD1_96 
REMARK   53  A    between atoms: N_97  and  CA_98 
REMARK   54  A    between atoms: CA_98  and  C_99 
REMARK   55  A    between atoms: CA_98  and  CB_101 
REMARK       I    between atoms: C_99  and  N_105 
REMARK   56  A    between atoms: CB_101  and  CG_102 
REMARK   57  A    between atoms: CG_102  and  CD1_103 
REMARK   58  A    between atoms: CG_102  and  CD2_104 
REMARK   59  A    between atoms: N_105  and  CA_106 
REMARK   60  A    between atoms: CA_106  and  C_107 
REMARK   61  A    between atoms: CA_106  and  CB_109 
REMARK       I    between atoms: C_107  and  N_111 
REMARK   62  A    between atoms: CB_109  and  OG_110 
REMARK   63  A    between atoms: N_111  and  CA_112 
REMARK   64  A    between atoms: CA_112  and  C_113 
ROOT
ATOM      1  C   BE2 d   1     -11.824  -6.467 -19.719  0.00  0.00     0.238 C 
ATOM      2  O   BE2 d   1     -11.511  -6.202 -20.882  0.00  0.00    -0.272 OA
ATOM      3  N   BE2 d   1     -12.584  -7.526 -19.418  0.00  0.00    -0.337 N 
ATOM      4  CA  BE2 d   1     -13.078  -8.447 -20.460  0.00  0.00     0.091 C 
ATOM      5  CB  BE2 d   1     -13.448  -9.704 -19.664  0.00  0.00    -0.036 C 
ATOM      6  CG  BE2 d   1     -13.861  -9.158 -18.330  0.00  0.00    -0.048 C 
ATOM      7  CD  BE2 d   1     -13.008  -7.944 -18.068  0.00  0.00    -0.001 C 
ATOM      8  H52 BE2 d   1     -12.299  -8.666 -21.205  0.00  0.00     0.087 H 
ATOM      9  H53 BE2 d   1     -12.583 -10.376 -19.564  0.00  0.00     0.036 H 
ATOM     10  H54 BE2 d   1     -14.278 -10.244 -20.143  0.00  0.00     0.036 H 
ATOM     11  H55 BE2 d   1     -13.696  -9.912 -17.546  0.00  0.00     0.035 H 
ATOM     12  H56 BE2 d   1     -14.924  -8.876 -18.350  0.00  0.00     0.035 H 
ATOM     13  H57 BE2 d   1     -13.591  -7.152 -17.576  0.00  0.00     0.064 H 
ATOM     14  H58 BE2 d   1     -12.139  -8.201 -17.444  0.00  0.00     0.064 H 
ENDROOT
BRANCH   4  15
ATOM     15  C   BE2 d   1     -14.294  -7.841 -21.150  0.00  0.00     0.241 C 
ATOM     16  O   BE2 d   1     -15.293  -7.514 -20.508  0.00  0.00    -0.271 OA
ATOM     17  N   BE2 d   1     -14.224  -7.709 -22.472  0.00  0.00    -0.344 N 
ATOM     18  H59 BE2 d   1     -13.435  -8.075 -22.965  0.00  0.00     0.163 HD
BRANCH  17  19
ATOM     19  CA  BE2 d   1     -15.285  -7.038 -23.206  0.00  0.00     0.109 C 
ATOM     20  H60 BE2 d   1     -15.916  -6.507 -22.478  0.00  0.00     0.090 H 
BRANCH  19  21
ATOM     21  C   BE2 d   1     -16.152  -8.030 -23.965  0.00  0.00     0.243 C 
ATOM     22  O   BE2 d   1     -15.710  -9.105 -24.397  0.00  0.00    -0.271 OA
ATOM     23  N   BE2 d   1     -17.421  -7.664 -24.125  0.00  0.00    -0.346 N 
ATOM     24  H64 BE2 d   1     -17.758  -6.814 -23.720  0.00  0.00     0.163 HD
BRANCH  23  25
ATOM     25  CA  BE2 d   1     -18.316  -8.518 -24.899  0.00  0.00     0.089 C 
ATOM     26  H65 BE2 d   1     -18.317  -9.517 -24.439  0.00  0.00     0.087 H 
BRANCH  25  27
ATOM     27  C   BE2 d   1     -17.841  -8.659 -26.335  0.00  0.00     0.241 C 
ATOM     28  O   BE2 d   1     -17.993  -9.725 -26.943  0.00  0.00    -0.271 OA
ATOM     29  N   BE2 d   1     -17.263  -7.601 -26.893  0.00  0.00    -0.346 N 
ATOM     30  H77 BE2 d   1     -17.164  -6.759 -26.363  0.00  0.00     0.163 HD
BRANCH  29  31
ATOM     31  CA  BE2 d   1     -16.772  -7.645 -28.262  0.00  0.00     0.086 C 
ATOM     32  H78 BE2 d   1     -17.604  -7.929 -28.924  0.00  0.00     0.086 H 
BRANCH  31  33
ATOM     33  C   BE2 d   1     -15.660  -8.667 -28.416  0.00  0.00     0.240 C 
ATOM     34  O   BE2 d   1     -15.491  -9.242 -29.502  0.00  0.00    -0.271 OA
ATOM     35  N   BE2 d   1     -14.881  -8.895 -27.354  0.00  0.00    -0.344 N 
ATOM     36  H82 BE2 d   1     -15.147  -8.536 -26.459  0.00  0.00     0.163 HD
BRANCH  35  37
ATOM     37  CA  BE2 d   1     -13.649  -9.660 -27.485  0.00  0.00     0.109 C 
ATOM     38  H83 BE2 d   1     -13.083  -9.239 -28.329  0.00  0.00     0.090 H 
BRANCH  37  39
ATOM     39  C   BE2 d   1     -13.887 -11.131 -27.771  0.00  0.00     0.243 C 
ATOM     40  O   BE2 d   1     -12.981 -11.792 -28.288  0.00  0.00    -0.271 OA
ATOM     41  N   BE2 d   1     -15.072 -11.661 -27.447  0.00  0.00    -0.346 N 
ATOM     42  H87 BE2 d   1     -15.791 -11.071 -27.080  0.00  0.00     0.163 HD
BRANCH  41  43
ATOM     43  CA  BE2 d   1     -15.333 -13.089 -27.620  0.00  0.00     0.092 C 
ATOM     44  H88 BE2 d   1     -14.369 -13.610 -27.520  0.00  0.00     0.088 H 
BRANCH  43  45
ATOM     45  C   BE2 d   1     -15.902 -13.426 -28.987  0.00  0.00     0.241 C 
ATOM     46  O   BE2 d   1     -16.093 -14.616 -29.290  0.00  0.00    -0.271 OA
ATOM     47  N   BE2 d   1     -16.190 -12.428 -29.817  0.00  0.00    -0.346 N 
ATOM     48  H98 BE2 d   1     -16.010 -11.488 -29.526  0.00  0.00     0.163 HD
BRANCH  47  49
ATOM     49  CA  BE2 d   1     -16.759 -12.661 -31.137  0.00  0.00     0.089 C 
ATOM     50  H99 BE2 d   1     -17.453 -13.513 -31.096  0.00  0.00     0.087 H 
BRANCH  49  51
ATOM     51  C   BE2 d   1     -15.633 -12.963 -32.115  0.00  0.00     0.241 C 
ATOM     52  O   BE2 d   1     -14.747 -12.127 -32.330  0.00  0.00    -0.271 OA
ATOM     53  N   BE2 d   1     -15.689 -14.135 -32.740  0.00  0.00    -0.344 N 
ATOM     54 9H10 BE2 d   1     -16.484 -14.728 -32.614  0.00  0.00     0.163 HD
BRANCH  53  55
ATOM     55  CA  BE2 d   1     -14.599 -14.560 -33.606  0.00  0.00     0.109 C 
ATOM     56 0H11 BE2 d   1     -14.281 -13.697 -34.209  0.00  0.00     0.090 H 
BRANCH  55  57
ATOM     57  C   BE2 d   1     -15.019 -15.676 -34.557  0.00  0.00     0.243 C 
ATOM     58  O   BE2 d   1     -14.630 -16.834 -34.367  0.00  0.00    -0.271 OA
ATOM     59  N   BE2 d   1     -15.801 -15.348 -35.582  0.00  0.00    -0.349 N 
ATOM     60 4H11 BE2 d   1     -16.145 -14.412 -35.661  0.00  0.00     0.163 HD
BRANCH  59  61
ATOM     61  CA  BE2 d   1     -16.163 -16.334 -36.591  0.00  0.00     0.075 C 
ATOM     62 5H11 BE2 d   1     -15.500 -17.202 -36.462  0.00  0.00     0.080 H 
ATOM     63 6H11 BE2 d   1     -15.987 -15.882 -37.578  0.00  0.00     0.080 H 
BRANCH  61  64
ATOM     64  C   BE2 d   1     -17.594 -16.839 -36.564  0.00  0.00     0.191 C 
ATOM     65  O   BE2 d   1     -17.863 -17.985 -36.183  0.00  0.00    -0.647 OA
ATOM     66  OXT BE2 d   1     -18.535 -16.120 -36.922  0.00  0.00    -0.647 OA
ENDBRANCH  61  64
ENDBRANCH  59  61
ENDBRANCH  55  57
BRANCH  55  67
ATOM     67  CB  BE2 d   1     -13.418 -15.022 -32.749  0.00  0.00     0.044 C 
ATOM     68 1H11 BE2 d   1     -13.758 -15.814 -32.066  0.00  0.00     0.077 H 
ATOM     69 2H11 BE2 d   1     -13.044 -14.169 -32.164  0.00  0.00     0.077 H 
BRANCH  67  70
ATOM     70  OG  BE2 d   1     -12.368 -15.526 -33.554  0.00  0.00    -0.398 OA
ATOM     71 3H11 BE2 d   1     -12.685 -16.266 -34.059  0.00  0.00     0.209 HD
ENDBRANCH  67  70
ENDBRANCH  55  67
ENDBRANCH  53  55
ENDBRANCH  49  51
BRANCH  49  72
ATOM     72  CB  BE2 d   1     -17.506 -11.415 -31.592  0.00  0.00    -0.035 C 
ATOM     73 0H10 BE2 d   1     -17.947 -11.634 -32.576  0.00  0.00     0.037 H 
ATOM     74 1H10 BE2 d   1     -16.769 -10.605 -31.692  0.00  0.00     0.037 H 
BRANCH  72  75
ATOM     75  CG  BE2 d   1     -18.625 -10.908 -30.691  0.00  0.00    -0.059 C 
ATOM     76 2H10 BE2 d   1     -18.226 -10.769 -29.675  0.00  0.00     0.038 H 
BRANCH  75  77
ATOM     77  CD1 BE2 d   1     -19.114  -9.569 -31.212  0.00  0.00    -0.073 C 
ATOM     78 3H10 BE2 d   1     -19.922  -9.197 -30.566  0.00  0.00     0.028 H 
ATOM     79 4H10 BE2 d   1     -19.491  -9.690 -32.238  0.00  0.00     0.028 H 
ATOM     80 5H10 BE2 d   1     -18.282  -8.849 -31.210  0.00  0.00     0.028 H 
ENDBRANCH  75  77
BRANCH  75  81
ATOM     81  CD2 BE2 d   1     -19.766 -11.907 -30.626  0.00  0.00    -0.073 C 
ATOM     82 6H10 BE2 d   1     -19.390 -12.869 -30.247  0.00  0.00     0.028 H 
ATOM     83 7H10 BE2 d   1     -20.187 -12.049 -31.632  0.00  0.00     0.028 H 
ATOM     84 8H10 BE2 d   1     -20.548 -11.527 -29.952  0.00  0.00     0.028 H 
ENDBRANCH  75  81
ENDBRANCH  72  75
ENDBRANCH  49  72
ENDBRANCH  47  49
ENDBRANCH  43  45
BRANCH  43  85
ATOM     85  CB  BE2 d   1     -16.283 -13.635 -26.538  0.00  0.00    -0.030 C 
ATOM     86  H89 BE2 d   1     -16.379 -14.722 -26.676  0.00  0.00     0.043 H 
BRANCH  85  87
ATOM     87  CG1 BE2 d   1     -17.671 -13.011 -26.682  0.00  0.00    -0.063 C 
ATOM     88  H90 BE2 d   1     -17.918 -12.966 -27.753  0.00  0.00     0.033 H 
ATOM     89  H91 BE2 d   1     -17.633 -11.991 -26.272  0.00  0.00     0.033 H 
BRANCH  87  90
ATOM     90  CD1 BE2 d   1     -18.773 -13.763 -25.975  0.00  0.00    -0.076 C 
ATOM     91  H95 BE2 d   1     -19.730 -13.244 -26.132  0.00  0.00     0.027 H 
ATOM     92  H96 BE2 d   1     -18.553 -13.809 -24.898  0.00  0.00     0.027 H 
ATOM     93  H97 BE2 d   1     -18.838 -14.784 -26.379  0.00  0.00     0.027 H 
ENDBRANCH  87  90
ENDBRANCH  85  87
BRANCH  85  94
ATOM     94  CG2 BE2 d   1     -15.708 -13.380 -25.162  0.00  0.00    -0.071 C 
ATOM     95  H92 BE2 d   1     -14.711 -13.840 -25.090  0.00  0.00     0.028 H 
ATOM     96  H93 BE2 d   1     -16.370 -13.818 -24.401  0.00  0.00     0.028 H 
ATOM     97  H94 BE2 d   1     -15.624 -12.296 -24.995  0.00  0.00     0.028 H 
ENDBRANCH  85  94
ENDBRANCH  43  85
ENDBRANCH  41  43
ENDBRANCH  37  39
BRANCH  37  98
ATOM     98  CB  BE2 d   1     -12.800  -9.528 -26.219  0.00  0.00     0.044 C 
ATOM     99  H84 BE2 d   1     -12.750  -8.467 -25.933  0.00  0.00     0.077 H 
ATOM    100  H85 BE2 d   1     -11.786  -9.900 -26.430  0.00  0.00     0.077 H 
BRANCH  98 101
ATOM    101  OG  BE2 d   1     -13.342 -10.265 -25.144  0.00  0.00    -0.398 OA
ATOM    102  H86 BE2 d   1     -14.216  -9.946 -24.952  0.00  0.00     0.209 HD
ENDBRANCH  98 101
ENDBRANCH  37  98
ENDBRANCH  35  37
ENDBRANCH  31  33
BRANCH  31 103
ATOM    103  CB  BE2 d   1     -16.262  -6.263 -28.672  0.00  0.00    -0.049 C 
ATOM    104  H79 BE2 d   1     -15.892  -6.301 -29.707  0.00  0.00     0.030 H 
ATOM    105  H80 BE2 d   1     -15.444  -5.960 -28.001  0.00  0.00     0.030 H 
ATOM    106  H81 BE2 d   1     -17.083  -5.534 -28.603  0.00  0.00     0.030 H 
ENDBRANCH  31 103
ENDBRANCH  29  31
ENDBRANCH  25  27
BRANCH  25 107
ATOM    107  CB  BE2 d   1     -19.745  -7.972 -24.861  0.00  0.00    -0.036 C 
ATOM    108  H66 BE2 d   1     -20.366  -8.575 -25.540  0.00  0.00     0.036 H 
ATOM    109  H67 BE2 d   1     -19.728  -6.929 -25.209  0.00  0.00     0.036 H 
BRANCH 107 110
ATOM    110  CG  BE2 d   1     -20.370  -8.006 -23.489  0.00  0.00    -0.048 C 
ATOM    111  H68 BE2 d   1     -19.759  -7.394 -22.809  0.00  0.00     0.035 H 
ATOM    112  H69 BE2 d   1     -20.383  -9.047 -23.134  0.00  0.00     0.035 H 
BRANCH 110 113
ATOM    113  CD  BE2 d   1     -21.802  -7.468 -23.477  0.00  0.00     0.009 C 
ATOM    114  H70 BE2 d   1     -22.431  -8.113 -24.108  0.00  0.00     0.064 H 
ATOM    115  H71 BE2 d   1     -21.803  -6.445 -23.882  0.00  0.00     0.064 H 
BRANCH 113 116
ATOM    116  NE  BE2 d   1     -22.351  -7.443 -22.130  0.00  0.00    -0.227 N 
ATOM    117  CZ  BE2 d   1     -22.822  -8.509 -21.488  0.00  0.00     0.665 C 
ATOM    118  NH1 BE2 d   1     -22.832  -9.678 -22.085  0.00  0.00    -0.235 N 
ATOM    119  NH2 BE2 d   1     -23.301  -8.411 -20.260  0.00  0.00    -0.235 N 
ATOM    120  H73 BE2 d   1     -23.196 -10.505 -21.591  0.00  0.00     0.174 HD
ATOM    121  H74 BE2 d   1     -22.476  -9.768 -23.047  0.00  0.00     0.174 HD
ATOM    122  H75 BE2 d   1     -23.300  -7.501 -19.778  0.00  0.00     0.174 HD
ATOM    123  H76 BE2 d   1     -23.675  -9.245 -19.785  0.00  0.00     0.174 HD
ATOM    124  H72 BE2 d   1     -22.377  -6.538 -21.640  0.00  0.00     0.177 HD
ENDBRANCH 113 116
ENDBRANCH 110 113
ENDBRANCH 107 110
ENDBRANCH  25 107
ENDBRANCH  23  25
ENDBRANCH  19  21
BRANCH  19 125
ATOM    125  CB  BE2 d   1     -14.732  -6.022 -24.198  0.00  0.00     0.044 C 
ATOM    126  H61 BE2 d   1     -13.886  -5.485 -23.744  0.00  0.00     0.077 H 
ATOM    127  H62 BE2 d   1     -15.519  -5.303 -24.469  0.00  0.00     0.077 H 
BRANCH 125 128
ATOM    128  OG  BE2 d   1     -14.295  -6.707 -25.356  0.00  0.00    -0.398 OA
ATOM    129  H63 BE2 d   1     -13.948  -6.081 -25.981  0.00  0.00     0.209 HD
ENDBRANCH 125 128
ENDBRANCH  19 125
ENDBRANCH  17  19
ENDBRANCH   4  15
BRANCH   1 130
ATOM    130  CA  BE2 d   1     -11.348  -5.595 -18.567  0.00  0.00     0.069 C 
ATOM    131  H50 BE2 d   1     -11.409  -4.540 -18.871  0.00  0.00     0.078 H 
ATOM    132  H51 BE2 d   1     -12.002  -5.765 -17.699  0.00  0.00     0.078 H 
BRANCH 130 133
ATOM    133  N   BE2 d   1      -9.981  -5.895 -18.190  0.00  0.00    -0.351 N 
ATOM    134  C   BE2 d   1      -9.684  -6.429 -17.011  0.00  0.00     0.241 C 
ATOM    135  O   BE2 d   1     -10.553  -6.756 -16.206  0.00  0.00    -0.271 OA
ATOM    136  H49 BE2 d   1      -9.243  -5.695 -18.834  0.00  0.00     0.163 HD
BRANCH 134 137
ATOM    137  CA  BE2 d   1      -8.225  -6.668 -16.647  0.00  0.00     0.097 C 
ATOM    138  H45 BE2 d   1      -8.169  -7.654 -16.163  0.00  0.00     0.088 H 
BRANCH 137 139
ATOM    139  N   BE2 d   1      -7.331  -6.710 -17.796  0.00  0.00    -0.345 N 
ATOM    140  C   BE2 d   1      -6.774  -7.840 -18.231  0.00  0.00     0.241 C 
ATOM    141  O   BE2 d   1      -6.874  -8.917 -17.637  0.00  0.00    -0.271 OA
ATOM    142  H44 BE2 d   1      -7.127  -5.858 -18.277  0.00  0.00     0.163 HD
BRANCH 140 143
ATOM    143  CA  BE2 d   1      -6.006  -7.764 -19.540  0.00  0.00     0.089 C 
ATOM    144  H34 BE2 d   1      -6.050  -6.738 -19.933  0.00  0.00     0.087 H 
BRANCH 143 145
ATOM    145  N   BE2 d   1      -4.621  -8.139 -19.303  0.00  0.00    -0.346 N 
ATOM    146  C   BE2 d   1      -3.605  -7.298 -19.440  0.00  0.00     0.241 C 
ATOM    147  O   BE2 d   1      -3.757  -6.091 -19.657  0.00  0.00    -0.271 OA
ATOM    148  H33 BE2 d   1      -4.425  -9.079 -19.023  0.00  0.00     0.163 HD
BRANCH 146 149
ATOM    149  CA  BE2 d   1      -2.222  -7.917 -19.271  0.00  0.00     0.091 C 
ATOM    150  N   BE2 d   1      -1.201  -7.265 -20.098  0.00  0.00    -0.337 N 
ATOM    151  C   BE2 d   1      -1.393  -7.118 -21.404  0.00  0.00     0.245 C 
ATOM    152  CD  BE2 d   1       0.028  -7.003 -19.324  0.00  0.00    -0.001 C 
ATOM    153  O   BE2 d   1      -2.397  -7.572 -21.961  0.00  0.00    -0.271 OA
ATOM    154  CG  BE2 d   1      -0.187  -7.809 -18.055  0.00  0.00    -0.048 C 
ATOM    155  H31 BE2 d   1       0.132  -5.931 -19.099  0.00  0.00     0.064 H 
ATOM    156  H32 BE2 d   1       0.919  -7.351 -19.867  0.00  0.00     0.064 H 
ATOM    157  CB  BE2 d   1      -1.677  -7.734 -17.849  0.00  0.00    -0.036 C 
ATOM    158  H29 BE2 d   1       0.141  -8.850 -18.189  0.00  0.00     0.035 H 
ATOM    159  H30 BE2 d   1       0.352  -7.361 -17.207  0.00  0.00     0.035 H 
ATOM    160  H27 BE2 d   1      -2.027  -8.537 -17.183  0.00  0.00     0.036 H 
ATOM    161  H28 BE2 d   1      -1.972  -6.759 -17.433  0.00  0.00     0.036 H 
ATOM    162  H26 BE2 d   1      -2.287  -8.986 -19.521  0.00  0.00     0.087 H 
BRANCH 151 163
ATOM    163  CA  BE2 d   1      -0.346  -6.376 -22.225  0.00  0.00     0.114 C 
ATOM    164  H20 BE2 d   1       0.539  -6.186 -21.600  0.00  0.00     0.091 H 
BRANCH 163 165
ATOM    165  N   BE2 d   1       0.034  -7.185 -23.369  0.00  0.00    -0.344 N 
ATOM    166  C   BE2 d   1       1.298  -7.555 -23.587  0.00  0.00     0.243 C 
ATOM    167  O   BE2 d   1       2.254  -6.995 -23.040  0.00  0.00    -0.271 OA
ATOM    168  H19 BE2 d   1      -0.673  -7.474 -24.014  0.00  0.00     0.163 HD
BRANCH 166 169
ATOM    169  CA  BE2 d   1       1.549  -8.688 -24.581  0.00  0.00     0.113 C 
ATOM    170  H13 BE2 d   1       2.376  -8.370 -25.233  0.00  0.00     0.091 H 
BRANCH 169 171
ATOM    171  N   BE2 d   1       1.974  -9.913 -23.902  0.00  0.00    -0.344 N 
ATOM    172  C   BE2 d   1       3.118 -10.486 -24.269  0.00  0.00     0.240 C 
ATOM    173  O   BE2 d   1       3.796  -9.993 -25.169  0.00  0.00    -0.271 OA
ATOM    174  H12 BE2 d   1       1.415 -10.312 -23.175  0.00  0.00     0.163 HD
BRANCH 172 175
ATOM    175  CA  BE2 d   1       3.641 -11.677 -23.466  0.00  0.00     0.086 C 
ATOM    176  H8  BE2 d   1       4.734 -11.586 -23.385  0.00  0.00     0.086 H 
BRANCH 175 177
ATOM    177  N   BE2 d   1       3.076 -11.689 -22.121  0.00  0.00    -0.344 N 
ATOM    178  C   BE2 d   1       3.448 -10.660 -21.204  0.00  0.00     0.254 C 
ATOM    179  O1  BE2 d   1       4.105  -9.755 -21.664  0.00  0.00    -0.268 OA
ATOM    180  H7  BE2 d   1       2.437 -12.408 -21.845  0.00  0.00     0.163 HD
BRANCH 178 181
ATOM    181  C1  BE2 d   1       2.984 -10.710 -19.820  0.00  0.00     0.058 A 
ATOM    182  C2  BE2 d   1       3.266  -9.678 -18.904  0.00  0.00     0.041 A 
ATOM    183  C3  BE2 d   1       2.818  -9.809 -17.581  0.00  0.00    -0.057 A 
ATOM    184  C4  BE2 d   1       2.096 -10.914 -17.176  0.00  0.00    -0.081 A 
ATOM    185  H1  BE2 d   1       3.043  -9.028 -16.863  0.00  0.00     0.086 H 
ATOM    186  C5  BE2 d   1       1.805 -11.913 -18.072  0.00  0.00    -0.082 A 
ATOM    187  H4  BE2 d   1       1.758 -10.993 -16.149  0.00  0.00     0.083 H 
ATOM    188  C6  BE2 d   1       2.246 -11.819 -19.380  0.00  0.00    -0.066 A 
ATOM    189  H5  BE2 d   1       1.230 -12.775 -17.755  0.00  0.00     0.083 H 
ATOM    190  H6  BE2 d   1       2.017 -12.617 -20.077  0.00  0.00     0.085 H 
BRANCH 182 191
ATOM    191  N2  BE2 d   1       3.968  -8.551 -19.286  0.00  0.00    -0.398 N 
ATOM    192  H2  BE2 d   1       4.297  -8.454 -20.257  0.00  0.00     0.156 HD
ATOM    193  H3  BE2 d   1       4.162  -7.808 -18.600  0.00  0.00     0.156 HD
ENDBRANCH 182 191
ENDBRANCH 178 181
ENDBRANCH 175 177
BRANCH 175 194
ATOM    194  CB  BE2 d   1       3.315 -12.980 -24.166  0.00  0.00    -0.049 C 
ATOM    195  H9  BE2 d   1       3.742 -12.968 -25.180  0.00  0.00     0.030 H 
ATOM    196  H10 BE2 d   1       2.223 -13.099 -24.229  0.00  0.00     0.030 H 
ATOM    197  H11 BE2 d   1       3.743 -13.819 -23.597  0.00  0.00     0.030 H 
ENDBRANCH 175 194
ENDBRANCH 172 175
ENDBRANCH 169 171
BRANCH 169 198
ATOM    198  CB  BE2 d   1       0.339  -8.953 -25.479  0.00  0.00     0.060 C 
ATOM    199  H14 BE2 d   1      -0.051  -7.994 -25.849  0.00  0.00     0.086 H 
BRANCH 198 200
ATOM    200  OG1 BE2 d   1      -0.678  -9.619 -24.724  0.00  0.00    -0.393 OA
ATOM    201  H15 BE2 d   1      -0.339 -10.444 -24.397  0.00  0.00     0.210 HD
ENDBRANCH 198 200
BRANCH 198 202
ATOM    202  CG2 BE2 d   1       0.735  -9.825 -26.670  0.00  0.00    -0.050 C 
ATOM    203  H16 BE2 d   1      -0.147 -10.004 -27.303  0.00  0.00     0.031 H 
ATOM    204  H17 BE2 d   1       1.127 -10.787 -26.306  0.00  0.00     0.031 H 
ATOM    205  H18 BE2 d   1       1.510  -9.312 -27.258  0.00  0.00     0.031 H 
ENDBRANCH 198 202
ENDBRANCH 169 198
ENDBRANCH 166 169
ENDBRANCH 163 165
BRANCH 163 206
ATOM    206  CB  BE2 d   1      -0.917  -5.043 -22.715  0.00  0.00     0.060 C 
ATOM    207  H21 BE2 d   1      -1.831  -5.236 -23.295  0.00  0.00     0.086 H 
BRANCH 206 208
ATOM    208  OG1 BE2 d   1       0.052  -4.407 -23.554  0.00  0.00    -0.393 OA
ATOM    209  H22 BE2 d   1       0.847  -4.254 -23.058  0.00  0.00     0.210 HD
ENDBRANCH 206 208
BRANCH 206 210
ATOM    210  CG2 BE2 d   1      -1.259  -4.127 -21.544  0.00  0.00    -0.050 C 
ATOM    211  H23 BE2 d   1      -1.666  -3.179 -21.927  0.00  0.00     0.031 H 
ATOM    212  H24 BE2 d   1      -0.350  -3.926 -20.958  0.00  0.00     0.031 H 
ATOM    213  H25 BE2 d   1      -2.008  -4.615 -20.903  0.00  0.00     0.031 H 
ENDBRANCH 206 210
ENDBRANCH 163 206
ENDBRANCH 151 163
ENDBRANCH 146 149
ENDBRANCH 143 145
BRANCH 143 214
ATOM    214  CB  BE2 d   1      -6.619  -8.727 -20.556  0.00  0.00    -0.035 C 
ATOM    215  H35 BE2 d   1      -6.629  -9.736 -20.118  0.00  0.00     0.037 H 
ATOM    216  H36 BE2 d   1      -5.992  -8.726 -21.460  0.00  0.00     0.037 H 
BRANCH 214 217
ATOM    217  CG  BE2 d   1      -8.047  -8.359 -20.956  0.00  0.00    -0.059 C 
ATOM    218  H37 BE2 d   1      -8.614  -8.135 -20.040  0.00  0.00     0.038 H 
BRANCH 217 219
ATOM    219  CD1 BE2 d   1      -8.053  -7.129 -21.832  0.00  0.00    -0.073 C 
ATOM    220  H38 BE2 d   1      -9.088  -6.881 -22.109  0.00  0.00     0.028 H 
ATOM    221  H39 BE2 d   1      -7.467  -7.324 -22.742  0.00  0.00     0.028 H 
ATOM    222  H40 BE2 d   1      -7.608  -6.286 -21.283  0.00  0.00     0.028 H 
ENDBRANCH 217 219
BRANCH 217 223
ATOM    223  CD2 BE2 d   1      -8.724  -9.504 -21.662  0.00  0.00    -0.073 C 
ATOM    224  H41 BE2 d   1      -8.713 -10.393 -21.014  0.00  0.00     0.028 H 
ATOM    225  H42 BE2 d   1      -8.189  -9.726 -22.597  0.00  0.00     0.028 H 
ATOM    226  H43 BE2 d   1      -9.764  -9.230 -21.891  0.00  0.00     0.028 H 
ENDBRANCH 217 223
ENDBRANCH 214 217
ENDBRANCH 143 214
ENDBRANCH 140 143
ENDBRANCH 137 139
BRANCH 137 227
ATOM    227  CB  BE2 d   1      -7.765  -5.618 -15.620  0.00  0.00     0.001 C 
ATOM    228  H46 BE2 d   1      -8.504  -5.571 -14.807  0.00  0.00     0.052 H 
ATOM    229  H47 BE2 d   1      -7.704  -4.639 -16.118  0.00  0.00     0.052 H 
BRANCH 227 230
ATOM    230  SG  BE2 d   1      -6.146  -6.015 -14.914  0.00  0.00    -0.180 SA
ATOM    231  H48 BE2 d   1      -6.193  -6.908 -14.450  0.00  0.00     0.101 HD
ENDBRANCH 227 230
ENDBRANCH 137 227
ENDBRANCH 134 137
ENDBRANCH 130 133
ENDBRANCH   1 130
TORSDOF 64
