REMARK  10 active torsions:
REMARK  status: ('A' for Active; 'I' for Inactive)
REMARK    1  A    between atoms: C2_2  and  C1_1 
REMARK    2  A    between atoms: C4_4  and  O4_15 
REMARK    3  A    between atoms: N5_12  and  C5_5 
REMARK    4  A    between atoms: C6_6  and  C7_7 
REMARK    5  A    between atoms: C7_7  and  C8_8 
REMARK    6  A    between atoms: C7_7  and  O7_17 
REMARK    7  A    between atoms: C8_8  and  C9_9 
REMARK    8  A    between atoms: C8_8  and  O8_18 
REMARK    9  A    between atoms: C9_9  and  O9_19 
REMARK   10  A    between atoms: C10_10  and  C11_11 
REMARK       I    between atoms: C10_10  and  N5_12 
ROOT
ATOM      1  C2  DAN d   1       6.483 -24.113  54.340  0.00  0.00     0.144 C 
ATOM      2  C3  DAN d   1       5.958 -25.356  54.122  0.00  0.00    -0.035 C 
ATOM      3  C4  DAN d   1       5.298 -26.098  55.254  0.00  0.00     0.076 C 
ATOM      4  C5  DAN d   1       4.765 -25.134  56.341  0.00  0.00     0.068 C 
ATOM      5  C6  DAN d   1       5.917 -24.242  56.725  0.00  0.00     0.094 C 
ATOM      6  O6  DAN d   1       6.344 -23.428  55.616  0.00  0.00    -0.335 OA
ATOM      7  H1  DAN d   1       6.017 -25.808  53.133  0.00  0.00     0.085 H 
ATOM      8  H2  DAN d   1       6.094 -26.689  55.731  0.00  0.00     0.092 H 
ATOM      9  H3  DAN d   1       3.890 -24.560  56.003  0.00  0.00     0.081 H 
ATOM     10  H4  DAN d   1       6.750 -24.902  57.007  0.00  0.00     0.091 H 
ENDROOT
BRANCH   5  11
ATOM     11  C7  DAN d   1       5.650 -23.341  57.878  0.00  0.00     0.089 C 
ATOM     12  H5  DAN d   1       5.395 -23.939  58.766  0.00  0.00     0.091 H 
BRANCH  11  13
ATOM     13  C8  DAN d   1       6.805 -22.407  58.167  0.00  0.00     0.083 C 
ATOM     14  H6  DAN d   1       6.998 -21.804  57.268  0.00  0.00     0.090 H 
BRANCH  13  15
ATOM     15  C9  DAN d   1       6.434 -21.485  59.325  0.00  0.00     0.043 C 
ATOM     16  H7  DAN d   1       6.360 -22.075  60.250  0.00  0.00     0.078 H 
ATOM     17  H8  DAN d   1       5.465 -21.009  59.115  0.00  0.00     0.078 H 
BRANCH  15  18
ATOM     18  O9  DAN d   1       7.444 -20.461  59.490  0.00  0.00    -0.398 OA
ATOM     19  H16 DAN d   1       7.508 -19.950  58.692  0.00  0.00     0.209 HD
ENDBRANCH  15  18
ENDBRANCH  13  15
BRANCH  13  20
ATOM     20  O8  DAN d   1       7.985 -23.091  58.514  0.00  0.00    -0.391 OA
ATOM     21  H15 DAN d   1       8.680 -22.462  58.668  0.00  0.00     0.210 HD
ENDBRANCH  13  20
ENDBRANCH  11  13
BRANCH  11  22
ATOM     22  O7  DAN d   1       4.620 -22.457  57.535  0.00  0.00    -0.390 OA
ATOM     23  H14 DAN d   1       4.881 -21.948  56.776  0.00  0.00     0.210 HD
ENDBRANCH  11  22
ENDBRANCH   5  11
BRANCH   4  24
ATOM     24  N5  DAN d   1       4.474 -25.952  57.470  0.00  0.00    -0.351 N 
ATOM     25  C10 DAN d   1       3.246 -26.169  57.920  0.00  0.00     0.214 C 
ATOM     26  O10 DAN d   1       2.290 -25.600  57.435  0.00  0.00    -0.274 OA
ATOM     27  H12 DAN d   1       5.237 -26.386  57.949  0.00  0.00     0.163 HD
BRANCH  25  28
ATOM     28  C11 DAN d   1       3.120 -27.168  59.053  0.00  0.00    -0.003 C 
ATOM     29  H9  DAN d   1       2.063 -27.265  59.340  0.00  0.00     0.040 H 
ATOM     30  H10 DAN d   1       3.704 -26.818  59.917  0.00  0.00     0.040 H 
ATOM     31  H11 DAN d   1       3.502 -28.146  58.724  0.00  0.00     0.040 H 
ENDBRANCH  25  28
ENDBRANCH   4  24
BRANCH   3  32
ATOM     32  O4  DAN d   1       4.303 -27.053  54.828  0.00  0.00    -0.389 OA
ATOM     33  H13 DAN d   1       4.027 -27.574  55.573  0.00  0.00     0.210 HD
ENDBRANCH   3  32
BRANCH   1  34
ATOM     34  C1  DAN d   1       7.028 -23.314  53.245  0.00  0.00     0.233 C 
ATOM     35  O1A DAN d   1       7.019 -23.766  52.107  0.00  0.00    -0.642 OA
ATOM     36  O1B DAN d   1       7.422 -22.190  53.480  0.00  0.00    -0.642 OA
ENDBRANCH   1  34
TORSDOF 10
