REMARK  7 active torsions:
REMARK  status: ('A' for Active; 'I' for Inactive)
REMARK    1  A    between atoms: O1_30  and  C4_2 
REMARK    2  A    between atoms: C5_3  and  N_33 
REMARK    3  A    between atoms: C6_5  and  C7_7 
REMARK       I    between atoms: N_33  and  C6_5 
REMARK    4  A    between atoms: C7_7  and  C8_8 
REMARK    5  A    between atoms: S_18  and  N3_14 
REMARK    6  A    between atoms: C_27  and  S_18 
REMARK    7  A    between atoms: C3_29  and  O1_30 
ROOT
ATOM      1  C5  KUE d   1     169.942 -10.151  32.013  0.00  0.00     0.070 A 
ATOM      2  C   KUE d   1     167.609  -9.620  32.009  0.00  0.00     0.082 A 
ATOM      3  C16 KUE d   1     168.618 -10.562  32.138  0.00  0.00    -0.032 A 
ATOM      4  C3  KUE d   1     170.221  -8.792  31.770  0.00  0.00     0.095 A 
ATOM      5  C2  KUE d   1     169.191  -7.882  31.644  0.00  0.00    -0.047 A 
ATOM      6  C1  KUE d   1     167.883  -8.298  31.749  0.00  0.00    -0.058 A 
ATOM      7  H25 KUE d   1     168.380 -11.601  32.333  0.00  0.00     0.089 H 
ATOM      8  H26 KUE d   1     169.413  -6.837  31.462  0.00  0.00     0.087 H 
ATOM      9  H27 KUE d   1     167.074  -7.587  31.627  0.00  0.00     0.086 H 
ENDROOT
BRANCH   2  10
ATOM     10  S   KUE d   1     165.931 -10.120  32.207  0.00  0.00     0.260 S 
ATOM     11  O4  KUE d   1     165.712 -10.393  33.579  0.00  0.00    -0.200 OA
ATOM     12  O   KUE d   1     165.096  -9.165  31.548  0.00  0.00    -0.200 OA
BRANCH  10  13
ATOM     13  N3  KUE d   1     165.785 -11.538  31.399  0.00  0.00    -0.307 N 
ATOM     14  C23 KUE d   1     166.130 -11.563  29.964  0.00  0.00     0.005 C 
ATOM     15  C22 KUE d   1     165.569 -12.730  29.189  0.00  0.00    -0.049 C 
ATOM     16  H11 KUE d   1     167.226 -11.593  29.878  0.00  0.00     0.065 H 
ATOM     17  H12 KUE d   1     165.751 -10.637  29.507  0.00  0.00     0.065 H 
ATOM     18  C21 KUE d   1     164.058 -12.781  29.158  0.00  0.00    -0.064 C 
ATOM     19  H13 KUE d   1     165.937 -13.659  29.649  0.00  0.00     0.035 H 
ATOM     20  H14 KUE d   1     165.934 -12.664  28.153  0.00  0.00     0.035 H 
ATOM     21  C20 KUE d   1     163.283 -13.296  30.353  0.00  0.00    -0.065 C 
ATOM     22  H15 KUE d   1     163.781 -13.417  28.305  0.00  0.00     0.033 H 
ATOM     23  H16 KUE d   1     163.711 -11.753  28.977  0.00  0.00     0.033 H 
ATOM     24  C19 KUE d   1     163.989 -14.197  31.334  0.00  0.00    -0.064 C 
ATOM     25  H17 KUE d   1     162.419 -13.854  29.964  0.00  0.00     0.033 H 
ATOM     26  H18 KUE d   1     162.930 -12.418  30.914  0.00  0.00     0.033 H 
ATOM     27  C18 KUE d   1     164.634 -13.478  32.511  0.00  0.00    -0.049 C 
ATOM     28  H19 KUE d   1     164.776 -14.742  30.793  0.00  0.00     0.033 H 
ATOM     29  H20 KUE d   1     163.254 -14.913  31.731  0.00  0.00     0.033 H 
ATOM     30  C17 KUE d   1     165.941 -12.767  32.212  0.00  0.00     0.005 C 
ATOM     31  H21 KUE d   1     164.827 -14.223  33.297  0.00  0.00     0.035 H 
ATOM     32  H22 KUE d   1     163.919 -12.729  32.882  0.00  0.00     0.035 H 
ATOM     33  H23 KUE d   1     166.412 -12.492  33.167  0.00  0.00     0.065 H 
ATOM     34  H24 KUE d   1     166.596 -13.462  31.666  0.00  0.00     0.065 H 
ENDBRANCH  10  13
ENDBRANCH   2  10
BRANCH   1  35
ATOM     35  N   KUE d   1     171.043 -11.020  32.143  0.00  0.00    -0.324 N 
ATOM     36  C6  KUE d   1     170.999 -12.358  31.996  0.00  0.00     0.228 C 
ATOM     37  O3  KUE d   1     170.047 -12.949  31.486  0.00  0.00    -0.273 OA
ATOM     38  H28 KUE d   1     171.929 -10.610  32.362  0.00  0.00     0.169 HD
BRANCH  36  39
ATOM     39  C7  KUE d   1     172.224 -13.099  32.469  0.00  0.00     0.052 C 
ATOM     40  H4  KUE d   1     172.151 -13.237  33.558  0.00  0.00     0.056 H 
ATOM     41  H5  KUE d   1     173.112 -12.493  32.235  0.00  0.00     0.056 H 
BRANCH  39  42
ATOM     42  C8  KUE d   1     172.382 -14.443  31.828  0.00  0.00     0.074 A 
ATOM     43  N1  KUE d   1     172.033 -15.452  32.551  0.00  0.00    -0.175 NA
ATOM     44  N2  KUE d   1     172.157 -16.705  31.971  0.00  0.00    -0.243 N 
ATOM     45  C9  KUE d   1     172.564 -17.007  30.734  0.00  0.00     0.272 A 
ATOM     46  H6  KUE d   1     171.911 -17.481  32.551  0.00  0.00     0.192 HD
ATOM     47  C10 KUE d   1     172.939 -15.866  29.893  0.00  0.00     0.046 A 
ATOM     48  O2  KUE d   1     172.578 -18.176  30.336  0.00  0.00    -0.266 OA
ATOM     49  C11 KUE d   1     173.255 -16.036  28.535  0.00  0.00    -0.067 A 
ATOM     50  C15 KUE d   1     172.866 -14.574  30.441  0.00  0.00     0.006 A 
ATOM     51  C12 KUE d   1     173.519 -14.922  27.745  0.00  0.00    -0.082 A 
ATOM     52  H7  KUE d   1     173.293 -17.030  28.105  0.00  0.00     0.085 H 
ATOM     53  C13 KUE d   1     173.500 -13.634  28.301  0.00  0.00    -0.082 A 
ATOM     54  H8  KUE d   1     173.741 -15.050  26.692  0.00  0.00     0.083 H 
ATOM     55  C14 KUE d   1     173.167 -13.452  29.636  0.00  0.00    -0.070 A 
ATOM     56  H9  KUE d   1     173.747 -12.777  27.685  0.00  0.00     0.083 H 
ATOM     57  H10 KUE d   1     173.138 -12.454  30.059  0.00  0.00     0.084 H 
ENDBRANCH  39  42
ENDBRANCH  36  39
ENDBRANCH   1  35
BRANCH   4  58
ATOM     58  O1  KUE d   1     171.553  -8.480  31.714  0.00  0.00    -0.354 OA
BRANCH  58  59
ATOM     59  C4  KUE d   1     171.902  -7.079  31.596  0.00  0.00     0.010 C 
ATOM     60  H1  KUE d   1     172.997  -6.975  31.562  0.00  0.00     0.066 H 
ATOM     61  H2  KUE d   1     171.508  -6.529  32.463  0.00  0.00     0.066 H 
ATOM     62  H3  KUE d   1     171.466  -6.669  30.673  0.00  0.00     0.066 H 
ENDBRANCH  58  59
ENDBRANCH   4  58
TORSDOF 7
