REMARK  12 active torsions:
REMARK  status: ('A' for Active; 'I' for Inactive)
REMARK    1  A    between atoms: N18_11  and  C1_1 
REMARK    2  A    between atoms: C2_2  and  C12_6 
REMARK    3  A    between atoms: C7_3  and  C8_4 
REMARK    4  A    between atoms: C7_3  and  C9_5 
REMARK    5  A    between atoms: N4_19  and  C7_3 
REMARK    6  A    between atoms: C19_12  and  N18_11 
REMARK    7  A    between atoms: C20_13  and  C19_12 
REMARK    8  A    between atoms: C21_14  and  C20_13 
REMARK    9  A    between atoms: C22_15  and  C21_14 
REMARK   10  A    between atoms: C23_25  and  C22_15 
REMARK   11  A    between atoms: C27_17  and  S29_29 
REMARK   12  A    between atoms: S29_29  and  N30_30 
ROOT
ATOM      1  C1  KVK d   1     -74.379  49.534 -20.941  0.00  0.00     0.122 A 
ATOM      2  C2  KVK d   1     -73.409  48.582 -21.131  0.00  0.00     0.122 A 
ATOM      3  S3  KVK d   1     -72.049  49.225 -20.193  0.00  0.00     0.271 S 
ATOM      4  N4  KVK d   1     -72.675  50.667 -19.667  0.00  0.00    -0.232 N 
ATOM      5  C5  KVK d   1     -73.951  50.666 -20.131  0.00  0.00     0.285 A 
ATOM      6  O6  KVK d   1     -74.722  51.595 -19.944  0.00  0.00    -0.265 OA
ATOM      7  O10 KVK d   1     -71.902  48.402 -19.049  0.00  0.00    -0.200 OA
ATOM      8  O11 KVK d   1     -71.000  49.541 -21.096  0.00  0.00    -0.200 OA
ENDROOT
BRANCH   1   9
ATOM      9  N18 KVK d   1     -75.685  49.582 -21.464  0.00  0.00    -0.384 N 
ATOM     10  H12 KVK d   1     -76.222  50.435 -21.250  0.00  0.00     0.159 HD
BRANCH   9  11
ATOM     11  C19 KVK d   1     -76.379  48.581 -22.270  0.00  0.00    -0.007 C 
ATOM     12  H13 KVK d   1     -75.674  48.100 -22.964  0.00  0.00     0.064 H 
ATOM     13  H14 KVK d   1     -77.192  49.053 -22.841  0.00  0.00     0.064 H 
BRANCH  11  14
ATOM     14  C20 KVK d   1     -76.947  47.552 -21.309  0.00  0.00    -0.050 C 
ATOM     15  H15 KVK d   1     -77.884  47.934 -20.877  0.00  0.00     0.035 H 
ATOM     16  H16 KVK d   1     -76.221  47.365 -20.504  0.00  0.00     0.035 H 
BRANCH  14  17
ATOM     17  C21 KVK d   1     -77.225  46.254 -22.050  0.00  0.00    -0.059 C 
ATOM     18  H17 KVK d   1     -76.473  45.497 -21.782  0.00  0.00     0.033 H 
ATOM     19  H18 KVK d   1     -77.201  46.426 -23.136  0.00  0.00     0.033 H 
BRANCH  17  20
ATOM     20  C22 KVK d   1     -78.615  45.787 -21.623  0.00  0.00    -0.025 C 
ATOM     21  H19 KVK d   1     -79.366  46.397 -22.146  0.00  0.00     0.042 H 
ATOM     22  H20 KVK d   1     -78.716  45.933 -20.537  0.00  0.00     0.042 H 
BRANCH  20  23
ATOM     23  C23 KVK d   1     -78.871  44.335 -21.938  0.00  0.00     0.036 A 
ATOM     24  C24 KVK d   1     -77.837  43.398 -22.000  0.00  0.00    -0.059 A 
ATOM     25  C25 KVK d   1     -78.140  42.068 -22.287  0.00  0.00    -0.078 A 
ATOM     26  H21 KVK d   1     -76.811  43.702 -21.827  0.00  0.00     0.086 H 
ATOM     27  C26 KVK d   1     -79.476  41.713 -22.477  0.00  0.00    -0.042 A 
ATOM     28  H23 KVK d   1     -77.354  41.325 -22.361  0.00  0.00     0.083 H 
ATOM     29  C27 KVK d   1     -80.453  42.704 -22.386  0.00  0.00     0.171 A 
ATOM     30  H24 KVK d   1     -79.749  40.686 -22.691  0.00  0.00     0.088 H 
ATOM     31  N28 KVK d   1     -80.132  43.964 -22.122  0.00  0.00    -0.240 NA
BRANCH  29  32
ATOM     32  S29 KVK d   1     -82.150  42.305 -22.611  0.00  0.00     0.274 S 
ATOM     33  O31 KVK d   1     -82.482  42.710 -23.934  0.00  0.00    -0.199 OA
ATOM     34  O32 KVK d   1     -82.333  40.974 -22.137  0.00  0.00    -0.199 OA
BRANCH  32  35
ATOM     35  N30 KVK d   1     -82.980  43.308 -21.587  0.00  0.00    -0.323 N 
ATOM     36  H25 KVK d   1     -83.978  43.261 -21.541  0.00  0.00     0.169 HD
ATOM     37  H26 KVK d   1     -82.483  43.960 -21.014  0.00  0.00     0.169 HD
ENDBRANCH  32  35
ENDBRANCH  29  32
ENDBRANCH  20  23
ENDBRANCH  17  20
ENDBRANCH  14  17
ENDBRANCH  11  14
ENDBRANCH   9  11
ENDBRANCH   1   9
BRANCH   2  38
ATOM     38  C12 KVK d   1     -73.348  47.316 -21.881  0.00  0.00    -0.010 A 
ATOM     39  C13 KVK d   1     -73.146  46.104 -21.193  0.00  0.00    -0.071 A 
ATOM     40  C14 KVK d   1     -73.045  44.910 -21.897  0.00  0.00    -0.082 A 
ATOM     41  H8  KVK d   1     -73.069  46.102 -20.112  0.00  0.00     0.084 H 
ATOM     42  C15 KVK d   1     -73.102  44.920 -23.287  0.00  0.00    -0.083 A 
ATOM     43  H9  KVK d   1     -72.922  43.974 -21.365  0.00  0.00     0.083 H 
ATOM     44  C16 KVK d   1     -73.259  46.118 -23.980  0.00  0.00    -0.082 A 
ATOM     45  H10 KVK d   1     -73.024  43.988 -23.835  0.00  0.00     0.083 H 
ATOM     46  C17 KVK d   1     -73.353  47.317 -23.289  0.00  0.00    -0.071 A 
ATOM     47  H11 KVK d   1     -73.308  46.113 -25.063  0.00  0.00     0.083 H 
ATOM     48  H22 KVK d   1     -73.430  48.252 -23.831  0.00  0.00     0.084 H 
ENDBRANCH   2  38
BRANCH   4  49
ATOM     49  C7  KVK d   1     -71.915  51.633 -18.864  0.00  0.00     0.024 C 
ATOM     50  H1  KVK d   1     -70.881  51.263 -18.806  0.00  0.00     0.073 H 
BRANCH  49  51
ATOM     51  C8  KVK d   1     -71.856  53.012 -19.524  0.00  0.00    -0.056 C 
ATOM     52  H2  KVK d   1     -71.278  53.699 -18.888  0.00  0.00     0.030 H 
ATOM     53  H3  KVK d   1     -72.877  53.401 -19.652  0.00  0.00     0.030 H 
ATOM     54  H4  KVK d   1     -71.370  52.927 -20.507  0.00  0.00     0.030 H 
ENDBRANCH  49  51
BRANCH  49  55
ATOM     55  C9  KVK d   1     -72.450  51.697 -17.433  0.00  0.00    -0.056 C 
ATOM     56  H5  KVK d   1     -72.473  50.684 -17.004  0.00  0.00     0.030 H 
ATOM     57  H6  KVK d   1     -73.468  52.115 -17.440  0.00  0.00     0.030 H 
ATOM     58  H7  KVK d   1     -71.795  52.338 -16.825  0.00  0.00     0.030 H 
ENDBRANCH  49  55
ENDBRANCH   4  49
TORSDOF 12
