REMARK  6 active torsions:
REMARK  status: ('A' for Active; 'I' for Inactive)
REMARK    1  A    between atoms: C26_5  and  N27_14 
REMARK    2  A    between atoms: C05_7  and  C01_6 
REMARK    3  A    between atoms: S20_10  and  N16_9 
REMARK    4  A    between atoms: S20_10  and  C23_13 
REMARK       I    between atoms: N27_14  and  C29_15 
REMARK    5  A    between atoms: C29_15  and  C31_17 
REMARK    6  A    between atoms: C31_17  and  N34_18 
ROOT
ATOM      1  C24 KW5 d   1     -23.358  45.792   9.093  0.00  0.00    -0.033 A 
ATOM      2  C26 KW5 d   1     -22.652  46.699   8.308  0.00  0.00     0.036 A 
ATOM      3  C23 KW5 d   1     -22.741  44.650   9.580  0.00  0.00     0.099 A 
ATOM      4  C44 KW5 d   1     -21.314  46.452   8.009  0.00  0.00    -0.056 A 
ATOM      5  C46 KW5 d   1     -20.690  45.312   8.483  0.00  0.00    -0.062 A 
ATOM      6  C48 KW5 d   1     -21.395  44.408   9.263  0.00  0.00     0.034 A 
ATOM      7 BR1  KW5 d   1     -20.448  42.880   9.869  0.00  0.00    -0.049 Br
ATOM      8  H7  KW5 d   1     -24.400  45.980   9.326  0.00  0.00     0.089 H 
ATOM      9  H20 KW5 d   1     -20.759  47.157   7.401  0.00  0.00     0.087 H 
ATOM     10  H21 KW5 d   1     -19.649  45.125   8.245  0.00  0.00     0.085 H 
ENDROOT
BRANCH   3  11
ATOM     11  S20 KW5 d   1     -23.740  43.549  10.571  0.00  0.00     0.262 S 
ATOM     12  O21 KW5 d   1     -23.991  42.394   9.771  0.00  0.00    -0.200 OA
ATOM     13  O22 KW5 d   1     -23.102  43.400  11.842  0.00  0.00    -0.200 OA
BRANCH  11  14
ATOM     14  N16 KW5 d   1     -25.194  44.220  10.865  0.00  0.00    -0.306 N 
ATOM     15  C13 KW5 d   1     -26.209  44.189   9.805  0.00  0.00     0.005 C 
ATOM     16  C10 KW5 d   1     -27.565  44.146  10.448  0.00  0.00    -0.049 C 
ATOM     17  H3  KW5 d   1     -26.122  45.091   9.181  0.00  0.00     0.065 H 
ATOM     18  H4  KW5 d   1     -26.066  43.295   9.180  0.00  0.00     0.065 H 
ATOM     19  C07 KW5 d   1     -27.758  45.355  11.347  0.00  0.00    -0.059 C 
ATOM     20  H1  KW5 d   1     -27.653  43.229  11.049  0.00  0.00     0.035 H 
ATOM     21  H2  KW5 d   1     -28.338  44.148   9.666  0.00  0.00     0.035 H 
ATOM     22  C05 KW5 d   1     -26.665  45.436  12.400  0.00  0.00    -0.041 C 
ATOM     23  H12 KW5 d   1     -28.734  45.278  11.848  0.00  0.00     0.033 H 
ATOM     24  H13 KW5 d   1     -27.733  46.267  10.732  0.00  0.00     0.033 H 
ATOM     25  C17 KW5 d   1     -25.303  45.412  11.721  0.00  0.00     0.008 C 
ATOM     26  H11 KW5 d   1     -26.747  44.555  13.054  0.00  0.00     0.042 H 
ATOM     27  H5  KW5 d   1     -24.514  45.385  12.487  0.00  0.00     0.066 H 
ATOM     28  H6  KW5 d   1     -25.186  46.316  11.105  0.00  0.00     0.066 H 
BRANCH  22  29
ATOM     29  C01 KW5 d   1     -26.808  46.680  13.260  0.00  0.00    -0.071 C 
ATOM     30  H8  KW5 d   1     -27.797  46.681  13.742  0.00  0.00     0.028 H 
ATOM     31  H9  KW5 d   1     -26.707  47.575  12.629  0.00  0.00     0.028 H 
ATOM     32  H10 KW5 d   1     -26.024  46.685  14.031  0.00  0.00     0.028 H 
ENDBRANCH  22  29
ENDBRANCH  11  14
ENDBRANCH   3  11
BRANCH   2  33
ATOM     33  N27 KW5 d   1     -23.232  47.886   7.798  0.00  0.00    -0.326 N 
ATOM     34  C29 KW5 d   1     -24.511  48.314   7.888  0.00  0.00     0.240 C 
ATOM     35  O30 KW5 d   1     -25.416  47.699   8.450  0.00  0.00    -0.271 OA
ATOM     36  H14 KW5 d   1     -22.609  48.491   7.303  0.00  0.00     0.169 HD
BRANCH  34  37
ATOM     37  C31 KW5 d   1     -24.753  49.658   7.225  0.00  0.00     0.081 C 
ATOM     38  H15 KW5 d   1     -24.525  49.553   6.154  0.00  0.00     0.079 H 
ATOM     39  H16 KW5 d   1     -24.064  50.387   7.677  0.00  0.00     0.079 H 
BRANCH  37  40
ATOM     40  N34 KW5 d   1     -26.102  50.186   7.344  0.00  0.00    -0.260 N 
ATOM     41  C35 KW5 d   1     -26.596  50.875   8.465  0.00  0.00     0.245 A 
ATOM     42  O36 KW5 d   1     -25.960  51.099   9.491  0.00  0.00    -0.271 OA
ATOM     43  C37 KW5 d   1     -28.016  51.252   8.141  0.00  0.00     0.071 A 
ATOM     44  N40 KW5 d   1     -28.174  50.711   6.807  0.00  0.00    -0.334 N 
ATOM     45  H17 KW5 d   1     -28.151  52.344   8.148  0.00  0.00     0.078 H 
ATOM     46  H18 KW5 d   1     -28.723  50.790   8.846  0.00  0.00     0.078 H 
ATOM     47  C42 KW5 d   1     -27.063  50.105   6.350  0.00  0.00     0.325 A 
ATOM     48  H19 KW5 d   1     -29.021  50.781   6.280  0.00  0.00     0.164 HD
ATOM     49  O43 KW5 d   1     -26.904  49.562   5.262  0.00  0.00    -0.247 OA
ENDBRANCH  37  40
ENDBRANCH  34  37
ENDBRANCH   2  33
TORSDOF 6
