REMARK  8 active torsions:
REMARK  status: ('A' for Active; 'I' for Inactive)
REMARK    1  A    between atoms: O1_24  and  C4_2 
REMARK    2  A    between atoms: C5_3  and  N_27 
REMARK    3  A    between atoms: C6_5  and  C7_7 
REMARK       I    between atoms: N_27  and  C6_5 
REMARK    4  A    between atoms: C7_7  and  C8_8 
REMARK    5  A    between atoms: S_18  and  N3_14 
REMARK    6  A    between atoms: N3_14  and  C17_20 
REMARK    7  A    between atoms: C_21  and  S_18 
REMARK    8  A    between atoms: C3_23  and  O1_24 
ROOT
ATOM      1  C5  KYZ d   1     169.317 -10.203  31.891  0.00  0.00     0.070 A 
ATOM      2  C   KYZ d   1     166.978  -9.649  32.023  0.00  0.00     0.081 A 
ATOM      3  C16 KYZ d   1     167.985 -10.604  32.045  0.00  0.00    -0.032 A 
ATOM      4  C3  KYZ d   1     169.592  -8.835  31.678  0.00  0.00     0.095 A 
ATOM      5  C2  KYZ d   1     168.567  -7.906  31.643  0.00  0.00    -0.047 A 
ATOM      6  C1  KYZ d   1     167.255  -8.314  31.826  0.00  0.00    -0.058 A 
ATOM      7  H15 KYZ d   1     167.742 -11.652  32.180  0.00  0.00     0.089 H 
ATOM      8  H16 KYZ d   1     168.790  -6.859  31.472  0.00  0.00     0.087 H 
ATOM      9  H17 KYZ d   1     166.451  -7.587  31.814  0.00  0.00     0.086 H 
ENDROOT
BRANCH   1  10
ATOM     10  N   KYZ d   1     170.433 -11.062  31.921  0.00  0.00    -0.324 N 
ATOM     11  C6  KYZ d   1     170.416 -12.408  31.759  0.00  0.00     0.228 C 
ATOM     12  O3  KYZ d   1     169.451 -13.018  31.304  0.00  0.00    -0.273 OA
ATOM     13  H18 KYZ d   1     171.325 -10.638  32.077  0.00  0.00     0.169 HD
BRANCH  11  14
ATOM     14  C7  KYZ d   1     171.661 -13.127  32.218  0.00  0.00     0.052 C 
ATOM     15  H4  KYZ d   1     171.603 -13.260  33.308  0.00  0.00     0.056 H 
ATOM     16  H5  KYZ d   1     172.533 -12.504  31.971  0.00  0.00     0.056 H 
BRANCH  14  17
ATOM     17  C8  KYZ d   1     171.849 -14.474  31.587  0.00  0.00     0.074 A 
ATOM     18  N1  KYZ d   1     171.549 -15.495  32.311  0.00  0.00    -0.175 NA
ATOM     19  N2  KYZ d   1     171.628 -16.778  31.700  0.00  0.00    -0.243 N 
ATOM     20  C9  KYZ d   1     171.951 -17.056  30.455  0.00  0.00     0.272 A 
ATOM     21  H6  KYZ d   1     171.413 -17.560  32.285  0.00  0.00     0.192 HD
ATOM     22  C10 KYZ d   1     172.284 -15.907  29.622  0.00  0.00     0.046 A 
ATOM     23  O2  KYZ d   1     172.056 -18.216  30.064  0.00  0.00    -0.266 OA
ATOM     24  C11 KYZ d   1     172.631 -16.085  28.275  0.00  0.00    -0.067 A 
ATOM     25  C15 KYZ d   1     172.251 -14.616  30.176  0.00  0.00     0.006 A 
ATOM     26  C12 KYZ d   1     172.969 -14.987  27.501  0.00  0.00    -0.082 A 
ATOM     27  H7  KYZ d   1     172.635 -17.078  27.841  0.00  0.00     0.085 H 
ATOM     28  C13 KYZ d   1     172.923 -13.702  28.049  0.00  0.00    -0.082 A 
ATOM     29  H8  KYZ d   1     173.270 -15.125  26.469  0.00  0.00     0.083 H 
ATOM     30  C14 KYZ d   1     172.575 -13.513  29.375  0.00  0.00    -0.070 A 
ATOM     31  H10 KYZ d   1     173.162 -12.845  27.429  0.00  0.00     0.083 H 
ATOM     32  H11 KYZ d   1     172.553 -12.513  29.793  0.00  0.00     0.084 H 
ENDBRANCH  14  17
ENDBRANCH  11  14
ENDBRANCH   1  10
BRANCH   4  33
ATOM     33  O1  KYZ d   1     170.908  -8.535  31.486  0.00  0.00    -0.354 OA
BRANCH  33  34
ATOM     34  C4  KYZ d   1     171.245  -7.139  31.373  0.00  0.00     0.010 C 
ATOM     35  H1  KYZ d   1     172.329  -7.035  31.222  0.00  0.00     0.066 H 
ATOM     36  H2  KYZ d   1     170.951  -6.615  32.295  0.00  0.00     0.066 H 
ATOM     37  H3  KYZ d   1     170.712  -6.701  30.516  0.00  0.00     0.066 H 
ENDBRANCH  33  34
ENDBRANCH   4  33
BRANCH   2  38
ATOM     38  S   KYZ d   1     165.320 -10.139  32.361  0.00  0.00     0.258 S 
ATOM     39  O4  KYZ d   1     165.330 -10.884  33.576  0.00  0.00    -0.201 OA
ATOM     40  O   KYZ d   1     164.469  -9.001  32.246  0.00  0.00    -0.201 OA
BRANCH  38  41
ATOM     41  N3  KYZ d   1     164.930 -11.155  31.181  0.00  0.00    -0.320 N 
ATOM     42  H9  KYZ d   1     164.479 -10.830  30.350  0.00  0.00     0.171 HD
BRANCH  41  43
ATOM     43  C17 KYZ d   1     165.253 -12.568  31.358  0.00  0.00    -0.011 C 
ATOM     44  H12 KYZ d   1     164.927 -13.133  30.472  0.00  0.00     0.057 H 
ATOM     45  H13 KYZ d   1     164.736 -12.954  32.249  0.00  0.00     0.057 H 
ATOM     46  H14 KYZ d   1     166.339 -12.683  31.486  0.00  0.00     0.057 H 
ENDBRANCH  41  43
ENDBRANCH  38  41
ENDBRANCH   2  38
TORSDOF 8
