REMARK  8 active torsions:
REMARK  status: ('A' for Active; 'I' for Inactive)
REMARK    1  A    between atoms: O1_29  and  C4_2 
REMARK    2  A    between atoms: C5_3  and  N_32 
REMARK    3  A    between atoms: C6_5  and  C7_7 
REMARK       I    between atoms: N_32  and  C6_5 
REMARK    4  A    between atoms: C7_7  and  C8_8 
REMARK    5  A    between atoms: S_18  and  N3_14 
REMARK    6  A    between atoms: N3_14  and  C17_20 
REMARK    7  A    between atoms: C_26  and  S_18 
REMARK    8  A    between atoms: C3_28  and  O1_29 
ROOT
ATOM      1  C5  KZ8 d   1     170.072 -10.232  32.001  0.00  0.00     0.070 A 
ATOM      2  C   KZ8 d   1     167.735  -9.702  32.119  0.00  0.00     0.082 A 
ATOM      3  C16 KZ8 d   1     168.746 -10.649  32.177  0.00  0.00    -0.032 A 
ATOM      4  C3  KZ8 d   1     170.346  -8.874  31.773  0.00  0.00     0.095 A 
ATOM      5  C2  KZ8 d   1     169.320  -7.961  31.700  0.00  0.00    -0.047 A 
ATOM      6  C1  KZ8 d   1     168.010  -8.373  31.859  0.00  0.00    -0.058 A 
ATOM      7  H17 KZ8 d   1     168.515 -11.693  32.355  0.00  0.00     0.089 H 
ATOM      8  H18 KZ8 d   1     169.539  -6.915  31.517  0.00  0.00     0.087 H 
ATOM      9  H19 KZ8 d   1     167.201  -7.656  31.780  0.00  0.00     0.086 H 
ENDROOT
BRANCH   1  10
ATOM     10  N   KZ8 d   1     171.180 -11.084  32.069  0.00  0.00    -0.324 N 
ATOM     11  C6  KZ8 d   1     171.183 -12.424  31.864  0.00  0.00     0.228 C 
ATOM     12  O3  KZ8 d   1     170.276 -13.035  31.314  0.00  0.00    -0.273 OA
ATOM     13  H20 KZ8 d   1     172.059 -10.662  32.291  0.00  0.00     0.169 HD
BRANCH  11  14
ATOM     14  C7  KZ8 d   1     172.396 -13.144  32.401  0.00  0.00     0.052 C 
ATOM     15  H4  KZ8 d   1     172.288 -13.261  33.489  0.00  0.00     0.056 H 
ATOM     16  H5  KZ8 d   1     173.292 -12.544  32.183  0.00  0.00     0.056 H 
BRANCH  14  17
ATOM     17  C8  KZ8 d   1     172.556 -14.495  31.783  0.00  0.00     0.074 A 
ATOM     18  N1  KZ8 d   1     172.256 -15.509  32.519  0.00  0.00    -0.175 NA
ATOM     19  N2  KZ8 d   1     172.380 -16.750  31.971  0.00  0.00    -0.243 N 
ATOM     20  C9  KZ8 d   1     172.788 -17.058  30.706  0.00  0.00     0.272 A 
ATOM     21  H6  KZ8 d   1     172.146 -17.522  32.562  0.00  0.00     0.192 HD
ATOM     22  C10 KZ8 d   1     173.125 -15.914  29.852  0.00  0.00     0.046 A 
ATOM     23  O2  KZ8 d   1     172.912 -18.223  30.366  0.00  0.00    -0.266 OA
ATOM     24  C11 KZ8 d   1     173.521 -16.091  28.520  0.00  0.00    -0.067 A 
ATOM     25  C15 KZ8 d   1     173.027 -14.615  30.389  0.00  0.00     0.006 A 
ATOM     26  C12 KZ8 d   1     173.814 -14.980  27.742  0.00  0.00    -0.082 A 
ATOM     27  H7  KZ8 d   1     173.598 -17.088  28.101  0.00  0.00     0.085 H 
ATOM     28  C13 KZ8 d   1     173.727 -13.689  28.281  0.00  0.00    -0.082 A 
ATOM     29  H8  KZ8 d   1     174.113 -15.112  26.708  0.00  0.00     0.083 H 
ATOM     30  C14 KZ8 d   1     173.345 -13.500  29.605  0.00  0.00    -0.070 A 
ATOM     31  H10 KZ8 d   1     173.959 -12.831  27.661  0.00  0.00     0.083 H 
ATOM     32  H11 KZ8 d   1     173.294 -12.502  30.024  0.00  0.00     0.084 H 
ENDBRANCH  14  17
ENDBRANCH  11  14
ENDBRANCH   1  10
BRANCH   4  33
ATOM     33  O1  KZ8 d   1     171.671  -8.566  31.666  0.00  0.00    -0.354 OA
BRANCH  33  34
ATOM     34  C4  KZ8 d   1     172.046  -7.183  31.639  0.00  0.00     0.010 C 
ATOM     35  H1  KZ8 d   1     173.139  -7.101  31.550  0.00  0.00     0.066 H 
ATOM     36  H2  KZ8 d   1     171.716  -6.695  32.568  0.00  0.00     0.066 H 
ATOM     37  H3  KZ8 d   1     171.571  -6.691  30.778  0.00  0.00     0.066 H 
ENDBRANCH  33  34
ENDBRANCH   4  33
BRANCH   2  38
ATOM     38  S   KZ8 d   1     166.074 -10.177  32.510  0.00  0.00     0.263 S 
ATOM     39  O4  KZ8 d   1     165.875  -9.975  33.907  0.00  0.00    -0.200 OA
ATOM     40  O   KZ8 d   1     165.213  -9.485  31.604  0.00  0.00    -0.200 OA
BRANCH  38  41
ATOM     41  N3  KZ8 d   1     165.960 -11.770  32.215  0.00  0.00    -0.281 N 
ATOM     42  H9  KZ8 d   1     165.788 -12.409  32.964  0.00  0.00     0.179 HD
BRANCH  41  43
ATOM     43  C17 KZ8 d   1     166.108 -12.254  30.873  0.00  0.00     0.042 A 
ATOM     44  C22 KZ8 d   1     166.181 -11.375  29.794  0.00  0.00    -0.057 A 
ATOM     45  C21 KZ8 d   1     166.473 -11.851  28.522  0.00  0.00    -0.081 A 
ATOM     46  H12 KZ8 d   1     166.009 -10.316  29.948  0.00  0.00     0.086 H 
ATOM     47  C20 KZ8 d   1     166.696 -13.197  28.319  0.00  0.00    -0.083 A 
ATOM     48  H13 KZ8 d   1     166.526 -11.162  27.686  0.00  0.00     0.083 H 
ATOM     49  C19 KZ8 d   1     166.614 -14.077  29.390  0.00  0.00    -0.081 A 
ATOM     50  H14 KZ8 d   1     166.934 -13.566  27.328  0.00  0.00     0.083 H 
ATOM     51  C18 KZ8 d   1     166.319 -13.612  30.663  0.00  0.00    -0.057 A 
ATOM     52  H15 KZ8 d   1     166.782 -15.136  29.230  0.00  0.00     0.083 H 
ATOM     53  H16 KZ8 d   1     166.253 -14.306  31.493  0.00  0.00     0.086 H 
ENDBRANCH  41  43
ENDBRANCH  38  41
ENDBRANCH   2  38
TORSDOF 8
