REMARK  7 active torsions:
REMARK  status: ('A' for Active; 'I' for Inactive)
REMARK    1  A    between atoms: O1_32  and  C4_2 
REMARK    2  A    between atoms: C5_3  and  N_35 
REMARK    3  A    between atoms: C6_5  and  C7_7 
REMARK       I    between atoms: N_35  and  C6_5 
REMARK    4  A    between atoms: C7_7  and  C8_8 
REMARK    5  A    between atoms: S_18  and  N3_14 
REMARK    6  A    between atoms: C_29  and  S_18 
REMARK    7  A    between atoms: C3_31  and  O1_32 
ROOT
ATOM      1  C5  KZN d   1     170.133 -10.220  32.040  0.00  0.00     0.070 A 
ATOM      2  C   KZN d   1     167.782  -9.751  32.040  0.00  0.00     0.082 A 
ATOM      3  C16 KZN d   1     168.814 -10.669  32.143  0.00  0.00    -0.032 A 
ATOM      4  C3  KZN d   1     170.380  -8.842  31.839  0.00  0.00     0.095 A 
ATOM      5  C2  KZN d   1     169.329  -7.962  31.692  0.00  0.00    -0.047 A 
ATOM      6  C1  KZN d   1     168.026  -8.419  31.785  0.00  0.00    -0.058 A 
ATOM      7  H21 KZN d   1     168.601 -11.720  32.301  0.00  0.00     0.089 H 
ATOM      8  H22 KZN d   1     169.523  -6.912  31.504  0.00  0.00     0.087 H 
ATOM      9  H23 KZN d   1     167.199  -7.730  31.657  0.00  0.00     0.086 H 
ENDROOT
BRANCH   1  10
ATOM     10  N   KZN d   1     171.253 -11.071  32.133  0.00  0.00    -0.324 N 
ATOM     11  C6  KZN d   1     171.241 -12.405  31.944  0.00  0.00     0.228 C 
ATOM     12  O3  KZN d   1     170.299 -13.018  31.446  0.00  0.00    -0.273 OA
ATOM     13  H24 KZN d   1     172.131 -10.649  32.358  0.00  0.00     0.169 HD
BRANCH  11  14
ATOM     14  C7  KZN d   1     172.482 -13.127  32.423  0.00  0.00     0.052 C 
ATOM     15  H4  KZN d   1     172.407 -13.250  33.514  0.00  0.00     0.056 H 
ATOM     16  H5  KZN d   1     173.355 -12.502  32.183  0.00  0.00     0.056 H 
BRANCH  14  17
ATOM     17  C8  KZN d   1     172.696 -14.479  31.816  0.00  0.00     0.074 A 
ATOM     18  N1  KZN d   1     172.420 -15.493  32.562  0.00  0.00    -0.175 NA
ATOM     19  N2  KZN d   1     172.562 -16.727  32.032  0.00  0.00    -0.243 N 
ATOM     20  C9  KZN d   1     172.950 -17.050  30.774  0.00  0.00     0.272 A 
ATOM     21  H6  KZN d   1     172.356 -17.494  32.640  0.00  0.00     0.192 HD
ATOM     22  C10 KZN d   1     173.285 -15.923  29.914  0.00  0.00     0.046 A 
ATOM     23  O2  KZN d   1     172.956 -18.213  30.401  0.00  0.00    -0.266 OA
ATOM     24  C11 KZN d   1     173.672 -16.118  28.591  0.00  0.00    -0.067 A 
ATOM     25  C15 KZN d   1     173.158 -14.619  30.425  0.00  0.00     0.006 A 
ATOM     26  C12 KZN d   1     173.886 -15.018  27.774  0.00  0.00    -0.082 A 
ATOM     27  H7  KZN d   1     173.805 -17.121  28.203  0.00  0.00     0.085 H 
ATOM     28  C13 KZN d   1     173.720 -13.730  28.264  0.00  0.00    -0.082 A 
ATOM     29  H8  KZN d   1     174.186 -15.165  26.743  0.00  0.00     0.083 H 
ATOM     30  C14 KZN d   1     173.377 -13.520  29.593  0.00  0.00    -0.070 A 
ATOM     31  H9  KZN d   1     173.859 -12.881  27.604  0.00  0.00     0.083 H 
ATOM     32  H10 KZN d   1     173.280 -12.512  29.981  0.00  0.00     0.084 H 
ENDBRANCH  14  17
ENDBRANCH  11  14
ENDBRANCH   1  10
BRANCH   4  33
ATOM     33  O1  KZN d   1     171.702  -8.487  31.802  0.00  0.00    -0.354 OA
BRANCH  33  34
ATOM     34  C4  KZN d   1     172.019  -7.098  31.586  0.00  0.00     0.010 C 
ATOM     35  H1  KZN d   1     173.111  -6.968  31.581  0.00  0.00     0.066 H 
ATOM     36  H2  KZN d   1     171.581  -6.492  32.393  0.00  0.00     0.066 H 
ATOM     37  H3  KZN d   1     171.607  -6.774  30.619  0.00  0.00     0.066 H 
ENDBRANCH  33  34
ENDBRANCH   4  33
BRANCH   2  38
ATOM     38  S   KZN d   1     166.133 -10.269  32.361  0.00  0.00     0.261 S 
ATOM     39  O4  KZN d   1     165.969 -10.427  33.771  0.00  0.00    -0.200 OA
ATOM     40  O   KZN d   1     165.274  -9.379  31.652  0.00  0.00    -0.200 OA
BRANCH  38  41
ATOM     41  N3  KZN d   1     165.973 -11.739  31.704  0.00  0.00    -0.302 N 
ATOM     42  C25 KZN d   1     166.176 -11.852  30.252  0.00  0.00     0.009 C 
ATOM     43  C24 KZN d   1     166.780 -13.195  29.922  0.00  0.00    -0.025 C 
ATOM     44  H11 KZN d   1     166.854 -11.054  29.915  0.00  0.00     0.065 H 
ATOM     45  H12 KZN d   1     165.208 -11.751  29.739  0.00  0.00     0.065 H 
ATOM     46  C23 KZN d   1     166.039 -14.328  30.579  0.00  0.00    -0.049 A 
ATOM     47  H13 KZN d   1     167.825 -13.208  30.266  0.00  0.00     0.042 H 
ATOM     48  H14 KZN d   1     166.751 -13.338  28.832  0.00  0.00     0.042 H 
ATOM     49  C22 KZN d   1     166.164 -15.620  30.075  0.00  0.00    -0.076 A 
ATOM     50  C18 KZN d   1     165.239 -14.108  31.708  0.00  0.00    -0.033 A 
ATOM     51  C21 KZN d   1     165.528 -16.685  30.688  0.00  0.00    -0.082 A 
ATOM     52  H15 KZN d   1     166.767 -15.794  29.191  0.00  0.00     0.084 H 
ATOM     53  C20 KZN d   1     164.761 -16.473  31.807  0.00  0.00    -0.082 A 
ATOM     54  H16 KZN d   1     165.635 -17.686  30.285  0.00  0.00     0.083 H 
ATOM     55  C19 KZN d   1     164.611 -15.195  32.311  0.00  0.00    -0.075 A 
ATOM     56  H17 KZN d   1     164.273 -17.309  32.295  0.00  0.00     0.083 H 
ATOM     57  H18 KZN d   1     163.995 -15.036  33.189  0.00  0.00     0.084 H 
ATOM     58  C17 KZN d   1     165.016 -12.714  32.259  0.00  0.00     0.029 C 
ATOM     59  H19 KZN d   1     163.995 -12.392  32.007  0.00  0.00     0.072 H 
ATOM     60  H20 KZN d   1     165.132 -12.742  33.352  0.00  0.00     0.072 H 
ENDBRANCH  38  41
ENDBRANCH   2  38
TORSDOF 7
