REMARK  7 active torsions:
REMARK  status: ('A' for Active; 'I' for Inactive)
REMARK    1  A    between atoms: O1_33  and  C4_2 
REMARK    2  A    between atoms: C5_3  and  N_36 
REMARK    3  A    between atoms: C6_5  and  C7_7 
REMARK       I    between atoms: N_36  and  C6_5 
REMARK    4  A    between atoms: C7_7  and  C8_8 
REMARK    5  A    between atoms: S_18  and  N3_14 
REMARK    6  A    between atoms: C_30  and  S_18 
REMARK    7  A    between atoms: C3_32  and  O1_33 
ROOT
ATOM      1  C5  L0K d   1     170.321 -10.149  32.108  0.00  0.00     0.070 A 
ATOM      2  C   L0K d   1     167.979  -9.633  32.051  0.00  0.00     0.082 A 
ATOM      3  C16 L0K d   1     168.993 -10.561  32.226  0.00  0.00    -0.032 A 
ATOM      4  C3  L0K d   1     170.603  -8.806  31.813  0.00  0.00     0.095 A 
ATOM      5  C2  L0K d   1     169.568  -7.907  31.637  0.00  0.00    -0.047 A 
ATOM      6  C1  L0K d   1     168.256  -8.323  31.744  0.00  0.00    -0.058 A 
ATOM      7  H23 L0K d   1     168.757 -11.595  32.452  0.00  0.00     0.089 H 
ATOM      8  H24 L0K d   1     169.788  -6.869  31.414  0.00  0.00     0.087 H 
ATOM      9  H25 L0K d   1     167.447  -7.619  31.586  0.00  0.00     0.086 H 
ENDROOT
BRANCH   2  10
ATOM     10  S   L0K d   1     166.308 -10.121  32.327  0.00  0.00     0.260 S 
ATOM     11  O4  L0K d   1     166.142 -10.231  33.729  0.00  0.00    -0.200 OA
ATOM     12  O   L0K d   1     165.485  -9.235  31.576  0.00  0.00    -0.200 OA
BRANCH  10  13
ATOM     13  N3  L0K d   1     166.151 -11.604  31.692  0.00  0.00    -0.306 N 
ATOM     14  C26 L0K d   1     165.325 -12.615  32.385  0.00  0.00     0.009 C 
ATOM     15  C25 L0K d   1     165.942 -13.999  32.388  0.00  0.00    -0.025 C 
ATOM     16  H11 L0K d   1     164.348 -12.670  31.883  0.00  0.00     0.065 H 
ATOM     17  H12 L0K d   1     165.184 -12.294  33.428  0.00  0.00     0.065 H 
ATOM     18  C24 L0K d   1     165.867 -14.797  31.105  0.00  0.00    -0.050 A 
ATOM     19  H13 L0K d   1     165.436 -14.584  33.170  0.00  0.00     0.042 H 
ATOM     20  H14 L0K d   1     167.006 -13.886  32.644  0.00  0.00     0.042 H 
ATOM     21  C23 L0K d   1     165.336 -16.089  31.152  0.00  0.00    -0.076 A 
ATOM     22  C19 L0K d   1     166.469 -14.344  29.910  0.00  0.00    -0.050 A 
ATOM     23  C22 L0K d   1     165.425 -16.929  30.048  0.00  0.00    -0.082 A 
ATOM     24  H15 L0K d   1     164.851 -16.439  32.056  0.00  0.00     0.084 H 
ATOM     25  C21 L0K d   1     166.027 -16.487  28.879  0.00  0.00    -0.082 A 
ATOM     26  H16 L0K d   1     165.022 -17.934  30.101  0.00  0.00     0.083 H 
ATOM     27  C20 L0K d   1     166.534 -15.197  28.804  0.00  0.00    -0.076 A 
ATOM     28  H17 L0K d   1     166.101 -17.149  28.024  0.00  0.00     0.083 H 
ATOM     29  H18 L0K d   1     166.984 -14.848  27.881  0.00  0.00     0.084 H 
ATOM     30  C18 L0K d   1     167.136 -12.994  29.880  0.00  0.00    -0.025 C 
ATOM     31  C17 L0K d   1     166.236 -11.816  30.241  0.00  0.00     0.009 C 
ATOM     32  H19 L0K d   1     167.522 -12.828  28.864  0.00  0.00     0.042 H 
ATOM     33  H20 L0K d   1     167.974 -13.013  30.592  0.00  0.00     0.042 H 
ATOM     34  H21 L0K d   1     166.640 -10.906  29.773  0.00  0.00     0.065 H 
ATOM     35  H22 L0K d   1     165.226 -12.011  29.852  0.00  0.00     0.065 H 
ENDBRANCH  10  13
ENDBRANCH   2  10
BRANCH   1  36
ATOM     36  N   L0K d   1     171.425 -11.011  32.233  0.00  0.00    -0.324 N 
ATOM     37  C6  L0K d   1     171.387 -12.337  32.036  0.00  0.00     0.228 C 
ATOM     38  O3  L0K d   1     170.430 -12.928  31.528  0.00  0.00    -0.273 OA
ATOM     39  H26 L0K d   1     172.303 -10.605  32.487  0.00  0.00     0.169 HD
BRANCH  37  40
ATOM     40  C7  L0K d   1     172.600 -13.078  32.543  0.00  0.00     0.052 C 
ATOM     41  H4  L0K d   1     172.482 -13.213  33.628  0.00  0.00     0.056 H 
ATOM     42  H5  L0K d   1     173.483 -12.452  32.345  0.00  0.00     0.056 H 
BRANCH  40  43
ATOM     43  C8  L0K d   1     172.851 -14.429  31.938  0.00  0.00     0.074 A 
ATOM     44  N1  L0K d   1     172.558 -15.456  32.664  0.00  0.00    -0.175 NA
ATOM     45  N2  L0K d   1     172.687 -16.702  32.082  0.00  0.00    -0.243 N 
ATOM     46  C15 L0K d   1     173.081 -16.992  30.841  0.00  0.00     0.272 A 
ATOM     47  H6  L0K d   1     172.457 -17.483  32.663  0.00  0.00     0.192 HD
ATOM     48  C10 L0K d   1     173.402 -15.846  29.999  0.00  0.00     0.046 A 
ATOM     49  O2  L0K d   1     173.158 -18.158  30.459  0.00  0.00    -0.266 OA
ATOM     50  C9  L0K d   1     173.298 -14.551  30.543  0.00  0.00     0.006 A 
ATOM     51  C11 L0K d   1     173.754 -16.020  28.652  0.00  0.00    -0.067 A 
ATOM     52  C14 L0K d   1     173.576 -13.426  29.750  0.00  0.00    -0.070 A 
ATOM     53  C13 L0K d   1     173.963 -13.613  28.427  0.00  0.00    -0.082 A 
ATOM     54  H10 L0K d   1     173.490 -12.427  30.162  0.00  0.00     0.084 H 
ATOM     55  C12 L0K d   1     174.047 -14.904  27.881  0.00  0.00    -0.082 A 
ATOM     56  H9  L0K d   1     174.202 -12.754  27.811  0.00  0.00     0.083 H 
ATOM     57  H8  L0K d   1     174.344 -15.030  26.846  0.00  0.00     0.083 H 
ATOM     58  H7  L0K d   1     173.797 -17.013  28.219  0.00  0.00     0.085 H 
ENDBRANCH  40  43
ENDBRANCH  37  40
ENDBRANCH   1  36
BRANCH   4  59
ATOM     59  O1  L0K d   1     171.940  -8.498  31.762  0.00  0.00    -0.354 OA
BRANCH  59  60
ATOM     60  C4  L0K d   1     172.314  -7.127  31.631  0.00  0.00     0.010 C 
ATOM     61  H1  L0K d   1     173.411  -7.047  31.605  0.00  0.00     0.066 H 
ATOM     62  H2  L0K d   1     171.925  -6.557  32.488  0.00  0.00     0.066 H 
ATOM     63  H3  L0K d   1     171.894  -6.720  30.699  0.00  0.00     0.066 H 
ENDBRANCH  59  60
ENDBRANCH   4  59
TORSDOF 7
