REMARK  9 active torsions:
REMARK  status: ('A' for Active; 'I' for Inactive)
REMARK    1  A    between atoms: C6_3  and  OAL_22 
REMARK    2  A    between atoms: NBH_8  and  CBJ_9 
REMARK    3  A    between atoms: OAL_22  and  CAM_23 
REMARK    4  A    between atoms: CAM_23  and  CAO_24 
REMARK    5  A    between atoms: CAM_23  and  CAN_25 
REMARK    6  A    between atoms: CAI_26  and  CAK_27 
REMARK    7  A    between atoms: CAV_32  and  NAZ_33 
REMARK       I    between atoms: NAZ_33  and  CBA_34 
REMARK    8  A    between atoms: CBA_34  and  CBB_36 
REMARK    9  A    between atoms: CBB_36  and  CBC_37 
ROOT
ATOM      1  C4  L0Q d   1       2.155  52.006 -21.156  0.00  0.00     0.145 A 
ATOM      2  C5  L0Q d   1       1.728  50.876 -21.770  0.00  0.00     0.076 A 
ATOM      3  C6  L0Q d   1       1.751  50.840 -23.115  0.00  0.00     0.181 A 
ATOM      4  N1  L0Q d   1       2.169  51.890 -23.840  0.00  0.00    -0.217 NA
ATOM      5  N3  L0Q d   1       2.580  53.086 -21.831  0.00  0.00    -0.223 NA
ATOM      6  CBE L0Q d   1      -0.348  48.258 -14.104  0.00  0.00     0.018 C 
ATOM      7  CBG L0Q d   1      -0.896  48.543 -12.719  0.00  0.00     0.098 C 
ATOM      8  NBH L0Q d   1       0.202  48.486 -11.729  0.00  0.00    -0.072 N 
ATOM      9  CBI L0Q d   1       1.283  49.456 -12.041  0.00  0.00     0.098 C 
ATOM     10  CBF L0Q d   1       1.849  49.205 -13.441  0.00  0.00     0.018 C 
ATOM     11  NBD L0Q d   1       0.715  49.243 -14.386  0.00  0.00    -0.378 N 
ATOM     12  CAR L0Q d   1       0.935  49.555 -15.676  0.00  0.00     0.030 A 
ATOM     13  CAS L0Q d   1       1.942  50.456 -16.025  0.00  0.00    -0.057 A 
ATOM     14  CAT L0Q d   1       2.148  50.805 -17.352  0.00  0.00    -0.069 A 
ATOM     15  CAQ L0Q d   1       0.123  49.002 -16.666  0.00  0.00    -0.057 A 
ATOM     16  CAP L0Q d   1       0.339  49.359 -17.989  0.00  0.00    -0.069 A 
ATOM     17  CAJ L0Q d   1       1.366  50.237 -18.349  0.00  0.00    -0.008 A 
ATOM     18  CAH L0Q d   1       1.583  50.621 -19.618  0.00  0.00     0.056 A 
ATOM     19  NAG L0Q d   1       2.061  51.841 -19.845  0.00  0.00    -0.339 N 
ATOM     20  C2  L0Q d   1       2.601  53.060 -23.218  0.00  0.00     0.091 A 
ATOM     21  CAI L0Q d   1       1.343  50.004 -20.800  0.00  0.00     0.020 A 
ATOM     22  H1  L0Q d   1      -1.151  48.352 -14.850  0.00  0.00     0.066 H 
ATOM     23  H2  L0Q d   1       0.068  47.240 -14.139  0.00  0.00     0.066 H 
ATOM     24  H3  L0Q d   1      -1.657  47.791 -12.465  0.00  0.00     0.078 H 
ATOM     25  H4  L0Q d   1      -1.351  49.545 -12.704  0.00  0.00     0.078 H 
ATOM     26  H5  L0Q d   1       0.604  47.563 -11.775  0.00  0.00     0.279 HD
ATOM     27  H9  L0Q d   1       2.090  49.348 -11.301  0.00  0.00     0.078 H 
ATOM     28  H10 L0Q d   1       0.876  50.477 -11.994  0.00  0.00     0.078 H 
ATOM     29  H11 L0Q d   1       2.337  48.220 -13.479  0.00  0.00     0.066 H 
ATOM     30  H12 L0Q d   1       2.579  49.987 -13.698  0.00  0.00     0.066 H 
ATOM     31  H13 L0Q d   1       2.569  50.887 -15.253  0.00  0.00     0.086 H 
ATOM     32  H14 L0Q d   1       2.920  51.521 -17.610  0.00  0.00     0.085 H 
ATOM     33  H15 L0Q d   1      -0.665  48.304 -16.406  0.00  0.00     0.086 H 
ATOM     34  H16 L0Q d   1      -0.302  48.948 -18.761  0.00  0.00     0.085 H 
ATOM     35  H17 L0Q d   1       2.314  52.535 -19.128  0.00  0.00     0.167 HD
ATOM     36  H18 L0Q d   1       2.939  53.914 -23.794  0.00  0.00     0.146 H 
ENDROOT
BRANCH  21  37
ATOM     37  CAK L0Q d   1       0.902  48.726 -20.962  0.00  0.00    -0.020 A 
ATOM     38  CAU L0Q d   1      -0.156  48.316 -21.795  0.00  0.00    -0.046 A 
ATOM     39  CAV L0Q d   1      -0.528  46.954 -21.918  0.00  0.00     0.035 A 
ATOM     40  H26 L0Q d   1      -0.702  49.064 -22.359  0.00  0.00     0.088 H 
ATOM     41  CAW L0Q d   1       0.171  45.997 -21.189  0.00  0.00    -0.057 A 
ATOM     42  CAX L0Q d   1       1.223  46.382 -20.363  0.00  0.00    -0.080 A 
ATOM     43  H29 L0Q d   1      -0.104  44.951 -21.264  0.00  0.00     0.086 H 
ATOM     44  CAY L0Q d   1       1.583  47.726 -20.263  0.00  0.00    -0.072 A 
ATOM     45  H28 L0Q d   1       1.765  45.634 -19.795  0.00  0.00     0.083 H 
ATOM     46  H27 L0Q d   1       2.415  48.002 -19.625  0.00  0.00     0.084 H 
BRANCH  39  47
ATOM     47  NAZ L0Q d   1      -1.546  46.478 -22.677  0.00  0.00    -0.327 N 
ATOM     48  CBA L0Q d   1      -2.471  47.264 -23.305  0.00  0.00     0.221 C 
ATOM     49  OBK L0Q d   1      -2.506  48.503 -23.320  0.00  0.00    -0.273 OA
ATOM     50  H30 L0Q d   1      -1.625  45.487 -22.784  0.00  0.00     0.169 HD
BRANCH  48  51
ATOM     51  CBB L0Q d   1      -3.548  46.458 -24.057  0.00  0.00     0.006 C 
ATOM     52  H31 L0Q d   1      -3.422  46.641 -25.134  0.00  0.00     0.046 H 
ATOM     53  H32 L0Q d   1      -4.535  46.823 -23.736  0.00  0.00     0.046 H 
BRANCH  51  54
ATOM     54  CBC L0Q d   1      -3.500  44.948 -23.822  0.00  0.00    -0.068 C 
ATOM     55  H33 L0Q d   1      -4.302  44.462 -24.397  0.00  0.00     0.028 H 
ATOM     56  H34 L0Q d   1      -3.638  44.739 -22.751  0.00  0.00     0.028 H 
ATOM     57  H35 L0Q d   1      -2.525  44.557 -24.149  0.00  0.00     0.028 H 
ENDBRANCH  51  54
ENDBRANCH  48  51
ENDBRANCH  39  47
ENDBRANCH  21  37
BRANCH   3  58
ATOM     58  OAL L0Q d   1       1.333  49.702 -23.752  0.00  0.00    -0.329 OA
BRANCH  58  59
ATOM     59  CAM L0Q d   1       1.318  49.850 -25.202  0.00  0.00     0.040 C 
ATOM     60  H19 L0Q d   1       0.925  50.847 -25.450  0.00  0.00     0.083 H 
BRANCH  59  61
ATOM     61  CAO L0Q d   1       2.745  49.720 -25.770  0.00  0.00    -0.052 C 
ATOM     62  H20 L0Q d   1       2.716  49.834 -26.864  0.00  0.00     0.030 H 
ATOM     63  H21 L0Q d   1       3.152  48.730 -25.515  0.00  0.00     0.030 H 
ATOM     64  H22 L0Q d   1       3.385  50.503 -25.337  0.00  0.00     0.030 H 
ENDBRANCH  59  61
BRANCH  59  65
ATOM     65  CAN L0Q d   1       0.415  48.786 -25.847  0.00  0.00    -0.052 C 
ATOM     66  H23 L0Q d   1       0.418  48.916 -26.939  0.00  0.00     0.030 H 
ATOM     67  H24 L0Q d   1      -0.612  48.897 -25.468  0.00  0.00     0.030 H 
ATOM     68  H25 L0Q d   1       0.792  47.784 -25.596  0.00  0.00     0.030 H 
ENDBRANCH  59  65
ENDBRANCH  58  59
ENDBRANCH   3  58
BRANCH   8  69
ATOM     69  CBJ L0Q d   1      -0.315  48.680 -10.362  0.00  0.00     0.066 C 
ATOM     70  H6  L0Q d   1       0.518  48.634  -9.645  0.00  0.00     0.068 H 
ATOM     71  H7  L0Q d   1      -1.043  47.889 -10.130  0.00  0.00     0.068 H 
ATOM     72  H8  L0Q d   1      -0.805  49.662 -10.291  0.00  0.00     0.068 H 
ENDBRANCH   8  69
TORSDOF 9
