REMARK  11 active torsions:
REMARK  status: ('A' for Active; 'I' for Inactive)
REMARK    1  A    between atoms: C6_3  and  OAL_22 
REMARK    2  A    between atoms: NBG_8  and  CBI_9 
REMARK    3  A    between atoms: CAQ_13  and  NBC_12 
REMARK    4  A    between atoms: OAL_22  and  CAM_23 
REMARK    5  A    between atoms: CAM_23  and  CAN_24 
REMARK    6  A    between atoms: CAN_24  and  CBL_25 
REMARK    7  A    between atoms: CAN_24  and  CBK_26 
REMARK    8  A    between atoms: CAI_27  and  CAK_28 
REMARK    9  A    between atoms: CAU_33  and  NAY_34 
REMARK       I    between atoms: NAY_34  and  CAZ_35 
REMARK   10  A    between atoms: CAZ_35  and  CBA_37 
REMARK   11  A    between atoms: CBA_37  and  CBB_38 
ROOT
ATOM      1  C4  L0N d   1      51.560  -1.844 -20.095  0.00  0.00     0.145 A 
ATOM      2  C5  L0N d   1      50.564  -1.293 -20.803  0.00  0.00     0.076 A 
ATOM      3  C6  L0N d   1      50.640  -1.301 -22.142  0.00  0.00     0.180 A 
ATOM      4  N1  L0N d   1      51.679  -1.830 -22.797  0.00  0.00    -0.217 NA
ATOM      5  N3  L0N d   1      52.620  -2.393 -20.698  0.00  0.00    -0.223 NA
ATOM      6  CAQ L0N d   1      48.634  -0.383 -14.898  0.00  0.00     0.010 A 
ATOM      7  CAR L0N d   1      49.497  -1.448 -15.136  0.00  0.00    -0.061 A 
ATOM      8  CAS L0N d   1      49.984  -1.673 -16.419  0.00  0.00    -0.069 A 
ATOM      9  CAP L0N d   1      48.258   0.440 -15.952  0.00  0.00    -0.061 A 
ATOM     10  CAO L0N d   1      48.747   0.211 -17.232  0.00  0.00    -0.069 A 
ATOM     11  CAJ L0N d   1      49.601  -0.859 -17.481  0.00  0.00    -0.008 A 
ATOM     12  CAH L0N d   1      50.118  -1.116 -18.688  0.00  0.00     0.056 A 
ATOM     13  NAG L0N d   1      51.284  -1.733 -18.803  0.00  0.00    -0.339 N 
ATOM     14  C2  L0N d   1      52.715  -2.401 -22.082  0.00  0.00     0.091 A 
ATOM     15  CAI L0N d   1      49.663  -0.838 -19.917  0.00  0.00     0.020 A 
ATOM     16  H13 L0N d   1      49.789  -2.102 -14.322  0.00  0.00     0.086 H 
ATOM     17  H14 L0N d   1      50.671  -2.493 -16.594  0.00  0.00     0.085 H 
ATOM     18  H15 L0N d   1      47.579   1.266 -15.775  0.00  0.00     0.086 H 
ATOM     19  H16 L0N d   1      48.461   0.871 -18.043  0.00  0.00     0.085 H 
ATOM     20  H17 L0N d   1      51.872  -2.067 -18.026  0.00  0.00     0.167 HD
ATOM     21  H18 L0N d   1      53.570  -2.839 -22.584  0.00  0.00     0.146 H 
ENDROOT
BRANCH  15  22
ATOM     22  CAK L0N d   1      48.519  -0.216 -20.237  0.00  0.00    -0.020 A 
ATOM     23  CAT L0N d   1      48.569   1.072 -20.752  0.00  0.00    -0.046 A 
ATOM     24  CAU L0N d   1      47.414   1.764 -21.095  0.00  0.00     0.035 A 
ATOM     25  H28 L0N d   1      49.532   1.550 -20.890  0.00  0.00     0.088 H 
ATOM     26  CAV L0N d   1      46.174   1.156 -20.926  0.00  0.00    -0.057 A 
ATOM     27  CAW L0N d   1      46.115  -0.134 -20.403  0.00  0.00    -0.080 A 
ATOM     28  H31 L0N d   1      45.265   1.680 -21.198  0.00  0.00     0.086 H 
ATOM     29  CAX L0N d   1      47.277  -0.822 -20.059  0.00  0.00    -0.072 A 
ATOM     30  H30 L0N d   1      45.151  -0.609 -20.262  0.00  0.00     0.083 H 
ATOM     31  H29 L0N d   1      47.215  -1.826 -19.654  0.00  0.00     0.084 H 
BRANCH  24  32
ATOM     32  NAY L0N d   1      47.548   2.992 -21.599  0.00  0.00    -0.327 N 
ATOM     33  CAZ L0N d   1      47.399   4.060 -20.799  0.00  0.00     0.221 C 
ATOM     34  OBJ L0N d   1      47.110   4.010 -19.605  0.00  0.00    -0.273 OA
ATOM     35  H32 L0N d   1      47.758   3.116 -22.569  0.00  0.00     0.169 HD
BRANCH  33  36
ATOM     36  CBA L0N d   1      47.619   5.405 -21.495  0.00  0.00     0.006 C 
ATOM     37  H33 L0N d   1      48.382   5.960 -20.930  0.00  0.00     0.046 H 
ATOM     38  H34 L0N d   1      46.670   5.960 -21.472  0.00  0.00     0.046 H 
BRANCH  36  39
ATOM     39  CBB L0N d   1      48.080   5.315 -22.953  0.00  0.00    -0.068 C 
ATOM     40  H35 L0N d   1      48.209   6.329 -23.360  0.00  0.00     0.028 H 
ATOM     41  H36 L0N d   1      47.325   4.776 -23.544  0.00  0.00     0.028 H 
ATOM     42  H37 L0N d   1      49.038   4.776 -23.002  0.00  0.00     0.028 H 
ENDBRANCH  36  39
ENDBRANCH  33  36
ENDBRANCH  24  32
ENDBRANCH  15  22
BRANCH   3  43
ATOM     43  OAL L0N d   1      49.629  -0.733 -22.847  0.00  0.00    -0.333 OA
BRANCH  43  44
ATOM     44  CAM L0N d   1      50.239   0.232 -23.712  0.00  0.00     0.030 C 
ATOM     45  H19 L0N d   1      51.032  -0.255 -24.299  0.00  0.00     0.075 H 
ATOM     46  H20 L0N d   1      50.675   1.040 -23.106  0.00  0.00     0.075 H 
BRANCH  44  47
ATOM     47  CAN L0N d   1      49.197   0.818 -24.660  0.00  0.00    -0.040 C 
ATOM     48  H21 L0N d   1      48.405   1.314 -24.079  0.00  0.00     0.042 H 
BRANCH  47  49
ATOM     49  CBL L0N d   1      49.869   1.838 -25.583  0.00  0.00    -0.071 C 
ATOM     50  H22 L0N d   1      49.120   2.262 -26.268  0.00  0.00     0.028 H 
ATOM     51  H23 L0N d   1      50.658   1.341 -26.166  0.00  0.00     0.028 H 
ATOM     52  H24 L0N d   1      50.311   2.644 -24.979  0.00  0.00     0.028 H 
ENDBRANCH  47  49
BRANCH  47  53
ATOM     53  CBK L0N d   1      48.590  -0.314 -25.491  0.00  0.00    -0.071 C 
ATOM     54  H25 L0N d   1      48.109  -1.043 -24.822  0.00  0.00     0.028 H 
ATOM     55  H26 L0N d   1      49.384  -0.813 -26.067  0.00  0.00     0.028 H 
ATOM     56  H27 L0N d   1      47.841   0.100 -26.182  0.00  0.00     0.028 H 
ENDBRANCH  47  53
ENDBRANCH  44  47
ENDBRANCH  43  44
ENDBRANCH   3  43
BRANCH   6  57
ATOM     57  NBC L0N d   1      48.149  -0.141 -13.668  0.00  0.00    -0.280 NA
ATOM     58  CBD L0N d   1      48.808  -0.889 -12.580  0.00  0.00     0.006 C 
ATOM     59  CBF L0N d   1      47.962  -0.745 -11.325  0.00  0.00     0.094 C 
ATOM     60  H1  L0N d   1      48.889  -1.951 -12.854  0.00  0.00     0.058 H 
ATOM     61  H2  L0N d   1      49.813  -0.478 -12.401  0.00  0.00     0.058 H 
ATOM     62  NBG L0N d   1      47.829   0.672 -10.942  0.00  0.00    -0.073 N 
ATOM     63  H3  L0N d   1      48.440  -1.297 -10.503  0.00  0.00     0.077 H 
ATOM     64  H4  L0N d   1      46.962  -1.163 -11.514  0.00  0.00     0.077 H 
ATOM     65  CBH L0N d   1      47.288   1.473 -12.056  0.00  0.00     0.094 C 
ATOM     66  H5  L0N d   1      48.736   1.032 -10.688  0.00  0.00     0.279 HD
ATOM     67  CBE L0N d   1      48.124   1.294 -13.314  0.00  0.00     0.006 C 
ATOM     68  H9  L0N d   1      47.292   2.535 -11.770  0.00  0.00     0.077 H 
ATOM     69  H10 L0N d   1      46.256   1.152 -12.261  0.00  0.00     0.077 H 
ATOM     70  H11 L0N d   1      49.149   1.647 -13.130  0.00  0.00     0.058 H 
ATOM     71  H12 L0N d   1      47.680   1.871 -14.139  0.00  0.00     0.058 H 
BRANCH  62  72
ATOM     72  CBI L0N d   1      46.922   0.770  -9.790  0.00  0.00     0.066 C 
ATOM     73  H6  L0N d   1      46.816   1.825  -9.496  0.00  0.00     0.068 H 
ATOM     74  H7  L0N d   1      47.335   0.194  -8.948  0.00  0.00     0.068 H 
ATOM     75  H8  L0N d   1      45.937   0.365 -10.063  0.00  0.00     0.068 H 
ENDBRANCH  62  72
ENDBRANCH   6  57
TORSDOF 11
