REMARK  11 active torsions:
REMARK  status: ('A' for Active; 'I' for Inactive)
REMARK    1  A    between atoms: C1_1  and  C_34 
REMARK    2  A    between atoms: C2_2  and  N5_30 
REMARK    3  A    between atoms: C10_40  and  C13_7 
REMARK    4  A    between atoms: C16_10  and  C19_13 
REMARK       I    between atoms: C19_13  and  N3_43 
REMARK    5  A    between atoms: N4_44  and  C22_16 
REMARK    6  A    between atoms: C25_19  and  C26_20 
REMARK       I    between atoms: N5_30  and  C25_19 
REMARK    7  A    between atoms: C29_23  and  C32_26 
REMARK    8  A    between atoms: C32_26  and  C35_27 
REMARK    9  A    between atoms: C32_26  and  C34_28 
REMARK   10  A    between atoms: C32_26  and  C33_29 
REMARK   11  A    between atoms: C6_33  and  C7_35 
ROOT
ATOM      1  C11 L0Z d   1      10.129 -12.426  -6.310  0.00  0.00    -0.040 A 
ATOM      2  C12 L0Z d   1      10.965 -13.441  -6.864  0.00  0.00     0.042 A 
ATOM      3  C7  L0Z d   1      12.310 -13.569  -7.272  0.00  0.00     0.083 A 
ATOM      4  C9  L0Z d   1      10.151 -14.566  -7.100  0.00  0.00     0.142 A 
ATOM      5  N1  L0Z d   1      10.568 -15.731  -7.638  0.00  0.00    -0.224 NA
ATOM      6  C8  L0Z d   1      11.869 -15.724  -7.948  0.00  0.00     0.089 A 
ATOM      7  N   L0Z d   1      12.749 -14.720  -7.822  0.00  0.00    -0.240 NA
ATOM      8  C10 L0Z d   1       8.862 -12.938  -6.234  0.00  0.00     0.045 A 
ATOM      9  N2  L0Z d   1       8.878 -14.248  -6.699  0.00  0.00    -0.339 N 
ATOM     10  H2  L0Z d   1      10.441 -11.428  -6.004  0.00  0.00     0.088 H 
ATOM     11  H37 L0Z d   1      12.263 -16.649  -8.353  0.00  0.00     0.146 H 
ATOM     12  H38 L0Z d   1       8.065 -14.879  -6.737  0.00  0.00     0.167 HD
ENDROOT
BRANCH   3  13
ATOM     13  C6  L0Z d   1      13.254 -12.423  -7.122  0.00  0.00     0.002 A 
ATOM     14  C1  L0Z d   1      14.514 -12.574  -6.484  0.00  0.00    -0.023 A 
ATOM     15  C2  L0Z d   1      15.276 -11.407  -6.264  0.00  0.00     0.041 A 
ATOM     16  C3  L0Z d   1      14.808 -10.144  -6.640  0.00  0.00    -0.057 A 
ATOM     17  C4  L0Z d   1      13.582 -10.028  -7.274  0.00  0.00    -0.080 A 
ATOM     18  H1  L0Z d   1      15.402  -9.260  -6.436  0.00  0.00     0.086 H 
ATOM     19  C5  L0Z d   1      12.819 -11.154  -7.524  0.00  0.00    -0.070 A 
ATOM     20  H32 L0Z d   1      13.220  -9.052  -7.575  0.00  0.00     0.083 H 
ATOM     21  H33 L0Z d   1      11.870 -11.053  -8.039  0.00  0.00     0.084 H 
BRANCH  14  22
ATOM     22  C   L0Z d   1      15.014 -13.921  -6.013  0.00  0.00    -0.048 C 
ATOM     23  H34 L0Z d   1      16.005 -13.803  -5.551  0.00  0.00     0.033 H 
ATOM     24  H35 L0Z d   1      15.088 -14.605  -6.871  0.00  0.00     0.033 H 
ATOM     25  H36 L0Z d   1      14.312 -14.335  -5.274  0.00  0.00     0.033 H 
ENDBRANCH  14  22
BRANCH  15  26
ATOM     26  N5  L0Z d   1      16.572 -11.525  -5.709  0.00  0.00    -0.322 N 
ATOM     27  C25 L0Z d   1      17.722 -11.363  -6.406  0.00  0.00     0.256 C 
ATOM     28  O1  L0Z d   1      17.748 -11.116  -7.605  0.00  0.00    -0.267 OA
ATOM     29  H31 L0Z d   1      16.644 -11.743  -4.736  0.00  0.00     0.169 HD
BRANCH  27  30
ATOM     30  C26 L0Z d   1      18.992 -11.489  -5.625  0.00  0.00     0.032 A 
ATOM     31  C27 L0Z d   1      20.224 -11.440  -6.282  0.00  0.00    -0.067 A 
ATOM     32  C28 L0Z d   1      21.409 -11.542  -5.570  0.00  0.00    -0.075 A 
ATOM     33  H18 L0Z d   1      20.253 -11.321  -7.359  0.00  0.00     0.085 H 
ATOM     34  C29 L0Z d   1      21.404 -11.670  -4.179  0.00  0.00    -0.051 A 
ATOM     35  H19 L0Z d   1      22.354 -11.522  -6.101  0.00  0.00     0.084 H 
ATOM     36  C30 L0Z d   1      20.167 -11.724  -3.530  0.00  0.00    -0.075 A 
ATOM     37  C31 L0Z d   1      18.982 -11.637  -4.240  0.00  0.00    -0.067 A 
ATOM     38  H20 L0Z d   1      20.135 -11.836  -2.452  0.00  0.00     0.084 H 
ATOM     39  H21 L0Z d   1      18.036 -11.684  -3.713  0.00  0.00     0.085 H 
BRANCH  34  40
ATOM     40  C32 L0Z d   1      22.707 -11.742  -3.365  0.00  0.00    -0.024 C 
BRANCH  40  41
ATOM     41  C35 L0Z d   1      22.795 -13.084  -2.611  0.00  0.00    -0.066 C 
ATOM     42  H22 L0Z d   1      23.731 -13.120  -2.034  0.00  0.00     0.028 H 
ATOM     43  H23 L0Z d   1      22.778 -13.913  -3.334  0.00  0.00     0.028 H 
ATOM     44  H24 L0Z d   1      21.939 -13.177  -1.926  0.00  0.00     0.028 H 
ENDBRANCH  40  41
BRANCH  40  45
ATOM     45  C34 L0Z d   1      22.743 -10.610  -2.332  0.00  0.00    -0.066 C 
ATOM     46  H25 L0Z d   1      22.681  -9.641  -2.848  0.00  0.00     0.028 H 
ATOM     47  H26 L0Z d   1      23.683 -10.663  -1.762  0.00  0.00     0.028 H 
ATOM     48  H27 L0Z d   1      21.891 -10.714  -1.644  0.00  0.00     0.028 H 
ENDBRANCH  40  45
BRANCH  40  49
ATOM     49  C33 L0Z d   1      23.953 -11.610  -4.261  0.00  0.00    -0.066 C 
ATOM     50  H28 L0Z d   1      23.951 -12.413  -5.013  0.00  0.00     0.028 H 
ATOM     51  H29 L0Z d   1      24.859 -11.689  -3.643  0.00  0.00     0.028 H 
ATOM     52  H30 L0Z d   1      23.939 -10.634  -4.767  0.00  0.00     0.028 H 
ENDBRANCH  40  49
ENDBRANCH  34  40
ENDBRANCH  27  30
ENDBRANCH  15  26
ENDBRANCH   3  13
BRANCH   8  53
ATOM     53  C13 L0Z d   1       7.620 -12.271  -5.808  0.00  0.00    -0.009 A 
ATOM     54  C14 L0Z d   1       6.385 -12.910  -5.916  0.00  0.00    -0.070 A 
ATOM     55  C15 L0Z d   1       5.232 -12.299  -5.451  0.00  0.00    -0.067 A 
ATOM     56  H3  L0Z d   1       6.327 -13.894  -6.368  0.00  0.00     0.084 H 
ATOM     57  C16 L0Z d   1       5.281 -11.025  -4.878  0.00  0.00     0.032 A 
ATOM     58  H4  L0Z d   1       4.282 -12.814  -5.532  0.00  0.00     0.085 H 
ATOM     59  C17 L0Z d   1       6.514 -10.376  -4.793  0.00  0.00    -0.067 A 
ATOM     60  C18 L0Z d   1       7.666 -10.988  -5.256  0.00  0.00    -0.070 A 
ATOM     61  H5  L0Z d   1       6.570  -9.384  -4.360  0.00  0.00     0.085 H 
ATOM     62  H6  L0Z d   1       8.614 -10.466  -5.190  0.00  0.00     0.084 H 
BRANCH  57  63
ATOM     63  C19 L0Z d   1       4.054 -10.296  -4.426  0.00  0.00     0.253 C 
ATOM     64  O   L0Z d   1       3.887  -9.149  -4.799  0.00  0.00    -0.267 OA
ATOM     65  N3  L0Z d   1       3.158 -10.927  -3.633  0.00  0.00    -0.345 N 
ATOM     66  C20 L0Z d   1       1.888 -10.249  -3.313  0.00  0.00     0.021 C 
ATOM     67  C24 L0Z d   1       3.396 -12.140  -2.832  0.00  0.00     0.021 C 
ATOM     68  C21 L0Z d   1       0.733 -11.234  -3.358  0.00  0.00     0.098 C 
ATOM     69  H7  L0Z d   1       1.954  -9.814  -2.305  0.00  0.00     0.067 H 
ATOM     70  H8  L0Z d   1       1.710  -9.449  -4.046  0.00  0.00     0.067 H 
ATOM     71  N4  L0Z d   1       0.974 -12.356  -2.456  0.00  0.00    -0.072 N 
ATOM     72  H9  L0Z d   1       0.622 -11.614  -4.384  0.00  0.00     0.078 H 
ATOM     73  H10 L0Z d   1      -0.191 -10.720  -3.055  0.00  0.00     0.078 H 
ATOM     74  C23 L0Z d   1       2.181 -13.064  -2.877  0.00  0.00     0.098 C 
ATOM     75  H39 L0Z d   1       1.116 -11.999  -1.524  0.00  0.00     0.279 HD
ATOM     76  H14 L0Z d   1       2.352 -13.917  -2.204  0.00  0.00     0.078 H 
ATOM     77  H15 L0Z d   1       2.044 -13.430  -3.905  0.00  0.00     0.078 H 
ATOM     78  H16 L0Z d   1       4.270 -12.673  -3.235  0.00  0.00     0.067 H 
ATOM     79  H17 L0Z d   1       3.591 -11.851  -1.789  0.00  0.00     0.067 H 
BRANCH  71  80
ATOM     80  C22 L0Z d   1      -0.180 -13.262  -2.436  0.00  0.00     0.066 C 
ATOM     81  H11 L0Z d   1       0.023 -14.099  -1.751  0.00  0.00     0.068 H 
ATOM     82  H12 L0Z d   1      -0.358 -13.652  -3.449  0.00  0.00     0.068 H 
ATOM     83  H13 L0Z d   1      -1.070 -12.714  -2.093  0.00  0.00     0.068 H 
ENDBRANCH  71  80
ENDBRANCH  57  63
ENDBRANCH   8  53
TORSDOF 11
