REMARK  8 active torsions:
REMARK  status: ('A' for Active; 'I' for Inactive)
REMARK    1  A    between atoms: C25_27  and  C4_3 
REMARK    2  A    between atoms: C6_5  and  C8_7 
REMARK       I    between atoms: C8_7  and  N10_9 
REMARK    3  A    between atoms: N10_9  and  C11_10 
REMARK    4  A    between atoms: C21_15  and  C23_16 
REMARK    5  A    between atoms: C20_24  and  C21_15 
REMARK    6  A    between atoms: C21_15  and  C22_25 
REMARK    7  A    between atoms: C21_15  and  O24_26 
REMARK    8  A    between atoms: N19_23  and  C20_24 
ROOT
ATOM      1  C11 L1H d   1     -51.459  19.779   0.762  0.00  0.00     0.710 A 
ATOM      2  C15 L1H d   1     -50.951  15.329   1.521  0.00  0.00    -0.081 A 
ATOM      3  C16 L1H d   1     -49.821  15.528   0.727  0.00  0.00    -0.081 A 
ATOM      4  C17 L1H d   1     -49.525  16.789   0.223  0.00  0.00    -0.054 A 
ATOM      5  C18 L1H d   1     -50.364  17.870   0.499  0.00  0.00     0.081 A 
ATOM      6  N12 L1H d   1     -52.133  18.863   1.409  0.00  0.00    -0.062 NA
ATOM      7  C13 L1H d   1     -51.506  17.669   1.302  0.00  0.00     0.103 A 
ATOM      8  C14 L1H d   1     -51.789  16.392   1.810  0.00  0.00    -0.052 A 
ATOM      9  N19 L1H d   1     -50.365  19.217   0.150  0.00  0.00    -0.176 N 
ATOM     10  H5  L1H d   1     -51.172  14.342   1.911  0.00  0.00     0.083 H 
ATOM     11  H6  L1H d   1     -49.169  14.692   0.501  0.00  0.00     0.083 H 
ATOM     12  H7  L1H d   1     -48.640  16.933  -0.386  0.00  0.00     0.087 H 
ATOM     13  H13 L1H d   1     -52.665  16.238   2.430  0.00  0.00     0.087 H 
ENDROOT
BRANCH   1  14
ATOM     14  N10 L1H d   1     -51.846  21.101   0.613  0.00  0.00    -0.153 N 
ATOM     15  C8  L1H d   1     -52.641  21.840   1.440  0.00  0.00     0.270 C 
ATOM     16  O9  L1H d   1     -53.112  21.368   2.460  0.00  0.00    -0.267 OA
ATOM     17  H4  L1H d   1     -51.501  21.571  -0.200  0.00  0.00     0.187 HD
BRANCH  15  18
ATOM     18  C6  L1H d   1     -52.992  23.232   1.027  0.00  0.00     0.036 A 
ATOM     19  C5  L1H d   1     -52.212  23.958   0.101  0.00  0.00    -0.057 A 
ATOM     20  C4  L1H d   1     -52.575  25.244  -0.315  0.00  0.00    -0.021 A 
ATOM     21  H2  L1H d   1     -51.310  23.508  -0.298  0.00  0.00     0.086 H 
ATOM     22  C3  L1H d   1     -53.755  25.807   0.192  0.00  0.00    -0.035 A 
ATOM     23  C2  L1H d   1     -54.545  25.096   1.098  0.00  0.00     0.118 A 
ATOM     24  H1  L1H d   1     -54.056  26.800  -0.121  0.00  0.00     0.089 H 
ATOM     25  C7  L1H d   1     -54.177  23.819   1.504  0.00  0.00    -0.030 A 
ATOM     26  F1  L1H d   1     -55.682  25.645   1.588  0.00  0.00    -0.206 F 
ATOM     27  H3  L1H d   1     -54.809  23.271   2.194  0.00  0.00     0.089 H 
BRANCH  20  28
ATOM     28  C25 L1H d   1     -51.721  25.974  -1.304  0.00  0.00    -0.008 A 
ATOM     29  C30 L1H d   1     -51.472  27.350  -1.203  0.00  0.00     0.013 A 
ATOM     30  N29 L1H d   1     -50.721  27.974  -2.102  0.00  0.00    -0.272 NA
ATOM     31  H12 L1H d   1     -51.898  27.912  -0.380  0.00  0.00     0.116 H 
ATOM     32  C28 L1H d   1     -50.178  27.343  -3.136  0.00  0.00     0.002 A 
ATOM     33  C27 L1H d   1     -50.380  25.982  -3.320  0.00  0.00    -0.065 A 
ATOM     34  H21 L1H d   1     -49.571  27.896  -3.844  0.00  0.00     0.114 H 
ATOM     35  C26 L1H d   1     -51.162  25.284  -2.407  0.00  0.00    -0.070 A 
ATOM     36  H11 L1H d   1     -49.934  25.470  -4.165  0.00  0.00     0.085 H 
ATOM     37  H20 L1H d   1     -51.342  24.223  -2.538  0.00  0.00     0.085 H 
ENDBRANCH  20  28
ENDBRANCH  15  18
ENDBRANCH   1  14
BRANCH   9  38
ATOM     38  C20 L1H d   1     -49.348  19.906  -0.674  0.00  0.00     0.045 C 
ATOM     39  H14 L1H d   1     -49.341  20.968  -0.388  0.00  0.00     0.070 H 
ATOM     40  H15 L1H d   1     -48.368  19.459  -0.450  0.00  0.00     0.070 H 
BRANCH  38  41
ATOM     41  C21 L1H d   1     -49.573  19.823  -2.196  0.00  0.00     0.068 C 
BRANCH  41  42
ATOM     42  C23 L1H d   1     -50.556  20.895  -2.670  0.00  0.00    -0.047 C 
ATOM     43  H8  L1H d   1     -50.695  20.810  -3.758  0.00  0.00     0.031 H 
ATOM     44  H9  L1H d   1     -50.157  21.891  -2.429  0.00  0.00     0.031 H 
ATOM     45  H10 L1H d   1     -51.523  20.755  -2.165  0.00  0.00     0.031 H 
ENDBRANCH  41  42
BRANCH  41  46
ATOM     46  C22 L1H d   1     -48.246  20.085  -2.914  0.00  0.00    -0.047 C 
ATOM     47  H16 L1H d   1     -48.400  20.027  -4.002  0.00  0.00     0.031 H 
ATOM     48  H17 L1H d   1     -47.508  19.329  -2.607  0.00  0.00     0.031 H 
ATOM     49  H18 L1H d   1     -47.877  21.087  -2.649  0.00  0.00     0.031 H 
ENDBRANCH  41  46
BRANCH  41  50
ATOM     50  O24 L1H d   1     -50.055  18.531  -2.589  0.00  0.00    -0.389 OA
ATOM     51  H19 L1H d   1     -50.881  18.356  -2.153  0.00  0.00     0.210 HD
ENDBRANCH  41  50
ENDBRANCH  38  41
ENDBRANCH   9  38
TORSDOF 8
