REMARK  8 active torsions:
REMARK  status: ('A' for Active; 'I' for Inactive)
REMARK    1  A    between atoms: C2_2  and  C1_1 
REMARK    2  A    between atoms: C2_2  and  C3_3 
REMARK    3  A    between atoms: C5_4  and  C2_2 
REMARK    4  A    between atoms: C2_2  and  O4_16 
REMARK    5  A    between atoms: N6_17  and  C5_4 
REMARK    6  A    between atoms: C18_11  and  C16_10 
REMARK       I    between atoms: C16_10  and  N15_21 
REMARK    7  A    between atoms: C24_14  and  C22_25 
REMARK    8  A    between atoms: N15_21  and  C14_20 
ROOT
ATOM      1  C7  L1K d   1     -17.801 -50.923   0.382  0.00  0.00     0.081 A 
ATOM      2  C8  L1K d   1     -16.644 -50.191   0.066  0.00  0.00    -0.054 A 
ATOM      3  C11 L1K d   1     -16.477 -52.065   2.106  0.00  0.00    -0.052 A 
ATOM      4  C12 L1K d   1     -17.689 -51.874   1.427  0.00  0.00     0.103 A 
ATOM      5  N13 L1K d   1     -18.887 -52.470   1.580  0.00  0.00    -0.062 NA
ATOM      6  N6  L1K d   1     -19.136 -51.012  -0.053  0.00  0.00    -0.176 N 
ATOM      7  C9  L1K d   1     -15.450 -50.391   0.739  0.00  0.00    -0.081 A 
ATOM      8  C10 L1K d   1     -15.365 -51.327   1.761  0.00  0.00    -0.081 A 
ATOM      9  C14 L1K d   1     -19.738 -51.981   0.728  0.00  0.00     0.710 A 
ATOM     10  H9  L1K d   1     -16.687 -49.451  -0.725  0.00  0.00     0.087 H 
ATOM     11  H10 L1K d   1     -16.414 -52.795   2.905  0.00  0.00     0.087 H 
ATOM     12  H15 L1K d   1     -14.575 -49.812   0.466  0.00  0.00     0.083 H 
ATOM     13  H16 L1K d   1     -14.428 -51.477   2.285  0.00  0.00     0.083 H 
ENDROOT
BRANCH   9  14
ATOM     14  N15 L1K d   1     -21.076 -52.367   0.602  0.00  0.00    -0.153 N 
ATOM     15  C16 L1K d   1     -21.752 -53.289   1.341  0.00  0.00     0.270 C 
ATOM     16  O17 L1K d   1     -21.181 -53.935   2.207  0.00  0.00    -0.267 OA
ATOM     17  H17 L1K d   1     -21.599 -51.911  -0.118  0.00  0.00     0.187 HD
BRANCH  15  18
ATOM     18  C18 L1K d   1     -23.185 -53.589   0.998  0.00  0.00     0.036 A 
ATOM     19  C19 L1K d   1     -23.828 -54.709   1.555  0.00  0.00    -0.051 A 
ATOM     20  C20 L1K d   1     -25.133 -55.012   1.190  0.00  0.00     0.004 A 
ATOM     21  H11 L1K d   1     -23.305 -55.335   2.269  0.00  0.00     0.087 H 
ATOM     22  N21 L1K d   1     -25.782 -54.287   0.292  0.00  0.00    -0.260 NA
ATOM     23  H18 L1K d   1     -25.630 -55.859   1.649  0.00  0.00     0.114 H 
ATOM     24  C22 L1K d   1     -25.243 -53.218  -0.305  0.00  0.00     0.067 A 
ATOM     25  C23 L1K d   1     -23.922 -52.864   0.032  0.00  0.00    -0.039 A 
ATOM     26  H12 L1K d   1     -23.459 -52.016  -0.460  0.00  0.00     0.088 H 
BRANCH  24  27
ATOM     27  C24 L1K d   1     -26.037 -52.439  -1.326  0.00  0.00    -0.007 A 
ATOM     28  C25 L1K d   1     -25.438 -51.495  -2.197  0.00  0.00    -0.071 A 
ATOM     29  C26 L1K d   1     -26.193 -50.803  -3.132  0.00  0.00    -0.082 A 
ATOM     30  H19 L1K d   1     -24.372 -51.311  -2.131  0.00  0.00     0.084 H 
ATOM     31  C27 L1K d   1     -27.555 -51.033  -3.242  0.00  0.00    -0.083 A 
ATOM     32  H20 L1K d   1     -25.715 -50.078  -3.781  0.00  0.00     0.083 H 
ATOM     33  C28 L1K d   1     -28.163 -51.959  -2.409  0.00  0.00    -0.082 A 
ATOM     34  H13 L1K d   1     -28.142 -50.492  -3.975  0.00  0.00     0.083 H 
ATOM     35  C29 L1K d   1     -27.423 -52.658  -1.469  0.00  0.00    -0.071 A 
ATOM     36  H21 L1K d   1     -29.229 -52.138  -2.494  0.00  0.00     0.083 H 
ATOM     37  H22 L1K d   1     -27.917 -53.384  -0.834  0.00  0.00     0.084 H 
ENDBRANCH  24  27
ENDBRANCH  15  18
ENDBRANCH   9  14
BRANCH   6  38
ATOM     38  C5  L1K d   1     -19.968 -50.330  -1.079  0.00  0.00     0.045 C 
ATOM     39  H7  L1K d   1     -20.376 -51.145  -1.694  0.00  0.00     0.070 H 
ATOM     40  H8  L1K d   1     -20.782 -49.857  -0.510  0.00  0.00     0.070 H 
BRANCH  38  41
ATOM     41  C2  L1K d   1     -19.526 -49.258  -2.093  0.00  0.00     0.068 C 
BRANCH  41  42
ATOM     42  C1  L1K d   1     -18.616 -48.138  -1.563  0.00  0.00    -0.047 C 
ATOM     43  H1  L1K d   1     -18.375 -47.443  -2.381  0.00  0.00     0.031 H 
ATOM     44  H2  L1K d   1     -17.687 -48.576  -1.168  0.00  0.00     0.031 H 
ATOM     45  H3  L1K d   1     -19.134 -47.593  -0.760  0.00  0.00     0.031 H 
ENDBRANCH  41  42
BRANCH  41  46
ATOM     46  C3  L1K d   1     -20.822 -48.617  -2.637  0.00  0.00    -0.047 C 
ATOM     47  H4  L1K d   1     -21.487 -49.404  -3.021  0.00  0.00     0.031 H 
ATOM     48  H5  L1K d   1     -20.573 -47.919  -3.450  0.00  0.00     0.031 H 
ATOM     49  H6  L1K d   1     -21.329 -48.072  -1.827  0.00  0.00     0.031 H 
ENDBRANCH  41  46
BRANCH  41  50
ATOM     50  O4  L1K d   1     -18.884 -49.928  -3.180  0.00  0.00    -0.389 OA
ATOM     51  H14 L1K d   1     -18.081 -50.332  -2.872  0.00  0.00     0.210 HD
ENDBRANCH  41  50
ENDBRANCH  38  41
ENDBRANCH   6  38
TORSDOF 8
