REMARK  0 active torsions:
REMARK  status: ('A' for Active; 'I' for Inactive)
ROOT
ATOM      1  C2  L3Z d   1     -22.135 -53.561   1.300  0.00  0.00     0.270 C 
ATOM      2  C4  L3Z d   1     -20.167 -52.155   0.840  0.00  0.00     0.710 A 
ATOM      3  C6  L3Z d   1     -18.040 -52.256   1.224  0.00  0.00     0.103 A 
ATOM      4  C7  L3Z d   1     -16.751 -52.553   1.666  0.00  0.00    -0.052 A 
ATOM      5  C8  L3Z d   1     -15.684 -51.769   1.269  0.00  0.00    -0.081 A 
ATOM      6  C11 L3Z d   1     -18.249 -51.154   0.379  0.00  0.00     0.081 A 
ATOM      7  C15 L3Z d   1     -22.180 -49.967  -2.321  0.00  0.00    -0.062 C 
ATOM      8  C16 L3Z d   1     -22.710 -50.257  -3.734  0.00  0.00    -0.045 C 
ATOM      9  C17 L3Z d   1     -23.325 -51.648  -3.881  0.00  0.00     0.026 C 
ATOM     10  C19 L3Z d   1     -25.500 -51.944  -2.662  0.00  0.00     0.081 A 
ATOM     11  C21 L3Z d   1     -27.626 -51.133  -3.485  0.00  0.00    -0.080 A 
ATOM     12  C23 L3Z d   1     -27.579 -52.567  -1.564  0.00  0.00    -0.068 A 
ATOM     13  C24 L3Z d   1     -26.176 -52.639  -1.623  0.00  0.00     0.026 A 
ATOM     14  C27 L3Z d   1     -25.458 -55.348   0.770  0.00  0.00     0.004 A 
ATOM     15  C30 L3Z d   1     -24.204 -53.122  -0.129  0.00  0.00    -0.039 A 
ATOM     16  O1  L3Z d   1     -21.556 -54.294   2.079  0.00  0.00    -0.267 OA
ATOM     17  N3  L3Z d   1     -21.490 -52.509   0.728  0.00  0.00    -0.153 N 
ATOM     18  N5  L3Z d   1     -19.234 -52.838   1.435  0.00  0.00    -0.062 NA
ATOM     19  C9  L3Z d   1     -15.888 -50.679   0.432  0.00  0.00    -0.081 A 
ATOM     20  C10 L3Z d   1     -17.165 -50.367  -0.007  0.00  0.00    -0.054 A 
ATOM     21  N12 L3Z d   1     -19.603 -51.132   0.119  0.00  0.00    -0.179 N 
ATOM     22  C13 L3Z d   1     -20.293 -50.137  -0.712  0.00  0.00     0.017 C 
ATOM     23  C14 L3Z d   1     -20.867 -50.707  -2.021  0.00  0.00    -0.049 C 
ATOM     24  O18 L3Z d   1     -24.132 -52.000  -2.741  0.00  0.00    -0.350 OA
ATOM     25  C20 L3Z d   1     -26.249 -51.183  -3.577  0.00  0.00    -0.050 A 
ATOM     26  C22 L3Z d   1     -28.283 -51.819  -2.484  0.00  0.00    -0.082 A 
ATOM     27  C25 L3Z d   1     -25.474 -53.478  -0.599  0.00  0.00     0.070 A 
ATOM     28  N26 L3Z d   1     -26.056 -54.589  -0.127  0.00  0.00    -0.260 NA
ATOM     29  C28 L3Z d   1     -24.197 -55.043   1.271  0.00  0.00    -0.051 A 
ATOM     30  C29 L3Z d   1     -23.535 -53.877   0.861  0.00  0.00     0.036 A 
ATOM     31  H1  L3Z d   1     -16.586 -53.400   2.322  0.00  0.00     0.087 H 
ATOM     32  H2  L3Z d   1     -14.683 -52.006   1.612  0.00  0.00     0.083 H 
ATOM     33  H3  L3Z d   1     -22.938 -50.282  -1.589  0.00  0.00     0.033 H 
ATOM     34  H4  L3Z d   1     -22.005 -48.885  -2.225  0.00  0.00     0.033 H 
ATOM     35  H5  L3Z d   1     -21.875 -50.169  -4.444  0.00  0.00     0.036 H 
ATOM     36  H6  L3Z d   1     -23.479 -49.509  -3.978  0.00  0.00     0.036 H 
ATOM     37  H7  L3Z d   1     -22.516 -52.386  -3.986  0.00  0.00     0.075 H 
ATOM     38  H8  L3Z d   1     -23.956 -51.665  -4.782  0.00  0.00     0.075 H 
ATOM     39  H9  L3Z d   1     -28.194 -50.552  -4.203  0.00  0.00     0.083 H 
ATOM     40  H10 L3Z d   1     -28.112 -53.105  -0.788  0.00  0.00     0.085 H 
ATOM     41  H11 L3Z d   1     -25.965 -56.237   1.128  0.00  0.00     0.114 H 
ATOM     42  H12 L3Z d   1     -23.720 -52.242  -0.536  0.00  0.00     0.088 H 
ATOM     43  H13 L3Z d   1     -22.052 -51.916   0.151  0.00  0.00     0.187 HD
ATOM     44  H14 L3Z d   1     -15.046 -50.071   0.121  0.00  0.00     0.083 H 
ATOM     45  H15 L3Z d   1     -17.321 -49.510  -0.652  0.00  0.00     0.087 H 
ATOM     46  H16 L3Z d   1     -19.577 -49.341  -0.966  0.00  0.00     0.065 H 
ATOM     47  H17 L3Z d   1     -21.122 -49.712  -0.127  0.00  0.00     0.065 H 
ATOM     48  H18 L3Z d   1     -20.153 -50.549  -2.842  0.00  0.00     0.035 H 
ATOM     49  H19 L3Z d   1     -21.062 -51.783  -1.906  0.00  0.00     0.035 H 
ATOM     50  H20 L3Z d   1     -25.742 -50.632  -4.360  0.00  0.00     0.087 H 
ATOM     51  H21 L3Z d   1     -29.364 -51.769  -2.420  0.00  0.00     0.083 H 
ATOM     52  H22 L3Z d   1     -23.724 -55.710   1.982  0.00  0.00     0.087 H 
ENDROOT
TORSDOF 0
