REMARK  9 active torsions:
REMARK  status: ('A' for Active; 'I' for Inactive)
REMARK    1  A    between atoms: CAB_2  and  CBO_33 
REMARK    2  A    between atoms: CAD_3  and  CAG_5 
REMARK    3  A    between atoms: CAH_6  and  CAE_4 
REMARK    4  A    between atoms: CAS_17  and  CAP_14 
REMARK    5  A    between atoms: NAT_36  and  CAS_17 
REMARK    6  A    between atoms: NAZ_37  and  CAW_20 
REMARK    7  A    between atoms: NBI_39  and  CBG_28 
REMARK    8  A    between atoms: CBJ_30  and  CBK_31 
REMARK       I    between atoms: CBJ_30  and  NBI_39 
REMARK    9  A    between atoms: CBK_31  and  CBL_32 
ROOT
ATOM      1  CAU L1Z d   1     -11.845 -15.619  13.586  0.00  0.00     0.086 C 
ATOM      2  CAV L1Z d   1     -11.664 -16.779  14.548  0.00  0.00    -0.023 C 
ATOM      3  CAW L1Z d   1     -11.084 -16.259  15.857  0.00  0.00     0.025 C 
ATOM      4  CAX L1Z d   1     -11.983 -15.177  16.430  0.00  0.00    -0.023 C 
ATOM      5  CAY L1Z d   1     -12.132 -14.070  15.407  0.00  0.00     0.086 C 
ATOM      6  NAT L1Z d   1     -12.729 -14.594  14.167  0.00  0.00    -0.067 N 
ATOM      7  H12 L1Z d   1     -12.289 -15.991  12.651  0.00  0.00     0.076 H 
ATOM      8  H13 L1Z d   1     -10.864 -15.170  13.373  0.00  0.00     0.076 H 
ATOM      9  H14 L1Z d   1     -10.977 -17.517  14.109  0.00  0.00     0.038 H 
ATOM     10  H15 L1Z d   1     -12.638 -17.253  14.740  0.00  0.00     0.038 H 
ATOM     11  H16 L1Z d   1     -10.106 -15.806  15.637  0.00  0.00     0.073 H 
ATOM     12  H17 L1Z d   1     -11.534 -14.772  17.349  0.00  0.00     0.038 H 
ATOM     13  H18 L1Z d   1     -12.971 -15.602  16.661  0.00  0.00     0.038 H 
ATOM     14  H19 L1Z d   1     -11.141 -13.648  15.182  0.00  0.00     0.076 H 
ATOM     15  H20 L1Z d   1     -12.781 -13.282  15.817  0.00  0.00     0.076 H 
ATOM     16  H33 L1Z d   1     -13.630 -15.000  14.368  0.00  0.00     0.280 HD
ENDROOT
BRANCH   6  17
ATOM     17  CAS L1Z d   1     -12.885 -13.486  13.216  0.00  0.00     0.107 C 
ATOM     18  H10 L1Z d   1     -13.265 -12.607  13.756  0.00  0.00     0.083 H 
ATOM     19  H11 L1Z d   1     -11.902 -13.252  12.780  0.00  0.00     0.083 H 
BRANCH  17  20
ATOM     20  CAP L1Z d   1     -13.772 -13.797  12.183  0.00  0.00    -0.033 A 
ATOM     21  CAO L1Z d   1     -14.962 -14.484  12.420  0.00  0.00    -0.074 A 
ATOM     22  CAN L1Z d   1     -15.831 -14.775  11.367  0.00  0.00    -0.070 A 
ATOM     23  H7  L1Z d   1     -15.214 -14.794  13.428  0.00  0.00     0.084 H 
ATOM     24  CAH L1Z d   1     -15.527 -14.366  10.070  0.00  0.00    -0.007 A 
ATOM     25  H6  L1Z d   1     -16.747 -15.322  11.559  0.00  0.00     0.084 H 
ATOM     26  CAR L1Z d   1     -14.328 -13.695   9.844  0.00  0.00    -0.070 A 
ATOM     27  CAQ L1Z d   1     -13.463 -13.402  10.890  0.00  0.00    -0.074 A 
ATOM     28  H9  L1Z d   1     -14.066 -13.397   8.835  0.00  0.00     0.084 H 
ATOM     29  H8  L1Z d   1     -12.543 -12.863  10.695  0.00  0.00     0.084 H 
BRANCH  24  30
ATOM     30  CAE L1Z d   1     -16.403 -14.671   9.019  0.00  0.00     0.073 A 
ATOM     31  CAD L1Z d   1     -16.847 -13.750   8.044  0.00  0.00     0.071 A 
ATOM     32  NAC L1Z d   1     -17.686 -14.165   7.080  0.00  0.00    -0.350 N 
ATOM     33  CAB L1Z d   1     -18.135 -15.426   6.997  0.00  0.00     0.092 A 
ATOM     34  H31 L1Z d   1     -17.998 -13.484   6.373  0.00  0.00     0.166 HD
ATOM     35  CAA L1Z d   1     -17.734 -16.376   7.926  0.00  0.00     0.272 A 
ATOM     36  NAF L1Z d   1     -16.862 -15.995   8.949  0.00  0.00    -0.319 N 
ATOM     37  OBP L1Z d   1     -18.138 -17.536   7.858  0.00  0.00    -0.266 OA
ATOM     38  H32 L1Z d   1     -16.566 -16.665   9.630  0.00  0.00     0.169 HD
BRANCH  31  39
ATOM     39  CAG L1Z d   1     -16.485 -12.398   7.983  0.00  0.00    -0.007 A 
ATOM     40  CAI L1Z d   1     -16.659 -11.540   9.066  0.00  0.00    -0.071 A 
ATOM     41  CAJ L1Z d   1     -16.293 -10.200   8.963  0.00  0.00    -0.082 A 
ATOM     42  H1  L1Z d   1     -17.080 -11.916   9.991  0.00  0.00     0.084 H 
ATOM     43  CAK L1Z d   1     -15.770  -9.701   7.772  0.00  0.00    -0.083 A 
ATOM     44  H2  L1Z d   1     -16.416  -9.541   9.815  0.00  0.00     0.083 H 
ATOM     45  CAL L1Z d   1     -15.611 -10.552   6.687  0.00  0.00    -0.082 A 
ATOM     46  H3  L1Z d   1     -15.490  -8.657   7.693  0.00  0.00     0.083 H 
ATOM     47  CAM L1Z d   1     -15.975 -11.889   6.793  0.00  0.00    -0.071 A 
ATOM     48  H4  L1Z d   1     -15.203 -10.174   5.757  0.00  0.00     0.083 H 
ATOM     49  H5  L1Z d   1     -15.860 -12.544   5.937  0.00  0.00     0.084 H 
ENDBRANCH  31  39
BRANCH  33  50
ATOM     50  CBO L1Z d   1     -19.005 -15.791   5.973  0.00  0.00    -0.091 C 
ATOM     51  H29 L1Z d   1     -19.324 -15.051   5.240  0.00  0.00     0.070 H 
ATOM     52  H30 L1Z d   1     -19.366 -16.816   5.905  0.00  0.00     0.070 H 
ENDBRANCH  33  50
ENDBRANCH  24  30
ENDBRANCH  17  20
ENDBRANCH   6  17
BRANCH   3  53
ATOM     53  NAZ L1Z d   1     -10.863 -17.357  16.837  0.00  0.00    -0.293 N 
ATOM     54  CBA L1Z d   1     -11.672 -18.318  17.275  0.00  0.00     0.328 A 
ATOM     55  NBB L1Z d   1     -11.024 -19.077  18.159  0.00  0.00    -0.306 N 
ATOM     56  OBN L1Z d   1     -12.841 -18.488  16.921  0.00  0.00    -0.246 OA
ATOM     57  CBC L1Z d   1      -9.790 -18.579  18.275  0.00  0.00     0.063 A 
ATOM     58  H34 L1Z d   1     -11.393 -19.870  18.644  0.00  0.00     0.171 HD
ATOM     59  CBD L1Z d   1      -9.700 -17.522  17.463  0.00  0.00     0.068 A 
ATOM     60  CBE L1Z d   1      -8.741 -18.951  19.017  0.00  0.00    -0.053 A 
ATOM     61  CBH L1Z d   1      -8.570 -16.826  17.377  0.00  0.00    -0.029 A 
ATOM     62  CBG L1Z d   1      -7.445 -17.139  18.131  0.00  0.00     0.037 A 
ATOM     63  H23 L1Z d   1      -8.525 -15.985  16.695  0.00  0.00     0.090 H 
ATOM     64  CBF L1Z d   1      -7.530 -18.258  18.960  0.00  0.00    -0.055 A 
ATOM     65  H22 L1Z d   1      -6.677 -18.581  19.545  0.00  0.00     0.087 H 
ATOM     66  H21 L1Z d   1      -8.833 -19.807  19.675  0.00  0.00     0.087 H 
BRANCH  62  67
ATOM     67  NBI L1Z d   1      -6.357 -16.366  17.921  0.00  0.00    -0.327 N 
ATOM     68  CBJ L1Z d   1      -5.542 -15.780  18.845  0.00  0.00     0.221 C 
ATOM     69  OBM L1Z d   1      -4.604 -15.067  18.492  0.00  0.00    -0.273 OA
ATOM     70  H35 L1Z d   1      -6.118 -16.202  16.964  0.00  0.00     0.169 HD
BRANCH  68  71
ATOM     71  CBK L1Z d   1      -5.750 -16.011  20.351  0.00  0.00     0.006 C 
ATOM     72  H24 L1Z d   1      -6.357 -16.915  20.509  0.00  0.00     0.046 H 
ATOM     73  H25 L1Z d   1      -6.261 -15.144  20.794  0.00  0.00     0.046 H 
BRANCH  71  74
ATOM     74  CBL L1Z d   1      -4.371 -16.190  21.001  0.00  0.00    -0.068 C 
ATOM     75  H26 L1Z d   1      -4.494 -16.357  22.081  0.00  0.00     0.028 H 
ATOM     76  H27 L1Z d   1      -3.768 -15.285  20.836  0.00  0.00     0.028 H 
ATOM     77  H28 L1Z d   1      -3.863 -17.056  20.551  0.00  0.00     0.028 H 
ENDBRANCH  71  74
ENDBRANCH  68  71
ENDBRANCH  62  67
ENDBRANCH   3  53
TORSDOF 9
