REMARK  11 active torsions:
REMARK  status: ('A' for Active; 'I' for Inactive)
REMARK    1  A    between atoms: CAA_1  and  CBP_33 
REMARK    2  A    between atoms: CAD_3  and  CAG_5 
REMARK    3  A    between atoms: CAH_6  and  CAE_4 
REMARK    4  A    between atoms: CAS_17  and  CAP_14 
REMARK    5  A    between atoms: NAT_42  and  CAS_17 
REMARK    6  A    between atoms: NAZ_43  and  CAW_20 
REMARK    7  A    between atoms: NBI_45  and  CBG_28 
REMARK    8  A    between atoms: CBJ_30  and  CBK_31 
REMARK       I    between atoms: CBJ_30  and  NBI_45 
REMARK    9  A    between atoms: CBK_31  and  CBL_32 
REMARK   10  A    between atoms: CBP_33  and  CBQ_34 
REMARK   11  A    between atoms: CBT_37  and  OBW_49 
ROOT
ATOM      1  CAH L1W d   1       3.332   2.006  13.177  0.00  0.00    -0.007 A 
ATOM      2  CAN L1W d   1       3.913   3.252  13.402  0.00  0.00    -0.070 A 
ATOM      3  CAO L1W d   1       4.187   4.114  12.348  0.00  0.00    -0.074 A 
ATOM      4  CAP L1W d   1       3.873   3.768  11.039  0.00  0.00    -0.033 A 
ATOM      5  CAQ L1W d   1       3.294   2.526  10.796  0.00  0.00    -0.074 A 
ATOM      6  CAR L1W d   1       3.024   1.658  11.861  0.00  0.00    -0.070 A 
ATOM      7  H6  L1W d   1       4.155   3.553  14.415  0.00  0.00     0.084 H 
ATOM      8  H7  L1W d   1       4.653   5.072  12.550  0.00  0.00     0.084 H 
ATOM      9  H8  L1W d   1       3.052   2.230   9.782  0.00  0.00     0.084 H 
ATOM     10  H9  L1W d   1       2.567   0.696  11.659  0.00  0.00     0.084 H 
ENDROOT
BRANCH   4  11
ATOM     11  CAS L1W d   1       4.178   4.659  10.002  0.00  0.00     0.107 C 
ATOM     12  H10 L1W d   1       5.010   4.233   9.422  0.00  0.00     0.083 H 
ATOM     13  H11 L1W d   1       4.496   5.610  10.454  0.00  0.00     0.083 H 
BRANCH  11  14
ATOM     14  NAT L1W d   1       3.077   4.946   9.070  0.00  0.00    -0.067 N 
ATOM     15  CAU L1W d   1       2.269   6.026   9.648  0.00  0.00     0.086 C 
ATOM     16  CAV L1W d   1       1.151   6.436   8.704  0.00  0.00    -0.023 C 
ATOM     17  H12 L1W d   1       1.831   5.679  10.595  0.00  0.00     0.076 H 
ATOM     18  H13 L1W d   1       2.915   6.896   9.839  0.00  0.00     0.076 H 
ATOM     19  CAW L1W d   1       1.723   6.894   7.359  0.00  0.00     0.025 C 
ATOM     20  H14 L1W d   1       0.582   7.262   9.155  0.00  0.00     0.038 H 
ATOM     21  H15 L1W d   1       0.483   5.577   8.540  0.00  0.00     0.038 H 
ATOM     22  CAX L1W d   1       2.597   5.794   6.798  0.00  0.00    -0.023 C 
ATOM     23  H16 L1W d   1       2.354   7.776   7.540  0.00  0.00     0.073 H 
ATOM     24  CAY L1W d   1       3.668   5.454   7.822  0.00  0.00     0.086 C 
ATOM     25  H17 L1W d   1       3.071   6.136   5.866  0.00  0.00     0.038 H 
ATOM     26  H18 L1W d   1       1.985   4.903   6.592  0.00  0.00     0.038 H 
ATOM     27  H19 L1W d   1       4.250   6.360   8.045  0.00  0.00     0.076 H 
ATOM     28  H20 L1W d   1       4.333   4.685   7.402  0.00  0.00     0.076 H 
ATOM     29  H36 L1W d   1       2.519   4.124   8.901  0.00  0.00     0.280 HD
BRANCH  19  30
ATOM     30  NAZ L1W d   1       0.651   7.297   6.385  0.00  0.00    -0.293 N 
ATOM     31  CBA L1W d   1      -0.526   6.713   6.159  0.00  0.00     0.328 A 
ATOM     32  NBB L1W d   1      -1.192   7.367   5.224  0.00  0.00    -0.306 N 
ATOM     33  OBN L1W d   1      -0.976   5.720   6.729  0.00  0.00    -0.246 OA
ATOM     34  CBC L1W d   1      -0.421   8.377   4.840  0.00  0.00     0.063 A 
ATOM     35  H37 L1W d   1      -2.102   7.144   4.873  0.00  0.00     0.171 HD
ATOM     36  CBD L1W d   1       0.718   8.339   5.547  0.00  0.00     0.068 A 
ATOM     37  CBE L1W d   1      -0.642   9.312   3.920  0.00  0.00    -0.053 A 
ATOM     38  CBH L1W d   1       1.671   9.255   5.346  0.00  0.00    -0.029 A 
ATOM     39  CBG L1W d   1       1.482  10.265   4.404  0.00  0.00     0.037 A 
ATOM     40  H23 L1W d   1       2.592   9.212   5.916  0.00  0.00     0.090 H 
ATOM     41  CBF L1W d   1       0.308  10.285   3.668  0.00  0.00    -0.055 A 
ATOM     42  H22 L1W d   1       0.138  11.044   2.913  0.00  0.00     0.087 H 
ATOM     43  H21 L1W d   1      -1.573   9.311   3.364  0.00  0.00     0.087 H 
BRANCH  39  44
ATOM     44  NBI L1W d   1       2.412  11.186   4.150  0.00  0.00    -0.327 N 
ATOM     45  CBJ L1W d   1       2.161  12.477   4.414  0.00  0.00     0.221 C 
ATOM     46  OBM L1W d   1       1.139  12.902   4.949  0.00  0.00    -0.273 OA
ATOM     47  H38 L1W d   1       3.294  10.915   3.764  0.00  0.00     0.169 HD
BRANCH  45  48
ATOM     48  CBK L1W d   1       3.286  13.429   4.004  0.00  0.00     0.006 C 
ATOM     49  H24 L1W d   1       4.247  13.064   4.396  0.00  0.00     0.046 H 
ATOM     50  H25 L1W d   1       3.087  14.436   4.400  0.00  0.00     0.046 H 
BRANCH  48  51
ATOM     51  CBL L1W d   1       3.331  13.471   2.455  0.00  0.00    -0.068 C 
ATOM     52  H26 L1W d   1       4.133  14.150   2.130  0.00  0.00     0.028 H 
ATOM     53  H27 L1W d   1       2.366  13.832   2.070  0.00  0.00     0.028 H 
ATOM     54  H28 L1W d   1       3.526  12.461   2.066  0.00  0.00     0.028 H 
ENDBRANCH  48  51
ENDBRANCH  45  48
ENDBRANCH  39  44
ENDBRANCH  19  30
ENDBRANCH  11  14
ENDBRANCH   4  11
BRANCH   1  55
ATOM     55  CAE L1W d   1       3.063   1.123  14.239  0.00  0.00     0.071 A 
ATOM     56  CAD L1W d   1       4.042   0.781  15.196  0.00  0.00     0.073 A 
ATOM     57  NAC L1W d   1       3.720  -0.095  16.227  0.00  0.00    -0.319 N 
ATOM     58  CAB L1W d   1       2.446  -0.628  16.304  0.00  0.00     0.272 A 
ATOM     59  H34 L1W d   1       4.408  -0.339  16.911  0.00  0.00     0.169 HD
ATOM     60  CAA L1W d   1       1.503  -0.275  15.351  0.00  0.00     0.102 A 
ATOM     61  OBO L1W d   1       2.165  -1.406  17.216  0.00  0.00    -0.266 OA
ATOM     62  NAF L1W d   1       1.829   0.575  14.349  0.00  0.00    -0.349 N 
ATOM     63  H35 L1W d   1       1.115   0.813  13.646  0.00  0.00     0.166 HD
BRANCH  56  64
ATOM     64  CAG L1W d   1       5.359   1.241  15.221  0.00  0.00    -0.007 A 
ATOM     65  CAI L1W d   1       5.817   1.902  16.354  0.00  0.00    -0.071 A 
ATOM     66  CAJ L1W d   1       7.127   2.365  16.419  0.00  0.00    -0.082 A 
ATOM     67  H1  L1W d   1       5.149   2.058  17.193  0.00  0.00     0.084 H 
ATOM     68  CAK L1W d   1       7.989   2.154  15.351  0.00  0.00    -0.083 A 
ATOM     69  H2  L1W d   1       7.474   2.890  17.302  0.00  0.00     0.083 H 
ATOM     70  CAL L1W d   1       7.535   1.485  14.219  0.00  0.00    -0.082 A 
ATOM     71  H3  L1W d   1       9.012   2.509  15.399  0.00  0.00     0.083 H 
ATOM     72  CAM L1W d   1       6.226   1.022  14.154  0.00  0.00    -0.071 A 
ATOM     73  H4  L1W d   1       8.206   1.324  13.383  0.00  0.00     0.083 H 
ATOM     74  H5  L1W d   1       5.881   0.491  13.274  0.00  0.00     0.084 H 
ENDBRANCH  56  64
BRANCH  60  75
ATOM     75  CBP L1W d   1       0.247  -0.876  15.511  0.00  0.00    -0.042 C 
ATOM     76  H29 L1W d   1       0.111  -1.725  16.179  0.00  0.00     0.088 H 
BRANCH  75  77
ATOM     77  CBQ L1W d   1      -0.821  -0.351  14.787  0.00  0.00    -0.034 A 
ATOM     78  CBR L1W d   1      -0.877  -0.413  13.400  0.00  0.00    -0.070 A 
ATOM     79  CBS L1W d   1      -1.978   0.103  12.723  0.00  0.00    -0.050 A 
ATOM     80  H30 L1W d   1      -0.062  -0.864  12.845  0.00  0.00     0.084 H 
ATOM     81  CBT L1W d   1      -3.037   0.664  13.426  0.00  0.00     0.065 A 
ATOM     82  H31 L1W d   1      -2.010   0.067  11.640  0.00  0.00     0.087 H 
ATOM     83  CBU L1W d   1      -2.991   0.711  14.814  0.00  0.00    -0.050 A 
ATOM     84  CBV L1W d   1      -1.888   0.197  15.488  0.00  0.00    -0.070 A 
ATOM     85  H32 L1W d   1      -3.813   1.147  15.370  0.00  0.00     0.087 H 
ATOM     86  H33 L1W d   1      -1.861   0.224  16.571  0.00  0.00     0.084 H 
BRANCH  81  87
ATOM     87  OBW L1W d   1      -4.113   1.166  12.762  0.00  0.00    -0.361 OA
ATOM     88  H39 L1W d   1      -3.986   1.056  11.827  0.00  0.00     0.217 HD
ENDBRANCH  81  87
ENDBRANCH  75  77
ENDBRANCH  60  75
ENDBRANCH   1  55
TORSDOF 11
