REMARK  16 active torsions:
REMARK  status: ('A' for Active; 'I' for Inactive)
REMARK    1  A    between atoms: CAI_11  and  CAG_12 
REMARK       I    between atoms: CAG_12  and  N_14 
REMARK    2  A    between atoms: CA_19  and  C_20 
REMARK    3  A    between atoms: C_20  and  OAV_22 
REMARK    4  A    between atoms: OAV_22  and  CAW_23 
REMARK    5  A    between atoms: CAW_23  and  CAY_24 
REMARK    6  A    between atoms: CAW_23  and  CAX_36 
REMARK    7  A    between atoms: CAY_24  and  CAZ_25 
REMARK    8  A    between atoms: CAZ_25  and  CBA_26 
REMARK    9  A    between atoms: CBD_30  and  OBG_31 
REMARK   10  A    between atoms: OBG_31  and  CBH_32 
REMARK   11  A    between atoms: CBE_33  and  OBI_34 
REMARK   12  A    between atoms: OBI_34  and  CBJ_35 
REMARK   13  A    between atoms: CBL_41  and  OBP_42 
REMARK   14  A    between atoms: OBP_42  and  CBQ_43 
REMARK   15  A    between atoms: CBQ_43  and  CBR_44 
REMARK   16  A    between atoms: CBR_44  and  NBS_45 
ROOT
ATOM      1  CAW L2Q d   1       6.996   2.940  28.802  0.00  0.00     0.073 C 
ATOM      2  H25 L2Q d   1       6.684   3.905  28.377  0.00  0.00     0.091 H 
ENDROOT
BRANCH   1   3
ATOM      3  OAV L2Q d   1       7.243   1.945  27.717  0.00  0.00    -0.310 OA
BRANCH   3   4
ATOM      4  C   L2Q d   1       7.480   2.395  26.412  0.00  0.00     0.282 C 
ATOM      5  O   L2Q d   1       7.784   3.555  26.135  0.00  0.00    -0.263 OA
BRANCH   4   6
ATOM      6  CA  L2Q d   1       7.394   1.425  25.326  0.00  0.00     0.098 C 
ATOM      7  N   L2Q d   1       7.402   0.015  25.795  0.00  0.00    -0.338 N 
ATOM      8  CAG L2Q d   1       8.614  -0.621  25.964  0.00  0.00     0.225 C 
ATOM      9  CAE L2Q d   1       6.084  -0.542  26.167  0.00  0.00    -0.001 C 
ATOM     10  OAH L2Q d   1       9.697  -0.074  25.685  0.00  0.00    -0.273 OA
ATOM     11  CAD L2Q d   1       5.099  -0.308  25.182  0.00  0.00    -0.050 C 
ATOM     12  H16 L2Q d   1       5.758  -0.077  27.109  0.00  0.00     0.064 H 
ATOM     13  H17 L2Q d   1       6.188  -1.628  26.311  0.00  0.00     0.064 H 
ATOM     14  CAC L2Q d   1       4.925   1.144  25.040  0.00  0.00    -0.061 C 
ATOM     15  H18 L2Q d   1       4.149  -0.768  25.490  0.00  0.00     0.035 H 
ATOM     16  H19 L2Q d   1       5.422  -0.740  24.223  0.00  0.00     0.035 H 
ATOM     17  CB  L2Q d   1       6.170   1.706  24.428  0.00  0.00    -0.037 C 
ATOM     18  H20 L2Q d   1       4.758   1.598  26.028  0.00  0.00     0.033 H 
ATOM     19  H21 L2Q d   1       4.063   1.354  24.390  0.00  0.00     0.033 H 
ATOM     20  H22 L2Q d   1       6.054   2.793  24.306  0.00  0.00     0.036 H 
ATOM     21  H23 L2Q d   1       6.330   1.242  23.444  0.00  0.00     0.036 H 
ATOM     22  H24 L2Q d   1       8.293   1.560  24.706  0.00  0.00     0.088 H 
BRANCH   8  23
ATOM     23  CAI L2Q d   1       8.626  -2.112  26.485  0.00  0.00     0.028 C 
ATOM     24  CAN L2Q d   1       9.877  -2.915  26.009  0.00  0.00    -0.032 C 
ATOM     25  CAR L2Q d   1       9.951  -3.090  24.492  0.00  0.00    -0.060 C 
ATOM     26  CAM L2Q d   1       9.837  -4.311  26.654  0.00  0.00     0.008 C 
ATOM     27  H1  L2Q d   1      10.780  -2.382  26.343  0.00  0.00     0.042 H 
ATOM     28  CAQ L2Q d   1      11.214  -3.831  24.050  0.00  0.00    -0.065 C 
ATOM     29  H2  L2Q d   1       9.942  -2.096  24.021  0.00  0.00     0.033 H 
ATOM     30  H3  L2Q d   1       9.072  -3.661  24.159  0.00  0.00     0.033 H 
ATOM     31  CAP L2Q d   1      11.136  -5.241  24.583  0.00  0.00    -0.064 C 
ATOM     32  H4  L2Q d   1      12.104  -3.327  24.455  0.00  0.00     0.033 H 
ATOM     33  H5  L2Q d   1      11.271  -3.849  22.952  0.00  0.00     0.033 H 
ATOM     34  CAO L2Q d   1      11.104  -5.144  26.181  0.00  0.00    -0.055 C 
ATOM     35  H6  L2Q d   1      12.016  -5.816  24.258  0.00  0.00     0.033 H 
ATOM     36  H7  L2Q d   1      10.222  -5.732  24.217  0.00  0.00     0.033 H 
ATOM     37  H8  L2Q d   1      12.019  -4.645  26.533  0.00  0.00     0.034 H 
ATOM     38  H9  L2Q d   1      11.052  -6.157  26.606  0.00  0.00     0.034 H 
ATOM     39  CAL L2Q d   1       9.687  -4.202  28.060  0.00  0.00     0.131 C 
ATOM     40  H10 L2Q d   1       8.946  -4.835  26.277  0.00  0.00     0.052 H 
ATOM     41  OAS L2Q d   1      10.531  -4.689  28.804  0.00  0.00    -0.298 OA
ATOM     42  CAK L2Q d   1       8.582  -3.562  28.619  0.00  0.00    -0.009 C 
ATOM     43  CAJ L2Q d   1       8.545  -2.108  28.041  0.00  0.00    -0.047 C 
ATOM     44  H11 L2Q d   1       8.680  -3.529  29.714  0.00  0.00     0.044 H 
ATOM     45  H12 L2Q d   1       7.660  -4.098  28.349  0.00  0.00     0.044 H 
ATOM     46  H13 L2Q d   1       9.398  -1.542  28.442  0.00  0.00     0.034 H 
ATOM     47  H14 L2Q d   1       7.606  -1.624  28.349  0.00  0.00     0.034 H 
ATOM     48  H15 L2Q d   1       7.733  -2.617  26.090  0.00  0.00     0.055 H 
ENDBRANCH   8  23
ENDBRANCH   4   6
ENDBRANCH   3   4
ENDBRANCH   1   3
BRANCH   1  49
ATOM     49  CAY L2Q d   1       8.356   3.118  29.449  0.00  0.00    -0.033 C 
ATOM     50  H26 L2Q d   1       9.130   3.205  28.673  0.00  0.00     0.037 H 
ATOM     51  H27 L2Q d   1       8.578   2.255  30.094  0.00  0.00     0.037 H 
BRANCH  49  52
ATOM     52  CAZ L2Q d   1       8.317   4.385  30.280  0.00  0.00    -0.038 C 
ATOM     53  H28 L2Q d   1       8.902   4.223  31.197  0.00  0.00     0.040 H 
ATOM     54  H29 L2Q d   1       7.271   4.600  30.545  0.00  0.00     0.040 H 
BRANCH  52  55
ATOM     55  CBA L2Q d   1       8.862   5.530  29.579  0.00  0.00    -0.055 A 
ATOM     56  CBF L2Q d   1      10.219   5.603  29.251  0.00  0.00    -0.042 A 
ATOM     57  CBE L2Q d   1      10.748   6.705  28.589  0.00  0.00     0.102 A 
ATOM     58  H30 L2Q d   1      10.874   4.782  29.519  0.00  0.00     0.088 H 
ATOM     59  CBD L2Q d   1       9.905   7.800  28.257  0.00  0.00     0.101 A 
ATOM     60  CBC L2Q d   1       8.543   7.733  28.597  0.00  0.00    -0.048 A 
ATOM     61  CBB L2Q d   1       8.043   6.614  29.255  0.00  0.00    -0.074 A 
ATOM     62  H32 L2Q d   1       7.881   8.554  28.346  0.00  0.00     0.087 H 
ATOM     63  H31 L2Q d   1       6.993   6.583  29.523  0.00  0.00     0.084 H 
BRANCH  57  64
ATOM     64  OBI L2Q d   1      12.106   6.660  28.321  0.00  0.00    -0.353 OA
BRANCH  64  65
ATOM     65  CBJ L2Q d   1      12.827   7.597  27.504  0.00  0.00     0.010 C 
ATOM     66  H36 L2Q d   1      13.889   7.312  27.470  0.00  0.00     0.066 H 
ATOM     67  H37 L2Q d   1      12.732   8.606  27.932  0.00  0.00     0.066 H 
ATOM     68  H38 L2Q d   1      12.412   7.590  26.485  0.00  0.00     0.066 H 
ENDBRANCH  64  65
ENDBRANCH  57  64
BRANCH  59  69
ATOM     69  OBG L2Q d   1      10.456   8.876  27.613  0.00  0.00    -0.353 OA
BRANCH  69  70
ATOM     70  CBH L2Q d   1       9.673  10.098  27.546  0.00  0.00     0.010 C 
ATOM     71  H33 L2Q d   1      10.241  10.868  27.003  0.00  0.00     0.066 H 
ATOM     72  H34 L2Q d   1       9.457  10.452  28.565  0.00  0.00     0.066 H 
ATOM     73  H35 L2Q d   1       8.728   9.900  27.019  0.00  0.00     0.066 H 
ENDBRANCH  69  70
ENDBRANCH  59  69
ENDBRANCH  52  55
ENDBRANCH  49  52
ENDBRANCH   1  49
BRANCH   1  74
ATOM     74  CAX L2Q d   1       5.922   2.454  29.610  0.00  0.00    -0.026 A 
ATOM     75  CBK L2Q d   1       4.717   3.159  29.714  0.00  0.00    -0.042 A 
ATOM     76  CBL L2Q d   1       3.654   2.636  30.455  0.00  0.00     0.069 A 
ATOM     77  H39 L2Q d   1       4.608   4.116  29.217  0.00  0.00     0.088 H 
ATOM     78  CBM L2Q d   1       3.788   1.384  31.086  0.00  0.00    -0.051 A 
ATOM     79  CBN L2Q d   1       4.971   0.671  30.974  0.00  0.00    -0.080 A 
ATOM     80  H42 L2Q d   1       2.964   0.977  31.661  0.00  0.00     0.087 H 
ATOM     81  CBO L2Q d   1       6.015   1.209  30.233  0.00  0.00    -0.074 A 
ATOM     82  H41 L2Q d   1       5.080  -0.293  31.458  0.00  0.00     0.083 H 
ATOM     83  H40 L2Q d   1       6.934   0.642  30.135  0.00  0.00     0.084 H 
BRANCH  76  84
ATOM     84  OBP L2Q d   1       2.441   3.248  30.627  0.00  0.00    -0.349 OA
BRANCH  84  85
ATOM     85  CBQ L2Q d   1       2.028   4.586  30.265  0.00  0.00     0.049 C 
ATOM     86  H43 L2Q d   1       1.290   4.570  29.449  0.00  0.00     0.077 H 
ATOM     87  H44 L2Q d   1       2.889   5.204  29.969  0.00  0.00     0.077 H 
BRANCH  85  88
ATOM     88  CBR L2Q d   1       1.406   5.088  31.565  0.00  0.00     0.103 C 
ATOM     89  H45 L2Q d   1       2.204   5.461  32.224  0.00  0.00     0.079 H 
ATOM     90  H46 L2Q d   1       0.884   4.255  32.057  0.00  0.00     0.079 H 
BRANCH  88  91
ATOM     91  NBS L2Q d   1       0.443   6.177  31.313  0.00  0.00    -0.065 N 
ATOM     92  CBX L2Q d   1      -1.016   5.959  31.226  0.00  0.00     0.103 C 
ATOM     93  CBW L2Q d   1      -1.732   5.406  32.453  0.00  0.00     0.042 C 
ATOM     94  H48 L2Q d   1      -1.193   5.255  30.399  0.00  0.00     0.079 H 
ATOM     95  H49 L2Q d   1      -1.478   6.928  30.987  0.00  0.00     0.079 H 
ATOM     96  OBV L2Q d   1      -1.332   6.147  33.677  0.00  0.00    -0.388 OA
ATOM     97  H50 L2Q d   1      -1.472   4.344  32.574  0.00  0.00     0.076 H 
ATOM     98  H51 L2Q d   1      -2.818   5.504  32.311  0.00  0.00     0.076 H 
ATOM     99  CBU L2Q d   1       0.054   6.433  33.875  0.00  0.00     0.042 C 
ATOM    100  CBT L2Q d   1       0.549   7.071  32.526  0.00  0.00     0.103 C 
ATOM    101  H52 L2Q d   1       0.610   5.509  34.090  0.00  0.00     0.076 H 
ATOM    102  H53 L2Q d   1       0.185   7.141  34.706  0.00  0.00     0.076 H 
ATOM    103  H54 L2Q d   1      -0.051   7.974  32.337  0.00  0.00     0.079 H 
ATOM    104  H55 L2Q d   1       1.605   7.352  32.650  0.00  0.00     0.079 H 
ATOM    105  H47 L2Q d   1       0.737   6.650  30.473  0.00  0.00     0.280 HD
ENDBRANCH  88  91
ENDBRANCH  85  88
ENDBRANCH  84  85
ENDBRANCH  76  84
ENDBRANCH   1  74
TORSDOF 16
