REMARK  7 active torsions:
REMARK  status: ('A' for Active; 'I' for Inactive)
REMARK    1  A    between atoms: N1_1  and  C5_5 
REMARK    2  A    between atoms: C6_6  and  N1_1 
REMARK    3  A    between atoms: C2_2  and  C1_9 
REMARK    4  A    between atoms: C7_23  and  C6_6 
REMARK    5  A    between atoms: C8_24  and  C9_7 
REMARK    6  A    between atoms: C14_13  and  C15_14 
REMARK    7  A    between atoms: C16_15  and  C17_16 
ROOT
ATOM      1  C16 L3E d   1      -1.540 -45.287 -12.770  0.00  0.00     0.123 A 
ATOM      2  C7  L3E d   1      -1.941 -44.518 -13.840  0.00  0.00     0.028 A 
ATOM      3  C8  L3E d   1      -3.228 -44.050 -13.540  0.00  0.00     0.108 A 
ATOM      4  N2  L3E d   1      -3.576 -44.464 -12.340  0.00  0.00    -0.127 NA
ATOM      5  O3  L3E d   1      -2.518 -45.256 -11.840  0.00  0.00    -0.211 OA
ENDROOT
BRANCH   2   6
ATOM      6  C6  L3E d   1      -1.145 -44.453 -15.109  0.00  0.00     0.021 C 
ATOM      7  H4  L3E d   1      -0.493 -45.339 -15.128  0.00  0.00     0.071 H 
ATOM      8  H5  L3E d   1      -1.860 -44.507 -15.943  0.00  0.00     0.071 H 
BRANCH   6   9
ATOM      9  N1  L3E d   1      -0.312 -43.311 -15.341  0.00  0.00    -0.385 N 
ATOM     10  H1  L3E d   1      -0.355 -42.535 -14.666  0.00  0.00     0.160 HD
BRANCH   9  11
ATOM     11  C5  L3E d   1       0.545 -43.189 -16.415  0.00  0.00     0.028 A 
ATOM     12  C4  L3E d   1       0.993 -44.282 -17.180  0.00  0.00    -0.057 A 
ATOM     13  C3  L3E d   1       1.864 -44.060 -18.240  0.00  0.00    -0.064 A 
ATOM     14  H3  L3E d   1       0.662 -45.287 -16.945  0.00  0.00     0.086 H 
ATOM     15  C2  L3E d   1       2.285 -42.764 -18.541  0.00  0.00     0.041 A 
ATOM     16  H14 L3E d   1       2.217 -44.895 -18.834  0.00  0.00     0.085 H 
ATOM     17  C22 L3E d   1       1.831 -41.703 -17.779  0.00  0.00    -0.064 A 
ATOM     18  C21 L3E d   1       0.971 -41.908 -16.727  0.00  0.00    -0.057 A 
ATOM     19  H13 L3E d   1       2.158 -40.697 -18.015  0.00  0.00     0.085 H 
ATOM     20  H12 L3E d   1       0.625 -41.065 -16.140  0.00  0.00     0.086 H 
BRANCH  15  21
ATOM     21  C1  L3E d   1       3.229 -42.455 -19.672  0.00  0.00     0.209 C 
ATOM     22  O1  L3E d   1       3.638 -41.276 -19.751  0.00  0.00    -0.644 OA
ATOM     23  O2  L3E d   1       3.531 -43.356 -20.464  0.00  0.00    -0.644 OA
ENDBRANCH  15  21
ENDBRANCH   9  11
ENDBRANCH   6   9
ENDBRANCH   2   6
BRANCH   1  24
ATOM     24  C17 L3E d   1      -0.327 -46.018 -12.451  0.00  0.00     0.017 A 
ATOM     25  C18 L3E d   1       0.942 -45.884 -13.085  0.00  0.00    -0.054 A 
ATOM     26  C19 L3E d   1       1.807 -46.731 -12.448  0.00  0.00    -0.022 A 
ATOM     27  H9  L3E d   1       1.179 -45.229 -13.922  0.00  0.00     0.087 H 
ATOM     28  N3  L3E d   1       1.133 -47.350 -11.442  0.00  0.00    -0.374 N 
ATOM     29  H10 L3E d   1       2.855 -46.883 -12.703  0.00  0.00     0.111 H 
ATOM     30  C20 L3E d   1      -0.161 -46.919 -11.426  0.00  0.00    -0.011 A 
ATOM     31  H2  L3E d   1       1.538 -48.039 -10.792  0.00  0.00     0.164 HD
ATOM     32  H11 L3E d   1      -0.930 -47.234 -10.723  0.00  0.00     0.112 H 
ENDBRANCH   1  24
BRANCH   3  33
ATOM     33  C9  L3E d   1      -4.143 -43.130 -14.241  0.00  0.00     0.032 A 
ATOM     34  C10 L3E d   1      -3.916 -41.758 -14.191  0.00  0.00     0.047 A 
ATOM     35  C11 L3E d   1      -4.760 -40.850 -14.808  0.00  0.00    -0.061 A 
ATOM     36 CL1  L3E d   1      -2.528 -41.134 -13.375  0.00  0.00    -0.083 Cl
ATOM     37  C12 L3E d   1      -5.871 -41.317 -15.476  0.00  0.00    -0.081 A 
ATOM     38  H6  L3E d   1      -4.550 -39.787 -14.766  0.00  0.00     0.086 H 
ATOM     39  C13 L3E d   1      -6.136 -42.673 -15.521  0.00  0.00    -0.067 A 
ATOM     40  H7  L3E d   1      -6.539 -40.619 -15.968  0.00  0.00     0.083 H 
ATOM     41  C14 L3E d   1      -5.288 -43.596 -14.915  0.00  0.00     0.062 A 
ATOM     42  H8  L3E d   1      -7.021 -43.025 -16.038  0.00  0.00     0.084 H 
BRANCH  41  43
ATOM     43  C15 L3E d   1      -5.621 -45.044 -14.993  0.00  0.00     0.418 C 
ATOM     44  F1  L3E d   1      -6.553 -45.286 -15.896  0.00  0.00    -0.166 F 
ATOM     45  F2  L3E d   1      -6.076 -45.525 -13.837  0.00  0.00    -0.166 F 
ATOM     46  F3  L3E d   1      -4.580 -45.805 -15.343  0.00  0.00    -0.166 F 
ENDBRANCH  41  43
ENDBRANCH   3  33
TORSDOF 7
