REMARK  13 active torsions:
REMARK  status: ('A' for Active; 'I' for Inactive)
REMARK    1  A    between atoms: C1_1  and  O11_11 
REMARK    2  A    between atoms: C2_2  and  O13_13 
REMARK    3  A    between atoms: C10_10  and  O14_14 
REMARK    4  A    between atoms: O11_11  and  C12_12 
REMARK    5  A    between atoms: O13_13  and  C23_23 
REMARK    6  A    between atoms: O14_14  and  C15_15 
REMARK    7  A    between atoms: C18_18  and  N22_22 
REMARK       I    between atoms: N22_22  and  C32_32 
REMARK    8  A    between atoms: C23_23  and  C24_24 
REMARK    9  A    between atoms: C24_24  and  C25_25 
REMARK   10  A    between atoms: C25_25  and  N26_26 
REMARK   11  A    between atoms: C32_32  and  C33_33 
REMARK   12  A    between atoms: C33_33  and  C34_34 
REMARK       I    between atoms: C34_34  and  N35_35 
REMARK   13  A    between atoms: N35_35  and  C38_38 
ROOT
ATOM      1  C1  MOL d   1      -7.267  21.714 -31.109  0.00  0.00     0.102 A 
ATOM      2  C2  MOL d   1      -8.345  22.638 -31.033  0.00  0.00     0.104 A 
ATOM      3  C3  MOL d   1      -9.632  22.190 -30.956  0.00  0.00    -0.019 A 
ATOM      4  C4  MOL d   1      -9.909  20.806 -30.951  0.00  0.00     0.072 A 
ATOM      5  C5  MOL d   1      -8.836  19.884 -31.026  0.00  0.00     0.029 A 
ATOM      6  C6  MOL d   1      -7.510  20.370 -31.105  0.00  0.00    -0.033 A 
ATOM      7  N7  MOL d   1     -11.222  20.411 -30.867  0.00  0.00    -0.260 NA
ATOM      8  C8  MOL d   1     -11.463  19.107 -30.860  0.00  0.00     0.005 A 
ATOM      9  C9  MOL d   1     -10.495  18.113 -30.932  0.00  0.00    -0.032 A 
ATOM     10  C10 MOL d   1      -9.173  18.506 -31.012  0.00  0.00     0.090 A 
ATOM     11  H1  MOL d   1     -10.447  22.902 -30.898  0.00  0.00     0.091 H 
ATOM     12  H2  MOL d   1      -6.683  19.672 -31.163  0.00  0.00     0.089 H 
ATOM     13  H3  MOL d   1     -12.498  18.791 -30.793  0.00  0.00     0.114 H 
ATOM     14  H4  MOL d   1     -10.768  17.064 -30.926  0.00  0.00     0.090 H 
ENDROOT
BRANCH  10  15
ATOM     15  O14 MOL d   1      -8.106  17.614 -31.084  0.00  0.00    -0.307 OA
BRANCH  15  16
ATOM     16  C15 MOL d   1      -8.302  16.319 -30.632  0.00  0.00     0.114 A 
ATOM     17  C16 MOL d   1      -8.275  16.008 -29.280  0.00  0.00    -0.045 A 
ATOM     18  C17 MOL d   1      -8.479  14.699 -28.871  0.00  0.00    -0.054 A 
ATOM     19  H8  MOL d   1      -8.095  16.785 -28.546  0.00  0.00     0.088 H 
ATOM     20  C18 MOL d   1      -8.715  13.693 -29.805  0.00  0.00     0.037 A 
ATOM     21  H9  MOL d   1      -8.455  14.456 -27.815  0.00  0.00     0.087 H 
ATOM     22  C19 MOL d   1      -8.744  14.004 -31.159  0.00  0.00    -0.017 A 
ATOM     23  C20 MOL d   1      -8.539  15.304 -31.537  0.00  0.00     0.152 A 
ATOM     24  H10 MOL d   1      -8.925  13.234 -31.900  0.00  0.00     0.091 H 
ATOM     25  F21 MOL d   1      -8.571  15.615 -32.850  0.00  0.00    -0.203 F 
BRANCH  20  26
ATOM     26  N22 MOL d   1      -8.910  12.396 -29.279  0.00  0.00    -0.325 N 
ATOM     27  C32 MOL d   1      -9.151  11.219 -29.900  0.00  0.00     0.247 C 
ATOM     28  O36 MOL d   1      -9.227  11.107 -31.113  0.00  0.00    -0.271 OA
ATOM     29  H11 MOL d   1      -8.862  12.339 -28.282  0.00  0.00     0.169 HD
BRANCH  27  30
ATOM     30  C33 MOL d   1      -9.323   9.988 -28.982  0.00  0.00     0.157 A 
ATOM     31  C45 MOL d   1      -9.706   8.671 -29.661  0.00  0.00    -0.075 A 
ATOM     32  C46 MOL d   1      -8.307   8.866 -29.216  0.00  0.00    -0.075 A 
ATOM     33  H32 MOL d   1     -10.462   8.044 -30.131  0.00  0.00     0.079 H 
ATOM     34  H33 MOL d   1      -7.291   8.486 -29.123  0.00  0.00     0.079 H 
BRANCH  30  35
ATOM     35  C34 MOL d   1      -9.666  10.292 -27.489  0.00  0.00     0.247 C 
ATOM     36  N35 MOL d   1     -10.027   9.248 -26.704  0.00  0.00    -0.326 N 
ATOM     37  H27 MOL d   1     -10.169   8.359 -27.139  0.00  0.00     0.169 HD
ATOM     38  O37 MOL d   1      -9.612  11.426 -27.033  0.00  0.00    -0.271 OA
BRANCH  36  39
ATOM     39  C38 MOL d   1     -10.214   9.344 -25.308  0.00  0.00     0.035 A 
ATOM     40  C39 MOL d   1      -9.397   8.645 -24.427  0.00  0.00    -0.054 A 
ATOM     41  C40 MOL d   1      -9.587   8.756 -23.059  0.00  0.00    -0.044 A 
ATOM     42  H28 MOL d   1      -8.607   8.010 -24.812  0.00  0.00     0.087 H 
ATOM     43  C41 MOL d   1     -10.594   9.570 -22.606  0.00  0.00     0.116 A 
ATOM     44  H29 MOL d   1      -8.956   8.213 -22.364  0.00  0.00     0.088 H 
ATOM     45  C42 MOL d   1     -11.417  10.275 -23.442  0.00  0.00    -0.044 A 
ATOM     46  F44 MOL d   1     -10.786   9.681 -21.272  0.00  0.00    -0.206 F 
ATOM     47  C43 MOL d   1     -11.223  10.160 -24.807  0.00  0.00    -0.054 A 
ATOM     48  H30 MOL d   1     -12.202  10.908 -23.044  0.00  0.00     0.088 H 
ATOM     49  H31 MOL d   1     -11.861  10.709 -25.490  0.00  0.00     0.087 H 
ENDBRANCH  36  39
ENDBRANCH  30  35
ENDBRANCH  27  30
ENDBRANCH  20  26
ENDBRANCH  15  16
ENDBRANCH  10  15
BRANCH   1  50
ATOM     50  O11 MOL d   1      -6.026  22.289 -31.182  0.00  0.00    -0.353 OA
BRANCH  50  51
ATOM     51  C12 MOL d   1      -4.885  21.428 -31.208  0.00  0.00     0.010 C 
ATOM     52  H5  MOL d   1      -3.969  22.035 -31.267  0.00  0.00     0.066 H 
ATOM     53  H6  MOL d   1      -4.944  20.767 -32.085  0.00  0.00     0.066 H 
ATOM     54  H7  MOL d   1      -4.863  20.820 -30.291  0.00  0.00     0.066 H 
ENDBRANCH  50  51
ENDBRANCH   1  50
BRANCH   2  55
ATOM     55  O13 MOL d   1      -7.968  23.955 -31.047  0.00  0.00    -0.348 OA
BRANCH  55  56
ATOM     56  C23 MOL d   1      -8.978  24.945 -31.304  0.00  0.00     0.028 C 
ATOM     57  H12 MOL d   1      -9.530  25.162 -30.378  0.00  0.00     0.075 H 
ATOM     58  H13 MOL d   1      -9.676  24.574 -32.068  0.00  0.00     0.075 H 
BRANCH  56  59
ATOM     59  C24 MOL d   1      -8.302  26.196 -31.798  0.00  0.00    -0.022 C 
ATOM     60  H14 MOL d   1      -9.062  26.858 -32.239  0.00  0.00     0.038 H 
ATOM     61  H15 MOL d   1      -7.565  25.920 -32.567  0.00  0.00     0.038 H 
BRANCH  59  62
ATOM     62  C25 MOL d   1      -7.592  26.941 -30.687  0.00  0.00     0.086 C 
ATOM     63  H16 MOL d   1      -6.858  26.262 -30.228  0.00  0.00     0.076 H 
ATOM     64  H17 MOL d   1      -8.339  27.235 -29.935  0.00  0.00     0.076 H 
BRANCH  62  65
ATOM     65  N26 MOL d   1      -6.888  28.146 -31.134  0.00  0.00    -0.067 N 
ATOM     66  C27 MOL d   1      -5.446  27.878 -31.277  0.00  0.00     0.103 C 
ATOM     67  C28 MOL d   1      -4.750  29.071 -31.894  0.00  0.00     0.042 C 
ATOM     68  H19 MOL d   1      -5.302  27.000 -31.923  0.00  0.00     0.079 H 
ATOM     69  H20 MOL d   1      -5.014  27.678 -30.285  0.00  0.00     0.079 H 
ATOM     70  O29 MOL d   1      -5.266  30.310 -31.386  0.00  0.00    -0.388 OA
ATOM     71  H21 MOL d   1      -4.896  29.044 -32.984  0.00  0.00     0.076 H 
ATOM     72  H22 MOL d   1      -3.675  29.013 -31.667  0.00  0.00     0.076 H 
ATOM     73  C30 MOL d   1      -5.866  30.119 -30.097  0.00  0.00     0.042 C 
ATOM     74  C31 MOL d   1      -7.099  29.249 -30.180  0.00  0.00     0.103 C 
ATOM     75  H23 MOL d   1      -6.148  31.099 -29.686  0.00  0.00     0.076 H 
ATOM     76  H24 MOL d   1      -5.135  29.639 -29.430  0.00  0.00     0.076 H 
ATOM     77  H25 MOL d   1      -7.315  28.831 -29.186  0.00  0.00     0.079 H 
ATOM     78  H26 MOL d   1      -7.951  29.859 -30.515  0.00  0.00     0.079 H 
ATOM     79  H18 MOL d   1      -7.257  28.419 -32.031  0.00  0.00     0.280 HD
ENDBRANCH  62  65
ENDBRANCH  59  62
ENDBRANCH  56  59
ENDBRANCH  55  56
ENDBRANCH   2  55
TORSDOF 13
