REMARK  13 active torsions:
REMARK  status: ('A' for Active; 'I' for Inactive)
REMARK    1  A    between atoms: C1_1  and  O11_11 
REMARK    2  A    between atoms: C2_2  and  O13_13 
REMARK    3  A    between atoms: C10_10  and  O14_14 
REMARK    4  A    between atoms: O11_11  and  C12_12 
REMARK    5  A    between atoms: O13_13  and  C23_23 
REMARK    6  A    between atoms: O14_14  and  C15_15 
REMARK    7  A    between atoms: C18_18  and  N22_22 
REMARK       I    between atoms: N22_22  and  C32_32 
REMARK    8  A    between atoms: C23_23  and  C24_24 
REMARK    9  A    between atoms: C24_24  and  C25_25 
REMARK   10  A    between atoms: C25_25  and  N26_26 
REMARK   11  A    between atoms: C32_32  and  C33_33 
REMARK   12  A    between atoms: C33_33  and  C34_34 
REMARK       I    between atoms: C34_34  and  N35_35 
REMARK   13  A    between atoms: N35_35  and  C38_38 
ROOT
ATOM      1  C1  MOL d   1       8.038 -22.767 -31.179  0.00  0.00     0.102 A 
ATOM      2  C2  MOL d   1       9.060 -23.743 -31.053  0.00  0.00     0.104 A 
ATOM      3  C3  MOL d   1      10.364 -23.367 -30.905  0.00  0.00    -0.019 A 
ATOM      4  C4  MOL d   1      10.718 -22.000 -30.885  0.00  0.00     0.072 A 
ATOM      5  C5  MOL d   1       9.705 -21.022 -31.014  0.00  0.00     0.029 A 
ATOM      6  C6  MOL d   1       8.352 -21.436 -31.162  0.00  0.00    -0.033 A 
ATOM      7  N7  MOL d   1      12.043 -21.676 -30.733  0.00  0.00    -0.260 NA
ATOM      8  C8  MOL d   1      12.356 -20.387 -30.707  0.00  0.00     0.005 A 
ATOM      9  C9  MOL d   1      11.449 -19.344 -30.827  0.00  0.00    -0.032 A 
ATOM     10  C10 MOL d   1      10.115 -19.667 -30.981  0.00  0.00     0.090 A 
ATOM     11  H1  MOL d   1      11.134 -24.123 -30.802  0.00  0.00     0.091 H 
ATOM     12  H2  MOL d   1       7.568 -20.694 -31.262  0.00  0.00     0.089 H 
ATOM     13  H3  MOL d   1      13.401 -20.129 -30.582  0.00  0.00     0.114 H 
ATOM     14  H4  MOL d   1      11.776 -18.311 -30.801  0.00  0.00     0.090 H 
ENDROOT
BRANCH  10  15
ATOM     15  O14 MOL d   1       9.080 -18.748 -31.114  0.00  0.00    -0.307 OA
BRANCH  15  16
ATOM     16  C15 MOL d   1       9.226 -17.484 -30.573  0.00  0.00     0.114 A 
ATOM     17  C16 MOL d   1       9.236 -17.248 -29.201  0.00  0.00    -0.045 A 
ATOM     18  C17 MOL d   1       9.390 -15.956 -28.723  0.00  0.00    -0.054 A 
ATOM     19  H8  MOL d   1       9.123 -18.073 -28.508  0.00  0.00     0.088 H 
ATOM     20  C18 MOL d   1       9.533 -14.890 -29.609  0.00  0.00     0.037 A 
ATOM     21  H9  MOL d   1       9.399 -15.774 -27.654  0.00  0.00     0.087 H 
ATOM     22  C19 MOL d   1       9.519 -15.124 -30.985  0.00  0.00    -0.017 A 
ATOM     23  C20 MOL d   1       9.369 -16.410 -31.430  0.00  0.00     0.152 A 
ATOM     24  H10 MOL d   1       9.625 -14.305 -31.687  0.00  0.00     0.091 H 
ATOM     25  F21 MOL d   1       9.356 -16.651 -32.761  0.00  0.00    -0.203 F 
BRANCH  20  26
ATOM     26  N22 MOL d   1       9.685 -13.598 -29.062  0.00  0.00    -0.325 N 
ATOM     27  C32 MOL d   1       9.833 -12.416 -29.694  0.00  0.00     0.247 C 
ATOM     28  O36 MOL d   1       9.736 -12.291 -30.908  0.00  0.00    -0.271 OA
ATOM     29  H11 MOL d   1       9.683 -13.553 -28.063  0.00  0.00     0.169 HD
BRANCH  27  30
ATOM     30  C33 MOL d   1      10.126 -11.201 -28.802  0.00  0.00     0.157 A 
ATOM     31  C45 MOL d   1      10.621  -9.925 -29.491  0.00  0.00    -0.075 A 
ATOM     32  C46 MOL d   1       9.204 -10.001 -29.048  0.00  0.00    -0.075 A 
ATOM     33  H32 MOL d   1      11.428  -9.366 -29.963  0.00  0.00     0.079 H 
ATOM     34  H33 MOL d   1       8.222  -9.539 -28.961  0.00  0.00     0.079 H 
BRANCH  30  35
ATOM     35  C34 MOL d   1      10.539 -11.497 -27.332  0.00  0.00     0.247 C 
ATOM     36  N35 MOL d   1      10.774 -10.432 -26.542  0.00  0.00    -0.326 N 
ATOM     37  H27 MOL d   1      10.809  -9.527 -26.965  0.00  0.00     0.169 HD
ATOM     38  O37 MOL d   1      10.647 -12.644 -26.902  0.00  0.00    -0.271 OA
BRANCH  36  39
ATOM     39  C38 MOL d   1      10.974 -10.527 -25.145  0.00  0.00     0.035 A 
ATOM     40  C39 MOL d   1      10.151  -9.836 -24.262  0.00  0.00    -0.054 A 
ATOM     41  C40 MOL d   1      10.348  -9.943 -22.897  0.00  0.00    -0.044 A 
ATOM     42  H28 MOL d   1       9.352  -9.211 -24.645  0.00  0.00     0.087 H 
ATOM     43  C41 MOL d   1      11.364 -10.744 -22.445  0.00  0.00     0.116 A 
ATOM     44  H29 MOL d   1       9.714  -9.406 -22.201  0.00  0.00     0.088 H 
ATOM     45  C42 MOL d   1      12.193 -11.445 -23.280  0.00  0.00    -0.044 A 
ATOM     46  F44 MOL d   1      11.553 -10.852 -21.112  0.00  0.00    -0.206 F 
ATOM     47  C43 MOL d   1      11.993 -11.335 -24.646  0.00  0.00    -0.054 A 
ATOM     48  H30 MOL d   1      12.985 -12.069 -22.882  0.00  0.00     0.088 H 
ATOM     49  H31 MOL d   1      12.633 -11.880 -25.330  0.00  0.00     0.087 H 
ENDBRANCH  36  39
ENDBRANCH  30  35
ENDBRANCH  27  30
ENDBRANCH  20  26
ENDBRANCH  15  16
ENDBRANCH  10  15
BRANCH   1  50
ATOM     50  O11 MOL d   1       6.776 -23.280 -31.324  0.00  0.00    -0.353 OA
BRANCH  50  51
ATOM     51  C12 MOL d   1       5.681 -22.366 -31.418  0.00  0.00     0.010 C 
ATOM     52  H5  MOL d   1       4.742 -22.929 -31.530  0.00  0.00     0.066 H 
ATOM     53  H6  MOL d   1       5.823 -21.712 -32.291  0.00  0.00     0.066 H 
ATOM     54  H7  MOL d   1       5.635 -21.754 -30.505  0.00  0.00     0.066 H 
ENDBRANCH  50  51
ENDBRANCH   1  50
BRANCH   2  55
ATOM     55  O13 MOL d   1       8.608 -25.036 -31.085  0.00  0.00    -0.348 OA
BRANCH  55  56
ATOM     56  C23 MOL d   1       9.576 -26.088 -31.201  0.00  0.00     0.028 C 
ATOM     57  H12 MOL d   1      10.141 -26.180 -30.262  0.00  0.00     0.075 H 
ATOM     58  H13 MOL d   1      10.270 -25.868 -32.026  0.00  0.00     0.075 H 
BRANCH  56  59
ATOM     59  C24 MOL d   1       8.837 -27.375 -31.483  0.00  0.00    -0.022 C 
ATOM     60  H14 MOL d   1       9.546 -28.109 -31.894  0.00  0.00     0.038 H 
ATOM     61  H15 MOL d   1       8.047 -27.176 -32.222  0.00  0.00     0.038 H 
BRANCH  59  62
ATOM     62  C25 MOL d   1       8.202 -27.955 -30.230  0.00  0.00     0.086 C 
ATOM     63  H16 MOL d   1       7.431 -27.253 -29.881  0.00  0.00     0.076 H 
ATOM     64  H17 MOL d   1       8.985 -28.051 -29.463  0.00  0.00     0.076 H 
BRANCH  62  65
ATOM     65  N26 MOL d   1       7.574 -29.271 -30.410  0.00  0.00    -0.067 N 
ATOM     66  C27 MOL d   1       6.155 -29.213 -30.010  0.00  0.00     0.103 C 
ATOM     67  C28 MOL d   1       5.810 -30.369 -29.094  0.00  0.00     0.042 C 
ATOM     68  H19 MOL d   1       5.524 -29.264 -30.909  0.00  0.00     0.079 H 
ATOM     69  H20 MOL d   1       5.967 -28.266 -29.483  0.00  0.00     0.079 H 
ATOM     70  O29 MOL d   1       6.223 -31.624 -29.645  0.00  0.00    -0.388 OA
ATOM     71  H21 MOL d   1       4.721 -30.389 -28.940  0.00  0.00     0.076 H 
ATOM     72  H22 MOL d   1       6.314 -30.221 -28.128  0.00  0.00     0.076 H 
ATOM     73  C30 MOL d   1       7.648 -31.656 -29.828  0.00  0.00     0.042 C 
ATOM     74  C31 MOL d   1       8.279 -30.294 -29.618  0.00  0.00     0.103 C 
ATOM     75  H23 MOL d   1       7.867 -31.995 -30.851  0.00  0.00     0.076 H 
ATOM     76  H24 MOL d   1       8.083 -32.364 -29.107  0.00  0.00     0.076 H 
ATOM     77  H25 MOL d   1       8.222 -30.029 -28.552  0.00  0.00     0.079 H 
ATOM     78  H26 MOL d   1       9.333 -30.331 -29.931  0.00  0.00     0.079 H 
ATOM     79  H18 MOL d   1       7.627 -29.524 -31.384  0.00  0.00     0.280 HD
ENDBRANCH  62  65
ENDBRANCH  59  62
ENDBRANCH  56  59
ENDBRANCH  55  56
ENDBRANCH   2  55
TORSDOF 13
