REMARK  9 active torsions:
REMARK  status: ('A' for Active; 'I' for Inactive)
REMARK    1  A    between atoms: N27_27  and  C10_10 
REMARK    2  A    between atoms: N29_29  and  C11_11 
REMARK    3  A    between atoms: C12_12  and  O32_32 
REMARK    4  A    between atoms: O32_32  and  C13_13 
REMARK    5  A    between atoms: C17_17  and  N28_28 
REMARK    6  A    between atoms: C20_20  and  C23_23 
REMARK    7  A    between atoms: O33_33  and  C21_21 
REMARK       I    between atoms: C23_23  and  N29_29 
REMARK    8  A    between atoms: C25_25  and  C24_24 
REMARK    9  A    between atoms: C25_25  and  O33_33 
ROOT
ATOM      1  C18 MOL d   1     -13.185  -2.284   7.105  0.00  0.00    -0.034 A 
ATOM      2  C19 MOL d   1     -12.234  -3.194   6.832  0.00  0.00    -0.009 A 
ATOM      3  C20 MOL d   1     -13.657  -3.466   9.240  0.00  0.00     0.134 A 
ATOM      4  C21 MOL d   1     -13.930  -2.402   8.331  0.00  0.00     0.091 A 
ATOM      5  C22 MOL d   1     -12.618  -4.446   8.929  0.00  0.00     0.270 A 
ATOM      6  N27 MOL d   1     -11.942  -4.245   7.698  0.00  0.00    -0.289 N 
ATOM      7  O30 MOL d   1     -12.314  -5.395   9.651  0.00  0.00    -0.266 OA
ATOM      8  H10 MOL d   1     -13.389  -1.471   6.410  0.00  0.00     0.089 H 
ATOM      9  H11 MOL d   1     -11.673  -3.107   5.903  0.00  0.00     0.112 H 
ENDROOT
BRANCH   3  10
ATOM     10  C23 MOL d   1     -14.448  -3.537  10.504  0.00  0.00     0.264 C 
ATOM     11  N29 MOL d   1     -14.134  -4.574  11.332  0.00  0.00    -0.323 N 
ATOM     12  H19 MOL d   1     -13.374  -5.141  11.014  0.00  0.00     0.169 HD
ATOM     13  O31 MOL d   1     -15.314  -2.704  10.764  0.00  0.00    -0.267 OA
BRANCH  11  14
ATOM     14  C11 MOL d   1     -14.698  -4.987  12.565  0.00  0.00     0.038 A 
ATOM     15  C3  MOL d   1     -14.020  -6.040  13.173  0.00  0.00    -0.054 A 
ATOM     16  C4  MOL d   1     -14.458  -6.554  14.383  0.00  0.00    -0.045 A 
ATOM     17  H3  MOL d   1     -13.142  -6.461  12.696  0.00  0.00     0.087 H 
ATOM     18  C12 MOL d   1     -15.584  -6.020  15.001  0.00  0.00     0.114 A 
ATOM     19  H4  MOL d   1     -13.922  -7.373  14.849  0.00  0.00     0.088 H 
ATOM     20  C15 MOL d   1     -16.242  -4.977  14.379  0.00  0.00     0.152 A 
ATOM     21  C8  MOL d   1     -15.828  -4.446  13.180  0.00  0.00    -0.017 A 
ATOM     22  F35 MOL d   1     -17.337  -4.463  14.986  0.00  0.00    -0.203 F 
ATOM     23  H8  MOL d   1     -16.368  -3.625  12.722  0.00  0.00     0.091 H 
BRANCH  18  24
ATOM     24  O32 MOL d   1     -16.068  -6.506  16.215  0.00  0.00    -0.306 OA
BRANCH  24  25
ATOM     25  C13 MOL d   1     -16.666  -7.767  16.259  0.00  0.00     0.103 A 
ATOM     26  C7  MOL d   1     -17.158  -8.391  15.118  0.00  0.00    -0.032 A 
ATOM     27  C9  MOL d   1     -17.732  -9.642  15.266  0.00  0.00     0.007 A 
ATOM     28  H7  MOL d   1     -17.094  -7.915  14.146  0.00  0.00     0.090 H 
ATOM     29  N26 MOL d   1     -17.843 -10.285  16.439  0.00  0.00    -0.242 NA
ATOM     30  H9  MOL d   1     -18.116 -10.133  14.379  0.00  0.00     0.115 H 
ATOM     31  C17 MOL d   1     -17.365  -9.677  17.548  0.00  0.00     0.145 A 
ATOM     32  C16 MOL d   1     -16.766  -8.410  17.497  0.00  0.00     0.113 A 
ATOM     33 CL36 MOL d   1     -16.153  -7.634  18.905  0.00  0.00    -0.077 Cl
BRANCH  31  34
ATOM     34  N28 MOL d   1     -17.474 -10.319  18.714  0.00  0.00    -0.383 N 
ATOM     35  H17 MOL d   1     -17.914 -11.249  18.750  0.00  0.00     0.157 HD
ATOM     36  H18 MOL d   1     -17.118  -9.884  19.577  0.00  0.00     0.157 HD
ENDBRANCH  31  34
ENDBRANCH  24  25
ENDBRANCH  18  24
ENDBRANCH  11  14
ENDBRANCH   3  10
BRANCH   4  37
ATOM     37  O33 MOL d   1     -14.884  -1.444   8.540  0.00  0.00    -0.350 OA
BRANCH  37  38
ATOM     38  C25 MOL d   1     -15.239  -0.460   7.505  0.00  0.00     0.023 C 
ATOM     39  H15 MOL d   1     -15.574   0.469   7.988  0.00  0.00     0.074 H 
ATOM     40  H16 MOL d   1     -14.355  -0.252   6.884  0.00  0.00     0.074 H 
BRANCH  38  41
ATOM     41  C24 MOL d   1     -16.345  -0.992   6.632  0.00  0.00    -0.056 C 
ATOM     42  H12 MOL d   1     -16.598  -0.245   5.865  0.00  0.00     0.030 H 
ATOM     43  H13 MOL d   1     -17.232  -1.199   7.249  0.00  0.00     0.030 H 
ATOM     44  H14 MOL d   1     -16.013  -1.921   6.144  0.00  0.00     0.030 H 
ENDBRANCH  38  41
ENDBRANCH  37  38
ENDBRANCH   4  37
BRANCH   6  45
ATOM     45  C10 MOL d   1     -10.909  -5.176   7.318  0.00  0.00     0.042 A 
ATOM     46  C1  MOL d   1      -9.588  -4.746   7.181  0.00  0.00    -0.054 A 
ATOM     47  C5  MOL d   1      -8.598  -5.644   6.812  0.00  0.00    -0.043 A 
ATOM     48  H1  MOL d   1      -9.336  -3.708   7.364  0.00  0.00     0.087 H 
ATOM     49  C14 MOL d   1      -8.956  -6.954   6.586  0.00  0.00     0.116 A 
ATOM     50  H5  MOL d   1      -7.568  -5.323   6.704  0.00  0.00     0.088 H 
ATOM     51  C6  MOL d   1     -10.248  -7.412   6.708  0.00  0.00    -0.043 A 
ATOM     52  F34 MOL d   1      -7.989  -7.836   6.224  0.00  0.00    -0.206 F 
ATOM     53  C2  MOL d   1     -11.232  -6.511   7.076  0.00  0.00    -0.054 A 
ATOM     54  H6  MOL d   1     -10.489  -8.452   6.521  0.00  0.00     0.088 H 
ATOM     55  H2  MOL d   1     -12.258  -6.845   7.177  0.00  0.00     0.087 H 
ENDBRANCH   6  45
TORSDOF 9
