REMARK  5 active torsions:
REMARK  status: ('A' for Active; 'I' for Inactive)
REMARK    1  A    between atoms: C1_1  and  C8_2 
REMARK    2  A    between atoms: C1_1  and  C17_11 
REMARK    3  A    between atoms: C1_1  and  N3_12 
REMARK    4  A    between atoms: C25_19  and  C27_21 
REMARK    5  A    between atoms: N9_24  and  C32_26 
ROOT
ATOM      1  N3  V0L d   1      20.905  29.969  55.658  0.00  0.00    -0.221 N 
ATOM      2  C19 V0L d   1      21.927  29.685  56.507  0.00  0.00     0.199 A 
ATOM      3  C20 V0L d   1      21.829  28.337  56.903  0.00  0.00     0.220 A 
ATOM      4  N5  V0L d   1      20.697  27.889  56.229  0.00  0.00    -0.108 NA
ATOM      5  N4  V0L d   1      20.163  28.835  55.516  0.00  0.00    -0.061 NA
ATOM      6  N23 V0L d   1      22.758  27.863  57.749  0.00  0.00    -0.234 NA
ATOM      7  N24 V0L d   1      22.884  30.529  56.918  0.00  0.00    -0.224 NA
ATOM      8  C25 V0L d   1      23.798  30.022  57.760  0.00  0.00     0.090 A 
ATOM      9  C26 V0L d   1      23.726  28.692  58.168  0.00  0.00     0.033 A 
ATOM     10  H10 V0L d   1      24.480  28.313  58.849  0.00  0.00     0.118 H 
ENDROOT
BRANCH   1  11
ATOM     11  C1  V0L d   1      20.538  31.215  54.957  0.00  0.00     0.061 C 
ATOM     12  H1  V0L d   1      21.442  31.835  54.864  0.00  0.00     0.083 H 
BRANCH  11  13
ATOM     13  C8  V0L d   1      19.554  31.971  55.807  0.00  0.00    -0.018 A 
ATOM     14  C9  V0L d   1      18.193  31.492  56.080  0.00  0.00    -0.070 A 
ATOM     15  C10 V0L d   1      17.318  32.204  56.864  0.00  0.00    -0.037 A 
ATOM     16  H2  V0L d   1      17.868  30.546  55.649  0.00  0.00     0.084 H 
ATOM     17  C11 V0L d   1      17.743  33.438  57.428  0.00  0.00     0.133 A 
ATOM     18  H3  V0L d   1      16.313  31.828  57.051  0.00  0.00     0.089 H 
ATOM     19  N1  V0L d   1      19.035  33.868  57.157  0.00  0.00    -0.316 N 
ATOM     20  N2  V0L d   1      17.124  34.323  58.206  0.00  0.00    -0.241 NA
ATOM     21  C13 V0L d   1      19.893  33.146  56.371  0.00  0.00    -0.006 A 
ATOM     22  C14 V0L d   1      19.212  35.071  57.807  0.00  0.00     0.003 A 
ATOM     23  H4  V0L d   1      20.893  33.539  56.194  0.00  0.00     0.113 H 
ATOM     24  C15 V0L d   1      18.040  35.328  58.436  0.00  0.00     0.020 A 
ATOM     25  H5  V0L d   1      20.110  35.688  57.813  0.00  0.00     0.114 H 
ATOM     26  H6  V0L d   1      17.847  36.211  59.043  0.00  0.00     0.117 H 
ENDBRANCH  11  13
BRANCH  11  27
ATOM     27  C17 V0L d   1      20.045  30.926  53.542  0.00  0.00    -0.051 C 
ATOM     28  H7  V0L d   1      19.780  31.871  53.046  0.00  0.00     0.030 H 
ATOM     29  H8  V0L d   1      19.160  30.275  53.588  0.00  0.00     0.030 H 
ATOM     30  H9  V0L d   1      20.840  30.424  52.972  0.00  0.00     0.030 H 
ENDBRANCH  11  27
ENDBRANCH   1  11
BRANCH   8  31
ATOM     31  C27 V0L d   1      24.865  30.940  58.220  0.00  0.00     0.030 A 
ATOM     32  C28 V0L d   1      25.023  32.288  57.862  0.00  0.00     0.035 A 
ATOM     33  N8  V0L d   1      26.080  32.839  58.438  0.00  0.00    -0.185 NA
ATOM     34  H11 V0L d   1      24.353  32.820  57.188  0.00  0.00     0.118 H 
ATOM     35  N9  V0L d   1      26.634  31.817  59.199  0.00  0.00    -0.285 N 
ATOM     36  C31 V0L d   1      25.914  30.696  59.072  0.00  0.00     0.011 A 
ATOM     37  H12 V0L d   1      26.125  29.747  59.563  0.00  0.00     0.115 H 
BRANCH  35  38
ATOM     38  C32 V0L d   1      27.834  32.021  60.005  0.00  0.00     0.002 C 
ATOM     39  H13 V0L d   1      28.093  31.084  60.521  0.00  0.00     0.059 H 
ATOM     40  H14 V0L d   1      27.646  32.809  60.749  0.00  0.00     0.059 H 
ATOM     41  H15 V0L d   1      28.667  32.323  59.353  0.00  0.00     0.059 H 
ENDBRANCH  35  38
ENDBRANCH   8  31
TORSDOF 5
