REMARK WARNING: 32 MAX_TORS EXCEEDED!!!
REMARK  66 active torsions:
REMARK  status: ('A' for Active; 'I' for Inactive)
REMARK    1  A    between atoms: C_1  and  CH3_3 
REMARK       I    between atoms: C_1  and  N_4 
REMARK    2  A    between atoms: N_4  and  CA_5 
REMARK    3  A    between atoms: CA_5  and  C_6 
REMARK    4  A    between atoms: CA_5  and  CB_8 
REMARK       I    between atoms: C_6  and  N_11 
REMARK    5  A    between atoms: CB_8  and  CG1_9 
REMARK    6  A    between atoms: CB_8  and  CG2_10 
REMARK    7  A    between atoms: CA_12  and  C_13 
REMARK       I    between atoms: C_13  and  N_18 
REMARK    8  A    between atoms: N_18  and  CA_19 
REMARK    9  A    between atoms: CA_19  and  C_20 
REMARK   10  A    between atoms: CA_19  and  CB_22 
REMARK       I    between atoms: C_20  and  N_26 
REMARK   11  A    between atoms: CB_22  and  CG_23 
REMARK   12  A    between atoms: CG_23  and  SD_24 
REMARK   13  A    between atoms: SD_24  and  CE_25 
REMARK   14  A    between atoms: N_26  and  CA_27 
REMARK   15  A    between atoms: CA_27  and  C_28 
REMARK   16  A    between atoms: CA_27  and  CB_30 
REMARK       I    between atoms: C_28  and  N_37 
REMARK   17  A    between atoms: CB_30  and  CG_31 
REMARK   18  A    between atoms: CG_31  and  CD_32 
REMARK   19  A    between atoms: CD_32  and  NE_33 
REMARK       I    between atoms: NE_33  and  CZ_34 
REMARK       I    between atoms: CZ_34  and  NH1_35 
REMARK       I    between atoms: CZ_34  and  NH2_36 
REMARK   20  A    between atoms: N_37  and  CA_38 
REMARK   21  A    between atoms: CA_38  and  C_39 
REMARK   22  A    between atoms: CA_38  and  CB_41 
REMARK       I    between atoms: C_39  and  N_42 
REMARK   23  A    between atoms: N_42  and  CA_43 
REMARK   24  A    between atoms: CA_43  and  C_44 
REMARK   25  A    between atoms: CA_43  and  CB_46 
REMARK       I    between atoms: C_44  and  N_53 
REMARK   26  A    between atoms: CB_46  and  CG_47 
REMARK   27  A    between atoms: CG_47  and  CD_48 
REMARK   28  A    between atoms: CD_48  and  NE_49 
REMARK       I    between atoms: NE_49  and  CZ_50 
REMARK       I    between atoms: CZ_50  and  NH1_51 
REMARK       I    between atoms: CZ_50  and  NH2_52 
REMARK   29  A    between atoms: N_53  and  CA_54 
REMARK   30  A    between atoms: CA_54  and  C_55 
REMARK   31  A    between atoms: CA_54  and  CB_57 
REMARK       I    between atoms: C_55  and  N_62 
REMARK   32  A    between atoms: CB_57  and  CG_58 
REMARK   33  A    between atoms: CG_58  and  CD_59 
REMARK       I    between atoms: CD_59  and  NE2_61 
REMARK   34  A    between atoms: N_62  and  CA_63 
REMARK   35  A    between atoms: CA_63  and  C_64 
REMARK   36  A    between atoms: CA_63  and  CB_66 
REMARK       I    between atoms: C_64  and  N_70 
REMARK   37  A    between atoms: CB_66  and  CG_67 
REMARK   38  A    between atoms: CG_67  and  CD1_68 
REMARK   39  A    between atoms: CG_67  and  CD2_69 
REMARK   40  A    between atoms: CA_71  and  C_72 
REMARK       I    between atoms: C_72  and  N_77 
REMARK   41  A    between atoms: N_77  and  CA_78 
REMARK   42  A    between atoms: CA_78  and  C_79 
REMARK   43  A    between atoms: CA_78  and  CB_81 
REMARK       I    between atoms: C_79  and  N_82 
REMARK   44  A    between atoms: N_82  and  CA_83 
REMARK   45  A    between atoms: CA_83  and  C_84 
REMARK   46  A    between atoms: CA_83  and  CB_86 
REMARK       I    between atoms: C_84  and  N_88 
REMARK   47  A    between atoms: CB_86  and  OG_87 
REMARK   48  A    between atoms: N_88  and  CA_89 
REMARK   49  A    between atoms: CA_89  and  C_90 
REMARK   50  A    between atoms: CA_89  and  CB_92 
REMARK       I    between atoms: C_90  and  N_99 
REMARK   51  A    between atoms: CB_92  and  CG_93 
REMARK   52  A    between atoms: N_99  and  CA_100 
REMARK   53  A    between atoms: CA_100  and  C_101 
REMARK   54  A    between atoms: CA_100  and  CB_103 
REMARK       I    between atoms: C_101  and  N_113 
REMARK   55  A    between atoms: CB_103  and  CG_104 
REMARK   56  A    between atoms: N_113  and  CA_114 
REMARK   57  A    between atoms: CA_114  and  C_115 
REMARK   58  A    between atoms: CA_114  and  CB_117 
REMARK       I    between atoms: C_115  and  N_122 
REMARK   59  A    between atoms: CB_117  and  CG_118 
REMARK   60  A    between atoms: CG_118  and  CD_119 
REMARK   61  A    between atoms: N_122  and  CA_123 
REMARK   62  A    between atoms: CA_123  and  C_124 
REMARK   63  A    between atoms: CA_123  and  CB_126 
REMARK       I    between atoms: C_124  and  N_131 
REMARK   64  A    between atoms: CB_126  and  CG_127 
REMARK   65  A    between atoms: CG_127  and  CD_128 
REMARK   66  A    between atoms: CA_132  and  C_133 
REMARK       I    between atoms: C_133  and  N_138 
ROOT
ATOM      1  CA  ACE d   1      -2.643  -1.805  15.379  0.00  0.00     0.090 C 
ATOM      2  H69 ACE d   1      -3.173  -1.213  16.140  0.00  0.00     0.087 H 
ENDROOT
BRANCH   1   3
ATOM      3  N   ACE d   1      -2.663  -3.211  15.816  0.00  0.00    -0.346 N 
ATOM      4  C   ACE d   1      -3.195  -3.549  16.996  0.00  0.00     0.241 C 
ATOM      5  O   ACE d   1      -3.710  -2.732  17.750  0.00  0.00    -0.271 OA
ATOM      6  H68 ACE d   1      -2.276  -3.919  15.226  0.00  0.00     0.163 HD
BRANCH   4   7
ATOM      7  CA  ACE d   1      -3.068  -4.999  17.427  0.00  0.00     0.090 C 
ATOM      8  H61 ACE d   1      -3.246  -5.640  16.551  0.00  0.00     0.087 H 
BRANCH   7   9
ATOM      9  N   ACE d   1      -1.699  -5.230  17.907  0.00  0.00    -0.346 N 
ATOM     10  C   ACE d   1      -0.633  -5.376  17.101  0.00  0.00     0.241 C 
ATOM     11  O   ACE d   1      -0.703  -5.348  15.867  0.00  0.00    -0.271 OA
ATOM     12  H60 ACE d   1      -1.551  -5.282  18.895  0.00  0.00     0.163 HD
BRANCH  10  13
ATOM     13  CA  ACE d   1       0.708  -5.644  17.782  0.00  0.00     0.089 C 
ATOM     14  H48 ACE d   1       0.519  -6.399  18.559  0.00  0.00     0.087 H 
BRANCH  13  15
ATOM     15  N   ACE d   1       1.675  -6.228  16.848  0.00  0.00    -0.346 N 
ATOM     16  C   ACE d   1       1.773  -7.548  16.689  0.00  0.00     0.240 C 
ATOM     17  O   ACE d   1       1.029  -8.336  17.276  0.00  0.00    -0.271 OA
ATOM     18  H47 ACE d   1       2.273  -5.625  16.320  0.00  0.00     0.163 HD
BRANCH  16  19
ATOM     19  CA  ACE d   1       2.828  -8.076  15.694  0.00  0.00     0.086 C 
ATOM     20  H43 ACE d   1       2.279  -8.444  14.815  0.00  0.00     0.086 H 
BRANCH  19  21
ATOM     21  N   ACE d   1       3.748  -7.036  15.221  0.00  0.00    -0.346 N 
ATOM     22  C   ACE d   1       3.582  -6.407  14.043  0.00  0.00     0.241 C 
ATOM     23  O   ACE d   1       2.633  -6.637  13.290  0.00  0.00    -0.271 OA
ATOM     24  H42 ACE d   1       4.527  -6.785  15.795  0.00  0.00     0.163 HD
BRANCH  22  25
ATOM     25  CA  ACE d   1       4.615  -5.339  13.643  0.00  0.00     0.089 C 
ATOM     26  H30 ACE d   1       4.074  -4.587  13.050  0.00  0.00     0.087 H 
BRANCH  25  27
ATOM     27  N   ACE d   1       5.230  -4.622  14.767  0.00  0.00    -0.346 N 
ATOM     28  C   ACE d   1       4.557  -3.973  15.752  0.00  0.00     0.241 C 
ATOM     29  O   ACE d   1       3.334  -3.976  15.849  0.00  0.00    -0.271 OA
ATOM     30  H29 ACE d   1       6.229  -4.611  14.811  0.00  0.00     0.163 HD
BRANCH  28  31
ATOM     31  CA  ACE d   1       5.396  -3.277  16.840  0.00  0.00     0.090 C 
ATOM     32  H21 ACE d   1       4.757  -3.208  17.732  0.00  0.00     0.087 H 
BRANCH  31  33
ATOM     33  N   ACE d   1       6.586  -4.037  17.235  0.00  0.00    -0.346 N 
ATOM     34  C   ACE d   1       6.576  -5.336  17.574  0.00  0.00     0.241 C 
ATOM     35  O   ACE d   1       5.553  -6.027  17.592  0.00  0.00    -0.271 OA
ATOM     36  H20 ACE d   1       7.463  -3.556  17.253  0.00  0.00     0.163 HD
BRANCH  34  37
ATOM     37  CA  ACE d   1       7.908  -5.947  18.012  0.00  0.00     0.091 C 
ATOM     38  N   ACE d   1       7.690  -6.864  19.149  0.00  0.00    -0.337 N 
ATOM     39  C   ACE d   1       7.158  -6.380  20.309  0.00  0.00     0.243 C 
ATOM     40  CD  ACE d   1       8.032  -8.255  18.785  0.00  0.00    -0.001 C 
ATOM     41  O   ACE d   1       6.913  -5.177  20.462  0.00  0.00    -0.271 OA
ATOM     42  CG  ACE d   1       8.046  -8.229  17.284  0.00  0.00    -0.048 C 
ATOM     43  H18 ACE d   1       7.273  -8.958  19.159  0.00  0.00     0.064 H 
ATOM     44  H19 ACE d   1       9.019  -8.535  19.183  0.00  0.00     0.064 H 
ATOM     45  CB  ACE d   1       8.507  -6.854  16.927  0.00  0.00    -0.036 C 
ATOM     46  H16 ACE d   1       8.742  -8.985  16.890  0.00  0.00     0.035 H 
ATOM     47  H17 ACE d   1       7.038  -8.415  16.884  0.00  0.00     0.035 H 
ATOM     48  H14 ACE d   1       9.605  -6.798  16.938  0.00  0.00     0.036 H 
ATOM     49  H15 ACE d   1       8.135  -6.566  15.932  0.00  0.00     0.036 H 
ATOM     50  H13 ACE d   1       8.610  -5.144  18.279  0.00  0.00     0.087 H 
BRANCH  39  51
ATOM     51  CA  ACE d   1       6.884  -7.348  21.488  0.00  0.00     0.092 C 
ATOM     52  H5  ACE d   1       7.395  -8.293  21.254  0.00  0.00     0.088 H 
BRANCH  51  53
ATOM     53  N   ACE d   1       7.447  -6.842  22.754  0.00  0.00    -0.348 N 
ATOM     54  C   ACE d   1       8.733  -6.541  22.942  0.00  0.00     0.214 C 
ATOM     55  O   ACE d   1       9.607  -6.652  22.068  0.00  0.00    -0.274 OA
ATOM     56  H4  ACE d   1       6.822  -6.716  23.524  0.00  0.00     0.163 HD
BRANCH  54  57
ATOM     57  CH3 ACE d   1       9.090  -6.032  24.339  0.00  0.00    -0.003 C 
ATOM     58  H1  ACE d   1       8.184  -6.006  24.962  0.00  0.00     0.040 H 
ATOM     59  H2  ACE d   1       9.512  -5.019  24.263  0.00  0.00     0.040 H 
ATOM     60  H3  ACE d   1       9.831  -6.705  24.796  0.00  0.00     0.040 H 
ENDBRANCH  54  57
ENDBRANCH  51  53
BRANCH  51  61
ATOM     61  CB  ACE d   1       5.366  -7.671  21.657  0.00  0.00    -0.033 C 
ATOM     62  H6  ACE d   1       4.904  -6.812  22.166  0.00  0.00     0.042 H 
BRANCH  61  63
ATOM     63  CG1 ACE d   1       4.651  -7.846  20.316  0.00  0.00    -0.071 C 
ATOM     64  H7  ACE d   1       3.589  -8.071  20.493  0.00  0.00     0.028 H 
ATOM     65  H8  ACE d   1       5.113  -8.675  19.759  0.00  0.00     0.028 H 
ATOM     66  H9  ACE d   1       4.737  -6.918  19.731  0.00  0.00     0.028 H 
ENDBRANCH  61  63
BRANCH  61  67
ATOM     67  CG2 ACE d   1       5.159  -8.898  22.540  0.00  0.00    -0.071 C 
ATOM     68  H10 ACE d   1       5.680  -8.752  23.498  0.00  0.00     0.028 H 
ATOM     69  H11 ACE d   1       5.564  -9.787  22.034  0.00  0.00     0.028 H 
ATOM     70  H12 ACE d   1       4.084  -9.039  22.725  0.00  0.00     0.028 H 
ENDBRANCH  61  67
ENDBRANCH  51  61
ENDBRANCH  39  51
ENDBRANCH  34  37
ENDBRANCH  31  33
BRANCH  31  71
ATOM     71  CB  ACE d   1       5.761  -1.839  16.438  0.00  0.00    -0.030 C 
ATOM     72  H22 ACE d   1       4.850  -1.337  16.080  0.00  0.00     0.037 H 
ATOM     73  H23 ACE d   1       6.499  -1.884  15.623  0.00  0.00     0.037 H 
BRANCH  71  74
ATOM     74  CG  ACE d   1       6.351  -1.010  17.577  0.00  0.00    -0.021 C 
ATOM     75  H24 ACE d   1       6.670  -0.046  17.155  0.00  0.00     0.049 H 
ATOM     76  H25 ACE d   1       7.229  -1.551  17.961  0.00  0.00     0.049 H 
BRANCH  74  77
ATOM     77  SD  ACE d   1       5.267  -0.657  18.987  0.00  0.00    -0.173 SA
BRANCH  77  78
ATOM     78  CE  ACE d   1       4.144   0.537  18.265  0.00  0.00    -0.035 C 
ATOM     79  H26 ACE d   1       3.409   0.853  19.020  0.00  0.00     0.041 H 
ATOM     80  H27 ACE d   1       3.620   0.079  17.413  0.00  0.00     0.041 H 
ATOM     81  H28 ACE d   1       4.713   1.413  17.919  0.00  0.00     0.041 H 
ENDBRANCH  77  78
ENDBRANCH  74  77
ENDBRANCH  71  74
ENDBRANCH  31  71
ENDBRANCH  28  31
ENDBRANCH  25  27
BRANCH  25  82
ATOM     82  CB  ACE d   1       5.694  -5.948  12.739  0.00  0.00    -0.036 C 
ATOM     83  H31 ACE d   1       5.239  -6.756  12.148  0.00  0.00     0.036 H 
ATOM     84  H32 ACE d   1       6.489  -6.363  13.376  0.00  0.00     0.036 H 
BRANCH  82  85
ATOM     85  CG  ACE d   1       6.320  -4.939  11.778  0.00  0.00    -0.048 C 
ATOM     86  H33 ACE d   1       7.349  -5.255  11.553  0.00  0.00     0.035 H 
ATOM     87  H34 ACE d   1       6.338  -3.952  12.262  0.00  0.00     0.035 H 
BRANCH  85  88
ATOM     88  CD  ACE d   1       5.545  -4.832  10.477  0.00  0.00     0.009 C 
ATOM     89  H35 ACE d   1       4.498  -4.583  10.706  0.00  0.00     0.064 H 
ATOM     90  H36 ACE d   1       5.587  -5.801   9.957  0.00  0.00     0.064 H 
BRANCH  88  91
ATOM     91  NE  ACE d   1       6.095  -3.800   9.598  0.00  0.00    -0.227 N 
ATOM     92  CZ  ACE d   1       5.545  -3.423   8.448  0.00  0.00     0.665 C 
ATOM     93  NH1 ACE d   1       6.113  -2.476   7.714  0.00  0.00    -0.235 N 
ATOM     94  NH2 ACE d   1       4.416  -3.983   8.028  0.00  0.00    -0.235 N 
ATOM     95  H38 ACE d   1       5.683  -2.187   6.824  0.00  0.00     0.174 HD
ATOM     96  H39 ACE d   1       6.984  -2.029   8.034  0.00  0.00     0.174 HD
ATOM     97  H40 ACE d   1       3.966  -4.720   8.590  0.00  0.00     0.174 HD
ATOM     98  H41 ACE d   1       3.990  -3.681   7.140  0.00  0.00     0.174 HD
ATOM     99  H37 ACE d   1       6.966  -3.335   9.890  0.00  0.00     0.177 HD
ENDBRANCH  88  91
ENDBRANCH  85  88
ENDBRANCH  82  85
ENDBRANCH  25  82
ENDBRANCH  22  25
ENDBRANCH  19  21
BRANCH  19 100
ATOM    100  CB  ACE d   1       3.614  -9.266  16.273  0.00  0.00    -0.049 C 
ATOM    101  H44 ACE d   1       2.910 -10.035  16.622  0.00  0.00     0.030 H 
ATOM    102  H45 ACE d   1       4.230  -8.923  17.117  0.00  0.00     0.030 H 
ATOM    103  H46 ACE d   1       4.264  -9.691  15.493  0.00  0.00     0.030 H 
ENDBRANCH  19 100
ENDBRANCH  16  19
ENDBRANCH  13  15
BRANCH  13 104
ATOM    104  CB  ACE d   1       1.284  -4.407  18.505  0.00  0.00    -0.036 C 
ATOM    105  H49 ACE d   1       0.511  -3.989  19.166  0.00  0.00     0.036 H 
ATOM    106  H50 ACE d   1       1.569  -3.656  17.753  0.00  0.00     0.036 H 
BRANCH 104 107
ATOM    107  CG  ACE d   1       2.518  -4.761  19.346  0.00  0.00    -0.048 C 
ATOM    108  H51 ACE d   1       3.300  -5.147  18.675  0.00  0.00     0.035 H 
ATOM    109  H52 ACE d   1       2.237  -5.541  20.069  0.00  0.00     0.035 H 
BRANCH 107 110
ATOM    110  CD  ACE d   1       3.079  -3.575  20.109  0.00  0.00     0.009 C 
ATOM    111  H53 ACE d   1       2.311  -3.198  20.800  0.00  0.00     0.064 H 
ATOM    112  H54 ACE d   1       3.348  -2.784  19.394  0.00  0.00     0.064 H 
BRANCH 110 113
ATOM    113  NE  ACE d   1       4.271  -3.949  20.878  0.00  0.00    -0.227 N 
ATOM    114  CZ  ACE d   1       4.722  -3.289  21.939  0.00  0.00     0.665 C 
ATOM    115  NH1 ACE d   1       4.088  -2.213  22.377  0.00  0.00    -0.235 N 
ATOM    116  NH2 ACE d   1       5.800  -3.716  22.585  0.00  0.00    -0.235 N 
ATOM    117  H56 ACE d   1       4.443  -1.706  23.200  0.00  0.00     0.174 HD
ATOM    118  H57 ACE d   1       3.240  -1.883  21.895  0.00  0.00     0.174 HD
ATOM    119  H58 ACE d   1       6.302  -4.552  22.253  0.00  0.00     0.174 HD
ATOM    120  H59 ACE d   1       6.135  -3.211  23.418  0.00  0.00     0.174 HD
ATOM    121  H55 ACE d   1       4.795  -4.782  20.574  0.00  0.00     0.177 HD
ENDBRANCH 110 113
ENDBRANCH 107 110
ENDBRANCH 104 107
ENDBRANCH  13 104
ENDBRANCH  10  13
ENDBRANCH   7   9
BRANCH   7 122
ATOM    122  CB  ACE d   1      -4.107  -5.371  18.512  0.00  0.00    -0.030 C 
ATOM    123  H62 ACE d   1      -5.094  -5.013  18.184  0.00  0.00     0.037 H 
ATOM    124  H63 ACE d   1      -3.827  -4.866  19.448  0.00  0.00     0.037 H 
BRANCH 122 125
ATOM    125  CG  ACE d   1      -4.206  -6.882  18.788  0.00  0.00     0.011 C 
ATOM    126  H64 ACE d   1      -3.262  -7.207  19.249  0.00  0.00     0.047 H 
ATOM    127  H65 ACE d   1      -4.340  -7.396  17.825  0.00  0.00     0.047 H 
BRANCH 125 128
ATOM    128  CD  ACE d   1      -5.342  -7.294  19.703  0.00  0.00     0.215 C 
ATOM    129  OE1 ACE d   1      -6.011  -6.492  20.360  0.00  0.00    -0.274 OA
ATOM    130  NE2 ACE d   1      -5.607  -8.577  19.751  0.00  0.00    -0.370 N 
ATOM    131  H66 ACE d   1      -6.345  -8.914  20.336  0.00  0.00     0.159 HD
ATOM    132  H67 ACE d   1      -5.071  -9.219  19.203  0.00  0.00     0.159 HD
ENDBRANCH 125 128
ENDBRANCH 122 125
ENDBRANCH   7 122
ENDBRANCH   4   7
ENDBRANCH   1   3
BRANCH   1 133
ATOM    133  C   ACE d   1      -3.366  -1.605  14.052  0.00  0.00     0.243 C 
ATOM    134  O   ACE d   1      -3.535  -2.574  13.327  0.00  0.00    -0.271 OA
ATOM    135  N   ACE d   1      -3.862  -0.388  13.741  0.00  0.00    -0.337 N 
ATOM    136  CA  ACE d   1      -4.505  -0.178  12.430  0.00  0.00     0.091 C 
ATOM    137  CD  ACE d   1      -3.705   0.885  14.480  0.00  0.00    -0.001 C 
ATOM    138  CB  ACE d   1      -4.807   1.333  12.411  0.00  0.00    -0.036 C 
ATOM    139  H79 ACE d   1      -5.421  -0.779  12.333  0.00  0.00     0.087 H 
ATOM    140  CG  ACE d   1      -4.649   1.808  13.794  0.00  0.00    -0.048 C 
ATOM    141  H80 ACE d   1      -5.835   1.511  12.063  0.00  0.00     0.036 H 
ATOM    142  H81 ACE d   1      -4.101   1.853  11.748  0.00  0.00     0.036 H 
ATOM    143  H82 ACE d   1      -5.622   1.800  14.307  0.00  0.00     0.035 H 
ATOM    144  H83 ACE d   1      -4.242   2.830  13.796  0.00  0.00     0.035 H 
ATOM    145  H84 ACE d   1      -2.672   1.256  14.408  0.00  0.00     0.064 H 
ATOM    146  H85 ACE d   1      -3.977   0.761  15.539  0.00  0.00     0.064 H 
BRANCH 136 147
ATOM    147  C   ACE d   1      -3.532  -0.496  11.284  0.00  0.00     0.241 C 
ATOM    148  O   ACE d   1      -2.314  -0.292  11.429  0.00  0.00    -0.271 OA
ATOM    149  N   ACE d   1      -4.085  -0.886  10.121  0.00  0.00    -0.346 N 
ATOM    150  H86 ACE d   1      -5.078  -1.002  10.101  0.00  0.00     0.163 HD
BRANCH 149 151
ATOM    151  CA  ACE d   1      -3.351  -1.156   8.878  0.00  0.00     0.086 C 
ATOM    152  H87 ACE d   1      -2.647  -1.987   9.033  0.00  0.00     0.086 H 
BRANCH 151 153
ATOM    153  C   ACE d   1      -2.581   0.124   8.486  0.00  0.00     0.240 C 
ATOM    154  O   ACE d   1      -1.423   0.042   8.085  0.00  0.00    -0.271 OA
ATOM    155  N   ACE d   1      -3.203   1.306   8.692  0.00  0.00    -0.344 N 
ATOM    156  H91 ACE d   1      -4.120   1.289   9.091  0.00  0.00     0.163 HD
BRANCH 155 157
ATOM    157  CA  ACE d   1      -2.614   2.627   8.365  0.00  0.00     0.109 C 
ATOM    158  H92 ACE d   1      -2.395   2.635   7.287  0.00  0.00     0.090 H 
BRANCH 157 159
ATOM    159  C   ACE d   1      -1.314   2.908   9.102  0.00  0.00     0.243 C 
ATOM    160  O   ACE d   1      -0.497   3.711   8.613  0.00  0.00    -0.271 OA
ATOM    161  N   ACE d   1      -1.105   2.246  10.271  0.00  0.00    -0.346 N 
ATOM    162  H96 ACE d   1      -1.811   1.618  10.599  0.00  0.00     0.163 HD
BRANCH 161 163
ATOM    163  CA  ACE d   1       0.115   2.415  11.073  0.00  0.00     0.093 C 
ATOM    164  H97 ACE d   1       0.194   3.479  11.338  0.00  0.00     0.088 H 
BRANCH 163 165
ATOM    165  C   ACE d   1       1.391   2.048  10.282  0.00  0.00     0.241 C 
ATOM    166  O   ACE d   1       2.463   2.585  10.561  0.00  0.00    -0.271 OA
ATOM    167  N   ACE d   1       1.243   1.189   9.263  0.00  0.00    -0.346 N 
ATOM    168 5H10 ACE d   1       0.321   0.861   9.059  0.00  0.00     0.163 HD
BRANCH 167 169
ATOM    169  CA  ACE d   1       2.343   0.699   8.428  0.00  0.00     0.093 C 
ATOM    170 6H10 ACE d   1       3.283   1.058   8.873  0.00  0.00     0.088 H 
BRANCH 169 171
ATOM    171  C   ACE d   1       2.284   1.237   6.994  0.00  0.00     0.241 C 
ATOM    172  O   ACE d   1       2.991   0.732   6.108  0.00  0.00    -0.271 OA
ATOM    173  N   ACE d   1       1.436   2.256   6.771  0.00  0.00    -0.346 N 
ATOM    174 5H11 ACE d   1       0.934   2.629   7.552  0.00  0.00     0.163 HD
BRANCH 173 175
ATOM    175  CA  ACE d   1       1.202   2.854   5.454  0.00  0.00     0.090 C 
ATOM    176 6H11 ACE d   1       1.860   2.369   4.718  0.00  0.00     0.087 H 
BRANCH 175 177
ATOM    177  C   ACE d   1       1.533   4.335   5.515  0.00  0.00     0.241 C 
ATOM    178  O   ACE d   1       0.656   5.181   5.756  0.00  0.00    -0.271 OA
ATOM    179  N   ACE d   1       2.795   4.654   5.255  0.00  0.00    -0.346 N 
ATOM    180 1H12 ACE d   1       3.468   3.944   5.048  0.00  0.00     0.163 HD
BRANCH 179 181
ATOM    181  CA  ACE d   1       3.183   6.072   5.278  0.00  0.00     0.090 C 
ATOM    182 2H12 ACE d   1       3.029   6.481   6.287  0.00  0.00     0.087 H 
BRANCH 181 183
ATOM    183  C   ACE d   1       2.301   6.833   4.261  0.00  0.00     0.243 C 
ATOM    184  O   ACE d   1       2.182   6.370   3.112  0.00  0.00    -0.271 OA
ATOM    185  N   ACE d   1       1.675   7.968   4.660  0.00  0.00    -0.337 N 
ATOM    186  CA  ACE d   1       0.905   8.770   3.695  0.00  0.00     0.091 C 
ATOM    187  CD  ACE d   1       1.691   8.621   5.985  0.00  0.00    -0.001 C 
ATOM    188  CB  ACE d   1       0.503  10.006   4.522  0.00  0.00    -0.036 C 
ATOM    189 7H12 ACE d   1       0.024   8.220   3.334  0.00  0.00     0.087 H 
ATOM    190  CG  ACE d   1       0.488   9.524   5.934  0.00  0.00    -0.048 C 
ATOM    191 8H12 ACE d   1      -0.493  10.366   4.224  0.00  0.00     0.036 H 
ATOM    192 9H12 ACE d   1       1.238  10.814   4.395  0.00  0.00     0.036 H 
ATOM    193 0H13 ACE d   1      -0.435   8.968   6.154  0.00  0.00     0.035 H 
ATOM    194 1H13 ACE d   1       0.590  10.361   6.641  0.00  0.00     0.035 H 
ATOM    195 2H13 ACE d   1       2.615   9.201   6.128  0.00  0.00     0.064 H 
ATOM    196 3H13 ACE d   1       1.595   7.880   6.792  0.00  0.00     0.064 H 
BRANCH 186 197
ATOM    197  C   ACE d   1       1.769   9.207   2.507  0.00  0.00     0.238 C 
ATOM    198  O   ACE d   1       2.988   9.361   2.644  0.00  0.00    -0.271 OA
ATOM    199  N   ACE d   1       1.164   9.274   1.311  0.00  0.00    -0.368 N 
ATOM    200 4H13 ACE d   1       1.683   9.554   0.503  0.00  0.00     0.159 HD
ATOM    201 5H13 ACE d   1       0.194   9.044   1.228  0.00  0.00     0.159 HD
ENDBRANCH 186 197
ENDBRANCH 181 183
BRANCH 181 202
ATOM    202  CB  ACE d   1       4.649   6.230   4.882  0.00  0.00    -0.029 C 
ATOM    203 3H12 ACE d   1       4.787   5.837   3.864  0.00  0.00     0.037 H 
ATOM    204 4H12 ACE d   1       5.272   5.657   5.585  0.00  0.00     0.037 H 
BRANCH 202 205
ATOM    205  CG  ACE d   1       5.087   7.686   4.911  0.00  0.00     0.018 C 
ATOM    206 5H12 ACE d   1       4.806   8.095   5.893  0.00  0.00     0.049 H 
ATOM    207 6H12 ACE d   1       4.531   8.213   4.121  0.00  0.00     0.049 H 
BRANCH 205 208
ATOM    208  CD  ACE d   1       6.562   7.980   4.702  0.00  0.00     0.172 C 
ATOM    209  OE1 ACE d   1       6.939   9.167   4.839  0.00  0.00    -0.648 OA
ATOM    210  OE2 ACE d   1       7.339   7.044   4.402  0.00  0.00    -0.648 OA
ENDBRANCH 205 208
ENDBRANCH 202 205
ENDBRANCH 181 202
ENDBRANCH 179 181
ENDBRANCH 175 177
BRANCH 175 211
ATOM    211  CB  ACE d   1      -0.268   2.649   5.020  0.00  0.00    -0.029 C 
ATOM    212 7H11 ACE d   1      -0.378   3.004   3.985  0.00  0.00     0.037 H 
ATOM    213 8H11 ACE d   1      -0.913   3.245   5.683  0.00  0.00     0.037 H 
BRANCH 211 214
ATOM    214  CG  ACE d   1      -0.727   1.193   5.082  0.00  0.00     0.018 C 
ATOM    215 9H11 ACE d   1      -0.530   0.831   6.102  0.00  0.00     0.049 H 
ATOM    216 0H12 ACE d   1      -0.114   0.625   4.366  0.00  0.00     0.049 H 
BRANCH 214 217
ATOM    217  CD  ACE d   1      -2.184   0.893   4.768  0.00  0.00     0.172 C 
ATOM    218  OE1 ACE d   1      -3.068   1.730   5.071  0.00  0.00    -0.648 OA
ATOM    219  OE2 ACE d   1      -2.444  -0.216   4.250  0.00  0.00    -0.648 OA
ENDBRANCH 214 217
ENDBRANCH 211 214
ENDBRANCH 175 211
ENDBRANCH 173 175
ENDBRANCH 169 171
BRANCH 169 220
ATOM    220  CB  ACE d   1       2.367  -0.849   8.451  0.00  0.00    -0.012 C 
ATOM    221 7H10 ACE d   1       3.265  -1.195   7.918  0.00  0.00     0.044 H 
ATOM    222 8H10 ACE d   1       1.469  -1.223   7.938  0.00  0.00     0.044 H 
BRANCH 220 223
ATOM    223  CG  ACE d   1       2.391  -1.406   9.846  0.00  0.00    -0.028 A 
ATOM    224  CD1 ACE d   1       1.360  -2.018  10.504  0.00  0.00    -0.015 A 
ATOM    225  NE1 ACE d   1       1.719  -2.277  11.808  0.00  0.00    -0.365 N 
ATOM    226 9H10 ACE d   1       0.396  -2.264  10.061  0.00  0.00     0.112 H 
ATOM    227  CE2 ACE d   1       2.978  -1.777  12.027  0.00  0.00     0.042 A 
ATOM    228 0H11 ACE d   1       1.138  -2.766  12.504  0.00  0.00     0.165 HD
ATOM    229  CD2 ACE d   1       3.424  -1.211  10.812  0.00  0.00    -0.002 A 
ATOM    230  CZ2 ACE d   1       3.781  -1.814  13.168  0.00  0.00    -0.056 A 
ATOM    231  CE3 ACE d   1       4.694  -0.603  10.770  0.00  0.00    -0.070 A 
ATOM    232  CZ3 ACE d   1       5.492  -0.641  11.901  0.00  0.00    -0.082 A 
ATOM    233 1H11 ACE d   1       5.041  -0.114   9.867  0.00  0.00     0.084 H 
ATOM    234  CH2 ACE d   1       5.048  -1.268  13.074  0.00  0.00    -0.081 A 
ATOM    235 3H11 ACE d   1       6.473  -0.180  11.879  0.00  0.00     0.083 H 
ATOM    236 4H11 ACE d   1       5.714  -1.326  13.928  0.00  0.00     0.083 H 
ATOM    237 2H11 ACE d   1       3.425  -2.254  14.093  0.00  0.00     0.086 H 
ENDBRANCH 220 223
ENDBRANCH 169 220
ENDBRANCH 167 169
ENDBRANCH 163 165
BRANCH 163 238
ATOM    238  CB  ACE d   1      -0.010   1.623  12.373  0.00  0.00    -0.014 C 
ATOM    239  H98 ACE d   1       0.182   0.565  12.140  0.00  0.00     0.043 H 
ATOM    240  H99 ACE d   1      -1.042   1.737  12.736  0.00  0.00     0.043 H 
BRANCH 238 241
ATOM    241  CG  ACE d   1       0.919   2.022  13.498  0.00  0.00    -0.056 A 
ATOM    242  CD1 ACE d   1       0.546   2.999  14.414  0.00  0.00    -0.077 A 
ATOM    243  CE1 ACE d   1       1.372   3.316  15.495  0.00  0.00    -0.082 A 
ATOM    244 0H10 ACE d   1      -0.396   3.520  14.288  0.00  0.00     0.084 H 
ATOM    245  CZ  ACE d   1       2.582   2.671  15.654  0.00  0.00    -0.083 A 
ATOM    246 2H10 ACE d   1       1.062   4.070  16.210  0.00  0.00     0.083 H 
ATOM    247  CE2 ACE d   1       2.983   1.721  14.736  0.00  0.00    -0.082 A 
ATOM    248 4H10 ACE d   1       3.217   2.910  16.499  0.00  0.00     0.083 H 
ATOM    249  CD2 ACE d   1       2.147   1.391  13.666  0.00  0.00    -0.077 A 
ATOM    250 3H10 ACE d   1       3.944   1.232  14.845  0.00  0.00     0.083 H 
ATOM    251 1H10 ACE d   1       2.460   0.633  12.957  0.00  0.00     0.084 H 
ENDBRANCH 238 241
ENDBRANCH 163 238
ENDBRANCH 161 163
ENDBRANCH 157 159
BRANCH 157 252
ATOM    252  CB  ACE d   1      -3.618   3.733   8.657  0.00  0.00     0.044 C 
ATOM    253  H93 ACE d   1      -4.561   3.519   8.133  0.00  0.00     0.077 H 
ATOM    254  H94 ACE d   1      -3.214   4.695   8.307  0.00  0.00     0.077 H 
BRANCH 252 255
ATOM    255  OG  ACE d   1      -3.860   3.803  10.049  0.00  0.00    -0.398 OA
ATOM    256  H95 ACE d   1      -3.046   3.989  10.502  0.00  0.00     0.209 HD
ENDBRANCH 252 255
ENDBRANCH 157 252
ENDBRANCH 155 157
ENDBRANCH 151 153
BRANCH 151 257
ATOM    257  CB  ACE d   1      -4.325  -1.511   7.768  0.00  0.00    -0.049 C 
ATOM    258  H88 ACE d   1      -3.767  -1.712   6.841  0.00  0.00     0.030 H 
ATOM    259  H89 ACE d   1      -5.017  -0.672   7.605  0.00  0.00     0.030 H 
ATOM    260  H90 ACE d   1      -4.896  -2.407   8.054  0.00  0.00     0.030 H 
ENDBRANCH 151 257
ENDBRANCH 149 151
ENDBRANCH 136 147
ENDBRANCH   1 133
BRANCH   1 261
ATOM    261  CB  ACE d   1      -1.187  -1.278  15.293  0.00  0.00    -0.035 C 
ATOM    262  H70 ACE d   1      -1.225  -0.247  14.911  0.00  0.00     0.037 H 
ATOM    263  H71 ACE d   1      -0.641  -1.913  14.580  0.00  0.00     0.037 H 
BRANCH 261 264
ATOM    264  CG  ACE d   1      -0.389  -1.262  16.618  0.00  0.00    -0.059 C 
ATOM    265  H72 ACE d   1      -0.564  -2.226  17.117  0.00  0.00     0.038 H 
BRANCH 264 266
ATOM    266  CD1 ACE d   1       1.117  -1.159  16.350  0.00  0.00    -0.073 C 
ATOM    267  H73 ACE d   1       1.660  -1.150  17.307  0.00  0.00     0.028 H 
ATOM    268  H74 ACE d   1       1.329  -0.231  15.799  0.00  0.00     0.028 H 
ATOM    269  H75 ACE d   1       1.443  -2.023  15.752  0.00  0.00     0.028 H 
ENDBRANCH 264 266
BRANCH 264 270
ATOM    270  CD2 ACE d   1      -0.883  -0.183  17.555  0.00  0.00    -0.073 C 
ATOM    271  H76 ACE d   1      -1.965  -0.302  17.713  0.00  0.00     0.028 H 
ATOM    272  H77 ACE d   1      -0.683   0.805  17.114  0.00  0.00     0.028 H 
ATOM    273  H78 ACE d   1      -0.360  -0.267  18.519  0.00  0.00     0.028 H 
ENDBRANCH 264 270
ENDBRANCH 261 264
ENDBRANCH   1 261
TORSDOF 66
