REMARK WARNING: 32 MAX_TORS EXCEEDED!!!
REMARK  63 active torsions:
REMARK  status: ('A' for Active; 'I' for Inactive)
REMARK    1  A    between atoms: C_1  and  CH3_3 
REMARK       I    between atoms: C_1  and  N_4 
REMARK    2  A    between atoms: N_4  and  CA_5 
REMARK    3  A    between atoms: CA_5  and  C_6 
REMARK    4  A    between atoms: CA_5  and  CB_8 
REMARK       I    between atoms: C_6  and  N_11 
REMARK    5  A    between atoms: CB_8  and  CG1_9 
REMARK    6  A    between atoms: CB_8  and  CG2_10 
REMARK    7  A    between atoms: CA_12  and  C_13 
REMARK       I    between atoms: C_13  and  N_18 
REMARK    8  A    between atoms: N_18  and  CA_19 
REMARK    9  A    between atoms: CA_19  and  C_20 
REMARK   10  A    between atoms: CA_19  and  CB_22 
REMARK       I    between atoms: C_20  and  N_26 
REMARK   11  A    between atoms: CB_22  and  CG_23 
REMARK   12  A    between atoms: CG_23  and  CD1_24 
REMARK   13  A    between atoms: CG_23  and  CD2_25 
REMARK   14  A    between atoms: N_26  and  CA_27 
REMARK   15  A    between atoms: CA_27  and  C_28 
REMARK   16  A    between atoms: CA_27  and  CB_30 
REMARK       I    between atoms: C_28  and  N_37 
REMARK   17  A    between atoms: CB_30  and  CG_31 
REMARK   18  A    between atoms: CG_31  and  CD_32 
REMARK   19  A    between atoms: CD_32  and  NE_33 
REMARK       I    between atoms: NE_33  and  CZ_34 
REMARK       I    between atoms: CZ_34  and  NH1_35 
REMARK       I    between atoms: CZ_34  and  NH2_36 
REMARK   20  A    between atoms: N_37  and  CA_38 
REMARK   21  A    between atoms: CA_38  and  C_39 
REMARK   22  A    between atoms: CA_38  and  CB_41 
REMARK       I    between atoms: C_39  and  N_42 
REMARK   23  A    between atoms: N_42  and  CA_43 
REMARK   24  A    between atoms: CA_43  and  C_44 
REMARK   25  A    between atoms: CA_43  and  CB_46 
REMARK       I    between atoms: C_44  and  N_53 
REMARK   26  A    between atoms: CB_46  and  CG_47 
REMARK   27  A    between atoms: CG_47  and  CD_48 
REMARK   28  A    between atoms: CD_48  and  NE_49 
REMARK       I    between atoms: NE_49  and  CZ_50 
REMARK       I    between atoms: CZ_50  and  NH1_51 
REMARK       I    between atoms: CZ_50  and  NH2_52 
REMARK   29  A    between atoms: N_53  and  CA_54 
REMARK   30  A    between atoms: CA_54  and  C_55 
REMARK   31  A    between atoms: CA_54  and  CB_57 
REMARK       I    between atoms: C_55  and  N_61 
REMARK   32  A    between atoms: CB_57  and  CG_58 
REMARK       I    between atoms: CG_58  and  ND2_60 
REMARK   33  A    between atoms: N_61  and  CA_62 
REMARK   34  A    between atoms: CA_62  and  C_63 
REMARK   35  A    between atoms: CA_62  and  CB_65 
REMARK       I    between atoms: C_63  and  N_69 
REMARK   36  A    between atoms: CB_65  and  CG_66 
REMARK   37  A    between atoms: CG_66  and  CD1_67 
REMARK   38  A    between atoms: CG_66  and  CD2_68 
REMARK   39  A    between atoms: CA_70  and  C_71 
REMARK       I    between atoms: C_71  and  N_76 
REMARK   40  A    between atoms: CA_77  and  C_78 
REMARK       I    between atoms: C_78  and  N_83 
REMARK   41  A    between atoms: N_83  and  CA_84 
REMARK   42  A    between atoms: CA_84  and  C_85 
REMARK   43  A    between atoms: CA_84  and  CB_87 
REMARK       I    between atoms: C_85  and  N_89 
REMARK   44  A    between atoms: CB_87  and  OG_88 
REMARK   45  A    between atoms: N_89  and  CA_90 
REMARK   46  A    between atoms: CA_90  and  C_91 
REMARK   47  A    between atoms: CA_90  and  CB_93 
REMARK       I    between atoms: C_91  and  N_100 
REMARK   48  A    between atoms: CB_93  and  CG_94 
REMARK   49  A    between atoms: N_100  and  CA_101 
REMARK   50  A    between atoms: CA_101  and  C_102 
REMARK   51  A    between atoms: CA_101  and  CB_104 
REMARK       I    between atoms: C_102  and  N_111 
REMARK   52  A    between atoms: CB_104  and  CG_105 
REMARK   53  A    between atoms: N_111  and  CA_112 
REMARK   54  A    between atoms: CA_112  and  C_113 
REMARK   55  A    between atoms: CA_112  and  CB_115 
REMARK       I    between atoms: C_113  and  N_118 
REMARK   56  A    between atoms: CB_115  and  OG1_116 
REMARK   57  A    between atoms: CB_115  and  CG2_117 
REMARK   58  A    between atoms: N_118  and  CA_119 
REMARK   59  A    between atoms: CA_119  and  C_120 
REMARK   60  A    between atoms: CA_119  and  CB_122 
REMARK       I    between atoms: C_120  and  N_127 
REMARK   61  A    between atoms: CB_122  and  CG_123 
REMARK   62  A    between atoms: CG_123  and  CD_124 
REMARK   63  A    between atoms: CA_128  and  C_129 
REMARK       I    between atoms: C_129  and  N_134 
ROOT
ATOM      1  CA  ACE d   1      -5.299  18.902  23.942  0.00  0.00     0.090 C 
ATOM      2  H69 ACE d   1      -4.513  18.137  24.029  0.00  0.00     0.087 H 
ENDROOT
BRANCH   1   3
ATOM      3  N   ACE d   1      -6.587  18.240  23.693  0.00  0.00    -0.346 N 
ATOM      4  C   ACE d   1      -6.706  16.939  23.370  0.00  0.00     0.241 C 
ATOM      5  O   ACE d   1      -5.728  16.192  23.239  0.00  0.00    -0.271 OA
ATOM      6  H68 ACE d   1      -7.421  18.786  23.768  0.00  0.00     0.163 HD
BRANCH   4   7
ATOM      7  CA  ACE d   1      -8.143  16.442  23.116  0.00  0.00     0.097 C 
ATOM      8  H63 ACE d   1      -8.786  16.929  23.864  0.00  0.00     0.088 H 
BRANCH   7   9
ATOM      9  N   ACE d   1      -8.605  16.860  21.784  0.00  0.00    -0.346 N 
ATOM     10  C   ACE d   1      -8.950  18.110  21.424  0.00  0.00     0.241 C 
ATOM     11  O   ACE d   1      -8.882  19.075  22.192  0.00  0.00    -0.271 OA
ATOM     12  H62 ACE d   1      -8.669  16.151  21.082  0.00  0.00     0.163 HD
BRANCH  10  13
ATOM     13  CA  ACE d   1      -9.419  18.307  19.967  0.00  0.00     0.089 C 
ATOM     14  H50 ACE d   1     -10.029  17.435  19.687  0.00  0.00     0.087 H 
BRANCH  13  15
ATOM     15  N   ACE d   1     -10.257  19.504  19.828  0.00  0.00    -0.346 N 
ATOM     16  C   ACE d   1     -11.576  19.530  20.081  0.00  0.00     0.240 C 
ATOM     17  O   ACE d   1     -12.194  18.535  20.472  0.00  0.00    -0.271 OA
ATOM     18  H49 ACE d   1      -9.820  20.351  19.527  0.00  0.00     0.163 HD
BRANCH  16  19
ATOM     19  CA  ACE d   1     -12.322  20.881  19.883  0.00  0.00     0.086 C 
ATOM     20  H45 ACE d   1     -12.779  21.137  20.850  0.00  0.00     0.086 H 
BRANCH  19  21
ATOM     21  N   ACE d   1     -11.461  22.013  19.500  0.00  0.00    -0.346 N 
ATOM     22  C   ACE d   1     -10.908  22.892  20.362  0.00  0.00     0.241 C 
ATOM     23  O   ACE d   1     -11.035  22.796  21.582  0.00  0.00    -0.271 OA
ATOM     24  H44 ACE d   1     -11.272  22.140  18.526  0.00  0.00     0.163 HD
BRANCH  22  25
ATOM     25  CA  ACE d   1     -10.043  24.044  19.773  0.00  0.00     0.089 C 
ATOM     26  H32 ACE d   1      -9.170  24.147  20.434  0.00  0.00     0.087 H 
BRANCH  25  27
ATOM     27  N   ACE d   1      -9.517  23.766  18.429  0.00  0.00    -0.346 N 
ATOM     28  C   ACE d   1      -8.599  22.802  18.187  0.00  0.00     0.241 C 
ATOM     29  O   ACE d   1      -8.175  22.042  19.056  0.00  0.00    -0.271 OA
ATOM     30  H31 ACE d   1      -9.852  24.312  17.661  0.00  0.00     0.163 HD
BRANCH  28  31
ATOM     31  CA  ACE d   1      -8.173  22.554  16.744  0.00  0.00     0.089 C 
ATOM     32  H21 ACE d   1      -7.806  21.518  16.707  0.00  0.00     0.087 H 
BRANCH  31  33
ATOM     33  N   ACE d   1      -9.282  22.621  15.794  0.00  0.00    -0.346 N 
ATOM     34  C   ACE d   1     -10.395  21.872  15.972  0.00  0.00     0.241 C 
ATOM     35  O   ACE d   1     -10.562  21.124  16.939  0.00  0.00    -0.271 OA
ATOM     36  H20 ACE d   1      -9.217  23.228  15.002  0.00  0.00     0.163 HD
BRANCH  34  37
ATOM     37  CA  ACE d   1     -11.496  21.955  14.925  0.00  0.00     0.091 C 
ATOM     38  N   ACE d   1     -12.096  20.627  14.662  0.00  0.00    -0.337 N 
ATOM     39  C   ACE d   1     -11.296  19.568  14.290  0.00  0.00     0.243 C 
ATOM     40  CD  ACE d   1     -13.548  20.662  14.918  0.00  0.00    -0.001 C 
ATOM     41  O   ACE d   1     -10.079  19.711  14.094  0.00  0.00    -0.271 OA
ATOM     42  CG  ACE d   1     -13.863  22.124  14.936  0.00  0.00    -0.048 C 
ATOM     43  H18 ACE d   1     -13.788  20.196  15.885  0.00  0.00     0.064 H 
ATOM     44  H19 ACE d   1     -14.101  20.150  14.117  0.00  0.00     0.064 H 
ATOM     45  CB  ACE d   1     -12.682  22.786  15.446  0.00  0.00    -0.036 C 
ATOM     46  H16 ACE d   1     -14.089  22.478  13.919  0.00  0.00     0.035 H 
ATOM     47  H17 ACE d   1     -14.723  22.320  15.592  0.00  0.00     0.035 H 
ATOM     48  H14 ACE d   1     -12.625  23.818  15.069  0.00  0.00     0.036 H 
ATOM     49  H15 ACE d   1     -12.691  22.798  16.546  0.00  0.00     0.036 H 
ATOM     50  H13 ACE d   1     -11.088  22.389  14.000  0.00  0.00     0.087 H 
BRANCH  39  51
ATOM     51  CA  ACE d   1     -11.923  18.172  13.987  0.00  0.00     0.092 C 
ATOM     52  H5  ACE d   1     -12.996  18.343  13.814  0.00  0.00     0.088 H 
BRANCH  51  53
ATOM     53  N   ACE d   1     -11.361  17.612  12.750  0.00  0.00    -0.348 N 
ATOM     54  C   ACE d   1     -11.524  18.147  11.543  0.00  0.00     0.214 C 
ATOM     55  O   ACE d   1     -12.156  19.186  11.328  0.00  0.00    -0.274 OA
ATOM     56  H4  ACE d   1     -10.820  16.774  12.820  0.00  0.00     0.163 HD
BRANCH  54  57
ATOM     57  CH3 ACE d   1     -10.869  17.380  10.402  0.00  0.00    -0.003 C 
ATOM     58  H1  ACE d   1     -10.360  16.491  10.803  0.00  0.00     0.040 H 
ATOM     59  H2  ACE d   1     -10.136  18.027   9.899  0.00  0.00     0.040 H 
ATOM     60  H3  ACE d   1     -11.639  17.068   9.681  0.00  0.00     0.040 H 
ENDBRANCH  54  57
ENDBRANCH  51  53
BRANCH  51  61
ATOM     61  CB  ACE d   1     -11.821  17.124  15.155  0.00  0.00    -0.033 C 
ATOM     62  H6  ACE d   1     -12.568  16.348  14.933  0.00  0.00     0.042 H 
BRANCH  61  63
ATOM     63  CG1 ACE d   1     -10.463  16.417  15.191  0.00  0.00    -0.071 C 
ATOM     64  H7  ACE d   1     -10.446  15.698  16.023  0.00  0.00     0.028 H 
ATOM     65  H8  ACE d   1      -9.666  17.161  15.333  0.00  0.00     0.028 H 
ATOM     66  H9  ACE d   1     -10.302  15.884  14.242  0.00  0.00     0.028 H 
ENDBRANCH  61  63
BRANCH  61  67
ATOM     67  CG2 ACE d   1     -12.198  17.699  16.522  0.00  0.00    -0.071 C 
ATOM     68  H10 ACE d   1     -13.177  18.197  16.453  0.00  0.00     0.028 H 
ATOM     69  H11 ACE d   1     -11.437  18.429  16.835  0.00  0.00     0.028 H 
ATOM     70  H12 ACE d   1     -12.252  16.885  17.260  0.00  0.00     0.028 H 
ENDBRANCH  61  67
ENDBRANCH  51  61
ENDBRANCH  39  51
ENDBRANCH  34  37
ENDBRANCH  31  33
BRANCH  31  71
ATOM     71  CB  ACE d   1      -7.000  23.436  16.347  0.00  0.00    -0.035 C 
ATOM     72  H22 ACE d   1      -6.674  23.994  17.238  0.00  0.00     0.037 H 
ATOM     73  H23 ACE d   1      -7.348  24.142  15.579  0.00  0.00     0.037 H 
BRANCH  71  74
ATOM     74  CG  ACE d   1      -5.794  22.685  15.790  0.00  0.00    -0.059 C 
ATOM     75  H24 ACE d   1      -6.167  21.907  15.107  0.00  0.00     0.038 H 
BRANCH  74  76
ATOM     76  CD1 ACE d   1      -4.903  23.608  15.007  0.00  0.00    -0.073 C 
ATOM     77  H25 ACE d   1      -4.043  23.044  14.617  0.00  0.00     0.028 H 
ATOM     78  H26 ACE d   1      -4.545  24.416  15.662  0.00  0.00     0.028 H 
ATOM     79  H27 ACE d   1      -5.469  24.040  14.168  0.00  0.00     0.028 H 
ENDBRANCH  74  76
BRANCH  74  80
ATOM     80  CD2 ACE d   1      -4.998  22.000  16.893  0.00  0.00    -0.073 C 
ATOM     81  H28 ACE d   1      -5.660  21.328  17.459  0.00  0.00     0.028 H 
ATOM     82  H29 ACE d   1      -4.581  22.760  17.570  0.00  0.00     0.028 H 
ATOM     83  H30 ACE d   1      -4.179  21.418  16.446  0.00  0.00     0.028 H 
ENDBRANCH  74  80
ENDBRANCH  71  74
ENDBRANCH  31  71
ENDBRANCH  28  31
ENDBRANCH  25  27
BRANCH  25  84
ATOM     84  CB  ACE d   1     -10.794  25.384  19.811  0.00  0.00    -0.036 C 
ATOM     85  H33 ACE d   1     -11.834  25.212  19.497  0.00  0.00     0.036 H 
ATOM     86  H34 ACE d   1     -10.309  26.078  19.109  0.00  0.00     0.036 H 
BRANCH  84  87
ATOM     87  CG  ACE d   1     -10.804  26.023  21.200  0.00  0.00    -0.048 C 
ATOM     88  H35 ACE d   1      -9.868  25.761  21.715  0.00  0.00     0.035 H 
ATOM     89  H36 ACE d   1     -11.658  25.623  21.766  0.00  0.00     0.035 H 
BRANCH  87  90
ATOM     90  CD  ACE d   1     -10.922  27.530  21.147  0.00  0.00     0.009 C 
ATOM     91  H37 ACE d   1     -11.549  27.867  21.986  0.00  0.00     0.064 H 
ATOM     92  H38 ACE d   1     -11.397  27.816  20.197  0.00  0.00     0.064 H 
BRANCH  90  93
ATOM     93  NE  ACE d   1      -9.618  28.187  21.239  0.00  0.00    -0.227 N 
ATOM     94  CZ  ACE d   1      -8.902  28.606  20.195  0.00  0.00     0.665 C 
ATOM     95  NH1 ACE d   1      -9.356  28.438  18.957  0.00  0.00    -0.235 N 
ATOM     96  NH2 ACE d   1      -7.727  29.199  20.383  0.00  0.00    -0.235 N 
ATOM     97  H40 ACE d   1      -8.798  28.764  18.155  0.00  0.00     0.174 HD
ATOM     98  H41 ACE d   1     -10.266  27.982  18.800  0.00  0.00     0.174 HD
ATOM     99  H42 ACE d   1      -7.365  29.334  21.338  0.00  0.00     0.174 HD
ATOM    100  H43 ACE d   1      -7.178  29.523  19.574  0.00  0.00     0.174 HD
ATOM    101  H39 ACE d   1      -9.224  28.337  22.179  0.00  0.00     0.177 HD
ENDBRANCH  90  93
ENDBRANCH  87  90
ENDBRANCH  84  87
ENDBRANCH  25  84
ENDBRANCH  22  25
ENDBRANCH  19  21
BRANCH  19 102
ATOM    102  CB  ACE d   1     -13.440  20.727  18.866  0.00  0.00    -0.049 C 
ATOM    103  H46 ACE d   1     -14.082  19.881  19.153  0.00  0.00     0.030 H 
ATOM    104  H47 ACE d   1     -13.008  20.539  17.872  0.00  0.00     0.030 H 
ATOM    105  H48 ACE d   1     -14.039  21.649  18.837  0.00  0.00     0.030 H 
ENDBRANCH  19 102
ENDBRANCH  16  19
ENDBRANCH  13  15
BRANCH  13 106
ATOM    106  CB  ACE d   1      -8.202  18.367  19.012  0.00  0.00    -0.036 C 
ATOM    107  H51 ACE d   1      -7.668  17.407  19.076  0.00  0.00     0.036 H 
ATOM    108  H52 ACE d   1      -7.540  19.178  19.350  0.00  0.00     0.036 H 
BRANCH 106 109
ATOM    109  CG  ACE d   1      -8.553  18.619  17.549  0.00  0.00    -0.048 C 
ATOM    110  H53 ACE d   1      -8.754  19.693  17.420  0.00  0.00     0.035 H 
ATOM    111  H54 ACE d   1      -9.459  18.045  17.306  0.00  0.00     0.035 H 
BRANCH 109 112
ATOM    112  CD  ACE d   1      -7.459  18.218  16.580  0.00  0.00     0.009 C 
ATOM    113  H55 ACE d   1      -7.303  17.131  16.644  0.00  0.00     0.064 H 
ATOM    114  H56 ACE d   1      -6.529  18.739  16.852  0.00  0.00     0.064 H 
BRANCH 112 115
ATOM    115  NE  ACE d   1      -7.821  18.570  15.205  0.00  0.00    -0.227 N 
ATOM    116  CZ  ACE d   1      -7.293  18.024  14.111  0.00  0.00     0.665 C 
ATOM    117  NH1 ACE d   1      -6.360  17.084  14.210  0.00  0.00    -0.235 N 
ATOM    118  NH2 ACE d   1      -7.693  18.417  12.908  0.00  0.00    -0.235 N 
ATOM    119  H58 ACE d   1      -5.957  16.667  13.359  0.00  0.00     0.174 HD
ATOM    120  H59 ACE d   1      -6.040  16.772  15.138  0.00  0.00     0.174 HD
ATOM    121  H60 ACE d   1      -8.416  19.145  12.818  0.00  0.00     0.174 HD
ATOM    122  H61 ACE d   1      -7.280  17.994  12.064  0.00  0.00     0.174 HD
ATOM    123  H57 ACE d   1      -8.540  19.296  15.074  0.00  0.00     0.177 HD
ENDBRANCH 112 115
ENDBRANCH 109 112
ENDBRANCH 106 109
ENDBRANCH  13 106
ENDBRANCH  10  13
ENDBRANCH   7   9
BRANCH   7 124
ATOM    124  CB  ACE d   1      -8.337  14.893  23.282  0.00  0.00     0.036 C 
ATOM    125  H64 ACE d   1      -7.828  14.411  22.434  0.00  0.00     0.051 H 
ATOM    126  H65 ACE d   1      -9.417  14.695  23.222  0.00  0.00     0.051 H 
BRANCH 124 127
ATOM    127  CG  ACE d   1      -7.828  14.217  24.552  0.00  0.00     0.217 C 
ATOM    128  OD1 ACE d   1      -7.404  13.046  24.520  0.00  0.00    -0.274 OA
ATOM    129  ND2 ACE d   1      -7.869  14.910  25.696  0.00  0.00    -0.370 N 
ATOM    130  H66 ACE d   1      -7.543  14.494  26.545  0.00  0.00     0.159 HD
ATOM    131  H67 ACE d   1      -8.226  15.844  25.702  0.00  0.00     0.159 HD
ENDBRANCH 124 127
ENDBRANCH   7 124
ENDBRANCH   4   7
ENDBRANCH   1   3
BRANCH   1 132
ATOM    132  C   ACE d   1      -5.376  19.705  25.246  0.00  0.00     0.243 C 
ATOM    133  O   ACE d   1      -6.460  20.240  25.519  0.00  0.00    -0.271 OA
ATOM    134  N   ACE d   1      -4.251  19.865  26.026  0.00  0.00    -0.337 N 
ATOM    135  CA  ACE d   1      -4.310  20.655  27.275  0.00  0.00     0.092 C 
ATOM    136  CD  ACE d   1      -2.905  19.278  25.861  0.00  0.00    -0.001 C 
ATOM    137  CB  ACE d   1      -2.866  20.617  27.785  0.00  0.00    -0.036 C 
ATOM    138  H79 ACE d   1      -4.973  20.154  27.996  0.00  0.00     0.087 H 
ATOM    139  CG  ACE d   1      -2.331  19.349  27.254  0.00  0.00    -0.048 C 
ATOM    140  H80 ACE d   1      -2.840  20.622  28.885  0.00  0.00     0.036 H 
ATOM    141  H81 ACE d   1      -2.293  21.474  27.401  0.00  0.00     0.036 H 
ATOM    142  H82 ACE d   1      -2.667  18.496  27.861  0.00  0.00     0.035 H 
ATOM    143  H83 ACE d   1      -1.232  19.368  27.225  0.00  0.00     0.035 H 
ATOM    144  H84 ACE d   1      -2.301  19.866  25.154  0.00  0.00     0.064 H 
ATOM    145  H85 ACE d   1      -2.968  18.237  25.512  0.00  0.00     0.064 H 
BRANCH 135 146
ATOM    146  C   ACE d   1      -4.828  22.084  27.080  0.00  0.00     0.243 C 
ATOM    147  O   ACE d   1      -4.621  22.643  25.999  0.00  0.00    -0.271 OA
ATOM    148  N   ACE d   1      -5.551  22.660  28.084  0.00  0.00    -0.337 N 
ATOM    149  CA  ACE d   1      -6.134  24.012  27.919  0.00  0.00     0.091 C 
ATOM    150  CD  ACE d   1      -5.897  22.095  29.406  0.00  0.00    -0.001 C 
ATOM    151  CB  ACE d   1      -6.775  24.281  29.279  0.00  0.00    -0.036 C 
ATOM    152  H86 ACE d   1      -6.906  23.976  27.136  0.00  0.00     0.087 H 
ATOM    153  CG  ACE d   1      -7.058  22.926  29.828  0.00  0.00    -0.048 C 
ATOM    154  H87 ACE d   1      -7.705  24.857  29.164  0.00  0.00     0.036 H 
ATOM    155  H88 ACE d   1      -6.083  24.830  29.934  0.00  0.00     0.036 H 
ATOM    156  H89 ACE d   1      -7.993  22.526  29.410  0.00  0.00     0.035 H 
ATOM    157  H90 ACE d   1      -7.132  22.960  30.925  0.00  0.00     0.035 H 
ATOM    158  H91 ACE d   1      -5.059  22.197  30.112  0.00  0.00     0.064 H 
ATOM    159  H92 ACE d   1      -6.178  21.035  29.322  0.00  0.00     0.064 H 
BRANCH 149 160
ATOM    160  C   ACE d   1      -5.161  25.128  27.555  0.00  0.00     0.241 C 
ATOM    161  O   ACE d   1      -5.576  26.134  26.968  0.00  0.00    -0.271 OA
ATOM    162  N   ACE d   1      -3.869  24.940  27.912  0.00  0.00    -0.344 N 
ATOM    163  H93 ACE d   1      -3.655  24.083  28.381  0.00  0.00     0.163 HD
BRANCH 162 164
ATOM    164  CA  ACE d   1      -2.757  25.853  27.685  0.00  0.00     0.109 C 
ATOM    165  H94 ACE d   1      -3.037  26.844  28.071  0.00  0.00     0.090 H 
BRANCH 164 166
ATOM    166  C   ACE d   1      -2.419  25.989  26.212  0.00  0.00     0.243 C 
ATOM    167  O   ACE d   1      -1.817  26.989  25.814  0.00  0.00    -0.271 OA
ATOM    168  N   ACE d   1      -2.783  24.981  25.399  0.00  0.00    -0.346 N 
ATOM    169  H98 ACE d   1      -3.243  24.188  25.798  0.00  0.00     0.163 HD
BRANCH 168 170
ATOM    170  CA  ACE d   1      -2.536  24.993  23.960  0.00  0.00     0.093 C 
ATOM    171  H99 ACE d   1      -1.449  25.003  23.794  0.00  0.00     0.088 H 
BRANCH 170 172
ATOM    172  C   ACE d   1      -3.134  26.239  23.323  0.00  0.00     0.241 C 
ATOM    173  O   ACE d   1      -2.497  26.839  22.450  0.00  0.00    -0.271 OA
ATOM    174  N   ACE d   1      -4.326  26.653  23.814  0.00  0.00    -0.346 N 
ATOM    175 7H10 ACE d   1      -4.731  26.122  24.558  0.00  0.00     0.163 HD
BRANCH 174 176
ATOM    176  CA  ACE d   1      -5.062  27.820  23.333  0.00  0.00     0.093 C 
ATOM    177 8H10 ACE d   1      -4.655  28.067  22.341  0.00  0.00     0.088 H 
BRANCH 176 178
ATOM    178  C   ACE d   1      -4.854  29.055  24.209  0.00  0.00     0.241 C 
ATOM    179  O   ACE d   1      -5.278  30.139  23.814  0.00  0.00    -0.271 OA
ATOM    180  N   ACE d   1      -4.139  28.911  25.354  0.00  0.00    -0.344 N 
ATOM    181 6H11 ACE d   1      -3.801  27.999  25.585  0.00  0.00     0.163 HD
BRANCH 180 182
ATOM    182  CA  ACE d   1      -3.830  30.020  26.278  0.00  0.00     0.113 C 
ATOM    183 7H11 ACE d   1      -4.418  30.886  25.939  0.00  0.00     0.091 H 
BRANCH 182 184
ATOM    184  C   ACE d   1      -2.344  30.442  26.206  0.00  0.00     0.243 C 
ATOM    185  O   ACE d   1      -1.482  29.869  26.900  0.00  0.00    -0.271 OA
ATOM    186  N   ACE d   1      -2.076  31.486  25.395  0.00  0.00    -0.346 N 
ATOM    187 3H12 ACE d   1      -2.839  31.885  24.887  0.00  0.00     0.163 HD
BRANCH 186 188
ATOM    188  CA  ACE d   1      -0.757  32.075  25.204  0.00  0.00     0.090 C 
ATOM    189 4H12 ACE d   1      -0.097  31.309  24.770  0.00  0.00     0.087 H 
BRANCH 188 190
ATOM    190  C   ACE d   1      -0.153  32.520  26.550  0.00  0.00     0.243 C 
ATOM    191  O   ACE d   1      -0.873  33.146  27.335  0.00  0.00    -0.271 OA
ATOM    192  N   ACE d   1       1.141  32.207  26.843  0.00  0.00    -0.337 N 
ATOM    193  CA  ACE d   1       1.740  32.664  28.113  0.00  0.00     0.091 C 
ATOM    194  CD  ACE d   1       2.116  31.437  26.043  0.00  0.00    -0.001 C 
ATOM    195  CB  ACE d   1       3.100  31.949  28.155  0.00  0.00    -0.036 C 
ATOM    196 9H12 ACE d   1       1.115  32.348  28.962  0.00  0.00     0.087 H 
ATOM    197  CG  ACE d   1       3.079  30.948  27.063  0.00  0.00    -0.048 C 
ATOM    198 0H13 ACE d   1       3.238  31.450  29.126  0.00  0.00     0.036 H 
ATOM    199 1H13 ACE d   1       3.914  32.671  27.994  0.00  0.00     0.036 H 
ATOM    200 2H13 ACE d   1       2.754  29.972  27.452  0.00  0.00     0.035 H 
ATOM    201 3H13 ACE d   1       4.081  30.851  26.620  0.00  0.00     0.035 H 
ATOM    202 4H13 ACE d   1       2.616  32.081  25.304  0.00  0.00     0.064 H 
ATOM    203 5H13 ACE d   1       1.628  30.597  25.527  0.00  0.00     0.064 H 
BRANCH 193 204
ATOM    204  C   ACE d   1       1.907  34.186  28.167  0.00  0.00     0.238 C 
ATOM    205  O   ACE d   1       1.895  34.849  27.131  0.00  0.00    -0.271 OA
ATOM    206  N   ACE d   1       2.000  34.750  29.376  0.00  0.00    -0.368 N 
ATOM    207 6H13 ACE d   1       2.110  35.740  29.459  0.00  0.00     0.159 HD
ATOM    208 7H13 ACE d   1       1.960  34.181  30.198  0.00  0.00     0.159 HD
ENDBRANCH 193 204
ENDBRANCH 188 190
BRANCH 188 209
ATOM    209  CB  ACE d   1      -0.839  33.258  24.215  0.00  0.00    -0.029 C 
ATOM    210 5H12 ACE d   1      -1.485  34.034  24.651  0.00  0.00     0.037 H 
ATOM    211 6H12 ACE d   1      -1.282  32.898  23.275  0.00  0.00     0.037 H 
BRANCH 209 212
ATOM    212  CG  ACE d   1       0.520  33.878  23.903  0.00  0.00     0.018 C 
ATOM    213 7H12 ACE d   1       1.142  33.080  23.472  0.00  0.00     0.049 H 
ATOM    214 8H12 ACE d   1       0.950  34.200  24.863  0.00  0.00     0.049 H 
BRANCH 212 215
ATOM    215  CD  ACE d   1       0.614  35.064  22.960  0.00  0.00     0.172 C 
ATOM    216  OE1 ACE d   1       1.758  35.487  22.675  0.00  0.00    -0.648 OA
ATOM    217  OE2 ACE d   1      -0.440  35.571  22.510  0.00  0.00    -0.648 OA
ENDBRANCH 212 215
ENDBRANCH 209 212
ENDBRANCH 188 209
ENDBRANCH 186 188
ENDBRANCH 182 184
BRANCH 182 218
ATOM    218  CB  ACE d   1      -4.290  29.713  27.727  0.00  0.00     0.060 C 
ATOM    219 8H11 ACE d   1      -3.640  28.919  28.122  0.00  0.00     0.086 H 
BRANCH 218 220
ATOM    220  OG1 ACE d   1      -5.639  29.229  27.730  0.00  0.00    -0.393 OA
ATOM    221 9H11 ACE d   1      -5.690  28.433  27.213  0.00  0.00     0.210 HD
ENDBRANCH 218 220
BRANCH 218 222
ATOM    222  CG2 ACE d   1      -4.163  30.918  28.650  0.00  0.00    -0.050 C 
ATOM    223 0H12 ACE d   1      -4.502  30.644  29.660  0.00  0.00     0.031 H 
ATOM    224 1H12 ACE d   1      -4.784  31.741  28.266  0.00  0.00     0.031 H 
ATOM    225 2H12 ACE d   1      -3.112  31.240  28.691  0.00  0.00     0.031 H 
ENDBRANCH 218 222
ENDBRANCH 182 218
ENDBRANCH 180 182
ENDBRANCH 176 178
BRANCH 176 226
ATOM    226  CB  ACE d   1      -6.556  27.483  23.136  0.00  0.00    -0.014 C 
ATOM    227 9H10 ACE d   1      -6.983  28.192  22.411  0.00  0.00     0.043 H 
ATOM    228 0H11 ACE d   1      -7.071  27.592  24.102  0.00  0.00     0.043 H 
BRANCH 226 229
ATOM    229  CG  ACE d   1      -6.782  26.075  22.625  0.00  0.00    -0.056 A 
ATOM    230  CD1 ACE d   1      -6.459  25.732  21.314  0.00  0.00    -0.077 A 
ATOM    231  CE1 ACE d   1      -6.573  24.409  20.870  0.00  0.00    -0.082 A 
ATOM    232 1H11 ACE d   1      -6.115  26.499  20.629  0.00  0.00     0.084 H 
ATOM    233  CZ  ACE d   1      -7.018  23.429  21.732  0.00  0.00    -0.083 A 
ATOM    234 3H11 ACE d   1      -6.311  24.155  19.849  0.00  0.00     0.083 H 
ATOM    235  CE2 ACE d   1      -7.353  23.752  23.030  0.00  0.00    -0.082 A 
ATOM    236 5H11 ACE d   1      -7.104  22.404  21.389  0.00  0.00     0.083 H 
ATOM    237  CD2 ACE d   1      -7.221  25.070  23.481  0.00  0.00    -0.077 A 
ATOM    238 4H11 ACE d   1      -7.719  22.984  23.702  0.00  0.00     0.083 H 
ATOM    239 2H11 ACE d   1      -7.464  25.311  24.510  0.00  0.00     0.084 H 
ENDBRANCH 226 229
ENDBRANCH 176 226
ENDBRANCH 174 176
ENDBRANCH 170 172
BRANCH 170 240
ATOM    240  CB  ACE d   1      -3.113  23.749  23.308  0.00  0.00    -0.014 C 
ATOM    241 0H10 ACE d   1      -4.198  23.889  23.196  0.00  0.00     0.043 H 
ATOM    242 1H10 ACE d   1      -2.920  22.892  23.970  0.00  0.00     0.043 H 
BRANCH 240 243
ATOM    243  CG  ACE d   1      -2.535  23.440  21.954  0.00  0.00    -0.056 A 
ATOM    244  CD1 ACE d   1      -2.987  24.101  20.819  0.00  0.00    -0.077 A 
ATOM    245  CE1 ACE d   1      -2.475  23.790  19.566  0.00  0.00    -0.082 A 
ATOM    246 2H10 ACE d   1      -3.748  24.868  20.912  0.00  0.00     0.084 H 
ATOM    247  CZ  ACE d   1      -1.522  22.808  19.441  0.00  0.00    -0.083 A 
ATOM    248 4H10 ACE d   1      -2.826  24.321  18.689  0.00  0.00     0.083 H 
ATOM    249  CE2 ACE d   1      -1.055  22.150  20.552  0.00  0.00    -0.082 A 
ATOM    250 6H10 ACE d   1      -1.137  22.552  18.461  0.00  0.00     0.083 H 
ATOM    251  CD2 ACE d   1      -1.574  22.450  21.803  0.00  0.00    -0.077 A 
ATOM    252 5H10 ACE d   1      -0.282  21.397  20.452  0.00  0.00     0.083 H 
ATOM    253 3H10 ACE d   1      -1.225  21.905  22.673  0.00  0.00     0.084 H 
ENDBRANCH 240 243
ENDBRANCH 170 240
ENDBRANCH 168 170
ENDBRANCH 164 166
BRANCH 164 254
ATOM    254  CB  ACE d   1      -1.531  25.358  28.435  0.00  0.00     0.044 C 
ATOM    255  H95 ACE d   1      -1.727  25.391  29.517  0.00  0.00     0.077 H 
ATOM    256  H96 ACE d   1      -0.673  26.004  28.198  0.00  0.00     0.077 H 
BRANCH 254 257
ATOM    257  OG  ACE d   1      -1.237  24.027  28.051  0.00  0.00    -0.398 OA
ATOM    258  H97 ACE d   1      -0.470  23.724  28.523  0.00  0.00     0.209 HD
ENDBRANCH 254 257
ENDBRANCH 164 254
ENDBRANCH 162 164
ENDBRANCH 149 160
ENDBRANCH 135 146
ENDBRANCH   1 132
BRANCH   1 259
ATOM    259  CB  ACE d   1      -4.947  19.865  22.780  0.00  0.00    -0.035 C 
ATOM    260  H70 ACE d   1      -3.945  20.271  22.986  0.00  0.00     0.037 H 
ATOM    261  H71 ACE d   1      -5.684  20.681  22.799  0.00  0.00     0.037 H 
BRANCH 259 262
ATOM    262  CG  ACE d   1      -4.926  19.312  21.366  0.00  0.00    -0.059 C 
ATOM    263  H72 ACE d   1      -5.806  18.663  21.245  0.00  0.00     0.038 H 
BRANCH 262 264
ATOM    264  CD1 ACE d   1      -5.026  20.414  20.362  0.00  0.00    -0.073 C 
ATOM    265  H73 ACE d   1      -5.009  19.989  19.348  0.00  0.00     0.028 H 
ATOM    266  H74 ACE d   1      -4.176  21.101  20.486  0.00  0.00     0.028 H 
ATOM    267  H75 ACE d   1      -5.967  20.963  20.513  0.00  0.00     0.028 H 
ENDBRANCH 262 264
BRANCH 262 268
ATOM    268  CD2 ACE d   1      -3.709  18.483  21.125  0.00  0.00    -0.073 C 
ATOM    269  H76 ACE d   1      -3.658  17.680  21.875  0.00  0.00     0.028 H 
ATOM    270  H77 ACE d   1      -2.813  19.116  21.203  0.00  0.00     0.028 H 
ATOM    271  H78 ACE d   1      -3.759  18.042  20.119  0.00  0.00     0.028 H 
ENDBRANCH 262 268
ENDBRANCH 259 262
ENDBRANCH   1 259
TORSDOF 63
