REMARK  6 active torsions:
REMARK  status: ('A' for Active; 'I' for Inactive)
REMARK    1  A    between atoms: C1_1  and  C_17 
REMARK    2  A    between atoms: N1_18  and  C2_2 
REMARK    3  A    between atoms: C3_3  and  N1_18 
REMARK    4  A    between atoms: C4_19  and  C3_3 
REMARK    5  A    between atoms: C11_8  and  C12_9 
REMARK    6  A    between atoms: N2_13  and  C15_12 
ROOT
ATOM      1  C1  L9T d   1      34.585  -0.750  35.572  0.00  0.00     0.052 C 
ATOM      2  C2  L9T d   1      32.786  -1.097  36.756  0.00  0.00     0.146 C 
ATOM      3  C11 L9T d   1      34.412   0.545  36.008  0.00  0.00     0.062 C 
ATOM      4  S   L9T d   1      32.959   0.624  36.969  0.00  0.00    -0.054 SA
ATOM      5  N   L9T d   1      33.796  -1.668  36.185  0.00  0.00    -0.233 NA
ENDROOT
BRANCH   2   6
ATOM      6  N1  L9T d   1      31.615  -1.724  36.896  0.00  0.00    -0.267 NA
ATOM      7  H14 L9T d   1      31.873  -2.770  36.977  0.00  0.00     0.130 HD
BRANCH   6   8
ATOM      8  C3  L9T d   1      30.607  -1.515  37.915  0.00  0.00     0.009 C 
ATOM      9  H1  L9T d   1      30.809  -0.603  38.496  0.00  0.00     0.063 H 
ATOM     10  H2  L9T d   1      30.542  -2.377  38.595  0.00  0.00     0.063 H 
BRANCH   8  11
ATOM     11  C4  L9T d   1      29.363  -1.373  37.097  0.00  0.00    -0.009 C 
ATOM     12  C10 L9T d   1      29.043  -0.038  36.882  0.00  0.00     0.112 A 
ATOM     13  C8  L9T d   1      28.082   0.282  35.955  0.00  0.00     0.105 A 
ATOM     14  O1  L9T d   1      29.314   1.045  37.695  0.00  0.00    -0.322 OA
ATOM     15  C7  L9T d   1      27.601  -0.645  35.046  0.00  0.00    -0.048 C 
ATOM     16  O2  L9T d   1      27.776   1.624  36.054  0.00  0.00    -0.323 OA
ATOM     17  C6  L9T d   1      28.093  -1.940  35.117  0.00  0.00    -0.080 C 
ATOM     18  H3  L9T d   1      26.863  -0.367  34.302  0.00  0.00     0.087 H 
ATOM     19  C5  L9T d   1      29.005  -2.288  36.105  0.00  0.00    -0.073 C 
ATOM     20  H16 L9T d   1      27.765  -2.683  34.399  0.00  0.00     0.083 H 
ATOM     21  H15 L9T d   1      29.443  -3.280  36.106  0.00  0.00     0.084 H 
ATOM     22  C9  L9T d   1      28.567   2.130  37.136  0.00  0.00     0.115 A 
ATOM     23  H4  L9T d   1      27.911   2.564  37.905  0.00  0.00     0.118 H 
ATOM     24  H5  L9T d   1      29.256   2.902  36.763  0.00  0.00     0.118 H 
ENDBRANCH   8  11
ENDBRANCH   6   8
ENDBRANCH   2   6
BRANCH   3  25
ATOM     25  C12 L9T d   1      35.527   1.312  35.824  0.00  0.00     0.097 C 
ATOM     26  C13 L9T d   1      36.669   0.920  35.029  0.00  0.00    -0.036 C 
ATOM     27  C14 L9T d   1      37.383   2.053  34.846  0.00  0.00     0.000 C 
ATOM     28  H6  L9T d   1      36.904  -0.076  34.657  0.00  0.00     0.089 H 
ATOM     29  N2  L9T d   1      36.703   3.038  35.469  0.00  0.00    -0.285 N 
ATOM     30  H7  L9T d   1      38.322   2.151  34.303  0.00  0.00     0.114 H 
ATOM     31  N3  L9T d   1      35.489   2.647  35.920  0.00  0.00    -0.172 NA
BRANCH  29  32
ATOM     32  C15 L9T d   1      37.083   4.437  35.581  0.00  0.00     0.002 C 
ATOM     33  H8  L9T d   1      36.315   4.981  36.150  0.00  0.00     0.059 H 
ATOM     34  H9  L9T d   1      37.172   4.874  34.576  0.00  0.00     0.059 H 
ATOM     35  H10 L9T d   1      38.049   4.514  36.102  0.00  0.00     0.059 H 
ENDBRANCH  29  32
ENDBRANCH   3  25
BRANCH   1  36
ATOM     36  C   L9T d   1      35.768  -1.342  34.880  0.00  0.00    -0.034 C 
ATOM     37  H11 L9T d   1      35.577  -2.405  34.671  0.00  0.00     0.035 H 
ATOM     38  H12 L9T d   1      36.654  -1.249  35.525  0.00  0.00     0.035 H 
ATOM     39  H13 L9T d   1      35.945  -0.808  33.934  0.00  0.00     0.035 H 
ENDBRANCH   1  36
TORSDOF 6
