REMARK  11 active torsions:
REMARK  status: ('A' for Active; 'I' for Inactive)
REMARK       I    between atoms: C15_23  and  N4_6 
REMARK    1  A    between atoms: N4_6  and  C16_25 
REMARK    2  A    between atoms: N_13  and  C6_8 
REMARK    3  A    between atoms: C10_9  and  C8_10 
REMARK       I    between atoms: N2_17  and  C10_9 
REMARK    4  A    between atoms: C1_15  and  C_16 
REMARK    5  A    between atoms: C11_18  and  N2_17 
REMARK    6  A    between atoms: C12_19  and  C11_18 
REMARK    7  A    between atoms: C14_21  and  C15_23 
REMARK    8  A    between atoms: C16_25  and  C25_26 
REMARK    9  A    between atoms: C16_25  and  C17_29 
REMARK       I    between atoms: C25_26  and  N5_28 
REMARK   10  A    between atoms: C17_29  and  C18_30 
REMARK   11  A    between atoms: C18_30  and  C19_31 
ROOT
ATOM      1  N3  LB5 d   1      58.168  67.620  18.075  0.00  0.00    -0.255 NA
ATOM      2  C12 LB5 d   1      57.558  68.382  17.204  0.00  0.00     0.093 A 
ATOM      3  S   LB5 d   1      55.798  68.320  17.234  0.00  0.00    -0.066 SA
ATOM      4  C14 LB5 d   1      55.922  67.206  18.553  0.00  0.00     0.092 A 
ATOM      5  C13 LB5 d   1      57.223  66.964  18.860  0.00  0.00     0.025 A 
ATOM      6  H14 LB5 d   1      57.510  66.297  19.672  0.00  0.00     0.117 H 
ENDROOT
BRANCH   4   7
ATOM      7  C15 LB5 d   1      54.667  66.701  19.179  0.00  0.00     0.260 C 
ATOM      8  N4  LB5 d   1      54.805  66.090  20.368  0.00  0.00    -0.343 N 
ATOM      9  H3  LB5 d   1      55.701  66.092  20.812  0.00  0.00     0.163 HD
ATOM     10  O1  LB5 d   1      53.579  66.915  18.671  0.00  0.00    -0.267 OA
BRANCH   8  11
ATOM     11  C16 LB5 d   1      53.678  65.418  21.037  0.00  0.00     0.089 C 
ATOM     12  H15 LB5 d   1      52.739  65.900  20.727  0.00  0.00     0.087 H 
BRANCH  11  13
ATOM     13  C25 LB5 d   1      53.815  65.584  22.559  0.00  0.00     0.238 C 
ATOM     14  O   LB5 d   1      54.316  64.679  23.241  0.00  0.00    -0.271 OA
ATOM     15  N5  LB5 d   1      53.479  66.775  23.074  0.00  0.00    -0.368 N 
ATOM     16  H16 LB5 d   1      53.551  66.932  24.059  0.00  0.00     0.159 HD
ATOM     17  H17 LB5 d   1      53.156  67.507  22.473  0.00  0.00     0.159 HD
ENDBRANCH  11  13
BRANCH  11  18
ATOM     18  C17 LB5 d   1      53.639  63.951  20.574  0.00  0.00    -0.037 C 
ATOM     19  H18 LB5 d   1      54.536  63.455  20.973  0.00  0.00     0.036 H 
ATOM     20  H19 LB5 d   1      53.678  63.951  19.475  0.00  0.00     0.036 H 
BRANCH  18  21
ATOM     21  C18 LB5 d   1      52.442  63.121  20.985  0.00  0.00    -0.059 C 
ATOM     22  H20 LB5 d   1      52.370  63.169  22.082  0.00  0.00     0.033 H 
ATOM     23  H21 LB5 d   1      52.639  62.084  20.675  0.00  0.00     0.033 H 
BRANCH  21  24
ATOM     24  C19 LB5 d   1      51.053  63.522  20.410  0.00  0.00    -0.054 C 
ATOM     25  C24 LB5 d   1      49.995  62.511  20.838  0.00  0.00    -0.062 C 
ATOM     26  C23 LB5 d   1      48.607  62.852  20.315  0.00  0.00    -0.065 C 
ATOM     27  H23 LB5 d   1      49.959  62.484  21.937  0.00  0.00     0.033 H 
ATOM     28  H24 LB5 d   1      50.281  61.520  20.456  0.00  0.00     0.033 H 
ATOM     29  C22 LB5 d   1      48.598  62.990  18.827  0.00  0.00    -0.065 C 
ATOM     30  H25 LB5 d   1      48.280  63.802  20.763  0.00  0.00     0.033 H 
ATOM     31  H26 LB5 d   1      47.910  62.051  20.603  0.00  0.00     0.033 H 
ATOM     32  C21 LB5 d   1      49.612  64.029  18.381  0.00  0.00    -0.065 C 
ATOM     33  H27 LB5 d   1      47.595  63.300  18.499  0.00  0.00     0.033 H 
ATOM     34  H28 LB5 d   1      48.850  62.020  18.372  0.00  0.00     0.033 H 
ATOM     35  C20 LB5 d   1      51.022  63.669  18.884  0.00  0.00    -0.062 C 
ATOM     36  H29 LB5 d   1      49.325  65.010  18.786  0.00  0.00     0.033 H 
ATOM     37  H30 LB5 d   1      49.622  64.075  17.282  0.00  0.00     0.033 H 
ATOM     38  H31 LB5 d   1      51.333  62.718  18.427  0.00  0.00     0.033 H 
ATOM     39  H32 LB5 d   1      51.721  64.464  18.587  0.00  0.00     0.033 H 
ATOM     40  H22 LB5 d   1      50.791  64.499  20.841  0.00  0.00     0.040 H 
ENDBRANCH  21  24
ENDBRANCH  18  21
ENDBRANCH  11  18
ENDBRANCH   8  11
ENDBRANCH   4   7
BRANCH   2  41
ATOM     41  C11 LB5 d   1      58.291  69.283  16.262  0.00  0.00     0.042 C 
ATOM     42  H12 LB5 d   1      58.787  70.063  16.858  0.00  0.00     0.074 H 
ATOM     43  H13 LB5 d   1      59.050  68.681  15.741  0.00  0.00     0.074 H 
BRANCH  41  44
ATOM     44  N2  LB5 d   1      57.476  69.940  15.257  0.00  0.00    -0.351 N 
ATOM     45  C10 LB5 d   1      56.972  71.160  15.458  0.00  0.00     0.254 C 
ATOM     46  O2  LB5 d   1      57.085  71.751  16.529  0.00  0.00    -0.268 OA
ATOM     47  H11 LB5 d   1      57.288  69.469  14.395  0.00  0.00     0.163 HD
BRANCH  45  48
ATOM     48  C8  LB5 d   1      56.338  71.816  14.297  0.00  0.00     0.068 A 
ATOM     49  C7  LB5 d   1      55.689  73.038  14.353  0.00  0.00     0.021 A 
ATOM     50  N   LB5 d   1      55.192  73.281  13.125  0.00  0.00    -0.244 N 
ATOM     51  H5  LB5 d   1      55.598  73.682  15.226  0.00  0.00     0.116 H 
ATOM     52  N1  LB5 d   1      55.535  72.305  12.227  0.00  0.00    -0.179 NA
ATOM     53  C9  LB5 d   1      56.201  71.418  12.949  0.00  0.00     0.039 A 
ATOM     54  H6  LB5 d   1      56.599  70.487  12.549  0.00  0.00     0.119 H 
BRANCH  50  55
ATOM     55  C6  LB5 d   1      54.307  74.336  12.721  0.00  0.00     0.064 A 
ATOM     56  C5  LB5 d   1      52.963  74.280  13.106  0.00  0.00    -0.055 A 
ATOM     57  C4  LB5 d   1      52.093  75.257  12.658  0.00  0.00    -0.081 A 
ATOM     58  H4  LB5 d   1      52.608  73.481  13.747  0.00  0.00     0.087 H 
ATOM     59  C3  LB5 d   1      52.553  76.280  11.850  0.00  0.00    -0.082 A 
ATOM     60  H2  LB5 d   1      51.047  75.221  12.941  0.00  0.00     0.083 H 
ATOM     61  C2  LB5 d   1      53.884  76.335  11.491  0.00  0.00    -0.075 A 
ATOM     62  H7  LB5 d   1      51.866  77.041  11.498  0.00  0.00     0.083 H 
ATOM     63  C1  LB5 d   1      54.795  75.359  11.923  0.00  0.00    -0.033 A 
ATOM     64  H1  LB5 d   1      54.233  77.147  10.864  0.00  0.00     0.084 H 
BRANCH  63  65
ATOM     65  C   LB5 d   1      56.250  75.476  11.574  0.00  0.00    -0.049 C 
ATOM     66  H8  LB5 d   1      56.404  76.358  10.935  0.00  0.00     0.033 H 
ATOM     67  H9  LB5 d   1      56.572  74.573  11.035  0.00  0.00     0.033 H 
ATOM     68  H10 LB5 d   1      56.841  75.583  12.496  0.00  0.00     0.033 H 
ENDBRANCH  63  65
ENDBRANCH  50  55
ENDBRANCH  45  48
ENDBRANCH  41  44
ENDBRANCH   2  41
TORSDOF 11
