REMARK  11 active torsions:
REMARK  status: ('A' for Active; 'I' for Inactive)
REMARK       I    between atoms: C18_9  and  N3_4 
REMARK    1  A    between atoms: N3_4  and  C19_10 
REMARK    2  A    between atoms: C4_5  and  C18_9 
REMARK       I    between atoms: C28_11  and  N4_6 
REMARK    3  A    between atoms: N_24  and  C6_8 
REMARK    4  A    between atoms: C19_10  and  C28_11 
REMARK    5  A    between atoms: C19_10  and  C20_13 
REMARK    6  A    between atoms: C20_13  and  C21_14 
REMARK    7  A    between atoms: C21_14  and  C22_15 
REMARK    8  A    between atoms: C1_22  and  C_23 
REMARK       I    between atoms: C7_25  and  N_24 
REMARK    9  A    between atoms: C8_27  and  C7_25 
REMARK   10  A    between atoms: N2_29  and  C11_31 
REMARK   11  A    between atoms: C16_32  and  C17_33 
ROOT
ATOM      1  C2  LBB d   1      -5.143  40.366  16.698  0.00  0.00    -0.074 A 
ATOM      2  C4  LBB d   1      -2.763  40.803  16.772  0.00  0.00     0.034 A 
ATOM      3  C5  LBB d   1      -2.653  39.880  17.821  0.00  0.00    -0.041 A 
ATOM      4  C6  LBB d   1      -3.766  39.164  18.282  0.00  0.00     0.042 A 
ATOM      5  C3  LBB d   1      -4.027  41.048  16.227  0.00  0.00    -0.067 A 
ATOM      6  C1  LBB d   1      -5.056  39.430  17.735  0.00  0.00    -0.035 A 
ATOM      7  H1  LBB d   1      -6.109  40.565  16.249  0.00  0.00     0.084 H 
ATOM      8  H5  LBB d   1      -1.687  39.717  18.285  0.00  0.00     0.088 H 
ATOM      9  H22 LBB d   1      -4.138  41.775  15.431  0.00  0.00     0.085 H 
ENDROOT
BRANCH   2  10
ATOM     10  C18 LBB d   1      -1.475  41.297  16.136  0.00  0.00     0.252 C 
ATOM     11  O2  LBB d   1      -0.381  40.810  16.464  0.00  0.00    -0.268 OA
ATOM     12  N3  LBB d   1      -1.573  42.261  15.197  0.00  0.00    -0.344 N 
ATOM     13  H2  LBB d   1      -2.467  42.681  15.043  0.00  0.00     0.163 HD
BRANCH  12  14
ATOM     14  C19 LBB d   1      -0.440  42.726  14.390  0.00  0.00     0.089 C 
ATOM     15  H6  LBB d   1       0.494  42.555  14.946  0.00  0.00     0.087 H 
BRANCH  14  16
ATOM     16  C28 LBB d   1      -0.590  44.234  14.128  0.00  0.00     0.238 C 
ATOM     17  N4  LBB d   1      -0.425  45.049  15.172  0.00  0.00    -0.368 N 
ATOM     18  H3  LBB d   1      -0.512  46.038  15.053  0.00  0.00     0.159 HD
ATOM     19  H4  LBB d   1      -0.214  44.671  16.073  0.00  0.00     0.159 HD
ATOM     20  O1  LBB d   1      -0.835  44.648  12.987  0.00  0.00    -0.271 OA
ENDBRANCH  14  16
BRANCH  14  21
ATOM     21  C20 LBB d   1      -0.385  41.929  13.079  0.00  0.00    -0.037 C 
ATOM     22  H7  LBB d   1      -1.272  42.211  12.493  0.00  0.00     0.036 H 
ATOM     23  H8  LBB d   1      -0.445  40.864  13.347  0.00  0.00     0.036 H 
BRANCH  21  24
ATOM     24  C21 LBB d   1       0.829  42.092  12.160  0.00  0.00    -0.059 C 
ATOM     25  H9  LBB d   1       0.858  43.146  11.846  0.00  0.00     0.033 H 
ATOM     26  H10 LBB d   1       0.658  41.452  11.282  0.00  0.00     0.033 H 
BRANCH  24  27
ATOM     27  C22 LBB d   1       2.210  41.749  12.701  0.00  0.00    -0.054 C 
ATOM     28  C27 LBB d   1       3.292  41.937  11.614  0.00  0.00    -0.062 C 
ATOM     29  C26 LBB d   1       4.684  41.492  12.069  0.00  0.00    -0.065 C 
ATOM     30  H12 LBB d   1       3.336  43.002  11.344  0.00  0.00     0.033 H 
ATOM     31  H13 LBB d   1       3.007  41.347  10.731  0.00  0.00     0.033 H 
ATOM     32  C25 LBB d   1       4.666  40.076  12.579  0.00  0.00    -0.065 C 
ATOM     33  H14 LBB d   1       5.028  42.158  12.874  0.00  0.00     0.033 H 
ATOM     34  H15 LBB d   1       5.377  41.557  11.217  0.00  0.00     0.033 H 
ATOM     35  C24 LBB d   1       3.655  39.926  13.716  0.00  0.00    -0.065 C 
ATOM     36  H16 LBB d   1       5.668  39.812  12.949  0.00  0.00     0.033 H 
ATOM     37  H17 LBB d   1       4.389  39.399  11.757  0.00  0.00     0.033 H 
ATOM     38  C23 LBB d   1       2.261  40.334  13.260  0.00  0.00    -0.062 C 
ATOM     39  H18 LBB d   1       3.961  40.566  14.557  0.00  0.00     0.033 H 
ATOM     40  H19 LBB d   1       3.634  38.876  14.043  0.00  0.00     0.033 H 
ATOM     41  H20 LBB d   1       1.929  39.636  12.478  0.00  0.00     0.033 H 
ATOM     42  H21 LBB d   1       1.578  40.272  14.120  0.00  0.00     0.033 H 
ATOM     43  H11 LBB d   1       2.430  42.445  13.524  0.00  0.00     0.040 H 
ENDBRANCH  24  27
ENDBRANCH  21  24
ENDBRANCH  14  21
ENDBRANCH  12  14
ENDBRANCH   2  10
BRANCH   4  44
ATOM     44  N   LBB d   1      -3.762  38.402  19.472  0.00  0.00    -0.322 N 
ATOM     45  C7  LBB d   1      -3.404  38.744  20.687  0.00  0.00     0.259 C 
ATOM     46  O   LBB d   1      -3.451  39.920  21.041  0.00  0.00    -0.267 OA
ATOM     47  H26 LBB d   1      -4.080  37.459  19.373  0.00  0.00     0.169 HD
BRANCH  45  48
ATOM     48  C8  LBB d   1      -3.183  37.666  21.690  0.00  0.00     0.069 A 
ATOM     49  C10 LBB d   1      -2.913  37.915  23.021  0.00  0.00     0.021 A 
ATOM     50  N2  LBB d   1      -2.804  36.719  23.634  0.00  0.00    -0.244 N 
ATOM     51  H27 LBB d   1      -2.808  38.893  23.488  0.00  0.00     0.116 H 
ATOM     52  N1  LBB d   1      -3.001  35.681  22.771  0.00  0.00    -0.179 NA
ATOM     53  C9  LBB d   1      -3.234  36.261  21.609  0.00  0.00     0.039 A 
ATOM     54  H28 LBB d   1      -3.442  35.715  20.690  0.00  0.00     0.119 H 
BRANCH  50  55
ATOM     55  C11 LBB d   1      -2.525  36.450  25.009  0.00  0.00     0.064 A 
ATOM     56  C16 LBB d   1      -1.211  36.489  25.471  0.00  0.00    -0.033 A 
ATOM     57  C15 LBB d   1      -0.991  36.185  26.818  0.00  0.00    -0.075 A 
ATOM     58  C14 LBB d   1      -2.038  35.860  27.663  0.00  0.00    -0.082 A 
ATOM     59  H32 LBB d   1       0.020  36.204  27.208  0.00  0.00     0.084 H 
ATOM     60  C13 LBB d   1      -3.333  35.839  27.186  0.00  0.00    -0.081 A 
ATOM     61  H33 LBB d   1      -1.840  35.621  28.702  0.00  0.00     0.083 H 
ATOM     62  C12 LBB d   1      -3.592  36.136  25.857  0.00  0.00    -0.055 A 
ATOM     63  H34 LBB d   1      -4.150  35.589  27.853  0.00  0.00     0.083 H 
ATOM     64  H35 LBB d   1      -4.608  36.125  25.480  0.00  0.00     0.087 H 
BRANCH  56  65
ATOM     65  C17 LBB d   1      -0.056  36.850  24.574  0.00  0.00    -0.049 C 
ATOM     66  H29 LBB d   1       0.880  36.816  25.150  0.00  0.00     0.033 H 
ATOM     67  H30 LBB d   1      -0.204  37.864  24.175  0.00  0.00     0.033 H 
ATOM     68  H31 LBB d   1      -0.000  36.133  23.741  0.00  0.00     0.033 H 
ENDBRANCH  56  65
ENDBRANCH  50  55
ENDBRANCH  45  48
ENDBRANCH   4  44
BRANCH   6  69
ATOM     69  C   LBB d   1      -6.312  38.882  18.379  0.00  0.00    -0.049 C 
ATOM     70  H23 LBB d   1      -7.191  39.204  17.801  0.00  0.00     0.033 H 
ATOM     71  H24 LBB d   1      -6.391  39.261  19.409  0.00  0.00     0.033 H 
ATOM     72  H25 LBB d   1      -6.266  37.783  18.395  0.00  0.00     0.033 H 
ENDBRANCH   6  69
TORSDOF 11
