REMARK  11 active torsions:
REMARK  status: ('A' for Active; 'I' for Inactive)
REMARK       I    between atoms: C18_9  and  N3_4 
REMARK    1  A    between atoms: N3_4  and  C19_10 
REMARK    2  A    between atoms: C4_5  and  C18_9 
REMARK       I    between atoms: C28_11  and  N4_6 
REMARK    3  A    between atoms: N_24  and  C6_8 
REMARK    4  A    between atoms: C19_10  and  C28_11 
REMARK    5  A    between atoms: C19_10  and  C20_13 
REMARK    6  A    between atoms: C20_13  and  C21_14 
REMARK    7  A    between atoms: C21_14  and  C22_15 
REMARK    8  A    between atoms: C1_22  and  C_23 
REMARK       I    between atoms: C7_25  and  N_24 
REMARK    9  A    between atoms: C8_27  and  C7_25 
REMARK   10  A    between atoms: C16_28  and  C17_29 
REMARK   11  A    between atoms: N2_33  and  C10_35 
ROOT
ATOM      1  C2  LB8 d   1      -5.181  40.237  16.531  0.00  0.00    -0.074 A 
ATOM      2  C4  LB8 d   1      -2.786  40.535  16.392  0.00  0.00     0.034 A 
ATOM      3  C5  LB8 d   1      -2.645  39.673  17.467  0.00  0.00    -0.041 A 
ATOM      4  C6  LB8 d   1      -3.765  39.101  18.081  0.00  0.00     0.042 A 
ATOM      5  C3  LB8 d   1      -4.067  40.811  15.923  0.00  0.00    -0.067 A 
ATOM      6  C1  LB8 d   1      -5.060  39.386  17.620  0.00  0.00    -0.035 A 
ATOM      7  H1  LB8 d   1      -6.168  40.461  16.143  0.00  0.00     0.084 H 
ATOM      8  H5  LB8 d   1      -1.654  39.438  17.838  0.00  0.00     0.088 H 
ATOM      9  H22 LB8 d   1      -4.199  41.478  15.078  0.00  0.00     0.085 H 
ENDROOT
BRANCH   2  10
ATOM     10  C18 LB8 d   1      -1.518  41.085  15.777  0.00  0.00     0.252 C 
ATOM     11  O2  LB8 d   1      -0.417  40.573  16.019  0.00  0.00    -0.268 OA
ATOM     12  N3  LB8 d   1      -1.635  42.126  14.943  0.00  0.00    -0.344 N 
ATOM     13  H2  LB8 d   1      -2.532  42.551  14.819  0.00  0.00     0.163 HD
BRANCH  12  14
ATOM     14  C19 LB8 d   1      -0.486  42.659  14.208  0.00  0.00     0.089 C 
ATOM     15  H6  LB8 d   1       0.433  42.421  14.763  0.00  0.00     0.087 H 
BRANCH  14  16
ATOM     16  C28 LB8 d   1      -0.598  44.189  14.119  0.00  0.00     0.238 C 
ATOM     17  N4  LB8 d   1      -0.525  44.863  15.256  0.00  0.00    -0.368 N 
ATOM     18  H3  LB8 d   1      -0.593  45.861  15.251  0.00  0.00     0.159 HD
ATOM     19  H4  LB8 d   1      -0.402  44.374  16.120  0.00  0.00     0.159 HD
ATOM     20  O1  LB8 d   1      -0.793  44.731  13.031  0.00  0.00    -0.271 OA
ENDBRANCH  14  16
BRANCH  14  21
ATOM     21  C20 LB8 d   1      -0.411  41.955  12.840  0.00  0.00    -0.037 C 
ATOM     22  H7  LB8 d   1      -1.267  42.328  12.258  0.00  0.00     0.036 H 
ATOM     23  H8  LB8 d   1      -0.545  40.882  13.042  0.00  0.00     0.036 H 
BRANCH  21  24
ATOM     24  C21 LB8 d   1       0.815  42.065  11.913  0.00  0.00    -0.059 C 
ATOM     25  H9  LB8 d   1       0.892  43.114  11.590  0.00  0.00     0.033 H 
ATOM     26  H10 LB8 d   1       0.626  41.425  11.038  0.00  0.00     0.033 H 
BRANCH  24  27
ATOM     27  C22 LB8 d   1       2.187  41.657  12.500  0.00  0.00    -0.054 C 
ATOM     28  C27 LB8 d   1       3.278  41.863  11.462  0.00  0.00    -0.062 C 
ATOM     29  C26 LB8 d   1       4.653  41.418  11.959  0.00  0.00    -0.065 C 
ATOM     30  H12 LB8 d   1       3.325  42.932  11.207  0.00  0.00     0.033 H 
ATOM     31  H13 LB8 d   1       3.023  41.282  10.563  0.00  0.00     0.033 H 
ATOM     32  C25 LB8 d   1       4.641  39.975  12.435  0.00  0.00    -0.065 C 
ATOM     33  H14 LB8 d   1       4.957  42.066  12.794  0.00  0.00     0.033 H 
ATOM     34  H15 LB8 d   1       5.378  41.516  11.137  0.00  0.00     0.033 H 
ATOM     35  C24 LB8 d   1       3.588  39.774  13.506  0.00  0.00    -0.065 C 
ATOM     36  H16 LB8 d   1       5.629  39.722  12.848  0.00  0.00     0.033 H 
ATOM     37  H17 LB8 d   1       4.420  39.315  11.583  0.00  0.00     0.033 H 
ATOM     38  C23 LB8 d   1       2.213  40.206  12.995  0.00  0.00    -0.062 C 
ATOM     39  H18 LB8 d   1       3.851  40.375  14.389  0.00  0.00     0.033 H 
ATOM     40  H19 LB8 d   1       3.553  38.710  13.784  0.00  0.00     0.033 H 
ATOM     41  H20 LB8 d   1       1.925  39.547  12.163  0.00  0.00     0.033 H 
ATOM     42  H21 LB8 d   1       1.486  40.102  13.814  0.00  0.00     0.033 H 
ATOM     43  H11 LB8 d   1       2.395  42.312  13.359  0.00  0.00     0.040 H 
ENDBRANCH  24  27
ENDBRANCH  21  24
ENDBRANCH  14  21
ENDBRANCH  12  14
ENDBRANCH   2  10
BRANCH   4  44
ATOM     44  N   LB8 d   1      -3.613  38.287  19.247  0.00  0.00    -0.322 N 
ATOM     45  C7  LB8 d   1      -3.031  38.684  20.384  0.00  0.00     0.260 C 
ATOM     46  O   LB8 d   1      -2.662  39.835  20.576  0.00  0.00    -0.267 OA
ATOM     47  H26 LB8 d   1      -3.968  37.353  19.209  0.00  0.00     0.169 HD
BRANCH  45  48
ATOM     48  C8  LB8 d   1      -2.866  37.640  21.452  0.00  0.00     0.085 A 
ATOM     49  C16 LB8 d   1      -2.484  37.925  22.758  0.00  0.00     0.159 A 
ATOM     50  N2  LB8 d   1      -2.272  36.726  23.367  0.00  0.00    -0.228 N 
ATOM     51  N1  LB8 d   1      -2.525  35.677  22.529  0.00  0.00    -0.178 NA
ATOM     52  C9  LB8 d   1      -2.897  36.237  21.385  0.00  0.00     0.040 A 
ATOM     53  H27 LB8 d   1      -3.191  35.676  20.499  0.00  0.00     0.119 H 
BRANCH  49  54
ATOM     54  C17 LB8 d   1      -2.301  39.236  23.453  0.00  0.00     0.435 C 
ATOM     55  F2  LB8 d   1      -2.276  39.114  24.782  0.00  0.00    -0.165 F 
ATOM     56  F1  LB8 d   1      -1.141  39.874  23.112  0.00  0.00    -0.165 F 
ATOM     57  F   LB8 d   1      -3.280  40.068  23.183  0.00  0.00    -0.165 F 
ENDBRANCH  49  54
BRANCH  50  58
ATOM     58  C10 LB8 d   1      -1.708  36.452  24.649  0.00  0.00     0.059 A 
ATOM     59  C15 LB8 d   1      -2.498  35.922  25.664  0.00  0.00    -0.055 A 
ATOM     60  C14 LB8 d   1      -1.935  35.660  26.908  0.00  0.00    -0.081 A 
ATOM     61  H28 LB8 d   1      -3.547  35.714  25.486  0.00  0.00     0.087 H 
ATOM     62  C13 LB8 d   1      -0.605  35.948  27.147  0.00  0.00    -0.083 A 
ATOM     63  H29 LB8 d   1      -2.543  35.227  27.695  0.00  0.00     0.083 H 
ATOM     64  C12 LB8 d   1       0.176  36.495  26.141  0.00  0.00    -0.081 A 
ATOM     65  H30 LB8 d   1      -0.173  35.746  28.120  0.00  0.00     0.083 H 
ATOM     66  C11 LB8 d   1      -0.369  36.741  24.887  0.00  0.00    -0.055 A 
ATOM     67  H31 LB8 d   1       1.216  36.732  26.334  0.00  0.00     0.083 H 
ATOM     68  H32 LB8 d   1       0.247  37.156  24.098  0.00  0.00     0.087 H 
ENDBRANCH  50  58
ENDBRANCH  45  48
ENDBRANCH   4  44
BRANCH   6  69
ATOM     69  C   LB8 d   1      -6.294  38.827  18.322  0.00  0.00    -0.049 C 
ATOM     70  H23 LB8 d   1      -7.200  39.171  17.801  0.00  0.00     0.033 H 
ATOM     71  H24 LB8 d   1      -6.314  39.179  19.364  0.00  0.00     0.033 H 
ATOM     72  H25 LB8 d   1      -6.258  37.728  18.307  0.00  0.00     0.033 H 
ENDBRANCH   6  69
TORSDOF 11
