REMARK  7 active torsions:
REMARK  status: ('A' for Active; 'I' for Inactive)
REMARK    1  A    between atoms: C15_3  and  O16_14 
REMARK    2  A    between atoms: C17_4  and  C20_5 
REMARK    3  A    between atoms: O16_14  and  C17_4 
REMARK    4  A    between atoms: C04_9  and  N01_8 
REMARK    5  A    between atoms: C04_9  and  C07_11 
REMARK    6  A    between atoms: C12_13  and  C30_18 
REMARK    7  A    between atoms: B45_26  and  O46_27 
ROOT
ATOM      1  C10 LH5 d   1     -34.631 -22.968 -22.728  0.00  0.00    -0.073 A 
ATOM      2  C13 LH5 d   1     -34.535 -24.020 -20.581  0.00  0.00    -0.041 A 
ATOM      3  C15 LH5 d   1     -34.557 -25.268 -21.187  0.00  0.00     0.083 A 
ATOM      4  C07 LH5 d   1     -34.613 -25.384 -22.587  0.00  0.00     0.040 A 
ATOM      5  C08 LH5 d   1     -34.647 -24.206 -23.343  0.00  0.00    -0.066 A 
ATOM      6  C12 LH5 d   1     -34.572 -22.856 -21.345  0.00  0.00    -0.028 A 
ATOM      7  H1  LH5 d   1     -34.665 -22.070 -23.335  0.00  0.00     0.084 H 
ATOM      8  H2  LH5 d   1     -34.489 -23.950 -19.500  0.00  0.00     0.088 H 
ATOM      9  H11 LH5 d   1     -34.686 -24.265 -24.425  0.00  0.00     0.085 H 
ENDROOT
BRANCH   6  10
ATOM     10  C30 LH5 d   1     -34.534 -21.507 -20.662  0.00  0.00     0.049 C 
ATOM     11  C32 LH5 d   1     -35.661 -21.294 -19.665  0.00  0.00    -0.015 C 
ATOM     12  C35 LH5 d   1     -35.592 -19.917 -19.049  0.00  0.00    -0.058 A 
ATOM     13  H15 LH5 d   1     -35.582 -22.048 -18.868  0.00  0.00     0.044 H 
ATOM     14  H16 LH5 d   1     -36.625 -21.407 -20.183  0.00  0.00     0.044 H 
ATOM     15  C36 LH5 d   1     -36.034 -19.698 -17.744  0.00  0.00    -0.077 A 
ATOM     16  C44 LH5 d   1     -35.137 -18.830 -19.832  0.00  0.00    -0.065 A 
ATOM     17  C38 LH5 d   1     -36.017 -18.427 -17.191  0.00  0.00    -0.083 A 
ATOM     18  H17 LH5 d   1     -36.395 -20.533 -17.155  0.00  0.00     0.084 H 
ATOM     19  C40 LH5 d   1     -35.556 -17.359 -17.934  0.00  0.00    -0.083 A 
ATOM     20  H18 LH5 d   1     -36.365 -18.272 -16.176  0.00  0.00     0.083 H 
ATOM     21  C42 LH5 d   1     -35.119 -17.557 -19.236  0.00  0.00    -0.085 A 
ATOM     22  H19 LH5 d   1     -35.535 -16.366 -17.500  0.00  0.00     0.083 H 
ATOM     23  H20 LH5 d   1     -34.755 -16.710 -19.807  0.00  0.00     0.082 H 
ATOM     24  B45 LH5 d   1     -34.617 -19.098 -21.257  0.00  0.00     0.363 B 
ATOM     25  O48 LH5 d   1     -34.251 -20.390 -21.553  0.00  0.00    -0.443 OA
ATOM     26  H14 LH5 d   1     -33.637 -21.559 -20.028  0.00  0.00     0.088 H 
BRANCH  24  27
ATOM     27  O46 LH5 d   1     -34.064 -18.125 -22.018  0.00  0.00     0.000 OA
ATOM     28  H22 LH5 d   1     -34.303 -18.262 -22.927  0.00  0.00     0.000 HD
ATOM     29  H23 LH5 d   1     -34.303 -18.262 -22.927  0.00  0.00     0.000 HD
ENDBRANCH  24  27
ENDBRANCH   6  10
BRANCH   3  30
ATOM     30  O16 LH5 d   1     -34.514 -26.451 -20.478  0.00  0.00    -0.346 OA
BRANCH  30  31
ATOM     31  C17 LH5 d   1     -34.696 -26.436 -19.048  0.00  0.00     0.051 C 
ATOM     32  H3  LH5 d   1     -35.588 -25.839 -18.806  0.00  0.00     0.082 H 
ATOM     33  H4  LH5 d   1     -34.838 -27.468 -18.694  0.00  0.00     0.082 H 
BRANCH  31  34
ATOM     34  C20 LH5 d   1     -33.501 -25.838 -18.353  0.00  0.00    -0.017 A 
ATOM     35  C21 LH5 d   1     -33.645 -24.995 -17.260  0.00  0.00    -0.072 A 
ATOM     36  C23 LH5 d   1     -32.530 -24.432 -16.666  0.00  0.00    -0.065 A 
ATOM     37  H5  LH5 d   1     -34.633 -24.777 -16.871  0.00  0.00     0.084 H 
ATOM     38  C25 LH5 d   1     -31.290 -24.726 -17.193  0.00  0.00     0.002 A 
ATOM     39  H12 LH5 d   1     -32.628 -23.776 -15.808  0.00  0.00     0.085 H 
ATOM     40  N27 LH5 d   1     -31.114 -25.531 -18.253  0.00  0.00    -0.272 NA
ATOM     41  H13 LH5 d   1     -30.415 -24.286 -16.729  0.00  0.00     0.114 H 
ATOM     42  C28 LH5 d   1     -32.211 -26.071 -18.801  0.00  0.00     0.010 A 
ATOM     43  H6  LH5 d   1     -32.081 -26.733 -19.650  0.00  0.00     0.115 H 
ENDBRANCH  31  34
ENDBRANCH  30  31
ENDBRANCH   3  30
BRANCH   4  44
ATOM     44  C04 LH5 d   1     -34.636 -26.685 -23.304  0.00  0.00     0.105 C 
ATOM     45  N05 LH5 d   1     -33.834 -27.635 -22.948  0.00  0.00    -0.385 N 
ATOM     46  H9  LH5 d   1     -33.197 -27.499 -22.150  0.00  0.00     0.157 HD
ATOM     47  H10 LH5 d   1     -33.832 -28.527 -23.462  0.00  0.00     0.157 HD
BRANCH  44  48
ATOM     48  N01 LH5 d   1     -35.464 -26.885 -24.355  0.00  0.00    -0.385 N 
ATOM     49  H7  LH5 d   1     -36.109 -26.139 -24.652  0.00  0.00     0.157 HD
ATOM     50  H8  LH5 d   1     -35.449 -27.783 -24.858  0.00  0.00     0.157 HD
ENDBRANCH  44  48
ENDBRANCH   4  44
TORSDOF 7
