REMARK  4 active torsions:
REMARK  status: ('A' for Active; 'I' for Inactive)
REMARK    1  A    between atoms: C12_11  and  C17_4 
REMARK    2  A    between atoms: C04_7  and  N01_6 
REMARK    3  A    between atoms: C04_7  and  C07_9 
REMARK    4  A    between atoms: B32_18  and  O33_19 
ROOT
ATOM      1  C17 LH8 d   1     -34.055 -20.924 -20.613  0.00  0.00     0.048 C 
ATOM      2  C22 LH8 d   1     -35.071 -19.204 -19.127  0.00  0.00    -0.058 A 
ATOM      3  C19 LH8 d   1     -35.235 -20.587 -19.717  0.00  0.00    -0.015 C 
ATOM      4  C23 LH8 d   1     -35.395 -18.933 -17.797  0.00  0.00    -0.077 A 
ATOM      5  C25 LH8 d   1     -35.241 -17.659 -17.273  0.00  0.00    -0.083 A 
ATOM      6  C27 LH8 d   1     -34.757 -16.639 -18.068  0.00  0.00    -0.083 A 
ATOM      7  C29 LH8 d   1     -34.435 -16.890 -19.394  0.00  0.00    -0.085 A 
ATOM      8  C31 LH8 d   1     -34.584 -18.167 -19.962  0.00  0.00    -0.065 A 
ATOM      9  B32 LH8 d   1     -34.126 -18.533 -21.385  0.00  0.00     0.363 B 
ATOM     10  O35 LH8 d   1     -33.791 -19.857 -21.575  0.00  0.00    -0.443 OA
ATOM     11  H4  LH8 d   1     -33.175 -20.991 -19.956  0.00  0.00     0.088 H 
ATOM     12  H10 LH8 d   1     -35.294 -21.324 -18.902  0.00  0.00     0.044 H 
ATOM     13  H11 LH8 d   1     -36.161 -20.621 -20.309  0.00  0.00     0.044 H 
ATOM     14  H12 LH8 d   1     -35.772 -19.729 -17.165  0.00  0.00     0.084 H 
ATOM     15  H13 LH8 d   1     -35.501 -17.463 -16.239  0.00  0.00     0.083 H 
ATOM     16  H14 LH8 d   1     -34.629 -15.644 -17.657  0.00  0.00     0.083 H 
ATOM     17  H15 LH8 d   1     -34.059 -16.080 -20.008  0.00  0.00     0.082 H 
ENDROOT
BRANCH   1  18
ATOM     18  C12 LH8 d   1     -34.172 -22.258 -21.314  0.00  0.00    -0.031 A 
ATOM     19  C10 LH8 d   1     -34.246 -22.317 -22.702  0.00  0.00    -0.073 A 
ATOM     20  C08 LH8 d   1     -34.231 -23.530 -23.370  0.00  0.00    -0.069 A 
ATOM     21  H1  LH8 d   1     -34.317 -21.397 -23.271  0.00  0.00     0.084 H 
ATOM     22  C07 LH8 d   1     -34.131 -24.729 -22.668  0.00  0.00     0.007 A 
ATOM     23  H9  LH8 d   1     -34.298 -23.547 -24.452  0.00  0.00     0.085 H 
ATOM     24  C15 LH8 d   1     -34.031 -24.676 -21.277  0.00  0.00    -0.069 A 
ATOM     25  C13 LH8 d   1     -34.032 -23.455 -20.614  0.00  0.00    -0.073 A 
ATOM     26  H3  LH8 d   1     -33.952 -25.596 -20.709  0.00  0.00     0.085 H 
ATOM     27  H2  LH8 d   1     -33.922 -23.433 -19.536  0.00  0.00     0.084 H 
BRANCH  22  28
ATOM     28  C04 LH8 d   1     -34.104 -26.034 -23.397  0.00  0.00     0.102 C 
ATOM     29  N05 LH8 d   1     -34.853 -26.294 -24.426  0.00  0.00    -0.385 N 
ATOM     30  H7  LH8 d   1     -35.553 -25.607 -24.740  0.00  0.00     0.157 HD
ATOM     31  H8  LH8 d   1     -34.747 -27.187 -24.928  0.00  0.00     0.157 HD
BRANCH  28  32
ATOM     32  N01 LH8 d   1     -33.197 -26.949 -23.007  0.00  0.00    -0.385 N 
ATOM     33  H5  LH8 d   1     -32.594 -26.762 -22.194  0.00  0.00     0.157 HD
ATOM     34  H6  LH8 d   1     -33.106 -27.836 -23.522  0.00  0.00     0.157 HD
ENDBRANCH  28  32
ENDBRANCH  22  28
ENDBRANCH   1  18
BRANCH   9  35
ATOM     35  O33 LH8 d   1     -33.433 -17.668 -22.171  0.00  0.00     0.000 OA
ATOM     36  H17 LH8 d   1     -33.597 -17.871 -23.084  0.00  0.00     0.000 HD
ATOM     37  H18 LH8 d   1     -33.597 -17.871 -23.084  0.00  0.00     0.000 HD
ENDBRANCH   9  35
TORSDOF 4
