REMARK  6 active torsions:
REMARK  status: ('A' for Active; 'I' for Inactive)
REMARK    1  A    between atoms: N13_13  and  C15_2 
REMARK    2  A    between atoms: C15_2  and  C18_14 
REMARK    3  A    between atoms: C04_8  and  N01_7 
REMARK    4  A    between atoms: C07_10  and  C04_8 
REMARK    5  A    between atoms: C12_12  and  N13_13 
REMARK    6  A    between atoms: B33_18  and  O34_19 
ROOT
ATOM      1  C15 LH2 d   1     -35.720 -21.636 -19.349  0.00  0.00     0.015 C 
ATOM      2  H2  LH2 d   1     -36.132 -22.268 -18.549  0.00  0.00     0.067 H 
ATOM      3  H3  LH2 d   1     -36.516 -21.387 -20.067  0.00  0.00     0.067 H 
ENDROOT
BRANCH   1   4
ATOM      4  N13 LH2 d   1     -34.628 -22.314 -20.018  0.00  0.00    -0.388 N 
ATOM      5  H14 LH2 d   1     -33.669 -21.985 -19.834  0.00  0.00     0.159 HD
BRANCH   4   6
ATOM      6  C12 LH2 d   1     -34.794 -23.374 -20.886  0.00  0.00     0.028 A 
ATOM      7  C10 LH2 d   1     -35.137 -23.155 -22.218  0.00  0.00    -0.057 A 
ATOM      8  C08 LH2 d   1     -35.215 -24.220 -23.104  0.00  0.00    -0.067 A 
ATOM      9  H1  LH2 d   1     -35.344 -22.149 -22.564  0.00  0.00     0.086 H 
ATOM     10  C07 LH2 d   1     -34.919 -25.519 -22.686  0.00  0.00     0.007 A 
ATOM     11  H13 LH2 d   1     -35.509 -24.042 -24.132  0.00  0.00     0.085 H 
ATOM     12  C39 LH2 d   1     -34.556 -25.725 -21.355  0.00  0.00    -0.067 A 
ATOM     13  C37 LH2 d   1     -34.476 -24.664 -20.469  0.00  0.00    -0.057 A 
ATOM     14  H22 LH2 d   1     -34.334 -26.728 -21.010  0.00  0.00     0.085 H 
ATOM     15  H21 LH2 d   1     -34.164 -24.838 -19.446  0.00  0.00     0.086 H 
BRANCH  10  16
ATOM     16  C04 LH2 d   1     -34.973 -26.660 -23.644  0.00  0.00     0.102 C 
ATOM     17  N05 LH2 d   1     -35.473 -26.591 -24.833  0.00  0.00    -0.385 N 
ATOM     18  H11 LH2 d   1     -35.890 -25.710 -25.166  0.00  0.00     0.157 HD
ATOM     19  H12 LH2 d   1     -35.454 -27.417 -25.448  0.00  0.00     0.157 HD
BRANCH  16  20
ATOM     20  N01 LH2 d   1     -34.438 -27.821 -23.243  0.00  0.00    -0.385 N 
ATOM     21  H9  LH2 d   1     -34.033 -27.903 -22.300  0.00  0.00     0.157 HD
ATOM     22  H10 LH2 d   1     -34.432 -28.632 -23.878  0.00  0.00     0.157 HD
ENDBRANCH  16  20
ENDBRANCH  10  16
ENDBRANCH   4   6
ENDBRANCH   1   4
BRANCH   1  23
ATOM     23  C18 LH2 d   1     -35.119 -20.375 -18.769  0.00  0.00     0.038 C 
ATOM     24  C20 LH2 d   1     -36.213 -19.624 -18.046  0.00  0.00    -0.018 C 
ATOM     25  C23 LH2 d   1     -35.953 -18.131 -18.062  0.00  0.00    -0.058 A 
ATOM     26  H4  LH2 d   1     -36.257 -19.970 -17.003  0.00  0.00     0.043 H 
ATOM     27  H5  LH2 d   1     -37.175 -19.826 -18.540  0.00  0.00     0.043 H 
ATOM     28  C24 LH2 d   1     -36.492 -17.337 -17.050  0.00  0.00    -0.077 A 
ATOM     29  C32 LH2 d   1     -35.310 -17.521 -19.167  0.00  0.00    -0.065 A 
ATOM     30  C26 LH2 d   1     -36.364 -15.956 -17.083  0.00  0.00    -0.083 A 
ATOM     31  H6  LH2 d   1     -37.018 -17.805 -16.226  0.00  0.00     0.084 H 
ATOM     32  C28 LH2 d   1     -35.703 -15.349 -18.130  0.00  0.00    -0.083 A 
ATOM     33  H7  LH2 d   1     -36.784 -15.354 -16.285  0.00  0.00     0.083 H 
ATOM     34  C30 LH2 d   1     -35.156 -16.124 -19.144  0.00  0.00    -0.085 A 
ATOM     35  H8  LH2 d   1     -35.611 -14.269 -18.161  0.00  0.00     0.083 H 
ATOM     36  H16 LH2 d   1     -34.597 -15.640 -19.937  0.00  0.00     0.082 H 
ATOM     37  B33 LH2 d   1     -34.719 -18.436 -20.249  0.00  0.00     0.363 B 
ATOM     38  O36 LH2 d   1     -34.400 -19.693 -19.804  0.00  0.00    -0.446 OA
ATOM     39  H15 LH2 d   1     -34.377 -20.659 -18.008  0.00  0.00     0.083 H 
BRANCH  37  40
ATOM     40  O34 LH2 d   1     -33.979 -17.973 -21.282  0.00  0.00     0.000 OA
ATOM     41  H18 LH2 d   1     -34.080 -18.553 -22.027  0.00  0.00     0.000 HD
ATOM     42  H19 LH2 d   1     -34.080 -18.553 -22.027  0.00  0.00     0.000 HD
ENDBRANCH  37  40
ENDBRANCH   1  23
TORSDOF 6
