REMARK  10 active torsions:
REMARK  status: ('A' for Active; 'I' for Inactive)
REMARK    1  A    between atoms: C1_1  and  C_31 
REMARK    2  A    between atoms: C3_3  and  N5_34 
REMARK    3  A    between atoms: C9_7  and  C11_9 
REMARK    4  A    between atoms: C11_9  and  O1_24 
REMARK    5  A    between atoms: O1_24  and  C12_10 
REMARK    6  A    between atoms: C13_11  and  C14_12 
REMARK    7  A    between atoms: N4_23  and  C13_11 
REMARK    8  A    between atoms: N5_34  and  C20_16 
REMARK    9  A    between atoms: C5_29  and  C4_30 
REMARK   10  A    between atoms: N7_35  and  C23_36 
ROOT
ATOM      1  C7  LHZ d   1      -1.978   4.533  12.350  0.00  0.00     0.199 A 
ATOM      2  C8  LHZ d   1      -0.647   4.628  11.692  0.00  0.00     0.290 C 
ATOM      3  C9  LHZ d   1       0.039   6.277  13.449  0.00  0.00     0.051 C 
ATOM      4  C10 LHZ d   1      -1.107   5.804  14.320  0.00  0.00     0.022 C 
ATOM      5  N4  LHZ d   1       0.271   5.463  12.243  0.00  0.00    -0.333 N 
ATOM      6  N2  LHZ d   1      -2.187   5.264  13.490  0.00  0.00    -0.333 N 
ATOM      7  C6  LHZ d   1      -3.513   5.172  13.777  0.00  0.00     0.012 A 
ATOM      8  O   LHZ d   1      -0.404   3.946  10.704  0.00  0.00    -0.264 OA
ATOM      9  N3  LHZ d   1      -3.097   3.913  11.961  0.00  0.00    -0.222 NA
ATOM     10  C5  LHZ d   1      -4.047   4.286  12.881  0.00  0.00     0.104 A 
ATOM     11  H2  LHZ d   1       0.955   6.212  14.055  0.00  0.00     0.078 H 
ATOM     12  H3  LHZ d   1      -1.490   6.651  14.908  0.00  0.00     0.068 H 
ATOM     13  H4  LHZ d   1      -0.746   5.019  15.001  0.00  0.00     0.068 H 
ATOM     14  H17 LHZ d   1      -4.046   5.700  14.566  0.00  0.00     0.115 H 
ENDROOT
BRANCH  10  15
ATOM     15  C4  LHZ d   1      -5.433   3.799  12.809  0.00  0.00     0.113 A 
ATOM     16  C1  LHZ d   1      -5.941   2.633  12.007  0.00  0.00    -0.012 A 
ATOM     17  C2  LHZ d   1      -7.279   2.316  12.207  0.00  0.00     0.029 A 
ATOM     18  N   LHZ d   1      -8.120   3.001  12.990  0.00  0.00    -0.074 NA
ATOM     19  H1  LHZ d   1      -7.671   1.448  11.689  0.00  0.00     0.116 H 
ATOM     20  C3  LHZ d   1      -7.591   4.075  13.595  0.00  0.00     0.728 A 
ATOM     21  N1  LHZ d   1      -6.309   4.485  13.560  0.00  0.00    -0.060 NA
BRANCH  16  22
ATOM     22  C   LHZ d   1      -5.081   1.759  11.125  0.00  0.00    -0.048 C 
ATOM     23  H18 LHZ d   1      -5.705   0.984  10.657  0.00  0.00     0.033 H 
ATOM     24  H19 LHZ d   1      -4.298   1.282  11.733  0.00  0.00     0.033 H 
ATOM     25  H20 LHZ d   1      -4.613   2.375  10.343  0.00  0.00     0.033 H 
ENDBRANCH  16  22
BRANCH  20  26
ATOM     26  N5  LHZ d   1      -8.434   4.905  14.300  0.00  0.00    -0.171 N 
ATOM     27  H21 LHZ d   1      -9.440   4.759  14.136  0.00  0.00     0.186 HD
BRANCH  26  28
ATOM     28  C20 LHZ d   1      -8.113   5.913  15.203  0.00  0.00     0.140 A 
ATOM     29  C21 LHZ d   1      -6.992   6.135  15.972  0.00  0.00    -0.020 A 
ATOM     30  C22 LHZ d   1      -7.375   7.116  16.879  0.00  0.00     0.025 A 
ATOM     31  H15 LHZ d   1      -6.021   5.649  15.888  0.00  0.00     0.091 H 
ATOM     32  N6  LHZ d   1      -8.629   7.513  16.699  0.00  0.00    -0.184 NA
ATOM     33  H16 LHZ d   1      -6.719   7.515  17.652  0.00  0.00     0.117 H 
ATOM     34  N7  LHZ d   1      -9.064   6.755  15.655  0.00  0.00    -0.258 N 
BRANCH  34  35
ATOM     35  C23 LHZ d   1     -10.399   7.000  15.117  0.00  0.00     0.004 C 
ATOM     36  H22 LHZ d   1     -10.592   6.307  14.284  0.00  0.00     0.059 H 
ATOM     37  H23 LHZ d   1     -10.464   8.036  14.754  0.00  0.00     0.059 H 
ATOM     38  H24 LHZ d   1     -11.148   6.841  15.907  0.00  0.00     0.059 H 
ENDBRANCH  34  35
ENDBRANCH  26  28
ENDBRANCH  20  26
ENDBRANCH  10  15
BRANCH   3  39
ATOM     39  C11 LHZ d   1      -0.179   7.737  13.090  0.00  0.00     0.039 C 
ATOM     40  H5  LHZ d   1       0.679   8.107  12.510  0.00  0.00     0.077 H 
ATOM     41  H6  LHZ d   1      -0.284   8.332  14.009  0.00  0.00     0.077 H 
BRANCH  39  42
ATOM     42  O1  LHZ d   1      -1.356   7.844  12.318  0.00  0.00    -0.394 OA
BRANCH  42  43
ATOM     43  C12 LHZ d   1      -1.570   9.168  11.868  0.00  0.00     0.004 C 
ATOM     44  H7  LHZ d   1      -2.494   9.208  11.272  0.00  0.00     0.066 H 
ATOM     45  H8  LHZ d   1      -0.720   9.486  11.247  0.00  0.00     0.066 H 
ATOM     46  H9  LHZ d   1      -1.663   9.839  12.734  0.00  0.00     0.066 H 
ENDBRANCH  42  43
ENDBRANCH  39  42
ENDBRANCH   3  39
BRANCH   5  47
ATOM     47  C13 LHZ d   1       1.630   5.488  11.697  0.00  0.00     0.022 C 
ATOM     48  H10 LHZ d   1       2.313   5.783  12.507  0.00  0.00     0.071 H 
ATOM     49  H11 LHZ d   1       1.877   4.470  11.362  0.00  0.00     0.071 H 
BRANCH  47  50
ATOM     50  C14 LHZ d   1       1.861   6.429  10.530  0.00  0.00    -0.037 A 
ATOM     51  C15 LHZ d   1       3.154   6.653  10.070  0.00  0.00    -0.072 A 
ATOM     52  C16 LHZ d   1       3.403   7.511   9.013  0.00  0.00    -0.042 A 
ATOM     53  H12 LHZ d   1       3.983   6.145  10.549  0.00  0.00     0.084 H 
ATOM     54  C17 LHZ d   1       2.344   8.149   8.419  0.00  0.00     0.154 A 
ATOM     55  H13 LHZ d   1       4.415   7.676   8.661  0.00  0.00     0.088 H 
ATOM     56  F1  LHZ d   1       2.567   9.044   7.429  0.00  0.00    -0.203 F 
ATOM     57  C18 LHZ d   1       1.062   7.933   8.853  0.00  0.00     0.155 A 
ATOM     58  C19 LHZ d   1       0.800   7.081   9.901  0.00  0.00    -0.035 A 
ATOM     59  F   LHZ d   1       0.045   8.596   8.253  0.00  0.00    -0.203 F 
ATOM     60  H14 LHZ d   1      -0.219   6.918  10.234  0.00  0.00     0.089 H 
ENDBRANCH  47  50
ENDBRANCH   5  47
TORSDOF 10
