REMARK  6 active torsions:
REMARK  status: ('A' for Active; 'I' for Inactive)
REMARK    1  A    between atoms: C2_2  and  C1_1 
REMARK    2  A    between atoms: C2_2  and  C3_3 
REMARK    3  A    between atoms: C4_19  and  C2_2 
REMARK    4  A    between atoms: C11_7  and  C22_15 
REMARK    5  A    between atoms: C4_19  and  N5_20 
REMARK    6  A    between atoms: C25_27  and  C29_30 
ROOT
ATOM      1  C8  LRQ d   1      31.421   8.842   9.120  0.00  0.00    -0.038 C 
ATOM      2  C9  LRQ d   1      30.261   9.740   8.691  0.00  0.00    -0.060 C 
ATOM      3  C10 LRQ d   1      30.635  11.216   8.740  0.00  0.00    -0.024 C 
ATOM      4  C11 LRQ d   1      31.109  11.553  10.171  0.00  0.00     0.203 C 
ATOM      5  C12 LRQ d   1      29.969  11.119  11.046  0.00  0.00     0.058 A 
ATOM      6  C13 LRQ d   1      29.940   9.930  11.716  0.00  0.00    -0.018 A 
ATOM      7  C14 LRQ d   1      28.700   9.889  12.440  0.00  0.00    -0.001 A 
ATOM      8  C15 LRQ d   1      28.096   8.969  13.291  0.00  0.00    -0.070 A 
ATOM      9  C16 LRQ d   1      26.854   9.251  13.840  0.00  0.00    -0.082 A 
ATOM     10  C19 LRQ d   1      28.024  11.088  12.157  0.00  0.00     0.043 A 
ATOM     11  C21 LRQ d   1      31.053   8.933  11.637  0.00  0.00    -0.011 C 
ATOM     12  N5  LRQ d   1      32.283  10.720  10.443  0.00  0.00    -0.044 N 
ATOM     13  N20 LRQ d   1      28.816  11.826  11.296  0.00  0.00    -0.356 N 
ATOM     14  C18 LRQ d   1      26.782  11.373  12.703  0.00  0.00    -0.056 A 
ATOM     15  C17 LRQ d   1      26.203  10.439  13.548  0.00  0.00    -0.081 A 
ATOM     16  C6  LRQ d   1      31.984   9.271  10.467  0.00  0.00     0.109 C 
ATOM     17  H7  LRQ d   1      32.218   8.900   8.364  0.00  0.00     0.036 H 
ATOM     18  H8  LRQ d   1      31.062   7.805   9.196  0.00  0.00     0.036 H 
ATOM     19  H9  LRQ d   1      29.409   9.567   9.365  0.00  0.00     0.033 H 
ATOM     20  H10 LRQ d   1      29.973   9.480   7.662  0.00  0.00     0.033 H 
ATOM     21  H11 LRQ d   1      29.759  11.830   8.485  0.00  0.00     0.037 H 
ATOM     22  H12 LRQ d   1      31.445  11.418   8.024  0.00  0.00     0.037 H 
ATOM     23  H13 LRQ d   1      28.594   8.035  13.524  0.00  0.00     0.084 H 
ATOM     24  H14 LRQ d   1      26.387   8.534  14.505  0.00  0.00     0.083 H 
ATOM     25  H15 LRQ d   1      30.631   7.928  11.487  0.00  0.00     0.043 H 
ATOM     26  H16 LRQ d   1      31.627   8.954  12.575  0.00  0.00     0.043 H 
ATOM     27  H20 LRQ d   1      32.584  10.956  11.376  0.00  0.00     0.282 HD
ATOM     28  H21 LRQ d   1      28.581  12.751  10.907  0.00  0.00     0.166 HD
ATOM     29  H22 LRQ d   1      26.276  12.304  12.475  0.00  0.00     0.086 H 
ATOM     30  H23 LRQ d   1      25.231  10.640  13.985  0.00  0.00     0.083 H 
ATOM     31  H24 LRQ d   1      32.927   8.728  10.625  0.00  0.00     0.085 H 
ENDROOT
BRANCH   4  32
ATOM     32  C22 LRQ d   1      31.480  12.991  10.558  0.00  0.00     0.061 A 
ATOM     33  C27 LRQ d   1      31.690  13.305  11.918  0.00  0.00     0.129 A 
ATOM     34  F28 LRQ d   1      31.544  12.318  12.825  0.00  0.00    -0.205 F 
ATOM     35  C26 LRQ d   1      32.033  14.553  12.369  0.00  0.00    -0.039 A 
ATOM     36  C25 LRQ d   1      32.192  15.585  11.441  0.00  0.00    -0.056 A 
ATOM     37  H25 LRQ d   1      32.178  14.736  13.428  0.00  0.00     0.089 H 
ATOM     38  C24 LRQ d   1      31.999  15.320  10.083  0.00  0.00    -0.039 A 
ATOM     39  C23 LRQ d   1      31.657  14.053   9.685  0.00  0.00     0.129 A 
ATOM     40  H17 LRQ d   1      32.119  16.110   9.350  0.00  0.00     0.089 H 
ATOM     41  F34 LRQ d   1      31.472  13.815   8.368  0.00  0.00    -0.205 F 
BRANCH  36  42
ATOM     42  C29 LRQ d   1      32.558  16.929  11.895  0.00  0.00    -0.051 C 
ATOM     43  H26 LRQ d   1      32.636  17.601  11.027  0.00  0.00     0.033 H 
ATOM     44  H27 LRQ d   1      33.526  16.889  12.416  0.00  0.00     0.033 H 
ATOM     45  H28 LRQ d   1      31.787  17.307  12.582  0.00  0.00     0.033 H 
ENDBRANCH  36  42
ENDBRANCH   4  32
BRANCH  12  46
ATOM     46  C4  LRQ d   1      33.402  11.054   9.551  0.00  0.00     0.118 C 
ATOM     47  H18 LRQ d   1      33.373  10.377   8.684  0.00  0.00     0.081 H 
ATOM     48  H19 LRQ d   1      33.279  12.092   9.210  0.00  0.00     0.081 H 
BRANCH  46  49
ATOM     49  C2  LRQ d   1      34.807  10.918  10.245  0.00  0.00     0.120 C 
ATOM     50  F35 LRQ d   1      35.067   9.602  10.582  0.00  0.00    -0.242 F 
BRANCH  49  51
ATOM     51  C1  LRQ d   1      35.877  11.340   9.261  0.00  0.00    -0.042 C 
ATOM     52  H1  LRQ d   1      35.710  12.386   8.963  0.00  0.00     0.032 H 
ATOM     53  H2  LRQ d   1      35.833  10.694   8.372  0.00  0.00     0.032 H 
ATOM     54  H3  LRQ d   1      36.866  11.247   9.733  0.00  0.00     0.032 H 
ENDBRANCH  49  51
BRANCH  49  55
ATOM     55  C3  LRQ d   1      34.883  11.781  11.491  0.00  0.00    -0.042 C 
ATOM     56  H4  LRQ d   1      34.103  11.469  12.201  0.00  0.00     0.032 H 
ATOM     57  H5  LRQ d   1      34.729  12.835  11.217  0.00  0.00     0.032 H 
ATOM     58  H6  LRQ d   1      35.872  11.664  11.958  0.00  0.00     0.032 H 
ENDBRANCH  49  55
ENDBRANCH  46  49
ENDBRANCH  12  46
TORSDOF 6
