REMARK  6 active torsions:
REMARK  status: ('A' for Active; 'I' for Inactive)
REMARK    1  A    between atoms: C02_1  and  C03_2 
REMARK       I    between atoms: N15_26  and  C02_1 
REMARK    2  A    between atoms: C06_4  and  N07_23 
REMARK    3  A    between atoms: C17_10  and  C16_9 
REMARK    4  A    between atoms: C16_9  and  N15_26 
REMARK    5  A    between atoms: O23_29  and  C22_15 
REMARK    6  A    between atoms: C24_16  and  O23_29 
ROOT
ATOM      1  C16 LUW d   1       7.940  21.136  30.121  0.00  0.00     0.019 C 
ATOM      2  H5  LUW d   1       7.146  21.329  30.857  0.00  0.00     0.071 H 
ATOM      3  H6  LUW d   1       8.159  20.058  30.092  0.00  0.00     0.071 H 
ENDROOT
BRANCH   1   4
ATOM      4  C17 LUW d   1       9.189  21.863  30.569  0.00  0.00    -0.040 A 
ATOM      5  C18 LUW d   1       9.794  21.445  31.739  0.00  0.00    -0.073 A 
ATOM      6  C19 LUW d   1      10.936  22.086  32.175  0.00  0.00    -0.050 A 
ATOM      7  H7  LUW d   1       9.376  20.622  32.308  0.00  0.00     0.084 H 
ATOM      8  C22 LUW d   1      11.455  23.143  31.451  0.00  0.00     0.076 A 
ATOM      9  H8  LUW d   1      11.426  21.760  33.086  0.00  0.00     0.087 H 
ATOM     10  C21 LUW d   1      10.844  23.552  30.279  0.00  0.00    -0.050 A 
ATOM     11  C20 LUW d   1       9.700  22.911  29.832  0.00  0.00    -0.073 A 
ATOM     12  H10 LUW d   1      11.261  24.375  29.710  0.00  0.00     0.087 H 
ATOM     13  H9  LUW d   1       9.214  23.228  28.917  0.00  0.00     0.084 H 
BRANCH   8  14
ATOM     14  O23 LUW d   1      12.617  23.804  31.857  0.00  0.00    -0.311 OA
BRANCH  14  15
ATOM     15  C24 LUW d   1      12.792  23.863  33.249  0.00  0.00     0.076 A 
ATOM     16  C25 LUW d   1      13.962  23.372  33.785  0.00  0.00    -0.050 A 
ATOM     17  C26 LUW d   1      14.173  23.428  35.148  0.00  0.00    -0.080 A 
ATOM     18  H11 LUW d   1      14.717  22.942  33.137  0.00  0.00     0.087 H 
ATOM     19  C27 LUW d   1      13.210  23.979  35.975  0.00  0.00    -0.083 A 
ATOM     20  H12 LUW d   1      15.093  23.040  35.571  0.00  0.00     0.083 H 
ATOM     21  C28 LUW d   1      12.034  24.476  35.440  0.00  0.00    -0.080 A 
ATOM     22  H13 LUW d   1      13.377  24.022  37.045  0.00  0.00     0.083 H 
ATOM     23  C29 LUW d   1      11.827  24.423  34.070  0.00  0.00    -0.050 A 
ATOM     24  H14 LUW d   1      11.279  24.904  36.089  0.00  0.00     0.083 H 
ATOM     25  H15 LUW d   1      10.913  24.819  33.643  0.00  0.00     0.087 H 
ENDBRANCH  14  15
ENDBRANCH   8  14
ENDBRANCH   1   4
BRANCH   1  26
ATOM     26  N15 LUW d   1       7.457  21.538  28.814  0.00  0.00    -0.352 N 
ATOM     27  C02 LUW d   1       6.614  22.694  28.726  0.00  0.00     0.257 C 
ATOM     28  O01 LUW d   1       6.359  23.291  29.713  0.00  0.00    -0.267 OA
ATOM     29  H17 LUW d   1       7.706  21.022  27.995  0.00  0.00     0.163 HD
BRANCH  27  30
ATOM     30  C03 LUW d   1       6.023  23.119  27.387  0.00  0.00     0.104 A 
ATOM     31  C04 LUW d   1       5.291  24.285  27.260  0.00  0.00     0.041 A 
ATOM     32  N05 LUW d   1       4.769  24.605  26.093  0.00  0.00    -0.074 NA
ATOM     33  H1  LUW d   1       5.146  24.936  28.121  0.00  0.00     0.117 H 
ATOM     34  C06 LUW d   1       4.907  23.824  25.050  0.00  0.00     0.728 A 
ATOM     35  N12 LUW d   1       5.583  22.690  25.111  0.00  0.00    -0.163 N 
ATOM     36  C13 LUW d   1       6.130  22.315  26.258  0.00  0.00     0.210 A 
ATOM     37  H16 LUW d   1       5.681  22.118  24.296  0.00  0.00     0.186 HD
ATOM     38  O14 LUW d   1       6.844  21.124  26.333  0.00  0.00    -0.171 OA
BRANCH  34  39
ATOM     39  N07 LUW d   1       4.304  24.226  23.796  0.00  0.00    -0.073 N 
ATOM     40  C11 LUW d   1       4.274  23.492  22.710  0.00  0.00     0.023 A 
ATOM     41  C10 LUW d   1       3.618  24.225  21.756  0.00  0.00    -0.047 A 
ATOM     42  H4  LUW d   1       4.690  22.493  22.589  0.00  0.00     0.115 H 
ATOM     43  C09 LUW d   1       3.254  25.443  22.324  0.00  0.00     0.024 A 
ATOM     44  H3  LUW d   1       3.417  23.910  20.733  0.00  0.00     0.087 H 
ATOM     45  N08 LUW d   1       3.680  25.435  23.590  0.00  0.00    -0.166 NA
ATOM     46  H2  LUW d   1       2.721  26.253  21.828  0.00  0.00     0.117 H 
ENDBRANCH  34  39
ENDBRANCH  27  30
ENDBRANCH   1  26
TORSDOF 6
