REMARK  9 active torsions:
REMARK  status: ('A' for Active; 'I' for Inactive)
REMARK    1  A    between atoms: C1_1  and  C_29 
REMARK    2  A    between atoms: C11_8  and  C12_9 
REMARK    3  A    between atoms: C17_26  and  C11_8 
REMARK    4  A    between atoms: C13_10  and  C14_11 
REMARK    5  A    between atoms: N1_27  and  C13_10 
REMARK    6  A    between atoms: C14_11  and  C15_12 
REMARK    7  A    between atoms: C14_11  and  C16_13 
REMARK    8  A    between atoms: C20_15  and  C21_16 
REMARK    9  A    between atoms: C22_17  and  C23_21 
ROOT
ATOM      1  C1  LVH d   1      31.638   8.981  10.427  0.00  0.00     0.106 C 
ATOM      2  C2  LVH d   1      30.729   8.824  11.645  0.00  0.00    -0.012 C 
ATOM      3  C3  LVH d   1      29.599   9.813  11.607  0.00  0.00    -0.018 A 
ATOM      4  C7  LVH d   1      25.831  10.454  13.360  0.00  0.00    -0.081 A 
ATOM      5  C8  LVH d   1      26.499   9.302  13.774  0.00  0.00    -0.082 A 
ATOM      6  C9  LVH d   1      27.754   8.986  13.263  0.00  0.00    -0.070 A 
ATOM      7  C10 LVH d   1      28.360   9.836  12.339  0.00  0.00    -0.001 A 
ATOM      8  C11 LVH d   1      30.757  11.394   9.951  0.00  0.00     0.200 C 
ATOM      9  N1  LVH d   1      31.900  10.420  10.117  0.00  0.00    -0.045 N 
ATOM     10  C4  LVH d   1      29.625  10.944  10.836  0.00  0.00     0.058 A 
ATOM     11  N   LVH d   1      28.478  11.682  11.047  0.00  0.00    -0.356 N 
ATOM     12  C5  LVH d   1      27.681  11.010  11.956  0.00  0.00     0.043 A 
ATOM     13  C6  LVH d   1      26.411  11.321  12.442  0.00  0.00    -0.056 A 
ATOM     14  H1  LVH d   1      32.612   8.556  10.710  0.00  0.00     0.084 H 
ATOM     15  H2  LVH d   1      31.320   8.989  12.558  0.00  0.00     0.043 H 
ATOM     16  H3  LVH d   1      30.314   7.805  11.655  0.00  0.00     0.043 H 
ATOM     17  H4  LVH d   1      24.848  10.676  13.759  0.00  0.00     0.083 H 
ATOM     18  H5  LVH d   1      26.036   8.646  14.502  0.00  0.00     0.083 H 
ATOM     19  H6  LVH d   1      28.259   8.082  13.582  0.00  0.00     0.084 H 
ATOM     20  H22 LVH d   1      32.267  10.725  11.005  0.00  0.00     0.282 HD
ATOM     21  H26 LVH d   1      28.253  12.583  10.602  0.00  0.00     0.166 HD
ATOM     22  H27 LVH d   1      25.891  12.214  12.113  0.00  0.00     0.086 H 
ENDROOT
BRANCH   8  23
ATOM     23  C12 LVH d   1      30.137  11.277   8.552  0.00  0.00    -0.035 C 
ATOM     24  H7  LVH d   1      29.309  11.995   8.457  0.00  0.00     0.032 H 
ATOM     25  H8  LVH d   1      29.756  10.256   8.404  0.00  0.00     0.032 H 
ATOM     26  H9  LVH d   1      30.902  11.496   7.793  0.00  0.00     0.032 H 
ENDBRANCH   8  23
BRANCH   8  27
ATOM     27  C17 LVH d   1      31.185  12.789  10.415  0.00  0.00     0.061 A 
ATOM     28  C25 LVH d   1      31.374  13.097  11.834  0.00  0.00     0.129 A 
ATOM     29  C24 LVH d   1      31.777  14.318  12.315  0.00  0.00    -0.035 A 
ATOM     30  F2  LVH d   1      31.145  12.122  12.738  0.00  0.00    -0.205 F 
ATOM     31  C20 LVH d   1      32.025  15.366  11.422  0.00  0.00    -0.030 A 
ATOM     32  H21 LVH d   1      31.902  14.469  13.381  0.00  0.00     0.089 H 
ATOM     33  C19 LVH d   1      31.898  15.156  10.042  0.00  0.00    -0.035 A 
ATOM     34  C18 LVH d   1      31.473  13.934   9.575  0.00  0.00     0.129 A 
ATOM     35  H18 LVH d   1      32.134  15.953   9.346  0.00  0.00     0.089 H 
ATOM     36  F1  LVH d   1      31.360  13.774   8.236  0.00  0.00    -0.205 F 
BRANCH  31  37
ATOM     37  C21 LVH d   1      32.467  16.665  11.959  0.00  0.00    -0.067 C 
ATOM     38  C22 LVH d   1      32.800  17.760  11.276  0.00  0.00    -0.009 C 
ATOM     39  H20 LVH d   1      32.652  17.759  10.197  0.00  0.00     0.094 H 
ATOM     40  H19 LVH d   1      32.529  16.739  13.044  0.00  0.00     0.085 H 
BRANCH  38  41
ATOM     41  C23 LVH d   1      33.362  18.981  11.907  0.00  0.00     0.198 C 
ATOM     42  O1  LVH d   1      33.644  19.956  11.086  0.00  0.00    -0.645 OA
ATOM     43  O   LVH d   1      33.555  19.057  13.120  0.00  0.00    -0.645 OA
ENDBRANCH  38  41
ENDBRANCH  31  37
ENDBRANCH   8  27
BRANCH   9  44
ATOM     44  C13 LVH d   1      33.046  10.677   9.231  0.00  0.00     0.118 C 
ATOM     45  H10 LVH d   1      33.023   9.917   8.437  0.00  0.00     0.081 H 
ATOM     46  H11 LVH d   1      32.901  11.674   8.789  0.00  0.00     0.081 H 
BRANCH  44  47
ATOM     47  C14 LVH d   1      34.438  10.651   9.841  0.00  0.00     0.120 C 
ATOM     48  F   LVH d   1      34.728   9.386  10.296  0.00  0.00    -0.242 F 
BRANCH  47  49
ATOM     49  C15 LVH d   1      35.491  11.000   8.817  0.00  0.00    -0.042 C 
ATOM     50  H12 LVH d   1      36.484  10.972   9.289  0.00  0.00     0.032 H 
ATOM     51  H13 LVH d   1      35.300  12.009   8.424  0.00  0.00     0.032 H 
ATOM     52  H14 LVH d   1      35.456  10.273   7.993  0.00  0.00     0.032 H 
ENDBRANCH  47  49
BRANCH  47  53
ATOM     53  C16 LVH d   1      34.529  11.575  11.032  0.00  0.00    -0.042 C 
ATOM     54  H15 LVH d   1      33.755  11.305  11.765  0.00  0.00     0.032 H 
ATOM     55  H16 LVH d   1      34.376  12.613  10.703  0.00  0.00     0.032 H 
ATOM     56  H17 LVH d   1      35.522  11.480  11.495  0.00  0.00     0.032 H 
ENDBRANCH  47  53
ENDBRANCH  44  47
ENDBRANCH   9  44
BRANCH   1  57
ATOM     57  C   LVH d   1      31.148   8.142   9.248  0.00  0.00    -0.049 C 
ATOM     58  H23 LVH d   1      30.986   7.105   9.578  0.00  0.00     0.030 H 
ATOM     59  H24 LVH d   1      31.902   8.158   8.448  0.00  0.00     0.030 H 
ATOM     60  H25 LVH d   1      30.203   8.558   8.869  0.00  0.00     0.030 H 
ENDBRANCH   1  57
TORSDOF 9
