REMARK  7 active torsions:
REMARK  status: ('A' for Active; 'I' for Inactive)
REMARK    1  A    between atoms: P_1  and  O5'_5 
REMARK    2  A    between atoms: O5'_5  and  C5'_6 
REMARK    3  A    between atoms: C5'_6  and  C4'_7 
REMARK    4  A    between atoms: C3'_9  and  O3'_10 
REMARK    5  A    between atoms: C2'_11  and  O2'_12 
REMARK    6  A    between atoms: C1'_13  and  N9_14 
REMARK    7  A    between atoms: C6_18  and  N6_19 
ROOT
ATOM      1  C4' AMP d   1      47.601 -45.002 -88.367  0.00  0.00     0.089 C 
ATOM      2  O4' AMP d   1      47.230 -43.617 -88.137  0.00  0.00    -0.353 OA
ATOM      3  C3' AMP d   1      48.079 -45.510 -87.004  0.00  0.00     0.091 C 
ATOM      4  C2' AMP d   1      48.665 -44.249 -86.361  0.00  0.00     0.105 C 
ATOM      5  C1' AMP d   1      47.869 -43.101 -86.993  0.00  0.00     0.139 C 
ATOM      6  H3  AMP d   1      48.440 -45.060 -89.076  0.00  0.00     0.090 H 
ATOM      7  H4  AMP d   1      47.252 -45.922 -86.407  0.00  0.00     0.091 H 
ATOM      8  H6  AMP d   1      48.549 -44.251 -85.267  0.00  0.00     0.093 H 
ATOM      9  H8  AMP d   1      48.578 -42.313 -87.285  0.00  0.00     0.122 H 
ENDROOT
BRANCH   5  10
ATOM     10  N9  AMP d   1      46.841 -42.495 -86.149  0.00  0.00    -0.294 N 
ATOM     11  C8  AMP d   1      46.102 -43.133 -85.191  0.00  0.00     0.071 A 
ATOM     12  N7  AMP d   1      45.260 -42.340 -84.576  0.00  0.00    -0.236 NA
ATOM     13  H9  AMP d   1      46.203 -44.193 -84.963  0.00  0.00     0.144 H 
ATOM     14  C5  AMP d   1      45.432 -41.094 -85.175  0.00  0.00     0.149 A 
ATOM     15  C6  AMP d   1      44.816 -39.833 -84.966  0.00  0.00     0.155 A 
ATOM     16  C4  AMP d   1      46.409 -41.184 -86.145  0.00  0.00     0.167 A 
ATOM     17  N1  AMP d   1      45.227 -38.803 -85.730  0.00  0.00    -0.222 NA
ATOM     18  C2  AMP d   1      46.168 -39.046 -86.646  0.00  0.00     0.091 A 
ATOM     19  N3  AMP d   1      46.829 -40.172 -86.917  0.00  0.00    -0.222 NA
ATOM     20  H12 AMP d   1      46.436 -38.197 -87.265  0.00  0.00     0.146 H 
BRANCH  15  21
ATOM     21  N6  AMP d   1      43.865 -39.591 -84.065  0.00  0.00    -0.382 N 
ATOM     22  H10 AMP d   1      43.468 -38.645 -83.976  0.00  0.00     0.157 HD
ATOM     23  H11 AMP d   1      43.526 -40.350 -83.457  0.00  0.00     0.157 HD
ENDBRANCH  15  21
ENDBRANCH   5  10
BRANCH   4  24
ATOM     24  O2' AMP d   1      50.031 -44.210 -86.709  0.00  0.00    -0.388 OA
ATOM     25  H7  AMP d   1      50.463 -44.989 -86.379  0.00  0.00     0.210 HD
ENDBRANCH   4  24
BRANCH   1  26
ATOM     26  C5' AMP d   1      46.422 -45.716 -88.984  0.00  0.00     0.059 C 
ATOM     27  H1  AMP d   1      45.707 -45.985 -88.193  0.00  0.00     0.079 H 
ATOM     28  H2  AMP d   1      45.933 -45.048 -89.709  0.00  0.00     0.079 H 
BRANCH  26  29
ATOM     29  O5' AMP d   1      46.859 -46.924 -89.665  0.00  0.00    -0.280 OA
BRANCH  29  30
ATOM     30  P   AMP d   1      46.564 -48.315 -88.941  0.00  0.00     0.422 P 
ATOM     31  O1P AMP d   1      47.329 -49.382 -89.711  0.00  0.00    -0.617 OA
ATOM     32  O2P AMP d   1      45.035 -48.410 -88.976  0.00  0.00    -0.617 OA
ATOM     33  O3P AMP d   1      47.104 -48.182 -87.517  0.00  0.00    -0.617 OA
ENDBRANCH  29  30
ENDBRANCH  26  29
ENDBRANCH   1  26
BRANCH   3  34
ATOM     34  O3' AMP d   1      49.090 -46.494 -87.193  0.00  0.00    -0.390 OA
ATOM     35  H5  AMP d   1      48.736 -47.218 -87.695  0.00  0.00     0.210 HD
ENDBRANCH   3  34
TORSDOF 7
