REMARK  3 active torsions:
REMARK  status: ('A' for Active; 'I' for Inactive)
REMARK       I    between atoms: N1_1  and  C2_2 
REMARK    1  A    between atoms: C2_2  and  C4_4 
REMARK    2  A    between atoms: N7_7  and  C10_10 
REMARK    3  A    between atoms: C8_8  and  N9_9 
ROOT
ATOM      1  C4  M2B d   1     -39.898  36.790  -2.483  0.00  0.00     0.096 A 
ATOM      2  C5  M2B d   1     -39.453  37.888  -1.706  0.00  0.00     0.041 A 
ATOM      3  N6  M2B d   1     -39.091  37.509  -0.472  0.00  0.00    -0.177 NA
ATOM      4  N7  M2B d   1     -39.301  36.141  -0.447  0.00  0.00    -0.217 N 
ATOM      5  C8  M2B d   1     -39.790  35.687  -1.639  0.00  0.00     0.140 A 
ATOM      6  H3  M2B d   1     -39.410  38.914  -2.067  0.00  0.00     0.119 H 
ENDROOT
BRANCH   4   7
ATOM      7  C10 M2B d   1     -38.923  35.376   0.708  0.00  0.00     0.060 A 
ATOM      8  C11 M2B d   1     -38.198  34.209   0.556  0.00  0.00    -0.055 A 
ATOM      9  C12 M2B d   1     -37.863  33.450   1.660  0.00  0.00    -0.081 A 
ATOM     10  H6  M2B d   1     -37.891  33.889  -0.433  0.00  0.00     0.087 H 
ATOM     11  C13 M2B d   1     -38.253  33.871   2.914  0.00  0.00    -0.083 A 
ATOM     12  H7  M2B d   1     -37.299  32.532   1.542  0.00  0.00     0.083 H 
ATOM     13  C14 M2B d   1     -38.971  35.046   3.058  0.00  0.00    -0.081 A 
ATOM     14  H8  M2B d   1     -37.997  33.282   3.787  0.00  0.00     0.083 H 
ATOM     15  C15 M2B d   1     -39.316  35.804   1.955  0.00  0.00    -0.055 A 
ATOM     16  H9  M2B d   1     -39.266  35.375   4.048  0.00  0.00     0.083 H 
ATOM     17  H10 M2B d   1     -39.886  36.719   2.070  0.00  0.00     0.087 H 
ENDBRANCH   4   7
BRANCH   5  18
ATOM     18  N9  M2B d   1     -40.092  34.382  -1.881  0.00  0.00    -0.383 N 
ATOM     19  H4  M2B d   1     -40.458  34.100  -2.802  0.00  0.00     0.157 HD
ATOM     20  H5  M2B d   1     -39.954  33.676  -1.143  0.00  0.00     0.157 HD
ENDBRANCH   5  18
BRANCH   1  21
ATOM     21  C2  M2B d   1     -40.388  36.707  -3.880  0.00  0.00     0.254 C 
ATOM     22  N1  M2B d   1     -40.491  37.877  -4.507  0.00  0.00    -0.366 N 
ATOM     23  H1  M2B d   1     -40.253  38.723  -4.030  0.00  0.00     0.159 HD
ATOM     24  H2  M2B d   1     -40.807  37.910  -5.455  0.00  0.00     0.159 HD
ATOM     25  O3  M2B d   1     -40.651  35.608  -4.361  0.00  0.00    -0.268 OA
ENDBRANCH   1  21
TORSDOF 3
