REMARK  9 active torsions:
REMARK  status: ('A' for Active; 'I' for Inactive)
REMARK    1  A    between atoms: C1_1  and  O2_2 
REMARK    2  A    between atoms: O2_2  and  C3_3 
REMARK    3  A    between atoms: C7_7  and  C9_9 
REMARK    4  A    between atoms: N11_11  and  C18_18 
REMARK    5  A    between atoms: C12_12  and  N13_13 
REMARK    6  A    between atoms: C14_14  and  C15_15 
REMARK       I    between atoms: C15_15  and  N16_16 
REMARK    7  A    between atoms: C18_18  and  C19_19 
REMARK    8  A    between atoms: C18_18  and  C20_20 
REMARK    9  A    between atoms: C18_18  and  C21_21 
ROOT
ATOM      1  C9  M5W d   1     -39.872  37.342  -1.140  0.00  0.00     0.107 A 
ATOM      2  N10 M5W d   1     -39.658  38.659  -1.081  0.00  0.00    -0.168 NA
ATOM      3  N11 M5W d   1     -40.025  39.163  -2.334  0.00  0.00    -0.244 N 
ATOM      4  C12 M5W d   1     -40.446  38.165  -3.147  0.00  0.00     0.136 A 
ATOM      5  C14 M5W d   1     -40.370  36.974  -2.421  0.00  0.00     0.108 A 
ENDROOT
BRANCH   1   6
ATOM      6  C7  M5W d   1     -39.566  36.496   0.042  0.00  0.00    -0.002 A 
ATOM      7  C6  M5W d   1     -40.021  36.859   1.291  0.00  0.00    -0.070 A 
ATOM      8  C5  M5W d   1     -39.727  36.072   2.386  0.00  0.00    -0.080 A 
ATOM      9  H6  M5W d   1     -40.609  37.761   1.413  0.00  0.00     0.084 H 
ATOM     10  C4  M5W d   1     -38.970  34.931   2.237  0.00  0.00    -0.051 A 
ATOM     11  H5  M5W d   1     -40.093  36.353   3.367  0.00  0.00     0.083 H 
ATOM     12  C3  M5W d   1     -38.506  34.564   0.997  0.00  0.00     0.069 A 
ATOM     13  H4  M5W d   1     -38.739  34.320   3.102  0.00  0.00     0.087 H 
ATOM     14  C8  M5W d   1     -38.807  35.351  -0.099  0.00  0.00    -0.039 A 
ATOM     15  H7  M5W d   1     -38.443  35.066  -1.080  0.00  0.00     0.089 H 
BRANCH  12  16
ATOM     16  O2  M5W d   1     -37.760  33.394   0.959  0.00  0.00    -0.356 OA
BRANCH  16  17
ATOM     17  C1  M5W d   1     -37.122  32.989  -0.245  0.00  0.00     0.010 C 
ATOM     18  H1  M5W d   1     -36.584  32.045  -0.075  0.00  0.00     0.066 H 
ATOM     19  H2  M5W d   1     -36.410  33.765  -0.561  0.00  0.00     0.066 H 
ATOM     20  H3  M5W d   1     -37.879  32.844  -1.030  0.00  0.00     0.066 H 
ENDBRANCH  16  17
ENDBRANCH  12  16
ENDBRANCH   1   6
BRANCH   5  21
ATOM     21  C15 M5W d   1     -40.772  35.680  -3.009  0.00  0.00     0.255 C 
ATOM     22  N16 M5W d   1     -40.984  34.632  -2.216  0.00  0.00    -0.366 N 
ATOM     23  H10 M5W d   1     -41.256  33.754  -2.610  0.00  0.00     0.159 HD
ATOM     24  H11 M5W d   1     -40.871  34.723  -1.227  0.00  0.00     0.159 HD
ATOM     25  O17 M5W d   1     -40.934  35.587  -4.218  0.00  0.00    -0.268 OA
ENDBRANCH   5  21
BRANCH   3  26
ATOM     26  C18 M5W d   1     -39.885  40.661  -2.530  0.00  0.00     0.047 C 
BRANCH  26  27
ATOM     27  C19 M5W d   1     -41.167  41.283  -3.032  0.00  0.00    -0.052 C 
ATOM     28  H12 M5W d   1     -41.023  42.366  -3.160  0.00  0.00     0.030 H 
ATOM     29  H13 M5W d   1     -41.971  41.104  -2.304  0.00  0.00     0.030 H 
ATOM     30  H14 M5W d   1     -41.440  40.832  -3.998  0.00  0.00     0.030 H 
ENDBRANCH  26  27
BRANCH  26  31
ATOM     31  C20 M5W d   1     -38.822  40.943  -3.566  0.00  0.00    -0.052 C 
ATOM     32  H15 M5W d   1     -38.724  42.030  -3.704  0.00  0.00     0.030 H 
ATOM     33  H16 M5W d   1     -39.107  40.476  -4.520  0.00  0.00     0.030 H 
ATOM     34  H17 M5W d   1     -37.861  40.529  -3.228  0.00  0.00     0.030 H 
ENDBRANCH  26  31
BRANCH  26  35
ATOM     35  C21 M5W d   1     -39.562  41.362  -1.219  0.00  0.00    -0.052 C 
ATOM     36  H18 M5W d   1     -39.467  42.444  -1.395  0.00  0.00     0.030 H 
ATOM     37  H19 M5W d   1     -38.615  40.972  -0.818  0.00  0.00     0.030 H 
ATOM     38  H20 M5W d   1     -40.370  41.178  -0.496  0.00  0.00     0.030 H 
ENDBRANCH  26  35
ENDBRANCH   3  26
BRANCH   4  39
ATOM     39  N13 M5W d   1     -40.865  38.354  -4.426  0.00  0.00    -0.383 N 
ATOM     40  H8  M5W d   1     -41.173  37.550  -4.991  0.00  0.00     0.157 HD
ATOM     41  H9  M5W d   1     -40.875  39.301  -4.830  0.00  0.00     0.157 HD
ENDBRANCH   4  39
TORSDOF 9
