REMARK  0 active torsions:
REMARK  status: ('A' for Active; 'I' for Inactive)
ROOT
ATOM      1  C4  MLW d   1       5.651  10.502  27.181  0.00  0.00     0.053 A 
ATOM      2  C5  MLW d   1       4.578  11.531  27.024  0.00  0.00     0.185 A 
ATOM      3  C6  MLW d   1       4.501  12.224  25.858  0.00  0.00    -0.034 A 
ATOM      4  C7  MLW d   1       5.779   9.761  28.324  0.00  0.00     0.009 A 
ATOM      5  C8  MLW d   1       5.067   9.763  29.493  0.00  0.00    -0.070 A 
ATOM      6  C9  MLW d   1       5.436   8.893  30.499  0.00  0.00    -0.080 A 
ATOM      7  C10 MLW d   1       6.518   8.041  30.329  0.00  0.00    -0.060 A 
ATOM      8  C11 MLW d   1       7.239   8.054  29.146  0.00  0.00     0.061 A 
ATOM      9  C12 MLW d   1       6.879   8.923  28.126  0.00  0.00     0.066 A 
ATOM     10  O   MLW d   1       3.738  11.777  27.936  0.00  0.00    -0.287 OA
ATOM     11  C   MLW d   1       5.262  12.173  24.739  0.00  0.00    -0.079 A 
ATOM     12  C1  MLW d   1       6.351  11.453  24.345  0.00  0.00    -0.081 A 
ATOM     13  C2  MLW d   1       7.039  10.518  24.979  0.00  0.00    -0.056 A 
ATOM     14  C3  MLW d   1       6.671  10.094  26.333  0.00  0.00     0.047 A 
ATOM     15  N   MLW d   1       7.417   9.137  26.896  0.00  0.00    -0.353 N 
ATOM     16 CL   MLW d   1       8.648   6.941  28.954  0.00  0.00    -0.082 Cl
ATOM     17  H1  MLW d   1       3.686  12.945  25.816  0.00  0.00     0.089 H 
ATOM     18  H2  MLW d   1       4.228  10.436  29.626  0.00  0.00     0.084 H 
ATOM     19  H3  MLW d   1       4.877   8.875  31.428  0.00  0.00     0.083 H 
ATOM     20  H4  MLW d   1       6.800   7.362  31.125  0.00  0.00     0.086 H 
ATOM     21  H5  MLW d   1       4.925  12.871  23.974  0.00  0.00     0.083 H 
ATOM     22  H6  MLW d   1       6.713  11.686  23.345  0.00  0.00     0.083 H 
ATOM     23  H7  MLW d   1       7.893  10.055  24.487  0.00  0.00     0.086 H 
ATOM     24  H8  MLW d   1       8.231   8.660  26.483  0.00  0.00     0.166 HD
ENDROOT
TORSDOF 0
