REMARK  8 active torsions:
REMARK  status: ('A' for Active; 'I' for Inactive)
REMARK    1  A    between atoms: C1_1  and  N7_23 
REMARK    2  A    between atoms: S8_24  and  C11_4 
REMARK    3  A    between atoms: C12_5  and  C13_6 
REMARK    4  A    between atoms: C12_5  and  C19_11 
REMARK    5  A    between atoms: N7_23  and  C12_5 
REMARK    6  A    between atoms: N26_29  and  C27_17 
REMARK    7  A    between atoms: C4_20  and  S8_24 
REMARK    8  A    between atoms: C6_22  and  N26_29 
ROOT
ATOM      1  C1  N4W d   1      31.588 -10.479  10.721  0.00  0.00     0.056 A 
ATOM      2  C2  N4W d   1      31.327 -10.955   9.423  0.00  0.00    -0.054 A 
ATOM      3  C3  N4W d   1      30.139 -11.618   9.140  0.00  0.00    -0.060 A 
ATOM      4  C4  N4W d   1      29.174 -11.744  10.150  0.00  0.00     0.061 A 
ATOM      5  C5  N4W d   1      29.402 -11.236  11.432  0.00  0.00    -0.034 A 
ATOM      6  C6  N4W d   1      30.629 -10.612  11.740  0.00  0.00     0.077 A 
ATOM      7  H1  N4W d   1      32.058 -10.803   8.637  0.00  0.00     0.087 H 
ATOM      8  H2  N4W d   1      29.961 -12.031   8.154  0.00  0.00     0.085 H 
ATOM      9  H17 N4W d   1      28.634 -11.322  12.192  0.00  0.00     0.089 H 
ENDROOT
BRANCH   1  10
ATOM     10  N7  N4W d   1      32.784  -9.934  11.016  0.00  0.00    -0.374 N 
ATOM     11  H18 N4W d   1      32.943  -9.588  11.973  0.00  0.00     0.160 HD
BRANCH  10  12
ATOM     12  C12 N4W d   1      33.862  -9.811  10.046  0.00  0.00     0.077 C 
ATOM     13  H6  N4W d   1      33.941 -10.758   9.492  0.00  0.00     0.090 H 
BRANCH  12  14
ATOM     14  C13 N4W d   1      35.202  -9.505  10.718  0.00  0.00     0.061 A 
ATOM     15  C18 N4W d   1      36.438  -9.788  10.113  0.00  0.00    -0.057 A 
ATOM     16  C17 N4W d   1      37.615  -9.438  10.799  0.00  0.00    -0.080 A 
ATOM     17  H10 N4W d   1      36.483 -10.265   9.141  0.00  0.00     0.086 H 
ATOM     18  C16 N4W d   1      37.547  -8.845  12.071  0.00  0.00    -0.066 A 
ATOM     19  H9  N4W d   1      38.580  -9.627  10.344  0.00  0.00     0.083 H 
ATOM     20  C15 N4W d   1      36.287  -8.590  12.632  0.00  0.00     0.003 A 
ATOM     21  H8  N4W d   1      38.452  -8.589  12.609  0.00  0.00     0.085 H 
ATOM     22  N14 N4W d   1      35.169  -8.924  11.942  0.00  0.00    -0.263 NA
ATOM     23  H7  N4W d   1      36.208  -8.129  13.610  0.00  0.00     0.114 H 
ENDBRANCH  12  14
BRANCH  12  24
ATOM     24  C19 N4W d   1      33.589  -8.660   9.059  0.00  0.00    -0.028 A 
ATOM     25  C20 N4W d   1      33.107  -7.412   9.495  0.00  0.00    -0.074 A 
ATOM     26  C21 N4W d   1      32.924  -6.346   8.575  0.00  0.00    -0.081 A 
ATOM     27  H11 N4W d   1      32.873  -7.263  10.543  0.00  0.00     0.084 H 
ATOM     28  C22 N4W d   1      33.253  -6.530   7.221  0.00  0.00    -0.062 A 
ATOM     29  H12 N4W d   1      32.532  -5.394   8.915  0.00  0.00     0.083 H 
ATOM     30  C23 N4W d   1      33.790  -7.768   6.797  0.00  0.00     0.034 A 
ATOM     31  H13 N4W d   1      33.096  -5.729   6.507  0.00  0.00     0.086 H 
ATOM     32  C24 N4W d   1      33.943  -8.825   7.710  0.00  0.00    -0.053 A 
ATOM     33 CL1  N4W d   1      34.217  -8.064   5.114  0.00  0.00    -0.084 Cl
ATOM     34  H14 N4W d   1      34.338  -9.776   7.370  0.00  0.00     0.087 H 
ENDBRANCH  12  24
ENDBRANCH  10  12
ENDBRANCH   1  10
BRANCH   6  35
ATOM     35  N26 N4W d   1      30.899 -10.048  12.965  0.00  0.00    -0.186 N 
ATOM     36  H19 N4W d   1      31.471  -9.193  12.924  0.00  0.00     0.184 HD
BRANCH  35  37
ATOM     37  C27 N4W d   1      30.539 -10.427  14.227  0.00  0.00     0.726 A 
ATOM     38  N28 N4W d   1      30.922  -9.615  15.253  0.00  0.00    -0.075 NA
ATOM     39  C29 N4W d   1      30.610  -9.894  16.553  0.00  0.00     0.022 A 
ATOM     40  C30 N4W d   1      29.856 -11.047  16.850  0.00  0.00    -0.048 A 
ATOM     41  H15 N4W d   1      30.939  -9.235  17.349  0.00  0.00     0.115 H 
ATOM     42  C31 N4W d   1      29.462 -11.872  15.773  0.00  0.00     0.022 A 
ATOM     43  H16 N4W d   1      29.587 -11.293  17.871  0.00  0.00     0.087 H 
ATOM     44  N32 N4W d   1      29.803 -11.541  14.496  0.00  0.00    -0.075 NA
ATOM     45  H20 N4W d   1      28.887 -12.771  15.963  0.00  0.00     0.115 H 
ENDBRANCH  35  37
ENDBRANCH   6  35
BRANCH   4  46
ATOM     46  S8  N4W d   1      27.640 -12.514   9.752  0.00  0.00     0.172 S 
ATOM     47  O9  N4W d   1      27.069 -12.941  11.024  0.00  0.00    -0.223 OA
ATOM     48  O10 N4W d   1      27.904 -13.482   8.716  0.00  0.00    -0.223 OA
BRANCH  46  49
ATOM     49  C11 N4W d   1      26.678 -11.142   9.080  0.00  0.00     0.020 C 
ATOM     50  H3  N4W d   1      25.680 -11.502   8.789  0.00  0.00     0.049 H 
ATOM     51  H4  N4W d   1      27.191 -10.732   8.198  0.00  0.00     0.049 H 
ATOM     52  H5  N4W d   1      26.576 -10.357   9.844  0.00  0.00     0.049 H 
ENDBRANCH  46  49
ENDBRANCH   4  46
TORSDOF 8
