REMARK  11 active torsions:
REMARK  status: ('A' for Active; 'I' for Inactive)
REMARK    1  A    between atoms: C1_1  and  N26_31 
REMARK    2  A    between atoms: S8_26  and  C11_8 
REMARK    3  A    between atoms: C12_9  and  C13_10 
REMARK    4  A    between atoms: C12_9  and  C19_16 
REMARK    5  A    between atoms: N26_31  and  C12_9 
REMARK    6  A    between atoms: C4_22  and  S8_26 
REMARK    7  A    between atoms: N7_25  and  C6_24 
REMARK    8  A    between atoms: C32_36  and  N7_25 
REMARK    9  A    between atoms: C34_38  and  N40_44 
REMARK   10  A    between atoms: C36_40  and  O38_42 
REMARK   11  A    between atoms: O38_42  and  C39_43 
ROOT
ATOM      1  C1  N4Z d   1      31.630 -10.402  10.816  0.00  0.00     0.056 A 
ATOM      2  C2  N4Z d   1      31.399 -10.848   9.500  0.00  0.00    -0.054 A 
ATOM      3  C3  N4Z d   1      30.220 -11.539   9.216  0.00  0.00    -0.060 A 
ATOM      4  C4  N4Z d   1      29.226 -11.697  10.195  0.00  0.00     0.061 A 
ATOM      5  C5  N4Z d   1      29.432 -11.206  11.491  0.00  0.00    -0.034 A 
ATOM      6  C6  N4Z d   1      30.653 -10.566  11.810  0.00  0.00     0.077 A 
ATOM      7  H1  N4Z d   1      32.126 -10.657   8.719  0.00  0.00     0.087 H 
ATOM      8  H2  N4Z d   1      30.070 -11.959   8.228  0.00  0.00     0.085 H 
ATOM      9  H21 N4Z d   1      28.661 -11.316  12.245  0.00  0.00     0.089 H 
ENDROOT
BRANCH   6  10
ATOM     10  N7  N4Z d   1      30.881 -10.038  13.054  0.00  0.00    -0.185 N 
ATOM     11  H22 N4Z d   1      31.355  -9.125  13.106  0.00  0.00     0.184 HD
BRANCH  10  12
ATOM     12  C32 N4Z d   1      30.527 -10.633  14.225  0.00  0.00     0.746 A 
ATOM     13  N33 N4Z d   1      30.792 -10.010  15.390  0.00  0.00     0.130 NA
ATOM     14  C34 N4Z d   1      30.427 -10.539  16.579  0.00  0.00     0.744 A 
ATOM     15  N35 N4Z d   1      29.826 -11.769  16.554  0.00  0.00    -0.017 NA
ATOM     16  C36 N4Z d   1      29.532 -12.415  15.400  0.00  0.00     0.302 A 
ATOM     17  N37 N4Z d   1      29.917 -11.842  14.247  0.00  0.00    -0.017 NA
BRANCH  14  18
ATOM     18  N40 N4Z d   1      30.742  -9.897  17.751  0.00  0.00    -0.210 N 
ATOM     19  C41 N4Z d   1      31.350  -8.558  17.808  0.00  0.00     0.034 C 
ATOM     20  C42 N4Z d   1      32.810  -8.771  18.336  0.00  0.00     0.097 C 
ATOM     21  H3  N4Z d   1      31.368  -8.103  16.807  0.00  0.00     0.067 H 
ATOM     22  H4  N4Z d   1      30.785  -7.910  18.495  0.00  0.00     0.067 H 
ATOM     23  N43 N4Z d   1      32.914  -9.630  19.564  0.00  0.00    -0.072 N 
ATOM     24  H5  N4Z d   1      33.237  -7.785  18.571  0.00  0.00     0.078 H 
ATOM     25  H6  N4Z d   1      33.398  -9.244  17.536  0.00  0.00     0.078 H 
ATOM     26  C44 N4Z d   1      32.002 -10.814  19.680  0.00  0.00     0.097 C 
ATOM     27  H27 N4Z d   1      32.736  -9.037  20.360  0.00  0.00     0.277 HD
ATOM     28  H28 N4Z d   1      33.860  -9.976  19.607  0.00  0.00     0.277 HD
ATOM     29  C45 N4Z d   1      30.585 -10.563  19.071  0.00  0.00     0.034 C 
ATOM     30  H7  N4Z d   1      32.463 -11.663  19.154  0.00  0.00     0.078 H 
ATOM     31  H8  N4Z d   1      31.886 -11.062  20.745  0.00  0.00     0.078 H 
ATOM     32  H9  N4Z d   1      30.002  -9.917  19.744  0.00  0.00     0.067 H 
ATOM     33  H10 N4Z d   1      30.063 -11.523  18.941  0.00  0.00     0.067 H 
ENDBRANCH  14  18
BRANCH  16  34
ATOM     34  O38 N4Z d   1      28.923 -13.682  15.437  0.00  0.00    -0.323 OA
BRANCH  34  35
ATOM     35  C39 N4Z d   1      28.362 -14.225  14.218  0.00  0.00     0.013 C 
ATOM     36  H24 N4Z d   1      27.929 -15.215  14.423  0.00  0.00     0.067 H 
ATOM     37  H25 N4Z d   1      29.154 -14.321  13.461  0.00  0.00     0.067 H 
ATOM     38  H26 N4Z d   1      27.577 -13.552  13.844  0.00  0.00     0.067 H 
ENDBRANCH  34  35
ENDBRANCH  16  34
ENDBRANCH  10  12
ENDBRANCH   6  10
BRANCH   1  39
ATOM     39  N26 N4Z d   1      32.783  -9.820  11.178  0.00  0.00    -0.374 N 
ATOM     40  H23 N4Z d   1      32.907  -9.550  12.164  0.00  0.00     0.161 HD
BRANCH  39  41
ATOM     41  C12 N4Z d   1      33.864  -9.553  10.249  0.00  0.00     0.082 C 
ATOM     42  H14 N4Z d   1      33.985 -10.430   9.596  0.00  0.00     0.090 H 
BRANCH  41  43
ATOM     43  C13 N4Z d   1      33.644  -8.298   9.373  0.00  0.00     0.007 A 
ATOM     44  C14 N4Z d   1      33.853  -8.354   7.986  0.00  0.00     0.120 A 
ATOM     45  C15 N4Z d   1      33.645  -7.278   7.153  0.00  0.00     0.112 A 
ATOM     46  O27 N4Z d   1      34.222  -9.480   7.284  0.00  0.00    -0.255 OA
ATOM     47  C16 N4Z d   1      33.251  -6.014   7.636  0.00  0.00    -0.048 A 
ATOM     48  O29 N4Z d   1      33.998  -7.540   5.838  0.00  0.00    -0.256 OA
ATOM     49  C17 N4Z d   1      33.027  -5.922   9.017  0.00  0.00    -0.080 A 
ATOM     50  H15 N4Z d   1      33.128  -5.162   6.978  0.00  0.00     0.087 H 
ATOM     51  C18 N4Z d   1      33.172  -7.060   9.850  0.00  0.00    -0.072 A 
ATOM     52  H16 N4Z d   1      32.740  -4.971   9.452  0.00  0.00     0.083 H 
ATOM     53  H17 N4Z d   1      32.908  -6.973  10.898  0.00  0.00     0.084 H 
ATOM     54  C28 N4Z d   1      34.459  -8.916   5.971  0.00  0.00     0.498 C 
ATOM     55  F30 N4Z d   1      35.732  -9.051   5.609  0.00  0.00    -0.147 F 
ATOM     56  F31 N4Z d   1      33.802  -9.678   5.079  0.00  0.00    -0.147 F 
ENDBRANCH  41  43
BRANCH  41  57
ATOM     57  C19 N4Z d   1      35.157  -9.302  11.036  0.00  0.00     0.083 A 
ATOM     58  C20 N4Z d   1      36.428  -9.730  10.559  0.00  0.00     0.061 A 
ATOM     59  C21 N4Z d   1      37.595  -9.430  11.272  0.00  0.00    -0.059 A 
ATOM     60 CL1  N4Z d   1      36.560 -10.664   9.094  0.00  0.00    -0.082 Cl
ATOM     61  C22 N4Z d   1      37.490  -8.649  12.436  0.00  0.00    -0.064 A 
ATOM     62  H18 N4Z d   1      38.559  -9.792  10.934  0.00  0.00     0.086 H 
ATOM     63  C23 N4Z d   1      36.212  -8.234  12.873  0.00  0.00     0.003 A 
ATOM     64  H19 N4Z d   1      38.378  -8.369  12.991  0.00  0.00     0.085 H 
ATOM     65  N24 N4Z d   1      35.096  -8.572  12.182  0.00  0.00    -0.261 NA
ATOM     66  H20 N4Z d   1      36.123  -7.637  13.773  0.00  0.00     0.114 H 
ENDBRANCH  41  57
ENDBRANCH  39  41
ENDBRANCH   1  39
BRANCH   4  67
ATOM     67  S8  N4Z d   1      27.719 -12.551   9.801  0.00  0.00     0.172 S 
ATOM     68  O9  N4Z d   1      27.161 -13.086  11.004  0.00  0.00    -0.223 OA
ATOM     69  O10 N4Z d   1      28.049 -13.439   8.717  0.00  0.00    -0.223 OA
BRANCH  67  70
ATOM     70  C11 N4Z d   1      26.684 -11.183   9.212  0.00  0.00     0.020 C 
ATOM     71  H11 N4Z d   1      25.695 -11.569   8.925  0.00  0.00     0.049 H 
ATOM     72  H12 N4Z d   1      27.161 -10.711   8.340  0.00  0.00     0.049 H 
ATOM     73  H13 N4Z d   1      26.569 -10.439  10.014  0.00  0.00     0.049 H 
ENDBRANCH  67  70
ENDBRANCH   4  67
TORSDOF 11
