REMARK  11 active torsions:
REMARK  status: ('A' for Active; 'I' for Inactive)
REMARK    1  A    between atoms: N26_27  and  C1_1 
REMARK    2  A    between atoms: C12_4  and  C13_5 
REMARK    3  A    between atoms: C12_4  and  C19_11 
REMARK    4  A    between atoms: C12_4  and  N26_27 
REMARK    5  A    between atoms: C4_17  and  S8_21 
REMARK    6  A    between atoms: C6_19  and  N7_20 
REMARK    7  A    between atoms: N7_20  and  C32_32 
REMARK    8  A    between atoms: S8_21  and  N11_24 
REMARK    9  A    between atoms: C34_34  and  N40_40 
REMARK   10  A    between atoms: C36_36  and  O38_38 
REMARK   11  A    between atoms: O38_38  and  C39_39 
ROOT
ATOM      1  C1  N5K d   1      31.079 -10.548  10.639  0.00  0.00     0.056 A 
ATOM      2  C2  N5K d   1      30.860 -11.000   9.321  0.00  0.00    -0.054 A 
ATOM      3  C3  N5K d   1      29.609 -11.506   8.960  0.00  0.00    -0.058 A 
ATOM      4  C4  N5K d   1      28.583 -11.591   9.917  0.00  0.00     0.081 A 
ATOM      5  C5  N5K d   1      28.791 -11.175  11.238  0.00  0.00    -0.032 A 
ATOM      6  C6  N5K d   1      30.047 -10.632  11.601  0.00  0.00     0.077 A 
ATOM      7  H1  N5K d   1      31.660 -10.955   8.591  0.00  0.00     0.087 H 
ATOM      8  H2  N5K d   1      29.430 -11.833   7.942  0.00  0.00     0.086 H 
ATOM      9  H10 N5K d   1      28.000 -11.268  11.973  0.00  0.00     0.089 H 
ENDROOT
BRANCH   1  10
ATOM     10  N26 N5K d   1      32.266 -10.049  11.042  0.00  0.00    -0.374 N 
ATOM     11  H14 N5K d   1      32.395  -9.867  12.047  0.00  0.00     0.161 HD
BRANCH  10  12
ATOM     12  C12 N5K d   1      33.377  -9.751  10.149  0.00  0.00     0.082 C 
ATOM     13  H3  N5K d   1      33.539 -10.627   9.504  0.00  0.00     0.090 H 
BRANCH  12  14
ATOM     14  C13 N5K d   1      33.145  -8.512   9.257  0.00  0.00     0.007 A 
ATOM     15  C14 N5K d   1      33.392  -8.559   7.858  0.00  0.00     0.120 A 
ATOM     16  C15 N5K d   1      33.149  -7.496   7.001  0.00  0.00     0.112 A 
ATOM     17  O27 N5K d   1      33.831  -9.664   7.156  0.00  0.00    -0.255 OA
ATOM     18  C16 N5K d   1      32.724  -6.250   7.506  0.00  0.00    -0.048 A 
ATOM     19  O29 N5K d   1      33.512  -7.755   5.670  0.00  0.00    -0.256 OA
ATOM     20  C17 N5K d   1      32.422  -6.184   8.886  0.00  0.00    -0.080 A 
ATOM     21  H4  N5K d   1      32.633  -5.381   6.865  0.00  0.00     0.087 H 
ATOM     22  C18 N5K d   1      32.603  -7.301   9.743  0.00  0.00    -0.072 A 
ATOM     23  H5  N5K d   1      32.043  -5.257   9.300  0.00  0.00     0.083 H 
ATOM     24  H6  N5K d   1      32.321  -7.224  10.787  0.00  0.00     0.084 H 
ATOM     25  C28 N5K d   1      34.005  -9.118   5.833  0.00  0.00     0.498 C 
ATOM     26  F30 N5K d   1      35.289  -9.237   5.479  0.00  0.00    -0.147 F 
ATOM     27  F31 N5K d   1      33.301  -9.921   5.017  0.00  0.00    -0.147 F 
ENDBRANCH  12  14
BRANCH  12  28
ATOM     28  C19 N5K d   1      34.648  -9.468  10.955  0.00  0.00     0.083 A 
ATOM     29  C20 N5K d   1      35.929  -9.867  10.505  0.00  0.00     0.061 A 
ATOM     30  C21 N5K d   1      37.085  -9.548  11.229  0.00  0.00    -0.059 A 
ATOM     31 CL1  N5K d   1      36.085 -10.833   9.075  0.00  0.00    -0.082 Cl
ATOM     32  C22 N5K d   1      36.953  -8.764  12.394  0.00  0.00    -0.064 A 
ATOM     33  H7  N5K d   1      38.058  -9.896  10.902  0.00  0.00     0.086 H 
ATOM     34  C23 N5K d   1      35.665  -8.376  12.812  0.00  0.00     0.003 A 
ATOM     35  H8  N5K d   1      37.829  -8.465  12.959  0.00  0.00     0.085 H 
ATOM     36  N24 N5K d   1      34.565  -8.723  12.085  0.00  0.00    -0.261 NA
ATOM     37  H9  N5K d   1      35.547  -7.796  13.720  0.00  0.00     0.114 H 
ENDBRANCH  12  28
ENDBRANCH  10  12
ENDBRANCH   1  10
BRANCH   6  38
ATOM     38  N7  N5K d   1      30.286 -10.102  12.832  0.00  0.00    -0.185 N 
ATOM     39  H11 N5K d   1      30.843  -9.236  12.866  0.00  0.00     0.184 HD
BRANCH  38  40
ATOM     40  C32 N5K d   1      29.865 -10.601  14.008  0.00  0.00     0.746 A 
ATOM     41  N33 N5K d   1      30.206  -9.982  15.158  0.00  0.00     0.130 NA
ATOM     42  C34 N5K d   1      29.785 -10.487  16.344  0.00  0.00     0.739 A 
ATOM     43  N35 N5K d   1      29.067 -11.641  16.367  0.00  0.00    -0.018 NA
ATOM     44  C36 N5K d   1      28.720 -12.269  15.218  0.00  0.00     0.302 A 
ATOM     45  N37 N5K d   1      29.162 -11.754  14.048  0.00  0.00    -0.017 NA
BRANCH  42  46
ATOM     46  N40 N5K d   1      30.100  -9.850  17.494  0.00  0.00    -0.230 N 
ATOM     47  H18 N5K d   1      30.645  -8.976  17.466  0.00  0.00     0.174 HD
ATOM     48  H19 N5K d   1      29.796 -10.239  18.398  0.00  0.00     0.174 HD
ENDBRANCH  42  46
BRANCH  44  49
ATOM     49  O38 N5K d   1      27.967 -13.454  15.225  0.00  0.00    -0.323 OA
BRANCH  49  50
ATOM     50  C39 N5K d   1      27.247 -13.865  14.042  0.00  0.00     0.013 C 
ATOM     51  H15 N5K d   1      26.722 -14.810  14.242  0.00  0.00     0.067 H 
ATOM     52  H16 N5K d   1      27.955 -14.008  13.213  0.00  0.00     0.067 H 
ATOM     53  H17 N5K d   1      26.516 -13.090  13.770  0.00  0.00     0.067 H 
ENDBRANCH  49  50
ENDBRANCH  44  49
ENDBRANCH  38  40
ENDBRANCH   6  38
BRANCH   4  54
ATOM     54  S8  N5K d   1      27.010 -12.266   9.470  0.00  0.00     0.256 S 
ATOM     55  O9  N5K d   1      27.249 -13.440   8.661  0.00  0.00    -0.201 OA
ATOM     56  O10 N5K d   1      26.166 -12.367  10.630  0.00  0.00    -0.201 OA
BRANCH  54  57
ATOM     57  N11 N5K d   1      26.423 -11.015   8.571  0.00  0.00    -0.324 N 
ATOM     58  H12 N5K d   1      25.516 -11.080   8.155  0.00  0.00     0.169 HD
ATOM     59  H13 N5K d   1      26.974 -10.191   8.441  0.00  0.00     0.169 HD
ENDBRANCH  54  57
ENDBRANCH   4  54
TORSDOF 11
