REMARK  6 active torsions:
REMARK  status: ('A' for Active; 'I' for Inactive)
REMARK    1  A    between atoms: C1_9  and  O1_8 
REMARK    2  A    between atoms: C2_10  and  C1_9 
REMARK    3  A    between atoms: C2_10  and  O2_11 
REMARK    4  A    between atoms: C2_10  and  C3_12 
REMARK    5  A    between atoms: C3_12  and  O4P_13 
REMARK    6  A    between atoms: O4P_13  and  P_17 
ROOT
ATOM      1  H4  G3P d   1      46.739  14.034  -9.062  0.00  0.00     0.089 H 
ATOM      2  C2  G3P d   1      46.478  15.103  -9.041  0.00  0.00     0.077 C 
ENDROOT
BRANCH   2   3
ATOM      3  C1  G3P d   1      45.110  15.190  -8.409  0.00  0.00     0.042 C 
ATOM      4  H2  G3P d   1      45.163  15.726  -7.450  0.00  0.00     0.078 H 
ATOM      5  H3  G3P d   1      44.409  15.708  -9.080  0.00  0.00     0.078 H 
BRANCH   3   6
ATOM      6  O1  G3P d   1      44.697  13.840  -8.203  0.00  0.00    -0.398 OA
ATOM      7  H1  G3P d   1      45.317  13.404  -7.630  0.00  0.00     0.209 HD
ENDBRANCH   3   6
ENDBRANCH   2   3
BRANCH   2   8
ATOM      8  O2  G3P d   1      47.490  15.740  -8.222  0.00  0.00    -0.391 OA
ATOM      9  H5  G3P d   1      47.525  15.313  -7.374  0.00  0.00     0.210 HD
ENDBRANCH   2   8
BRANCH   2  10
ATOM     10  C3  G3P d   1      46.474  15.556 -10.501  0.00  0.00     0.058 C 
ATOM     11  H6  G3P d   1      45.606  16.221 -10.619  0.00  0.00     0.079 H 
ATOM     12  H7  G3P d   1      46.328  14.651 -11.109  0.00  0.00     0.079 H 
BRANCH  10  13
ATOM     13  O4P G3P d   1      47.600  16.250 -11.066  0.00  0.00    -0.280 OA
BRANCH  13  14
ATOM     14  P   G3P d   1      47.448  16.859 -12.559  0.00  0.00     0.422 P 
ATOM     15  O3P G3P d   1      46.649  15.717 -13.239  0.00  0.00    -0.617 OA
ATOM     16  O2P G3P d   1      48.860  17.002 -13.109  0.00  0.00    -0.617 OA
ATOM     17  O1P G3P d   1      46.716  18.188 -12.461  0.00  0.00    -0.617 OA
ENDBRANCH  13  14
ENDBRANCH  10  13
ENDBRANCH   2  10
TORSDOF 6
