REMARK  9 active torsions:
REMARK  status: ('A' for Active; 'I' for Inactive)
REMARK    1  A    between atoms: CAB_1  and  NAA_11 
REMARK    2  A    between atoms: CAB_1  and  NAC_12 
REMARK    3  A    between atoms: SAD_15  and  CAB_1 
REMARK    4  A    between atoms: CAF_3  and  CAE_2 
REMARK    5  A    between atoms: CAE_2  and  SAD_15 
REMARK    6  A    between atoms: CAL_8  and  CAK_7 
REMARK    7  A    between atoms: SAM_16  and  CAL_8 
REMARK    8  A    between atoms: CAN_9  and  NAO_13 
REMARK    9  A    between atoms: CAN_9  and  SAM_16 
ROOT
ATOM      1  CAF NJZ d   1     -24.882 -17.568 -28.188  0.00  0.00    -0.047 A 
ATOM      2  CAG NJZ d   1     -25.376 -17.163 -26.943  0.00  0.00    -0.059 A 
ATOM      3  CAH NJZ d   1     -24.520 -16.508 -26.048  0.00  0.00     0.012 A 
ATOM      4  CAJ NJZ d   1     -23.202 -16.263 -26.403  0.00  0.00    -0.059 A 
ATOM      5  CAK NJZ d   1     -22.721 -16.638 -27.652  0.00  0.00    -0.047 A 
ATOM      6  CAQ NJZ d   1     -23.559 -17.310 -28.540  0.00  0.00    -0.069 A 
ATOM      7 BR1  NJZ d   1     -25.065 -15.932 -24.345  0.00  0.00    -0.051 Br
ATOM      8  H3  NJZ d   1     -26.409 -17.354 -26.674  0.00  0.00     0.086 H 
ATOM      9  H4  NJZ d   1     -22.539 -15.774 -25.698  0.00  0.00     0.086 H 
ATOM     10  H7  NJZ d   1     -23.182 -17.632 -29.504  0.00  0.00     0.085 H 
ENDROOT
BRANCH   1  11
ATOM     11  CAE NJZ d   1     -25.704 -18.200 -29.116  0.00  0.00     0.008 C 
ATOM     12  H1  NJZ d   1     -26.448 -18.817 -28.590  0.00  0.00     0.056 H 
ATOM     13  H2  NJZ d   1     -25.096 -18.839 -29.773  0.00  0.00     0.056 H 
BRANCH  11  14
ATOM     14  SAD NJZ d   1     -26.559 -16.927 -30.117  0.00  0.00    -0.090 SA
BRANCH  14  15
ATOM     15  CAB NJZ d   1     -27.492 -17.853 -31.252  0.00  0.00     0.131 C 
BRANCH  15  16
ATOM     16  NAA NJZ d   1     -28.383 -18.727 -30.786  0.00  0.00    -0.380 N 
ATOM     17  H8  NJZ d   1     -28.947 -19.287 -31.442  0.00  0.00     0.158 HD
ATOM     18  H9  NJZ d   1     -28.508 -18.843 -29.770  0.00  0.00     0.158 HD
ENDBRANCH  15  16
BRANCH  15  19
ATOM     19  NAC NJZ d   1     -27.316 -17.597 -32.547  0.00  0.00    -0.380 N 
ATOM     20  H10 NJZ d   1     -26.610 -16.909 -32.845  0.00  0.00     0.158 HD
ATOM     21  H11 NJZ d   1     -27.886 -18.087 -33.251  0.00  0.00     0.158 HD
ENDBRANCH  15  19
ENDBRANCH  14  15
ENDBRANCH  11  14
ENDBRANCH   1  11
BRANCH   5  22
ATOM     22  CAL NJZ d   1     -21.422 -16.384 -27.969  0.00  0.00     0.008 C 
ATOM     23  H5  NJZ d   1     -21.109 -15.369 -27.684  0.00  0.00     0.056 H 
ATOM     24  H6  NJZ d   1     -21.209 -16.548 -29.036  0.00  0.00     0.056 H 
BRANCH  22  25
ATOM     25  SAM NJZ d   1     -20.671 -17.690 -26.885  0.00  0.00    -0.090 SA
BRANCH  25  26
ATOM     26  CAN NJZ d   1     -18.919 -17.779 -26.998  0.00  0.00     0.131 C 
ATOM     27  NAP NJZ d   1     -18.261 -16.876 -27.711  0.00  0.00    -0.380 N 
ATOM     28  H14 NJZ d   1     -18.779 -16.154 -28.232  0.00  0.00     0.158 HD
ATOM     29  H15 NJZ d   1     -17.232 -16.896 -27.744  0.00  0.00     0.158 HD
BRANCH  26  30
ATOM     30  NAO NJZ d   1     -18.314 -18.744 -26.298  0.00  0.00    -0.380 N 
ATOM     31  H12 NJZ d   1     -17.289 -18.838 -26.331  0.00  0.00     0.158 HD
ATOM     32  H13 NJZ d   1     -18.873 -19.393 -25.726  0.00  0.00     0.158 HD
ENDBRANCH  26  30
ENDBRANCH  25  26
ENDBRANCH  22  25
ENDBRANCH   5  22
TORSDOF 9
