REMARK  3 active torsions:
REMARK  status: ('A' for Active; 'I' for Inactive)
REMARK    1  A    between atoms: C4_1  and  N12_9 
REMARK    2  A    between atoms: C15_12  and  C17_7 
REMARK       I    between atoms: C17_7  and  N18_13 
REMARK    3  A    between atoms: N18_13  and  O19_14 
ROOT
ATOM      1  C16 NK5 d   1      44.015  34.226  85.520  0.00  0.00     0.044 A 
ATOM      2  N12 NK5 d   1      43.537  35.049  84.525  0.00  0.00    -0.165 N 
ATOM      3  N13 NK5 d   1      44.343  34.807  83.319  0.00  0.00     0.098 N 
ATOM      4  N14 NK5 d   1      45.326  33.789  83.717  0.00  0.00    -0.193 N 
ATOM      5  C15 NK5 d   1      45.083  33.498  85.013  0.00  0.00     0.143 A 
ATOM      6  H5  NK5 d   1      43.622  34.158  86.533  0.00  0.00     0.118 H 
ATOM      7  H7  NK5 d   1      44.807  35.653  83.027  0.00  0.00     0.337 HD
ATOM      8  H8  NK5 d   1      43.764  34.466  82.568  0.00  0.00     0.337 HD
ATOM      9  H9  NK5 d   1      46.059  33.377  83.122  0.00  0.00     0.196 HD
ENDROOT
BRANCH   2  10
ATOM     10  C4  NK5 d   1      42.195  35.463  84.276  0.00  0.00     0.064 A 
ATOM     11  C3  NK5 d   1      41.237  35.363  85.276  0.00  0.00    -0.055 A 
ATOM     12  C2  NK5 d   1      39.953  35.826  85.042  0.00  0.00    -0.081 A 
ATOM     13  H2  NK5 d   1      41.493  34.925  86.234  0.00  0.00     0.087 H 
ATOM     14  C1  NK5 d   1      39.621  36.380  83.821  0.00  0.00    -0.083 A 
ATOM     15  H1  NK5 d   1      39.204  35.753  85.822  0.00  0.00     0.083 H 
ATOM     16  C6  NK5 d   1      40.572  36.467  82.824  0.00  0.00    -0.081 A 
ATOM     17  H3  NK5 d   1      38.616  36.746  83.646  0.00  0.00     0.083 H 
ATOM     18  C5  NK5 d   1      41.860  36.010  83.043  0.00  0.00    -0.055 A 
ATOM     19  H4  NK5 d   1      40.308  36.896  81.864  0.00  0.00     0.083 H 
ATOM     20  H6  NK5 d   1      42.603  36.078  82.257  0.00  0.00     0.087 H 
ENDBRANCH   2  10
BRANCH   5  21
ATOM     21  C17 NK5 d   1      45.918  32.527  85.767  0.00  0.00     0.294 C 
ATOM     22  N18 NK5 d   1      46.120  31.362  85.143  0.00  0.00    -0.232 N 
ATOM     23  H10 NK5 d   1      45.453  31.037  84.473  0.00  0.00     0.197 HD
ATOM     24  O20 NK5 d   1      46.376  32.805  86.877  0.00  0.00    -0.264 OA
BRANCH  22  25
ATOM     25  O19 NK5 d   1      47.252  30.597  85.418  0.00  0.00    -0.287 OA
ATOM     26  H11 NK5 d   1      48.031  31.101  85.212  0.00  0.00     0.244 HD
ENDBRANCH  22  25
ENDBRANCH   5  21
TORSDOF 3
