REMARK WARNING: 32 MAX_TORS EXCEEDED!!!
REMARK  59 active torsions:
REMARK  status: ('A' for Active; 'I' for Inactive)
REMARK    1  A    between atoms: N_1  and  CA_2 
REMARK    2  A    between atoms: CA_2  and  C_3 
REMARK    3  A    between atoms: CA_2  and  CB_5 
REMARK       I    between atoms: C_3  and  N_10 
REMARK    4  A    between atoms: CB_5  and  CG_6 
REMARK    5  A    between atoms: CG_6  and  CD_7 
REMARK    6  A    between atoms: N_10  and  CA_11 
REMARK    7  A    between atoms: CA_11  and  C_12 
REMARK    8  A    between atoms: CA_11  and  CB_14 
REMARK       I    between atoms: C_12  and  N_21 
REMARK    9  A    between atoms: CB_14  and  CG_15 
REMARK   10  A    between atoms: CG_15  and  CD_16 
REMARK   11  A    between atoms: CD_16  and  NE_17 
REMARK       I    between atoms: NE_17  and  CZ_18 
REMARK       I    between atoms: CZ_18  and  NH1_19 
REMARK       I    between atoms: CZ_18  and  NH2_20 
REMARK   12  A    between atoms: N_21  and  CA_22 
REMARK   13  A    between atoms: CA_22  and  C_23 
REMARK   14  A    between atoms: CA_22  and  CB_25 
REMARK       I    between atoms: C_23  and  N_28 
REMARK   15  A    between atoms: CB_25  and  CG_26 
REMARK   16  A    between atoms: CG_26  and  CD_27 
REMARK   17  A    between atoms: N_28  and  CA_29 
REMARK   18  A    between atoms: CA_29  and  C_30 
REMARK   19  A    between atoms: CA_29  and  CB_32 
REMARK       I    between atoms: C_30  and  N_39 
REMARK   20  A    between atoms: CB_32  and  CG_33 
REMARK   21  A    between atoms: CG_33  and  CD_34 
REMARK   22  A    between atoms: CD_34  and  NE_35 
REMARK       I    between atoms: NE_35  and  CZ_36 
REMARK       I    between atoms: CZ_36  and  NH1_37 
REMARK   23  A    between atoms: N_39  and  CA_40 
REMARK   24  A    between atoms: CA_40  and  C_41 
REMARK   25  A    between atoms: CA_40  and  CB_43 
REMARK       I    between atoms: C_41  and  N_47 
REMARK   26  A    between atoms: CB_43  and  CG1_44 
REMARK   27  A    between atoms: CB_43  and  CG2_45 
REMARK   28  A    between atoms: CG1_44  and  CD1_46 
REMARK   29  A    between atoms: N_47  and  CA_48 
REMARK   30  A    between atoms: CA_48  and  C_49 
REMARK   31  A    between atoms: CA_48  and  CB_51 
REMARK       I    between atoms: C_49  and  N_55 
REMARK   32  A    between atoms: CB_51  and  CG_52 
REMARK   33  A    between atoms: CG_52  and  CD1_53 
REMARK   34  A    between atoms: CG_52  and  CD2_54 
REMARK   35  A    between atoms: CA_56  and  C_57 
REMARK       I    between atoms: C_57  and  N_62 
REMARK   36  A    between atoms: N_62  and  CA_63 
REMARK   37  A    between atoms: CA_63  and  C_64 
REMARK   38  A    between atoms: CA_63  and  CB_66 
REMARK       I    between atoms: C_64  and  N_69 
REMARK   39  A    between atoms: CB_66  and  OG1_67 
REMARK   40  A    between atoms: CB_66  and  CG2_68 
REMARK   41  A    between atoms: N_69  and  CA_70 
REMARK   42  A    between atoms: CA_70  and  C_71 
REMARK   43  A    between atoms: CA_70  and  CB_73 
REMARK       I    between atoms: C_71  and  N_83 
REMARK   44  A    between atoms: CB_73  and  CG_74 
REMARK   45  A    between atoms: N_83  and  CA_84 
REMARK   46  A    between atoms: CA_84  and  C_85 
REMARK   47  A    between atoms: CA_84  and  CB_87 
REMARK       I    between atoms: C_85  and  N_91 
REMARK   48  A    between atoms: CB_87  and  CG_88 
REMARK   49  A    between atoms: CG_88  and  SD_89 
REMARK   50  A    between atoms: SD_89  and  CE_90 
REMARK   51  A    between atoms: N_91  and  CA_92 
REMARK   52  A    between atoms: CA_92  and  C_93 
REMARK   53  A    between atoms: CA_92  and  CB_95 
REMARK       I    between atoms: C_93  and  N_99 
REMARK   54  A    between atoms: CB_95  and  CG_96 
REMARK   55  A    between atoms: CG_96  and  CD1_97 
REMARK   56  A    between atoms: CG_96  and  CD2_98 
REMARK   57  A    between atoms: N_99  and  CA_100 
REMARK   58  A    between atoms: CA_100  and  C_101 
REMARK   59  A    between atoms: CA_100  and  CB_103 
ROOT
ATOM      1  CA  GLU d   1       0.240  -7.929  33.589  0.00  0.00     0.090 C 
ATOM      2  H56 GLU d   1       0.190  -7.401  32.625  0.00  0.00     0.087 H 
ENDROOT
BRANCH   1   3
ATOM      3  N   GLU d   1      -0.800  -7.413  34.458  0.00  0.00    -0.346 N 
ATOM      4  C   GLU d   1      -1.981  -7.086  33.935  0.00  0.00     0.241 C 
ATOM      5  O   GLU d   1      -2.213  -7.115  32.723  0.00  0.00    -0.271 OA
ATOM      6  H55 GLU d   1      -0.633  -7.304  35.438  0.00  0.00     0.163 HD
BRANCH   4   7
ATOM      7  CA  GLU d   1      -3.028  -6.559  34.899  0.00  0.00     0.092 C 
ATOM      8  H45 GLU d   1      -2.637  -6.596  35.927  0.00  0.00     0.088 H 
BRANCH   7   9
ATOM      9  N   GLU d   1      -3.263  -5.180  34.515  0.00  0.00    -0.346 N 
ATOM     10  C   GLU d   1      -2.926  -4.154  35.280  0.00  0.00     0.241 C 
ATOM     11  O   GLU d   1      -2.470  -4.277  36.428  0.00  0.00    -0.271 OA
ATOM     12  H44 GLU d   1      -3.699  -4.997  33.634  0.00  0.00     0.163 HD
BRANCH  10  13
ATOM     13  CA  GLU d   1      -3.217  -2.797  34.658  0.00  0.00     0.089 C 
ATOM     14  H32 GLU d   1      -4.210  -2.838  34.186  0.00  0.00     0.087 H 
BRANCH  13  15
ATOM     15  N   GLU d   1      -3.246  -1.781  35.688  0.00  0.00    -0.346 N 
ATOM     16  C   GLU d   1      -4.374  -1.185  36.033  0.00  0.00     0.241 C 
ATOM     17  O   GLU d   1      -5.413  -1.290  35.378  0.00  0.00    -0.271 OA
ATOM     18  H31 GLU d   1      -2.396  -1.525  36.148  0.00  0.00     0.163 HD
BRANCH  16  19
ATOM     19  CA  GLU d   1      -4.304  -0.316  37.279  0.00  0.00     0.089 C 
ATOM     20  H23 GLU d   1      -3.247  -0.103  37.495  0.00  0.00     0.087 H 
BRANCH  19  21
ATOM     21  N   GLU d   1      -4.992   0.942  37.055  0.00  0.00    -0.346 N 
ATOM     22  C   GLU d   1      -4.372   1.936  36.437  0.00  0.00     0.241 C 
ATOM     23  O   GLU d   1      -3.205   1.848  36.049  0.00  0.00    -0.271 OA
ATOM     24  H22 GLU d   1      -5.935   1.058  37.367  0.00  0.00     0.163 HD
BRANCH  22  25
ATOM     25  CA  GLU d   1      -5.173   3.212  36.234  0.00  0.00     0.089 C 
ATOM     26  H10 GLU d   1      -6.135   3.112  36.758  0.00  0.00     0.087 H 
BRANCH  25  27
ATOM     27  N   GLU d   1      -4.453   4.353  36.789  0.00  0.00    -0.346 N 
ATOM     28  C   GLU d   1      -4.248   4.454  38.103  0.00  0.00     0.249 C 
ATOM     29  O   GLU d   1      -4.642   3.614  38.900  0.00  0.00    -0.271 OA
ATOM     30  H9  GLU d   1      -4.110   5.066  36.178  0.00  0.00     0.163 HD
BRANCH  28  31
ATOM     31  CA  GLU d   1      -3.484   5.674  38.595  0.00  0.00     0.176 C 
ATOM     32  H4  GLU d   1      -3.519   6.453  37.819  0.00  0.00     0.099 H 
BRANCH  31  33
ATOM     33  N   GLU d   1      -4.119   6.182  39.805  0.00  0.00    -0.066 N 
ATOM     34  H1  GLU d   1      -3.616   6.991  40.134  0.00  0.00     0.275 HD
ATOM     35  H2  GLU d   1      -4.108   5.467  40.516  0.00  0.00     0.275 HD
ATOM     36  H3  GLU d   1      -5.072   6.439  39.602  0.00  0.00     0.275 HD
ENDBRANCH  31  33
BRANCH  31  37
ATOM     37  CB  GLU d   1      -2.017   5.322  38.870  0.00  0.00    -0.021 C 
ATOM     38  H5  GLU d   1      -1.996   4.535  39.639  0.00  0.00     0.037 H 
ATOM     39  H6  GLU d   1      -1.518   6.224  39.255  0.00  0.00     0.037 H 
BRANCH  37  40
ATOM     40  CG  GLU d   1      -1.233   4.830  37.680  0.00  0.00     0.018 C 
ATOM     41  H7  GLU d   1      -1.723   3.926  37.291  0.00  0.00     0.049 H 
ATOM     42  H8  GLU d   1      -0.215   4.581  38.013  0.00  0.00     0.049 H 
BRANCH  40  43
ATOM     43  CD  GLU d   1      -1.134   5.848  36.551  0.00  0.00     0.172 C 
ATOM     44  OE1 GLU d   1      -0.021   6.381  36.318  0.00  0.00    -0.648 OA
ATOM     45  OE2 GLU d   1      -2.169   6.112  35.891  0.00  0.00    -0.648 OA
ENDBRANCH  40  43
ENDBRANCH  37  40
ENDBRANCH  31  37
ENDBRANCH  28  31
ENDBRANCH  25  27
BRANCH  25  46
ATOM     46  CB  GLU d   1      -5.446   3.435  34.747  0.00  0.00    -0.036 C 
ATOM     47  H11 GLU d   1      -4.486   3.432  34.210  0.00  0.00     0.036 H 
ATOM     48  H12 GLU d   1      -5.932   4.414  34.623  0.00  0.00     0.036 H 
BRANCH  46  49
ATOM     49  CG  GLU d   1      -6.342   2.370  34.140  0.00  0.00    -0.048 C 
ATOM     50  H13 GLU d   1      -7.321   2.396  34.642  0.00  0.00     0.035 H 
ATOM     51  H14 GLU d   1      -5.879   1.384  34.291  0.00  0.00     0.035 H 
BRANCH  49  52
ATOM     52  CD  GLU d   1      -6.541   2.600  32.658  0.00  0.00     0.009 C 
ATOM     53  H15 GLU d   1      -6.908   3.625  32.499  0.00  0.00     0.064 H 
ATOM     54  H16 GLU d   1      -7.284   1.882  32.279  0.00  0.00     0.064 H 
BRANCH  52  55
ATOM     55  NE  GLU d   1      -5.294   2.423  31.929  0.00  0.00    -0.227 N 
ATOM     56  CZ  GLU d   1      -4.807   1.247  31.531  0.00  0.00     0.665 C 
ATOM     57  NH1 GLU d   1      -5.454   0.109  31.800  0.00  0.00    -0.235 N 
ATOM     58  NH2 GLU d   1      -3.655   1.213  30.883  0.00  0.00    -0.235 N 
ATOM     59  H18 GLU d   1      -5.065  -0.791  31.486  0.00  0.00     0.174 HD
ATOM     60  H19 GLU d   1      -6.342   0.132  32.322  0.00  0.00     0.174 HD
ATOM     61  H20 GLU d   1      -3.155   2.089  30.675  0.00  0.00     0.174 HD
ATOM     62  H21 GLU d   1      -3.257   0.310  30.586  0.00  0.00     0.174 HD
ATOM     63  H17 GLU d   1      -4.748   3.267  31.704  0.00  0.00     0.177 HD
ENDBRANCH  52  55
ENDBRANCH  49  52
ENDBRANCH  46  49
ENDBRANCH  25  46
ENDBRANCH  22  25
ENDBRANCH  19  21
BRANCH  19  64
ATOM     64  CB  GLU d   1      -4.907  -1.038  38.481  0.00  0.00    -0.038 C 
ATOM     65  H24 GLU d   1      -4.411  -2.014  38.589  0.00  0.00     0.036 H 
ATOM     66  H25 GLU d   1      -5.981  -1.191  38.296  0.00  0.00     0.036 H 
BRANCH  64  67
ATOM     67  CG  GLU d   1      -4.742  -0.256  39.794  0.00  0.00    -0.066 C 
ATOM     68  H26 GLU d   1      -5.328  -0.753  40.581  0.00  0.00     0.032 H 
ATOM     69  H27 GLU d   1      -5.118   0.768  39.649  0.00  0.00     0.032 H 
BRANCH  67  70
ATOM     70  CD  GLU d   1      -3.285  -0.189  40.232  0.00  0.00    -0.076 C 
ATOM     71  H28 GLU d   1      -3.211   0.377  41.172  0.00  0.00     0.027 H 
ATOM     72  H29 GLU d   1      -2.691   0.313  39.454  0.00  0.00     0.027 H 
ATOM     73  H30 GLU d   1      -2.901  -1.208  40.386  0.00  0.00     0.027 H 
ENDBRANCH  67  70
ENDBRANCH  64  67
ENDBRANCH  19  64
ENDBRANCH  16  19
ENDBRANCH  13  15
BRANCH  13  74
ATOM     74  CB  GLU d   1      -2.185  -2.460  33.569  0.00  0.00    -0.036 C 
ATOM     75  H33 GLU d   1      -2.488  -1.519  33.086  0.00  0.00     0.036 H 
ATOM     76  H34 GLU d   1      -2.189  -3.272  32.827  0.00  0.00     0.036 H 
BRANCH  74  77
ATOM     77  CG  GLU d   1      -0.777  -2.296  34.082  0.00  0.00    -0.048 C 
ATOM     78  H35 GLU d   1      -0.526  -3.163  34.711  0.00  0.00     0.035 H 
ATOM     79  H36 GLU d   1      -0.725  -1.377  34.685  0.00  0.00     0.035 H 
BRANCH  77  80
ATOM     80  CD  GLU d   1       0.247  -2.199  32.947  0.00  0.00     0.009 C 
ATOM     81  H37 GLU d   1       0.271  -3.161  32.415  0.00  0.00     0.064 H 
ATOM     82  H38 GLU d   1       1.236  -1.997  33.385  0.00  0.00     0.064 H 
BRANCH  80  83
ATOM     83  NE  GLU d   1      -0.059  -1.141  31.982  0.00  0.00    -0.227 N 
ATOM     84  CZ  GLU d   1       0.374   0.108  32.052  0.00  0.00     0.665 C 
ATOM     85  NH1 GLU d   1       1.166   0.512  33.047  0.00  0.00    -0.235 N 
ATOM     86  NH2 GLU d   1       0.024   0.967  31.108  0.00  0.00    -0.235 N 
ATOM     87  H40 GLU d   1       1.491   1.489  33.082  0.00  0.00     0.174 HD
ATOM     88  H41 GLU d   1       1.452  -0.153  33.780  0.00  0.00     0.174 HD
ATOM     89  H42 GLU d   1      -0.587   0.663  30.336  0.00  0.00     0.174 HD
ATOM     90  H43 GLU d   1       0.363   1.939  31.145  0.00  0.00     0.174 HD
ATOM     91  H39 GLU d   1      -0.660  -1.389  31.183  0.00  0.00     0.177 HD
ENDBRANCH  80  83
ENDBRANCH  77  80
ENDBRANCH  74  77
ENDBRANCH  13  74
ENDBRANCH  10  13
ENDBRANCH   7   9
BRANCH   7  92
ATOM     92  CB  GLU d   1      -4.314  -7.387  34.837  0.00  0.00    -0.030 C 
ATOM     93  H46 GLU d   1      -4.715  -7.317  33.815  0.00  0.00     0.043 H 
BRANCH  92  94
ATOM     94  CG1 GLU d   1      -5.364  -6.806  35.785  0.00  0.00    -0.063 C 
ATOM     95  H47 GLU d   1      -5.421  -5.720  35.618  0.00  0.00     0.033 H 
ATOM     96  H48 GLU d   1      -5.046  -7.002  36.820  0.00  0.00     0.033 H 
BRANCH  94  97
ATOM     97  CD1 GLU d   1      -6.745  -7.395  35.589  0.00  0.00    -0.076 C 
ATOM     98  H52 GLU d   1      -7.445  -6.933  36.301  0.00  0.00     0.027 H 
ATOM     99  H53 GLU d   1      -6.709  -8.481  35.763  0.00  0.00     0.027 H 
ATOM    100  H54 GLU d   1      -7.085  -7.199  34.561  0.00  0.00     0.027 H 
ENDBRANCH  94  97
ENDBRANCH  92  94
BRANCH  92 101
ATOM    101  CG2 GLU d   1      -4.009  -8.877  35.116  0.00  0.00    -0.071 C 
ATOM    102  H49 GLU d   1      -3.250  -9.235  34.405  0.00  0.00     0.028 H 
ATOM    103  H50 GLU d   1      -4.929  -9.468  34.999  0.00  0.00     0.028 H 
ATOM    104  H51 GLU d   1      -3.631  -8.988  36.143  0.00  0.00     0.028 H 
ENDBRANCH  92 101
ENDBRANCH   7  92
ENDBRANCH   4   7
ENDBRANCH   1   3
BRANCH   1 105
ATOM    105  C   GLU d   1       0.030  -9.418  33.356  0.00  0.00     0.243 C 
ATOM    106  O   GLU d   1      -0.492 -10.130  34.226  0.00  0.00    -0.271 OA
ATOM    107  N   GLU d   1       0.457  -9.916  32.205  0.00  0.00    -0.337 N 
ATOM    108  CA  GLU d   1       0.405 -11.361  31.992  0.00  0.00     0.091 C 
ATOM    109  CD  GLU d   1       1.070  -9.201  31.071  0.00  0.00    -0.001 C 
ATOM    110  CB  GLU d   1       0.887 -11.528  30.548  0.00  0.00    -0.036 C 
ATOM    111  H66 GLU d   1      -0.627 -11.727  32.094  0.00  0.00     0.087 H 
ATOM    112  CG  GLU d   1       1.687 -10.301  30.255  0.00  0.00    -0.048 C 
ATOM    113  H67 GLU d   1       0.030 -11.602  29.862  0.00  0.00     0.036 H 
ATOM    114  H68 GLU d   1       1.513 -12.428  30.452  0.00  0.00     0.036 H 
ATOM    115  H69 GLU d   1       1.635 -10.057  29.184  0.00  0.00     0.035 H 
ATOM    116  H70 GLU d   1       2.737 -10.450  30.547  0.00  0.00     0.035 H 
ATOM    117  H71 GLU d   1       1.836  -8.493  31.420  0.00  0.00     0.064 H 
ATOM    118  H72 GLU d   1       0.309  -8.660  30.490  0.00  0.00     0.064 H 
BRANCH 108 119
ATOM    119  C   GLU d   1       1.287 -12.108  32.980  0.00  0.00     0.241 C 
ATOM    120  O   GLU d   1       2.341 -11.627  33.418  0.00  0.00    -0.271 OA
ATOM    121  N   GLU d   1       0.830 -13.315  33.334  0.00  0.00    -0.344 N 
ATOM    122  H73 GLU d   1       0.024 -13.685  32.872  0.00  0.00     0.163 HD
BRANCH 121 123
ATOM    123  CA  GLU d   1       1.471 -14.101  34.369  0.00  0.00     0.113 C 
ATOM    124  H74 GLU d   1       1.324 -13.588  35.331  0.00  0.00     0.091 H 
BRANCH 123 125
ATOM    125  C   GLU d   1       2.973 -14.255  34.152  0.00  0.00     0.243 C 
ATOM    126  O   GLU d   1       3.748 -14.206  35.112  0.00  0.00    -0.271 OA
ATOM    127  N   GLU d   1       3.408 -14.470  32.909  0.00  0.00    -0.346 N 
ATOM    128  H80 GLU d   1       2.770 -14.463  32.139  0.00  0.00     0.163 HD
BRANCH 127 129
ATOM    129  CA  GLU d   1       4.830 -14.716  32.692  0.00  0.00     0.093 C 
ATOM    130  H81 GLU d   1       5.114 -15.590  33.297  0.00  0.00     0.088 H 
BRANCH 129 131
ATOM    131  C   GLU d   1       5.677 -13.539  33.157  0.00  0.00     0.241 C 
ATOM    132  O   GLU d   1       6.829 -13.730  33.562  0.00  0.00    -0.271 OA
ATOM    133  N   GLU d   1       5.126 -12.329  33.131  0.00  0.00    -0.346 N 
ATOM    134  H90 GLU d   1       4.186 -12.215  32.808  0.00  0.00     0.163 HD
BRANCH 133 135
ATOM    135  CA  GLU d   1       5.890 -11.166  33.573  0.00  0.00     0.090 C 
ATOM    136  H91 GLU d   1       6.898 -11.237  33.139  0.00  0.00     0.087 H 
BRANCH 135 137
ATOM    137  C   GLU d   1       6.031 -11.096  35.088  0.00  0.00     0.241 C 
ATOM    138  O   GLU d   1       6.899 -10.372  35.594  0.00  0.00    -0.271 OA
ATOM    139  N   GLU d   1       5.216 -11.840  35.825  0.00  0.00    -0.346 N 
ATOM    140  H99 GLU d   1       4.577 -12.456  35.364  0.00  0.00     0.163 HD
BRANCH 139 141
ATOM    141  CA  GLU d   1       5.218 -11.793  37.279  0.00  0.00     0.089 C 
ATOM    142 0H10 GLU d   1       5.688 -10.848  37.589  0.00  0.00     0.087 H 
BRANCH 141 143
ATOM    143  C   GLU d   1       6.013 -12.935  37.889  0.00  0.00     0.241 C 
ATOM    144  O   GLU d   1       6.123 -13.013  39.121  0.00  0.00    -0.271 OA
ATOM    145  N   GLU d   1       6.585 -13.804  37.057  0.00  0.00    -0.345 N 
ATOM    146 0H11 GLU d   1       6.494 -13.658  36.072  0.00  0.00     0.163 HD
BRANCH 145 147
ATOM    147  CA  GLU d   1       7.339 -14.962  37.528  0.00  0.00     0.093 C 
ATOM    148 1H11 GLU d   1       6.677 -15.576  38.156  0.00  0.00     0.089 H 
BRANCH 147 149
ATOM    149  C   GLU d   1       8.537 -14.541  38.367  0.00  0.00     0.196 C 
ATOM    150  O   GLU d   1       9.151 -13.506  38.113  0.00  0.00    -0.646 OA
ATOM    151  OXT GLU d   1       8.914 -15.228  39.315  0.00  0.00    -0.646 OA
ENDBRANCH 147 149
BRANCH 147 152
ATOM    152  CB  GLU d   1       7.790 -15.794  36.344  0.00  0.00    -0.048 C 
ATOM    153 2H11 GLU d   1       8.357 -16.665  36.703  0.00  0.00     0.030 H 
ATOM    154 3H11 GLU d   1       8.430 -15.184  35.690  0.00  0.00     0.030 H 
ATOM    155 4H11 GLU d   1       6.910 -16.137  35.780  0.00  0.00     0.030 H 
ENDBRANCH 147 152
ENDBRANCH 145 147
ENDBRANCH 141 143
BRANCH 141 156
ATOM    156  CB  GLU d   1       3.774 -11.812  37.802  0.00  0.00    -0.035 C 
ATOM    157 1H10 GLU d   1       3.810 -11.706  38.896  0.00  0.00     0.037 H 
ATOM    158 2H10 GLU d   1       3.334 -12.786  37.542  0.00  0.00     0.037 H 
BRANCH 156 159
ATOM    159  CG  GLU d   1       2.850 -10.717  37.254  0.00  0.00    -0.059 C 
ATOM    160 3H10 GLU d   1       2.879 -10.769  36.156  0.00  0.00     0.038 H 
BRANCH 159 161
ATOM    161  CD1 GLU d   1       1.413 -10.922  37.695  0.00  0.00    -0.073 C 
ATOM    162 4H10 GLU d   1       0.785 -10.119  37.283  0.00  0.00     0.028 H 
ATOM    163 5H10 GLU d   1       1.360 -10.901  38.794  0.00  0.00     0.028 H 
ATOM    164 6H10 GLU d   1       1.052 -11.894  37.329  0.00  0.00     0.028 H 
ENDBRANCH 159 161
BRANCH 159 165
ATOM    165  CD2 GLU d   1       3.331  -9.351  37.674  0.00  0.00    -0.073 C 
ATOM    166 7H10 GLU d   1       4.373  -9.213  37.349  0.00  0.00     0.028 H 
ATOM    167 8H10 GLU d   1       3.273  -9.263  38.769  0.00  0.00     0.028 H 
ATOM    168 9H10 GLU d   1       2.698  -8.581  37.210  0.00  0.00     0.028 H 
ENDBRANCH 159 165
ENDBRANCH 156 159
ENDBRANCH 141 156
ENDBRANCH 139 141
ENDBRANCH 135 137
BRANCH 135 169
ATOM    169  CB  GLU d   1       5.231  -9.889  33.070  0.00  0.00    -0.030 C 
ATOM    170  H92 GLU d   1       5.692  -9.029  33.578  0.00  0.00     0.037 H 
ATOM    171  H93 GLU d   1       4.158  -9.926  33.311  0.00  0.00     0.037 H 
BRANCH 169 172
ATOM    172  CG  GLU d   1       5.385  -9.714  31.600  0.00  0.00    -0.021 C 
ATOM    173  H94 GLU d   1       4.886 -10.554  31.094  0.00  0.00     0.049 H 
ATOM    174  H95 GLU d   1       6.458  -9.725  31.358  0.00  0.00     0.049 H 
BRANCH 172 175
ATOM    175  SD  GLU d   1       4.673  -8.168  30.983  0.00  0.00    -0.173 SA
BRANCH 175 176
ATOM    176  CE  GLU d   1       5.869  -7.007  31.615  0.00  0.00    -0.035 C 
ATOM    177  H96 GLU d   1       5.580  -5.987  31.322  0.00  0.00     0.041 H 
ATOM    178  H97 GLU d   1       6.861  -7.240  31.201  0.00  0.00     0.041 H 
ATOM    179  H98 GLU d   1       5.904  -7.077  32.712  0.00  0.00     0.041 H 
ENDBRANCH 175 176
ENDBRANCH 172 175
ENDBRANCH 169 172
ENDBRANCH 135 169
ENDBRANCH 133 135
ENDBRANCH 129 131
BRANCH 129 180
ATOM    180  CB  GLU d   1       5.111 -15.057  31.218  0.00  0.00    -0.012 C 
ATOM    181  H82 GLU d   1       4.444 -15.881  30.926  0.00  0.00     0.044 H 
ATOM    182  H83 GLU d   1       6.157 -15.387  31.139  0.00  0.00     0.044 H 
BRANCH 180 183
ATOM    183  CG  GLU d   1       4.908 -13.943  30.262  0.00  0.00    -0.028 A 
ATOM    184  CD1 GLU d   1       3.774 -13.677  29.550  0.00  0.00    -0.015 A 
ATOM    185  NE1 GLU d   1       3.962 -12.578  28.757  0.00  0.00    -0.365 N 
ATOM    186  H84 GLU d   1       2.853 -14.256  29.605  0.00  0.00     0.112 H 
ATOM    187  CE2 GLU d   1       5.237 -12.112  28.936  0.00  0.00     0.042 A 
ATOM    188  H85 GLU d   1       3.258 -12.168  28.127  0.00  0.00     0.165 HD
ATOM    189  CD2 GLU d   1       5.864 -12.955  29.882  0.00  0.00    -0.002 A 
ATOM    190  CZ2 GLU d   1       5.881 -11.000  28.380  0.00  0.00    -0.056 A 
ATOM    191  CE3 GLU d   1       7.193 -12.694  30.242  0.00  0.00    -0.070 A 
ATOM    192  CZ3 GLU d   1       7.840 -11.587  29.671  0.00  0.00    -0.082 A 
ATOM    193  H86 GLU d   1       7.711 -13.334  30.947  0.00  0.00     0.084 H 
ATOM    194  CH2 GLU d   1       7.184 -10.775  28.735  0.00  0.00    -0.081 A 
ATOM    195  H88 GLU d   1       8.860 -11.357  29.957  0.00  0.00     0.083 H 
ATOM    196  H89 GLU d   1       7.721  -9.950  28.282  0.00  0.00     0.083 H 
ATOM    197  H87 GLU d   1       5.365 -10.340  27.692  0.00  0.00     0.086 H 
ENDBRANCH 180 183
ENDBRANCH 129 180
ENDBRANCH 127 129
ENDBRANCH 123 125
BRANCH 123 198
ATOM    198  CB  GLU d   1       0.780 -15.464  34.434  0.00  0.00     0.060 C 
ATOM    199  H75 GLU d   1       0.762 -15.903  33.425  0.00  0.00     0.086 H 
BRANCH 198 200
ATOM    200  OG1 GLU d   1      -0.554 -15.265  34.887  0.00  0.00    -0.393 OA
ATOM    201  H76 GLU d   1      -0.538 -14.865  35.748  0.00  0.00     0.210 HD
ENDBRANCH 198 200
BRANCH 198 202
ATOM    202  CG2 GLU d   1       1.491 -16.416  35.360  0.00  0.00    -0.050 C 
ATOM    203  H77 GLU d   1       0.960 -17.379  35.374  0.00  0.00     0.031 H 
ATOM    204  H78 GLU d   1       1.511 -15.993  36.375  0.00  0.00     0.031 H 
ATOM    205  H79 GLU d   1       2.521 -16.571  35.007  0.00  0.00     0.031 H 
ENDBRANCH 198 202
ENDBRANCH 123 198
ENDBRANCH 121 123
ENDBRANCH 108 119
ENDBRANCH   1 105
BRANCH   1 206
ATOM    206  CB  GLU d   1       1.612  -7.717  34.195  0.00  0.00    -0.035 C 
ATOM    207  H57 GLU d   1       2.345  -8.195  33.528  0.00  0.00     0.037 H 
ATOM    208  H58 GLU d   1       1.622  -8.221  35.173  0.00  0.00     0.037 H 
BRANCH 206 209
ATOM    209  CG  GLU d   1       2.070  -6.271  34.419  0.00  0.00    -0.059 C 
ATOM    210  H59 GLU d   1       1.352  -5.785  35.096  0.00  0.00     0.038 H 
BRANCH 209 211
ATOM    211  CD1 GLU d   1       3.438  -6.256  35.089  0.00  0.00    -0.073 C 
ATOM    212  H60 GLU d   1       3.758  -5.215  35.246  0.00  0.00     0.028 H 
ATOM    213  H61 GLU d   1       4.167  -6.771  34.446  0.00  0.00     0.028 H 
ATOM    214  H62 GLU d   1       3.377  -6.771  36.059  0.00  0.00     0.028 H 
ENDBRANCH 209 211
BRANCH 209 215
ATOM    215  CD2 GLU d   1       2.084  -5.500  33.130  0.00  0.00    -0.073 C 
ATOM    216  H63 GLU d   1       1.084  -5.531  32.673  0.00  0.00     0.028 H 
ATOM    217  H64 GLU d   1       2.815  -5.949  32.442  0.00  0.00     0.028 H 
ATOM    218  H65 GLU d   1       2.363  -4.455  33.331  0.00  0.00     0.028 H 
ENDBRANCH 209 215
ENDBRANCH 206 209
ENDBRANCH   1 206
TORSDOF 59
