REMARK WARNING: 32 MAX_TORS EXCEEDED!!!
REMARK  36 active torsions:
REMARK  status: ('A' for Active; 'I' for Inactive)
REMARK       I    between atoms: C28_28  and  N2_2 
REMARK    1  A    between atoms: N2_2  and  C29_29 
REMARK    2  A    between atoms: C23_23  and  O6_6 
REMARK    3  A    between atoms: O6_6  and  C32_32 
REMARK    4  A    between atoms: O7_7  and  C24_24 
REMARK    5  A    between atoms: C39_39  and  O7_7 
REMARK    6  A    between atoms: O9_9  and  C40_40 
REMARK    7  A    between atoms: C41_41  and  O9_9 
REMARK    8  A    between atoms: C54_54  and  N13_13 
REMARK       I    between atoms: N13_13  and  C55_55 
REMARK       I    between atoms: C55_55  and  N14_14 
REMARK       I    between atoms: N14_14  and  C68_68 
REMARK       I    between atoms: N15_15  and  C61_61 
REMARK    9  A    between atoms: N16_16  and  C51_51 
REMARK       I    between atoms: C75_75  and  N16_16 
REMARK   10  A    between atoms: C18_18  and  C26_26 
REMARK   11  A    between atoms: C18_18  and  C27_27 
REMARK   12  A    between atoms: C26_26  and  C28_28 
REMARK   13  A    between atoms: C35_35  and  C38_38 
REMARK   14  A    between atoms: C40_40  and  C39_39 
REMARK   15  A    between atoms: C48_48  and  C41_41 
REMARK   16  A    between atoms: C44_44  and  C47_47 
REMARK   17  A    between atoms: N49_49  and  C48_48 
REMARK       I    between atoms: C50_50  and  N49_49 
REMARK   18  A    between atoms: C51_51  and  C50_50 
REMARK   19  A    between atoms: C51_51  and  C52_52 
REMARK   20  A    between atoms: C52_52  and  C53_53 
REMARK   21  A    between atoms: C53_53  and  C54_54 
REMARK   22  A    between atoms: O56_56  and  C57_57 
REMARK   23  A    between atoms: C61_61  and  O56_56 
REMARK   24  A    between atoms: C57_57  and  C58_58 
REMARK   25  A    between atoms: C57_57  and  C59_59 
REMARK   26  A    between atoms: C57_57  and  C60_60 
REMARK   27  A    between atoms: O63_63  and  C64_64 
REMARK   28  A    between atoms: C68_68  and  O63_63 
REMARK   29  A    between atoms: C64_64  and  C65_65 
REMARK   30  A    between atoms: C64_64  and  C66_66 
REMARK   31  A    between atoms: C64_64  and  C67_67 
REMARK   32  A    between atoms: O70_70  and  C71_71 
REMARK   33  A    between atoms: O70_70  and  C75_75 
REMARK   34  A    between atoms: C71_71  and  C72_72 
REMARK   35  A    between atoms: C71_71  and  C73_73 
REMARK   36  A    between atoms: C71_71  and  C74_74 
ROOT
ATOM      1  C48 MOL d   1      42.414  29.398  30.642  0.00  0.00     0.015 C 
ATOM      2  H34 MOL d   1      43.458  29.618  30.373  0.00  0.00     0.067 H 
ATOM      3  H35 MOL d   1      42.369  28.440  31.180  0.00  0.00     0.067 H 
ENDROOT
BRANCH   1   4
ATOM      4  C41 MOL d   1      41.613  29.255  29.353  0.00  0.00     0.034 C 
ATOM      5  H28 MOL d   1      42.096  29.868  28.577  0.00  0.00     0.076 H 
ATOM      6  H29 MOL d   1      41.633  28.198  29.050  0.00  0.00     0.076 H 
BRANCH   4   7
ATOM      7  O9  MOL d   1      40.244  29.666  29.464  0.00  0.00    -0.387 OA
BRANCH   7   8
ATOM      8  C40 MOL d   1      39.432  28.592  29.955  0.00  0.00     0.040 C 
ATOM      9  H26 MOL d   1      39.097  28.834  30.975  0.00  0.00     0.077 H 
ATOM     10  H27 MOL d   1      40.032  27.670  29.974  0.00  0.00     0.077 H 
BRANCH   8  11
ATOM     11  C39 MOL d   1      38.210  28.370  29.072  0.00  0.00     0.046 C 
ATOM     12  H24 MOL d   1      37.595  27.552  29.475  0.00  0.00     0.078 H 
ATOM     13  H25 MOL d   1      37.609  29.290  29.019  0.00  0.00     0.078 H 
BRANCH  11  14
ATOM     14  O7  MOL d   1      38.696  28.027  27.781  0.00  0.00    -0.346 OA
BRANCH  14  15
ATOM     15  C24 MOL d   1      37.909  27.164  27.014  0.00  0.00     0.103 A 
ATOM     16  C23 MOL d   1      38.480  26.770  25.814  0.00  0.00     0.110 A 
ATOM     17  C22 MOL d   1      37.812  25.944  24.937  0.00  0.00    -0.038 A 
ATOM     18  C19 MOL d   1      36.570  25.448  25.279  0.00  0.00    -0.013 A 
ATOM     19  H12 MOL d   1      38.259  25.685  23.984  0.00  0.00     0.088 H 
ATOM     20  C18 MOL d   1      35.864  24.520  24.302  0.00  0.00     0.158 C 
ATOM     21  C20 MOL d   1      35.983  25.845  26.489  0.00  0.00    -0.045 A 
ATOM     22  N1  MOL d   1      34.423  24.350  24.658  0.00  0.00    -0.062 N 
ATOM     23  C17 MOL d   1      34.092  24.197  26.108  0.00  0.00     0.086 C 
ATOM     24  H1  MOL d   1      33.929  25.160  24.318  0.00  0.00     0.278 HD
ATOM     25  H2  MOL d   1      34.088  23.527  24.182  0.00  0.00     0.278 HD
ATOM     26  C21 MOL d   1      34.605  25.366  26.931  0.00  0.00    -0.018 C 
ATOM     27  H8  MOL d   1      34.551  23.270  26.482  0.00  0.00     0.076 H 
ATOM     28  H9  MOL d   1      32.999  24.136  26.219  0.00  0.00     0.076 H 
ATOM     29  H10 MOL d   1      34.663  25.055  27.984  0.00  0.00     0.042 H 
ATOM     30  H11 MOL d   1      33.896  26.201  26.834  0.00  0.00     0.042 H 
ATOM     31  C25 MOL d   1      36.650  26.699  27.353  0.00  0.00    -0.041 A 
ATOM     32  H13 MOL d   1      36.190  27.000  28.287  0.00  0.00     0.088 H 
BRANCH  16  33
ATOM     33  O6  MOL d   1      39.706  27.238  25.380  0.00  0.00    -0.308 OA
BRANCH  33  34
ATOM     34  C32 MOL d   1      40.858  26.845  26.085  0.00  0.00     0.079 A 
ATOM     35  C33 MOL d   1      40.838  25.984  27.167  0.00  0.00    -0.049 A 
ATOM     36  C34 MOL d   1      42.023  25.664  27.826  0.00  0.00    -0.067 A 
ATOM     37  H21 MOL d   1      39.900  25.558  27.503  0.00  0.00     0.087 H 
ATOM     38  C35 MOL d   1      43.238  26.165  27.379  0.00  0.00     0.013 A 
ATOM     39  H22 MOL d   1      41.996  25.018  28.696  0.00  0.00     0.085 H 
ATOM     40  C36 MOL d   1      43.232  26.950  26.233  0.00  0.00     0.130 A 
ATOM     41  F8  MOL d   1      44.369  27.428  25.685  0.00  0.00    -0.205 F 
ATOM     42  C37 MOL d   1      42.058  27.330  25.598  0.00  0.00    -0.012 A 
ATOM     43  H23 MOL d   1      42.081  27.992  24.740  0.00  0.00     0.092 H 
BRANCH  38  44
ATOM     44  C38 MOL d   1      44.440  25.870  28.185  0.00  0.00    -0.023 A 
ATOM     45  C42 MOL d   1      45.450  26.809  28.351  0.00  0.00    -0.071 A 
ATOM     46  C43 MOL d   1      46.560  26.538  29.142  0.00  0.00    -0.066 A 
ATOM     47  H30 MOL d   1      45.371  27.770  27.855  0.00  0.00     0.084 H 
ATOM     48  C44 MOL d   1      46.670  25.323  29.799  0.00  0.00     0.040 A 
ATOM     49  H31 MOL d   1      47.343  27.280  29.245  0.00  0.00     0.085 H 
ATOM     50  C45 MOL d   1      45.659  24.390  29.659  0.00  0.00    -0.066 A 
ATOM     51  C46 MOL d   1      44.553  24.665  28.860  0.00  0.00    -0.071 A 
ATOM     52  H32 MOL d   1      45.728  23.439  30.174  0.00  0.00     0.085 H 
ATOM     53  H33 MOL d   1      43.767  23.924  28.764  0.00  0.00     0.084 H 
BRANCH  48  54
ATOM     54  C47 MOL d   1      47.869  25.050  30.657  0.00  0.00     0.209 C 
ATOM     55  O10 MOL d   1      48.743  25.961  30.710  0.00  0.00    -0.644 OA
ATOM     56  O11 MOL d   1      47.925  23.944  31.266  0.00  0.00    -0.644 OA
ENDBRANCH  48  54
ENDBRANCH  38  44
ENDBRANCH  33  34
ENDBRANCH  16  33
BRANCH  20  57
ATOM     57  C26 MOL d   1      36.448  23.093  24.317  0.00  0.00     0.044 C 
ATOM     58  H14 MOL d   1      36.017  22.539  23.470  0.00  0.00     0.051 H 
ATOM     59  H15 MOL d   1      36.149  22.612  25.260  0.00  0.00     0.051 H 
BRANCH  57  60
ATOM     60  C28 MOL d   1      37.957  23.017  24.209  0.00  0.00     0.226 C 
ATOM     61  N2  MOL d   1      38.511  22.572  25.380  0.00  0.00    -0.306 N 
ATOM     62  H3  MOL d   1      37.898  22.223  26.089  0.00  0.00     0.171 HD
ATOM     63  O3  MOL d   1      38.574  23.381  23.226  0.00  0.00    -0.273 OA
BRANCH  61  64
ATOM     64  C29 MOL d   1      39.878  22.577  25.641  0.00  0.00     0.172 A 
ATOM     65  N4  MOL d   1      40.390  22.025  26.718  0.00  0.00    -0.236 NA
ATOM     66  C30 MOL d   1      41.751  22.217  26.750  0.00  0.00     0.011 A 
ATOM     67  C31 MOL d   1      42.258  22.912  25.679  0.00  0.00    -0.025 A 
ATOM     68  H19 MOL d   1      42.378  21.847  27.560  0.00  0.00     0.115 H 
ATOM     69  S5  MOL d   1      41.016  23.334  24.577  0.00  0.00    -0.062 SA
ATOM     70  H20 MOL d   1      43.310  23.162  25.548  0.00  0.00     0.097 H 
ENDBRANCH  61  64
ENDBRANCH  57  60
ENDBRANCH  20  57
BRANCH  20  71
ATOM     71  C27 MOL d   1      35.857  25.115  22.885  0.00  0.00    -0.041 C 
ATOM     72  H16 MOL d   1      36.892  25.271  22.548  0.00  0.00     0.031 H 
ATOM     73  H17 MOL d   1      35.325  26.078  22.894  0.00  0.00     0.031 H 
ATOM     74  H18 MOL d   1      35.349  24.422  22.199  0.00  0.00     0.031 H 
ENDBRANCH  20  71
ENDBRANCH  14  15
ENDBRANCH  11  14
ENDBRANCH   8  11
ENDBRANCH   7   8
ENDBRANCH   4   7
ENDBRANCH   1   4
BRANCH   1  75
ATOM     75  N49 MOL d   1      41.951  30.440  31.539  0.00  0.00    -0.357 N 
ATOM     76  C50 MOL d   1      42.601  31.659  31.628  0.00  0.00     0.240 C 
ATOM     77  O12 MOL d   1      43.685  31.898  31.113  0.00  0.00    -0.271 OA
ATOM     78  H36 MOL d   1      41.144  30.274  32.106  0.00  0.00     0.162 HD
BRANCH  76  79
ATOM     79  C51 MOL d   1      41.868  32.737  32.391  0.00  0.00     0.091 C 
ATOM     80  H37 MOL d   1      41.740  33.590  31.709  0.00  0.00     0.087 H 
BRANCH  79  81
ATOM     81  N16 MOL d   1      40.548  32.277  32.762  0.00  0.00    -0.324 N 
ATOM     82  C75 MOL d   1      39.484  32.513  31.923  0.00  0.00     0.362 C 
ATOM     83  O76 MOL d   1      39.600  32.799  30.733  0.00  0.00    -0.238 OA
ATOM     84  H7  MOL d   1      40.410  31.790  33.624  0.00  0.00     0.165 HD
BRANCH  82  85
ATOM     85  O70 MOL d   1      38.308  32.369  32.637  0.00  0.00    -0.294 OA
BRANCH  85  86
ATOM     86  C71 MOL d   1      37.031  32.435  31.960  0.00  0.00     0.061 C 
BRANCH  86  87
ATOM     87  C72 MOL d   1      36.788  31.183  31.134  0.00  0.00    -0.048 C 
ATOM     88  H62 MOL d   1      35.813  31.259  30.631  0.00  0.00     0.031 H 
ATOM     89  H63 MOL d   1      36.793  30.302  31.793  0.00  0.00     0.031 H 
ATOM     90  H64 MOL d   1      37.582  31.081  30.380  0.00  0.00     0.031 H 
ENDBRANCH  86  87
BRANCH  86  91
ATOM     91  C73 MOL d   1      36.786  33.713  31.182  0.00  0.00    -0.048 C 
ATOM     92  H65 MOL d   1      35.795  33.668  30.706  0.00  0.00     0.031 H 
ATOM     93  H66 MOL d   1      37.560  33.825  30.408  0.00  0.00     0.031 H 
ATOM     94  H67 MOL d   1      36.825  34.573  31.867  0.00  0.00     0.031 H 
ENDBRANCH  86  91
BRANCH  86  95
ATOM     95  C74 MOL d   1      35.995  32.489  33.041  0.00  0.00    -0.048 C 
ATOM     96  H68 MOL d   1      34.994  32.541  32.587  0.00  0.00     0.031 H 
ATOM     97  H69 MOL d   1      36.161  33.380  33.664  0.00  0.00     0.031 H 
ATOM     98  H70 MOL d   1      36.069  31.586  33.665  0.00  0.00     0.031 H 
ENDBRANCH  86  95
ENDBRANCH  85  86
ENDBRANCH  82  85
ENDBRANCH  79  81
BRANCH  79  99
ATOM     99  C52 MOL d   1      42.647  33.243  33.588  0.00  0.00    -0.036 C 
ATOM    100  H38 MOL d   1      43.567  32.651  33.707  0.00  0.00     0.036 H 
ATOM    101  H39 MOL d   1      42.032  33.150  34.495  0.00  0.00     0.036 H 
BRANCH  99 102
ATOM    102  C53 MOL d   1      43.004  34.699  33.362  0.00  0.00    -0.048 C 
ATOM    103  H40 MOL d   1      42.856  34.941  32.299  0.00  0.00     0.035 H 
ATOM    104  H41 MOL d   1      44.060  34.852  33.629  0.00  0.00     0.035 H 
BRANCH 102 105
ATOM    105  C54 MOL d   1      42.149  35.627  34.198  0.00  0.00     0.009 C 
ATOM    106  H42 MOL d   1      41.094  35.511  33.908  0.00  0.00     0.064 H 
ATOM    107  H43 MOL d   1      42.267  35.372  35.262  0.00  0.00     0.064 H 
BRANCH 105 108
ATOM    108  N13 MOL d   1      42.559  37.006  33.984  0.00  0.00    -0.226 N 
ATOM    109  C55 MOL d   1      41.686  38.064  34.169  0.00  0.00     0.686 C 
ATOM    110  N14 MOL d   1      41.150  38.618  33.020  0.00  0.00    -0.135 N 
ATOM    111  N15 MOL d   1      41.331  38.616  35.290  0.00  0.00    -0.135 N 
ATOM    112  C68 MOL d   1      40.967  39.979  32.839  0.00  0.00     0.379 C 
ATOM    113  H5  MOL d   1      40.880  38.002  32.280  0.00  0.00     0.189 HD
ATOM    114  O69 MOL d   1      41.565  40.870  33.431  0.00  0.00    -0.238 OA
ATOM    115  C61 MOL d   1      41.830  38.134  36.471  0.00  0.00     0.379 C 
ATOM    116  H6  MOL d   1      40.697  39.389  35.291  0.00  0.00     0.189 HD
ATOM    117  O62 MOL d   1      41.140  37.543  37.289  0.00  0.00    -0.238 OA
ATOM    118  H4  MOL d   1      43.526  37.201  33.687  0.00  0.00     0.177 HD
BRANCH 112 119
ATOM    119  O63 MOL d   1      39.977  40.229  31.920  0.00  0.00    -0.293 OA
BRANCH 119 120
ATOM    120  C64 MOL d   1      40.342  40.840  30.665  0.00  0.00     0.061 C 
BRANCH 120 121
ATOM    121  C65 MOL d   1      40.374  42.348  30.785  0.00  0.00    -0.048 C 
ATOM    122  H53 MOL d   1      40.654  42.787  29.816  0.00  0.00     0.031 H 
ATOM    123  H54 MOL d   1      41.112  42.640  31.547  0.00  0.00     0.031 H 
ATOM    124  H55 MOL d   1      39.379  42.714  31.079  0.00  0.00     0.031 H 
ENDBRANCH 120 121
BRANCH 120 125
ATOM    125  C66 MOL d   1      39.243  40.492  29.693  0.00  0.00    -0.048 C 
ATOM    126  H56 MOL d   1      39.468  40.934  28.711  0.00  0.00     0.031 H 
ATOM    127  H57 MOL d   1      38.286  40.889  30.063  0.00  0.00     0.031 H 
ATOM    128  H58 MOL d   1      39.173  39.399  29.595  0.00  0.00     0.031 H 
ENDBRANCH 120 125
BRANCH 120 129
ATOM    129  C67 MOL d   1      41.650  40.338  30.083  0.00  0.00    -0.048 C 
ATOM    130  H59 MOL d   1      41.850  40.854  29.132  0.00  0.00     0.031 H 
ATOM    131  H60 MOL d   1      41.580  39.255  29.905  0.00  0.00     0.031 H 
ATOM    132  H61 MOL d   1      42.468  40.542  30.790  0.00  0.00     0.031 H 
ENDBRANCH 120 129
ENDBRANCH 119 120
ENDBRANCH 112 119
BRANCH 115 133
ATOM    133  O56 MOL d   1      43.161  38.469  36.609  0.00  0.00    -0.293 OA
BRANCH 133 134
ATOM    134  C57 MOL d   1      44.000  37.801  37.576  0.00  0.00     0.061 C 
BRANCH 134 135
ATOM    135  C58 MOL d   1      43.566  38.049  39.006  0.00  0.00    -0.048 C 
ATOM    136  H44 MOL d   1      44.241  37.516  39.692  0.00  0.00     0.031 H 
ATOM    137  H45 MOL d   1      42.538  37.683  39.146  0.00  0.00     0.031 H 
ATOM    138  H46 MOL d   1      43.604  39.127  39.219  0.00  0.00     0.031 H 
ENDBRANCH 134 135
BRANCH 134 139
ATOM    139  C59 MOL d   1      44.147  36.317  37.310  0.00  0.00    -0.048 C 
ATOM    140  H47 MOL d   1      44.795  35.869  38.078  0.00  0.00     0.031 H 
ATOM    141  H48 MOL d   1      44.596  36.165  36.318  0.00  0.00     0.031 H 
ATOM    142  H49 MOL d   1      43.157  35.839  37.341  0.00  0.00     0.031 H 
ENDBRANCH 134 139
BRANCH 134 143
ATOM    143  C60 MOL d   1      45.372  38.411  37.423  0.00  0.00    -0.048 C 
ATOM    144  H50 MOL d   1      46.064  37.941  38.138  0.00  0.00     0.031 H 
ATOM    145  H51 MOL d   1      45.317  39.492  37.622  0.00  0.00     0.031 H 
ATOM    146  H52 MOL d   1      45.735  38.245  36.398  0.00  0.00     0.031 H 
ENDBRANCH 134 143
ENDBRANCH 133 134
ENDBRANCH 115 133
ENDBRANCH 105 108
ENDBRANCH 102 105
ENDBRANCH  99 102
ENDBRANCH  79  99
ENDBRANCH  76  79
ENDBRANCH   1  75
TORSDOF 36
