REMARK  7 active torsions:
REMARK  status: ('A' for Active; 'I' for Inactive)
REMARK    1  A    between atoms: S01_25  and  C10_1 
REMARK    2  A    between atoms: S02_26  and  C13_2 
REMARK    3  A    between atoms: C02_4  and  S03_27 
REMARK    4  A    between atoms: C04_6  and  S02_26 
REMARK    5  A    between atoms: N01_19  and  C06_8 
REMARK    6  A    between atoms: C11_12  and  O03_22 
REMARK    7  A    between atoms: N01_19  and  S01_25 
ROOT
ATOM      1  C01 Q0S d   1     140.569   3.663  17.402  0.00  0.00    -0.032 A 
ATOM      2  C02 Q0S d   1     141.618   3.851  16.498  0.00  0.00     0.102 A 
ATOM      3  C03 Q0S d   1     141.328   4.167  15.169  0.00  0.00    -0.037 A 
ATOM      4  C04 Q0S d   1     140.014   4.298  14.741  0.00  0.00     0.062 A 
ATOM      5  C05 Q0S d   1     138.973   4.112  15.645  0.00  0.00    -0.036 A 
ATOM      6  C06 Q0S d   1     139.250   3.803  16.973  0.00  0.00     0.045 A 
ATOM      7  H4  Q0S d   1     140.780   3.409  18.434  0.00  0.00     0.089 H 
ATOM      8  H5  Q0S d   1     142.138   4.312  14.464  0.00  0.00     0.088 H 
ATOM      9  H6  Q0S d   1     137.945   4.208  15.314  0.00  0.00     0.089 H 
ENDROOT
BRANCH   6  10
ATOM     10  N01 Q0S d   1     138.170   3.612  17.831  0.00  0.00    -0.280 N 
ATOM     11  H10 Q0S d   1     137.538   2.853  17.672  0.00  0.00     0.179 HD
BRANCH  10  12
ATOM     12  S01 Q0S d   1     137.923   4.632  19.113  0.00  0.00     0.266 S 
ATOM     13  O01 Q0S d   1     136.901   4.048  19.900  0.00  0.00    -0.200 OA
ATOM     14  O02 Q0S d   1     139.158   4.892  19.762  0.00  0.00    -0.200 OA
BRANCH  12  15
ATOM     15  C10 Q0S d   1     137.285   6.157  18.427  0.00  0.00     0.114 A 
ATOM     16  C09 Q0S d   1     137.928   7.369  18.673  0.00  0.00    -0.041 A 
ATOM     17  C08 Q0S d   1     137.429   8.550  18.142  0.00  0.00     0.012 A 
ATOM     18  H8  Q0S d   1     138.824   7.389  19.283  0.00  0.00     0.088 H 
ATOM     19  C07 Q0S d   1     136.279   8.538  17.354  0.00  0.00    -0.064 A 
ATOM     20 BR1  Q0S d   1     138.346  10.156  18.509  0.00  0.00    -0.051 Br
ATOM     21  C12 Q0S d   1     135.626   7.333  17.106  0.00  0.00    -0.048 A 
ATOM     22  H7  Q0S d   1     135.895   9.462  16.936  0.00  0.00     0.085 H 
ATOM     23  C11 Q0S d   1     136.136   6.146  17.647  0.00  0.00     0.089 A 
ATOM     24  H9  Q0S d   1     134.729   7.314  16.498  0.00  0.00     0.087 H 
BRANCH  23  25
ATOM     25  O03 Q0S d   1     135.497   4.947  17.407  0.00  0.00    -0.359 OA
ATOM     26  H11 Q0S d   1     134.609   4.990  17.743  0.00  0.00     0.217 HD
ENDBRANCH  23  25
ENDBRANCH  12  15
ENDBRANCH  10  12
ENDBRANCH   6  10
BRANCH   2  27
ATOM     27  S03 Q0S d   1     143.371   3.680  17.026  0.00  0.00     0.311 SA
ATOM     28  F02 Q0S d   1     143.205   5.061  18.033  0.00  0.00    -0.093 F 
ATOM     29  F03 Q0S d   1     142.880   2.626  18.291  0.00  0.00    -0.093 F 
ATOM     30  F04 Q0S d   1     144.996   3.495  17.536  0.00  0.00    -0.093 F 
ATOM     31  F05 Q0S d   1     143.554   2.322  15.981  0.00  0.00    -0.093 F 
ATOM     32  F01 Q0S d   1     143.890   4.712  15.749  0.00  0.00    -0.093 F 
ENDBRANCH   2  27
BRANCH   4  33
ATOM     33  S02 Q0S d   1     139.695   4.702  13.020  0.00  0.00     0.172 S 
ATOM     34  O04 Q0S d   1     138.295   4.829  12.836  0.00  0.00    -0.223 OA
ATOM     35  O05 Q0S d   1     140.522   5.792  12.640  0.00  0.00    -0.223 OA
BRANCH  33  36
ATOM     36  C13 Q0S d   1     140.242   3.246  12.166  0.00  0.00     0.020 C 
ATOM     37  H1  Q0S d   1     140.093   3.378  11.084  0.00  0.00     0.049 H 
ATOM     38  H2  Q0S d   1     139.662   2.378  12.512  0.00  0.00     0.049 H 
ATOM     39  H3  Q0S d   1     141.310   3.079  12.372  0.00  0.00     0.049 H 
ENDBRANCH  33  36
ENDBRANCH   4  33
TORSDOF 7
