REMARK  18 active torsions:
REMARK  status: ('A' for Active; 'I' for Inactive)
REMARK    1  A    between atoms: C2_2  and  B1_40 
REMARK    2  A    between atoms: S8_36  and  C5_3 
REMARK    3  A    between atoms: C32_12  and  C33_11 
REMARK    4  A    between atoms: C19_28  and  C32_12 
REMARK    5  A    between atoms: C13_13  and  C14_14 
REMARK    6  A    between atoms: C13_13  and  C15_15 
REMARK    7  A    between atoms: C12_35  and  C13_13 
REMARK    8  A    between atoms: C16_16  and  C17_17 
REMARK    9  A    between atoms: N11_34  and  C16_16 
REMARK   10  A    between atoms: C17_17  and  C19_28 
REMARK   11  A    between atoms: C17_17  and  O18_33 
REMARK   12  A    between atoms: C21_18  and  O23_20 
REMARK       I    between atoms: N20_27  and  C21_18 
REMARK   13  A    between atoms: O23_20  and  C49_21 
REMARK   14  A    between atoms: C19_28  and  N20_27 
REMARK   15  A    between atoms: N11_34  and  C12_35 
REMARK   16  A    between atoms: N11_34  and  S8_36 
REMARK   17  A    between atoms: B1_40  and  O4_41 
REMARK   18  A    between atoms: B1_40  and  O3_42 
ROOT
ATOM      1  C19 Q1D d   1      15.343  23.169  16.967  0.00  0.00     0.044 C 
ATOM      2  H30 Q1D d   1      16.279  22.673  16.671  0.00  0.00     0.077 H 
ENDROOT
BRANCH   1   3
ATOM      3  C32 Q1D d   1      14.597  23.631  15.661  0.00  0.00    -0.020 C 
ATOM      4  H12 Q1D d   1      13.659  24.137  15.932  0.00  0.00     0.043 H 
ATOM      5  H13 Q1D d   1      15.238  24.325  15.097  0.00  0.00     0.043 H 
BRANCH   3   6
ATOM      6  C33 Q1D d   1      14.289  22.409  14.803  0.00  0.00    -0.056 A 
ATOM      7  C34 Q1D d   1      15.308  21.814  14.065  0.00  0.00    -0.077 A 
ATOM      8  C35 Q1D d   1      15.041  20.625  13.349  0.00  0.00    -0.082 A 
ATOM      9  H11 Q1D d   1      16.297  22.258  14.040  0.00  0.00     0.084 H 
ATOM     10  C36 Q1D d   1      13.779  20.096  13.414  0.00  0.00    -0.083 A 
ATOM     11  H34 Q1D d   1      15.816  20.144  12.763  0.00  0.00     0.083 H 
ATOM     12  C37 Q1D d   1      12.754  20.689  14.099  0.00  0.00    -0.082 A 
ATOM     13  H33 Q1D d   1      13.583  19.163  12.898  0.00  0.00     0.083 H 
ATOM     14  C38 Q1D d   1      13.013  21.846  14.782  0.00  0.00    -0.077 A 
ATOM     15  H32 Q1D d   1      11.761  20.253  14.101  0.00  0.00     0.083 H 
ATOM     16  H31 Q1D d   1      12.209  22.336  15.319  0.00  0.00     0.084 H 
ENDBRANCH   3   6
ENDBRANCH   1   3
BRANCH   1  17
ATOM     17  C17 Q1D d   1      15.688  24.339  17.974  0.00  0.00     0.071 C 
ATOM     18  H23 Q1D d   1      16.006  23.888  18.926  0.00  0.00     0.088 H 
BRANCH  17  19
ATOM     19  C16 Q1D d   1      16.848  25.195  17.454  0.00  0.00     0.031 C 
ATOM     20  H21 Q1D d   1      16.974  26.069  18.110  0.00  0.00     0.069 H 
ATOM     21  H22 Q1D d   1      16.617  25.534  16.433  0.00  0.00     0.069 H 
BRANCH  19  22
ATOM     22  N11 Q1D d   1      18.107  24.417  17.434  0.00  0.00    -0.304 N 
BRANCH  22  23
ATOM     23  C12 Q1D d   1      19.080  24.727  18.538  0.00  0.00     0.008 C 
ATOM     24  H36 Q1D d   1      20.078  24.366  18.248  0.00  0.00     0.066 H 
ATOM     25  H37 Q1D d   1      19.114  25.816  18.692  0.00  0.00     0.066 H 
BRANCH  23  26
ATOM     26  C13 Q1D d   1      18.664  24.049  19.850  0.00  0.00    -0.045 C 
ATOM     27  H14 Q1D d   1      17.697  24.454  20.183  0.00  0.00     0.041 H 
BRANCH  26  28
ATOM     28  C14 Q1D d   1      18.503  22.567  19.682  0.00  0.00    -0.072 C 
ATOM     29  H15 Q1D d   1      18.205  22.119  20.642  0.00  0.00     0.028 H 
ATOM     30  H16 Q1D d   1      19.457  22.129  19.354  0.00  0.00     0.028 H 
ATOM     31  H17 Q1D d   1      17.728  22.366  18.927  0.00  0.00     0.028 H 
ENDBRANCH  26  28
BRANCH  26  32
ATOM     32  C15 Q1D d   1      19.713  24.439  20.824  0.00  0.00    -0.072 C 
ATOM     33  H18 Q1D d   1      19.765  25.536  20.887  0.00  0.00     0.028 H 
ATOM     34  H19 Q1D d   1      20.685  24.044  20.494  0.00  0.00     0.028 H 
ATOM     35  H20 Q1D d   1      19.466  24.027  21.813  0.00  0.00     0.028 H 
ENDBRANCH  26  32
ENDBRANCH  23  26
ENDBRANCH  22  23
BRANCH  22  36
ATOM     36  S8  Q1D d   1      18.790  24.169  15.975  0.00  0.00     0.260 S 
ATOM     37  O9  Q1D d   1      17.709  24.158  15.039  0.00  0.00    -0.200 OA
ATOM     38  O10 Q1D d   1      19.565  22.995  16.173  0.00  0.00    -0.200 OA
BRANCH  36  39
ATOM     39  C5  Q1D d   1      19.823  25.437  15.568  0.00  0.00     0.079 C 
ATOM     40  C6  Q1D d   1      19.402  26.611  14.994  0.00  0.00    -0.061 C 
ATOM     41  C39 Q1D d   1      20.292  27.670  14.752  0.00  0.00    -0.087 C 
ATOM     42  H1  Q1D d   1      18.359  26.723  14.721  0.00  0.00     0.085 H 
ATOM     43  C2  Q1D d   1      21.667  27.488  14.993  0.00  0.00    -0.119 C 
ATOM     44  H38 Q1D d   1      19.923  28.620  14.383  0.00  0.00     0.082 H 
ATOM     45  C3  Q1D d   1      22.085  26.278  15.483  0.00  0.00    -0.087 C 
ATOM     46  C4  Q1D d   1      21.151  25.340  15.835  0.00  0.00    -0.061 C 
ATOM     47  H4  Q1D d   1      23.143  26.066  15.591  0.00  0.00     0.082 H 
ATOM     48  H3  Q1D d   1      21.496  24.459  16.364  0.00  0.00     0.085 H 
BRANCH  43  49
ATOM     49  B1  Q1D d   1      22.699  28.627  14.788  0.00  0.00     0.133 B 
BRANCH  49  50
ATOM     50  O4  Q1D d   1      22.177  29.888  14.319  0.00  0.00     0.000 OA
ATOM     51  H39 Q1D d   1      21.247  29.800  14.145  0.00  0.00     0.000 HD
ATOM     52  H40 Q1D d   1      21.247  29.800  14.145  0.00  0.00     0.000 HD
ENDBRANCH  49  50
BRANCH  49  53
ATOM     53  O3  Q1D d   1      24.082  28.477  15.126  0.00  0.00     0.000 OA
ATOM     54  H41 Q1D d   1      24.242  27.585  15.413  0.00  0.00     0.000 HD
ATOM     55  H42 Q1D d   1      24.242  27.586  15.413  0.00  0.00     0.000 HD
ENDBRANCH  49  53
ENDBRANCH  43  49
ENDBRANCH  36  39
ENDBRANCH  22  36
ENDBRANCH  19  22
ENDBRANCH  17  19
BRANCH  17  56
ATOM     56  O18 Q1D d   1      14.530  25.111  18.223  0.00  0.00    -0.392 OA
ATOM     57  H35 Q1D d   1      14.215  25.480  17.406  0.00  0.00     0.210 HD
ENDBRANCH  17  56
ENDBRANCH   1  17
BRANCH   1  58
ATOM     58  N20 Q1D d   1      14.479  22.213  17.697  0.00  0.00    -0.329 N 
ATOM     59  C21 Q1D d   1      14.732  20.908  17.735  0.00  0.00     0.361 C 
ATOM     60  O22 Q1D d   1      15.691  20.298  17.337  0.00  0.00    -0.238 OA
ATOM     61  H29 Q1D d   1      13.675  22.562  18.179  0.00  0.00     0.165 HD
BRANCH  59  62
ATOM     62  O23 Q1D d   1      13.643  20.226  18.201  0.00  0.00    -0.298 OA
BRANCH  62  63
ATOM     63  C49 Q1D d   1      13.577  18.837  18.012  0.00  0.00     0.061 C 
ATOM     64  C9  Q1D d   1      13.463  18.041  19.325  0.00  0.00    -0.007 C 
ATOM     65  C10 Q1D d   1      12.921  16.732  18.798  0.00  0.00    -0.049 C 
ATOM     66  C8  Q1D d   1      12.447  18.672  20.310  0.00  0.00     0.028 C 
ATOM     67  H5  Q1D d   1      14.439  17.922  19.818  0.00  0.00     0.047 H 
ATOM     68  C69 Q1D d   1      11.801  17.259  17.971  0.00  0.00     0.002 C 
ATOM     69  H9  Q1D d   1      12.564  16.078  19.607  0.00  0.00     0.034 H 
ATOM     70  H10 Q1D d   1      13.663  16.193  18.191  0.00  0.00     0.034 H 
ATOM     71  C7  Q1D d   1      10.708  17.945  18.789  0.00  0.00     0.135 C 
ATOM     72  C59 Q1D d   1      12.365  18.402  17.218  0.00  0.00     0.001 C 
ATOM     73  H25 Q1D d   1      11.389  16.471  17.323  0.00  0.00     0.048 H 
ATOM     74  O1  Q1D d   1      11.135  18.138  20.152  0.00  0.00    -0.360 OA
ATOM     75  O2  Q1D d   1      10.399  19.286  18.228  0.00  0.00    -0.360 OA
ATOM     76  H6  Q1D d   1       9.803  17.320  18.771  0.00  0.00     0.129 H 
ATOM     77  C11 Q1D d   1      11.225  19.395  17.104  0.00  0.00     0.029 C 
ATOM     78  H7  Q1D d   1      11.632  20.415  17.045  0.00  0.00     0.075 H 
ATOM     79  H8  Q1D d   1      10.641  19.180  16.197  0.00  0.00     0.075 H 
ATOM     80  H28 Q1D d   1      12.685  18.103  16.209  0.00  0.00     0.048 H 
ATOM     81  H26 Q1D d   1      12.411  19.757  20.133  0.00  0.00     0.075 H 
ATOM     82  H27 Q1D d   1      12.786  18.479  21.339  0.00  0.00     0.075 H 
ATOM     83  H24 Q1D d   1      14.490  18.532  17.480  0.00  0.00     0.085 H 
ENDBRANCH  62  63
ENDBRANCH  59  62
ENDBRANCH   1  58
TORSDOF 18
