REMARK  18 active torsions:
REMARK  status: ('A' for Active; 'I' for Inactive)
REMARK    1  A    between atoms: S8_2  and  C5_4 
REMARK    2  A    between atoms: S8_2  and  N11_13 
REMARK    3  A    between atoms: C2_9  and  B1_10 
REMARK    4  A    between atoms: B1_10  and  O3_11 
REMARK    5  A    between atoms: B1_10  and  O4_12 
REMARK    6  A    between atoms: N11_13  and  C12_14 
REMARK    7  A    between atoms: N11_13  and  C16_18 
REMARK    8  A    between atoms: C12_14  and  C13_15 
REMARK    9  A    between atoms: C13_15  and  C15_16 
REMARK   10  A    between atoms: C13_15  and  C14_17 
REMARK   11  A    between atoms: C16_18  and  C17_19 
REMARK   12  A    between atoms: C17_19  and  O18_20 
REMARK   13  A    between atoms: C17_19  and  C19_21 
REMARK   14  A    between atoms: C19_21  and  C32_22 
REMARK   15  A    between atoms: C19_21  and  N20_29 
REMARK   16  A    between atoms: C32_22  and  C33_23 
REMARK       I    between atoms: N20_29  and  C21_30 
REMARK   17  A    between atoms: C21_30  and  O23_32 
REMARK   18  A    between atoms: O23_32  and  C24_33 
ROOT
ATOM      1  C17 B4R d   1      15.492  23.969  18.086  0.00  0.00     0.071 C 
ATOM      2  H21 B4R d   1      15.811  23.487  19.022  0.00  0.00     0.088 H 
ENDROOT
BRANCH   1   3
ATOM      3  C16 B4R d   1      16.632  24.847  17.626  0.00  0.00     0.031 C 
ATOM      4  H19 B4R d   1      16.366  25.252  16.639  0.00  0.00     0.069 H 
ATOM      5  H20 B4R d   1      16.731  25.672  18.346  0.00  0.00     0.069 H 
BRANCH   3   6
ATOM      6  N11 B4R d   1      17.930  24.207  17.506  0.00  0.00    -0.304 N 
BRANCH   6   7
ATOM      7  S8  B4R d   1      18.625  23.875  16.052  0.00  0.00     0.260 S 
ATOM      8  O10 B4R d   1      17.550  23.788  15.094  0.00  0.00    -0.200 OA
ATOM      9  O9  B4R d   1      19.427  22.701  16.266  0.00  0.00    -0.200 OA
BRANCH   7  10
ATOM     10  C5  B4R d   1      19.646  25.202  15.620  0.00  0.00     0.079 A 
ATOM     11  C6  B4R d   1      19.153  26.339  14.989  0.00  0.00    -0.061 A 
ATOM     12  C39 B4R d   1      20.042  27.386  14.727  0.00  0.00    -0.087 A 
ATOM     13  H1  B4R d   1      18.108  26.412  14.708  0.00  0.00     0.085 H 
ATOM     14  C2  B4R d   1      21.393  27.300  15.044  0.00  0.00    -0.119 A 
ATOM     15  H2  B4R d   1      19.667  28.291  14.263  0.00  0.00     0.082 H 
ATOM     16  C3  B4R d   1      21.878  26.162  15.625  0.00  0.00    -0.087 A 
ATOM     17  C4  B4R d   1      21.009  25.141  15.889  0.00  0.00    -0.061 A 
ATOM     18  H4  B4R d   1      22.930  26.071  15.871  0.00  0.00     0.082 H 
ATOM     19  H3  B4R d   1      21.404  24.234  16.332  0.00  0.00     0.085 H 
BRANCH  14  20
ATOM     20  B1  B4R d   1      22.445  28.453  14.788  0.00  0.00     0.133 B 
BRANCH  20  21
ATOM     21  O3  B4R d   1      23.897  28.251  15.138  0.00  0.00     0.000 OA
ATOM     22  H6  B4R d   1      24.015  27.384  15.508  0.00  0.00     0.000 HD
ATOM     23  H7  B4R d   1      24.015  27.384  15.508  0.00  0.00     0.000 HD
ENDBRANCH  20  21
BRANCH  20  24
ATOM     24  O4  B4R d   1      21.788  29.581  14.214  0.00  0.00     0.000 OA
ATOM     25  H8  B4R d   1      20.862  29.392  14.118  0.00  0.00     0.000 HD
ATOM     26  H9  B4R d   1      20.862  29.392  14.118  0.00  0.00     0.000 HD
ENDBRANCH  20  24
ENDBRANCH  14  20
ENDBRANCH   7  10
ENDBRANCH   6   7
BRANCH   6  27
ATOM     27  C12 B4R d   1      18.858  24.472  18.637  0.00  0.00     0.008 C 
ATOM     28  H10 B4R d   1      18.853  25.556  18.826  0.00  0.00     0.066 H 
ATOM     29  H11 B4R d   1      19.865  24.159  18.323  0.00  0.00     0.066 H 
BRANCH  27  30
ATOM     30  C13 B4R d   1      18.536  23.749  19.997  0.00  0.00    -0.045 C 
ATOM     31  H12 B4R d   1      17.547  24.084  20.343  0.00  0.00     0.041 H 
BRANCH  30  32
ATOM     32  C15 B4R d   1      19.549  24.222  20.982  0.00  0.00    -0.072 C 
ATOM     33  H13 B4R d   1      19.366  23.743  21.955  0.00  0.00     0.028 H 
ATOM     34  H14 B4R d   1      19.473  25.314  21.091  0.00  0.00     0.028 H 
ATOM     35  H15 B4R d   1      20.556  23.959  20.627  0.00  0.00     0.028 H 
ENDBRANCH  30  32
BRANCH  30  36
ATOM     36  C14 B4R d   1      18.459  22.237  19.840  0.00  0.00    -0.072 C 
ATOM     37  H16 B4R d   1      17.689  21.984  19.097  0.00  0.00     0.028 H 
ATOM     38  H17 B4R d   1      18.200  21.781  20.807  0.00  0.00     0.028 H 
ATOM     39  H18 B4R d   1      19.433  21.853  19.503  0.00  0.00     0.028 H 
ENDBRANCH  30  36
ENDBRANCH  27  30
ENDBRANCH   6  27
ENDBRANCH   3   6
ENDBRANCH   1   3
BRANCH   1  40
ATOM     40  O18 B4R d   1      14.367  24.756  18.369  0.00  0.00    -0.392 OA
ATOM     41  H22 B4R d   1      14.105  25.225  17.586  0.00  0.00     0.210 HD
ENDBRANCH   1  40
BRANCH   1  42
ATOM     42  C19 B4R d   1      15.128  22.844  17.100  0.00  0.00     0.044 C 
ATOM     43  H23 B4R d   1      16.059  22.337  16.807  0.00  0.00     0.077 H 
BRANCH  42  44
ATOM     44  C32 B4R d   1      14.402  23.335  15.795  0.00  0.00    -0.020 C 
ATOM     45  H24 B4R d   1      15.062  24.032  15.258  0.00  0.00     0.043 H 
ATOM     46  H25 B4R d   1      13.472  23.852  16.074  0.00  0.00     0.043 H 
BRANCH  44  47
ATOM     47  C33 B4R d   1      14.074  22.197  14.906  0.00  0.00    -0.056 A 
ATOM     48  C38 B4R d   1      12.750  21.814  14.794  0.00  0.00    -0.077 A 
ATOM     49  C37 B4R d   1      12.415  20.676  14.006  0.00  0.00    -0.082 A 
ATOM     50  H26 B4R d   1      11.974  22.375  15.302  0.00  0.00     0.084 H 
ATOM     51  C36 B4R d   1      13.420  19.975  13.349  0.00  0.00    -0.083 A 
ATOM     52  H27 B4R d   1      11.382  20.358  13.919  0.00  0.00     0.083 H 
ATOM     53  C35 B4R d   1      14.702  20.422  13.393  0.00  0.00    -0.082 A 
ATOM     54  H28 B4R d   1      13.180  19.071  12.801  0.00  0.00     0.083 H 
ATOM     55  C34 B4R d   1      15.046  21.536  14.192  0.00  0.00    -0.077 A 
ATOM     56  H29 B4R d   1      15.467  19.921  12.811  0.00  0.00     0.083 H 
ATOM     57  H30 B4R d   1      16.076  21.869  14.242  0.00  0.00     0.084 H 
ENDBRANCH  44  47
ENDBRANCH  42  44
BRANCH  42  58
ATOM     58  N20 B4R d   1      14.250  21.892  17.756  0.00  0.00    -0.329 N 
ATOM     59  C21 B4R d   1      14.591  20.611  17.922  0.00  0.00     0.361 C 
ATOM     60  O22 B4R d   1      15.701  20.086  17.681  0.00  0.00    -0.238 OA
ATOM     61  H31 B4R d   1      13.362  22.205  18.094  0.00  0.00     0.165 HD
BRANCH  59  62
ATOM     62  O23 B4R d   1      13.504  19.886  18.354  0.00  0.00    -0.298 OA
BRANCH  62  63
ATOM     63  C24 B4R d   1      13.701  18.468  18.568  0.00  0.00     0.059 C 
ATOM     64  C25 B4R d   1      13.888  18.279  20.026  0.00  0.00    -0.020 C 
ATOM     65  C44 B4R d   1      12.621  18.593  20.811  0.00  0.00     0.025 C 
ATOM     66  H33 B4R d   1      14.693  18.945  20.370  0.00  0.00     0.040 H 
ATOM     67  H34 B4R d   1      14.172  17.233  20.215  0.00  0.00     0.040 H 
ATOM     68  O26 B4R d   1      11.450  18.014  20.342  0.00  0.00    -0.361 OA
ATOM     69  H35 B4R d   1      12.483  19.684  20.802  0.00  0.00     0.074 H 
ATOM     70  H36 B4R d   1      12.774  18.251  21.845  0.00  0.00     0.074 H 
ATOM     71  C27 B4R d   1      11.217  17.889  18.949  0.00  0.00     0.137 C 
ATOM     72  C31 B4R d   1      12.406  17.804  18.014  0.00  0.00     0.021 C 
ATOM     73  O28 B4R d   1      10.556  19.090  18.472  0.00  0.00    -0.361 OA
ATOM     74  H37 B4R d   1      10.582  17.004  18.798  0.00  0.00     0.129 H 
ATOM     75  C30 B4R d   1      11.891  18.275  16.645  0.00  0.00    -0.035 C 
ATOM     76  H38 B4R d   1      12.659  16.739  17.904  0.00  0.00     0.051 H 
ATOM     77  C29 B4R d   1      10.872  19.327  17.108  0.00  0.00     0.023 C 
ATOM     78  H39 B4R d   1      11.412  17.459  16.083  0.00  0.00     0.037 H 
ATOM     79  H40 B4R d   1      12.692  18.719  16.036  0.00  0.00     0.037 H 
ATOM     80  H41 B4R d   1       9.959  19.251  16.499  0.00  0.00     0.074 H 
ATOM     81  H42 B4R d   1      11.303  20.333  16.998  0.00  0.00     0.074 H 
ATOM     82  H32 B4R d   1      14.582  18.094  18.027  0.00  0.00     0.085 H 
ENDBRANCH  62  63
ENDBRANCH  59  62
ENDBRANCH  42  58
ENDBRANCH   1  42
TORSDOF 18
