REMARK  7 active torsions:
REMARK  status: ('A' for Active; 'I' for Inactive)
REMARK    1  A    between atoms: N12_20  and  C13_2 
REMARK    2  A    between atoms: C18_3  and  C19_6 
REMARK    3  A    between atoms: O10_22  and  C11_12 
REMARK    4  A    between atoms: S02_25  and  C03_13 
REMARK    5  A    between atoms: C09_17  and  O10_22 
REMARK    6  A    between atoms: C14_18  and  O15_23 
REMARK    7  A    between atoms: N12_20  and  S02_25 
ROOT
ATOM      1  C13 Q1J d   1     -19.094  28.769   4.675  0.00  0.00     0.076 A 
ATOM      2  C18 Q1J d   1     -21.459  29.279   4.560  0.00  0.00    -0.024 A 
ATOM      3  C17 Q1J d   1     -21.357  29.975   5.773  0.00  0.00    -0.070 A 
ATOM      4  C16 Q1J d   1     -20.123  30.082   6.427  0.00  0.00    -0.048 A 
ATOM      5  C14 Q1J d   1     -19.005  29.470   5.877  0.00  0.00     0.092 A 
ATOM      6  C25 Q1J d   1     -20.319  28.664   4.035  0.00  0.00    -0.043 A 
ATOM      7  H1  Q1J d   1     -22.238  30.433   6.207  0.00  0.00     0.085 H 
ATOM      8  H2  Q1J d   1     -20.042  30.638   7.354  0.00  0.00     0.087 H 
ATOM      9  H14 Q1J d   1     -20.394  28.097   3.114  0.00  0.00     0.088 H 
ENDROOT
BRANCH   1  10
ATOM     10  N12 Q1J d   1     -17.918  28.116   4.146  0.00  0.00    -0.278 N 
ATOM     11  H15 Q1J d   1     -17.550  27.303   4.598  0.00  0.00     0.179 HD
BRANCH  10  12
ATOM     12  S02 Q1J d   1     -17.153  28.738   2.740  0.00  0.00     0.266 S 
ATOM     13  O01 Q1J d   1     -16.114  27.861   2.298  0.00  0.00    -0.200 OA
ATOM     14  O26 Q1J d   1     -18.199  29.131   1.831  0.00  0.00    -0.200 OA
BRANCH  12  15
ATOM     15  C03 Q1J d   1     -16.410  30.232   3.345  0.00  0.00     0.114 A 
ATOM     16  C04 Q1J d   1     -16.742  31.430   2.730  0.00  0.00    -0.041 A 
ATOM     17  C05 Q1J d   1     -16.153  32.596   3.208  0.00  0.00     0.012 A 
ATOM     18  H11 Q1J d   1     -17.440  31.457   1.901  0.00  0.00     0.088 H 
ATOM     19  C07 Q1J d   1     -15.223  32.588   4.252  0.00  0.00    -0.063 A 
ATOM     20 BR6  Q1J d   1     -16.555  34.278   2.407  0.00  0.00    -0.051 Br
ATOM     21  C08 Q1J d   1     -14.912  31.376   4.860  0.00  0.00    -0.048 A 
ATOM     22  H12 Q1J d   1     -14.754  33.508   4.581  0.00  0.00     0.085 H 
ATOM     23  C09 Q1J d   1     -15.497  30.196   4.404  0.00  0.00     0.091 A 
ATOM     24  H13 Q1J d   1     -14.214  31.349   5.689  0.00  0.00     0.087 H 
BRANCH  23  25
ATOM     25  O10 Q1J d   1     -15.240  28.976   4.953  0.00  0.00    -0.354 OA
BRANCH  25  26
ATOM     26  C11 Q1J d   1     -14.394  29.016   6.120  0.00  0.00     0.010 C 
ATOM     27  H8  Q1J d   1     -14.239  27.994   6.496  0.00  0.00     0.066 H 
ATOM     28  H9  Q1J d   1     -14.874  29.625   6.900  0.00  0.00     0.066 H 
ATOM     29  H10 Q1J d   1     -13.423  29.460   5.854  0.00  0.00     0.066 H 
ENDBRANCH  25  26
ENDBRANCH  23  25
ENDBRANCH  12  15
ENDBRANCH  10  12
ENDBRANCH   1  10
BRANCH   5  30
ATOM     30  O15 Q1J d   1     -17.811  29.559   6.526  0.00  0.00    -0.358 OA
ATOM     31  H16 Q1J d   1     -17.892  29.172   7.390  0.00  0.00     0.217 HD
ENDBRANCH   5  30
BRANCH   2  32
ATOM     32  C19 Q1J d   1     -22.715  29.091   3.829  0.00  0.00    -0.026 A 
ATOM     33  C20 Q1J d   1     -23.932  29.048   4.529  0.00  0.00    -0.072 A 
ATOM     34  C21 Q1J d   1     -25.129  28.825   3.858  0.00  0.00    -0.082 A 
ATOM     35  H3  Q1J d   1     -23.938  29.190   5.604  0.00  0.00     0.084 H 
ATOM     36  C22 Q1J d   1     -25.122  28.617   2.475  0.00  0.00    -0.083 A 
ATOM     37  H4  Q1J d   1     -26.065  28.812   4.405  0.00  0.00     0.083 H 
ATOM     38  C23 Q1J d   1     -23.925  28.634   1.757  0.00  0.00    -0.082 A 
ATOM     39  H5  Q1J d   1     -26.056  28.441   1.955  0.00  0.00     0.083 H 
ATOM     40  C24 Q1J d   1     -22.723  28.864   2.432  0.00  0.00    -0.072 A 
ATOM     41  H6  Q1J d   1     -23.928  28.470   0.685  0.00  0.00     0.083 H 
ATOM     42  H7  Q1J d   1     -21.789  28.869   1.881  0.00  0.00     0.084 H 
ENDBRANCH   2  32
TORSDOF 7
