REMARK  7 active torsions:
REMARK  status: ('A' for Active; 'I' for Inactive)
REMARK    1  A    between atoms: C06_1  and  C07_14 
REMARK    2  A    between atoms: C20_6  and  O21_22 
REMARK    3  A    between atoms: C24_7  and  O25_25 
REMARK    4  A    between atoms: N12_18  and  C11_8 
REMARK    5  A    between atoms: C03_10  and  C02_9 
REMARK    6  A    between atoms: S13_19  and  N12_18 
REMARK    7  A    between atoms: S13_19  and  C14_20 
ROOT
ATOM      1  C06 Q1P d   1       6.852  -0.710  15.615  0.00  0.00    -0.012 A 
ATOM      2  C24 Q1P d   1       4.120  -0.379  15.060  0.00  0.00     0.113 A 
ATOM      3  C11 Q1P d   1       4.524  -0.841  16.329  0.00  0.00     0.077 A 
ATOM      4  C03 Q1P d   1       5.064  -0.080  14.067  0.00  0.00     0.115 A 
ATOM      5  C04 Q1P d   1       6.411  -0.255  14.364  0.00  0.00     0.143 A 
ATOM      6  F05 Q1P d   1       7.335   0.020  13.437  0.00  0.00    -0.204 F 
ATOM      7  C10 Q1P d   1       5.882  -0.999  16.588  0.00  0.00    -0.044 A 
ATOM      8  H9  Q1P d   1       6.198  -1.353  17.563  0.00  0.00     0.088 H 
ENDROOT
BRANCH   3   9
ATOM      9  N12 Q1P d   1       3.508  -1.114  17.296  0.00  0.00    -0.278 N 
ATOM     10  H10 Q1P d   1       2.935  -1.920  17.148  0.00  0.00     0.179 HD
BRANCH   9  11
ATOM     11  S13 Q1P d   1       3.203  -0.191  18.654  0.00  0.00     0.266 S 
ATOM     12  O22 Q1P d   1       2.143  -0.805  19.436  0.00  0.00    -0.200 OA
ATOM     13  O23 Q1P d   1       4.475   0.154  19.264  0.00  0.00    -0.200 OA
BRANCH  11  14
ATOM     14  C14 Q1P d   1       2.534   1.329  18.059  0.00  0.00     0.114 A 
ATOM     15  C15 Q1P d   1       3.225   2.514  18.305  0.00  0.00    -0.041 A 
ATOM     16  C16 Q1P d   1       2.692   3.708  17.839  0.00  0.00     0.012 A 
ATOM     17  H2  Q1P d   1       4.162   2.503  18.850  0.00  0.00     0.088 H 
ATOM     18  C18 Q1P d   1       1.487   3.727  17.123  0.00  0.00    -0.064 A 
ATOM     19 BR7  Q1P d   1       3.635   5.311  18.184  0.00  0.00    -0.051 Br
ATOM     20  C19 Q1P d   1       0.806   2.529  16.878  0.00  0.00    -0.048 A 
ATOM     21  H1  Q1P d   1       1.084   4.666  16.761  0.00  0.00     0.085 H 
ATOM     22  C20 Q1P d   1       1.332   1.326  17.352  0.00  0.00     0.089 A 
ATOM     23  H3  Q1P d   1      -0.125   2.535  16.323  0.00  0.00     0.087 H 
BRANCH  22  24
ATOM     24  O21 Q1P d   1       0.636   0.176  17.094  0.00  0.00    -0.359 OA
ATOM     25  H11 Q1P d   1       1.179  -0.414  16.585  0.00  0.00     0.217 HD
ENDBRANCH  22  24
ENDBRANCH  11  14
ENDBRANCH   9  11
ENDBRANCH   3   9
BRANCH   2  26
ATOM     26  O25 Q1P d   1       2.768  -0.231  14.840  0.00  0.00    -0.357 OA
ATOM     27  H12 Q1P d   1       2.580   0.676  14.630  0.00  0.00     0.217 HD
ENDBRANCH   2  26
BRANCH   4  28
ATOM     28  C02 Q1P d   1       4.720   0.406  12.707  0.00  0.00     0.215 C 
ATOM     29  O01 Q1P d   1       3.380   0.569  12.560  0.00  0.00    -0.644 OA
ATOM     30  O26 Q1P d   1       5.486   0.644  11.790  0.00  0.00    -0.644 OA
ENDBRANCH   4  28
BRANCH   1  31
ATOM     31  C07 Q1P d   1       8.318  -0.892  15.909  0.00  0.00    -0.025 A 
ATOM     32  C08 Q1P d   1       8.894  -0.294  17.166  0.00  0.00    -0.057 A 
ATOM     33  C09 Q1P d   1       8.763  -1.782  17.044  0.00  0.00    -0.057 A 
ATOM     34  H5  Q1P d   1       8.243   0.260  17.859  0.00  0.00     0.034 H 
ATOM     35  H6  Q1P d   1       9.890   0.173  17.146  0.00  0.00     0.034 H 
ATOM     36  H7  Q1P d   1       9.662  -2.406  16.933  0.00  0.00     0.034 H 
ATOM     37  H8  Q1P d   1       8.016  -2.319  17.647  0.00  0.00     0.034 H 
ATOM     38  H4  Q1P d   1       8.890  -0.871  14.969  0.00  0.00     0.047 H 
ENDBRANCH   1  31
TORSDOF 7
