REMARK  9 active torsions:
REMARK  status: ('A' for Active; 'I' for Inactive)
REMARK    1  A    between atoms: PB_1  and  O3A_5 
REMARK    2  A    between atoms: O3A_5  and  PA_6 
REMARK    3  A    between atoms: PA_6  and  O5'_9 
REMARK    4  A    between atoms: O5'_9  and  C5'_10 
REMARK    5  A    between atoms: C5'_10  and  C4'_11 
REMARK    6  A    between atoms: C3'_13  and  O3'_14 
REMARK    7  A    between atoms: C2'_15  and  O2'_16 
REMARK    8  A    between atoms: C1'_17  and  N9_18 
REMARK    9  A    between atoms: C2_25  and  N2_26 
ROOT
ATOM      1  C4' GDP d   1     142.850 169.548 117.172  0.00  0.00     0.089 C 
ATOM      2  O4' GDP d   1     144.210 170.392 116.931  0.00  0.00    -0.353 OA
ATOM      3  C3' GDP d   1     142.687 169.413 118.462  0.00  0.00     0.091 C 
ATOM      4  C2' GDP d   1     143.518 170.533 119.113  0.00  0.00     0.105 C 
ATOM      5  C1' GDP d   1     144.610 170.878 118.077  0.00  0.00     0.139 C 
ATOM      6  H3  GDP d   1     142.937 168.554 116.708  0.00  0.00     0.090 H 
ATOM      7  H4  GDP d   1     141.625 169.510 118.732  0.00  0.00     0.091 H 
ATOM      8  H6  GDP d   1     142.892 171.411 119.330  0.00  0.00     0.093 H 
ATOM      9  H8  GDP d   1     145.561 170.409 118.369  0.00  0.00     0.122 H 
ENDROOT
BRANCH   5  10
ATOM     10  N9  GDP d   1     144.805 172.343 117.984  0.00  0.00    -0.295 N 
ATOM     11  C8  GDP d   1     143.875 172.898 117.184  0.00  0.00     0.071 A 
ATOM     12  N7  GDP d   1     144.124 174.224 117.157  0.00  0.00    -0.234 NA
ATOM     13  H9  GDP d   1     143.076 172.377 116.659  0.00  0.00     0.144 H 
ATOM     14  C5  GDP d   1     145.188 174.466 117.921  0.00  0.00     0.171 A 
ATOM     15  C6  GDP d   1     145.928 175.762 118.266  0.00  0.00     0.292 A 
ATOM     16  C4  GDP d   1     145.619 173.282 118.441  0.00  0.00     0.161 A 
ATOM     17  O6  GDP d   1     145.557 176.793 117.815  0.00  0.00    -0.265 OA
ATOM     18  N1  GDP d   1     147.066 175.726 119.131  0.00  0.00    -0.154 N 
ATOM     19  C2  GDP d   1     147.512 174.468 119.675  0.00  0.00     0.680 A 
ATOM     20  H10 GDP d   1     147.551 176.571 119.358  0.00  0.00     0.187 HD
ATOM     21  N3  GDP d   1     146.803 173.235 119.344  0.00  0.00    -0.174 N 
ATOM     22  H13 GDP d   1     147.120 172.336 119.734  0.00  0.00     0.186 HD
BRANCH  19  23
ATOM     23  N2  GDP d   1     148.665 174.427 120.553  0.00  0.00    -0.234 N 
ATOM     24  H11 GDP d   1     148.984 173.528 120.942  0.00  0.00     0.174 HD
ATOM     25  H12 GDP d   1     149.165 175.297 120.788  0.00  0.00     0.174 HD
ENDBRANCH  19  23
ENDBRANCH   5  10
BRANCH   4  26
ATOM     26  O2' GDP d   1     144.091 170.080 120.256  0.00  0.00    -0.388 OA
ATOM     27  H7  GDP d   1     144.659 169.345 120.055  0.00  0.00     0.210 HD
ENDBRANCH   4  26
BRANCH   1  28
ATOM     28  C5' GDP d   1     141.690 170.295 116.540  0.00  0.00     0.058 C 
ATOM     29  H1  GDP d   1     140.799 169.651 116.524  0.00  0.00     0.079 H 
ATOM     30  H2  GDP d   1     141.474 171.205 117.120  0.00  0.00     0.079 H 
BRANCH  28  31
ATOM     31  O5' GDP d   1     142.046 170.642 115.232  0.00  0.00    -0.287 OA
BRANCH  31  32
ATOM     32  PA  GDP d   1     140.875 171.106 114.169  0.00  0.00     0.418 P 
ATOM     33  O1A GDP d   1     141.206 170.574 112.795  0.00  0.00    -0.624 OA
ATOM     34  O2A GDP d   1     140.816 172.613 114.122  0.00  0.00    -0.624 OA
BRANCH  32  35
ATOM     35  O3A GDP d   1     139.415 170.510 114.647  0.00  0.00    -0.173 OA
BRANCH  35  36
ATOM     36  PB  GDP d   1     138.925 168.964 114.354  0.00  0.00     0.431 P 
ATOM     37  O1B GDP d   1     138.851 168.737 112.863  0.00  0.00    -0.616 OA
ATOM     38  O2B GDP d   1     137.562 168.744 114.966  0.00  0.00    -0.616 OA
ATOM     39  O3B GDP d   1     139.911 167.995 114.960  0.00  0.00    -0.616 OA
ENDBRANCH  35  36
ENDBRANCH  32  35
ENDBRANCH  31  32
ENDBRANCH  28  31
ENDBRANCH   1  28
BRANCH   3  40
ATOM     40  O3' GDP d   1     143.206 168.080 118.900  0.00  0.00    -0.390 OA
ATOM     41  H5  GDP d   1     143.085 167.987 119.838  0.00  0.00     0.210 HD
ENDBRANCH   3  40
TORSDOF 9
