REMARK  5 active torsions:
REMARK  status: ('A' for Active; 'I' for Inactive)
REMARK    1  A    between atoms: C16_14  and  O4_4 
REMARK    2  A    between atoms: C16_14  and  C7_5 
REMARK    3  A    between atoms: C8_6  and  C16_14 
REMARK    4  A    between atoms: C17_23  and  C19_15 
REMARK    5  A    between atoms: N1_20  and  C17_23 
ROOT
ATOM      1  C1  Q57 d   1     -12.104  10.539 -15.988  0.00  0.00    -0.061 A 
ATOM      2  C2  Q57 d   1     -10.775  10.802 -16.346  0.00  0.00     0.034 A 
ATOM      3  C3  Q57 d   1     -10.290  10.572 -17.622  0.00  0.00    -0.055 A 
ATOM      4  C8  Q57 d   1     -18.553   6.866 -19.935  0.00  0.00    -0.017 A 
ATOM      5  C9  Q57 d   1     -18.932   8.027 -19.218  0.00  0.00    -0.071 A 
ATOM      6  C10 Q57 d   1     -17.942   8.913 -18.737  0.00  0.00    -0.048 A 
ATOM      7  C11 Q57 d   1     -14.770  10.067 -19.495  0.00  0.00     0.038 C 
ATOM      8  C12 Q57 d   1     -13.769   7.778 -18.981  0.00  0.00     0.008 C 
ATOM      9  C13 Q57 d   1     -16.160   7.480 -19.658  0.00  0.00     0.064 A 
ATOM     10  C14 Q57 d   1     -16.571   8.663 -18.950  0.00  0.00     0.095 A 
ATOM     11  C15 Q57 d   1     -13.471   9.213 -19.375  0.00  0.00     0.025 C 
ATOM     12  C22 Q57 d   1     -12.850   9.154 -20.777  0.00  0.00    -0.050 C 
ATOM     13  C24 Q57 d   1     -11.345   8.799 -20.764  0.00  0.00    -0.060 C 
ATOM     14  N1  Q57 d   1     -14.812   7.142 -19.804  0.00  0.00    -0.377 N 
ATOM     15  O1  Q57 d   1     -15.664   9.618 -18.504  0.00  0.00    -0.348 OA
ATOM     16  C25 Q57 d   1     -17.182   6.625 -20.134  0.00  0.00    -0.045 A 
ATOM     17  C4  Q57 d   1     -11.160  10.060 -18.580  0.00  0.00    -0.049 A 
ATOM     18  C5  Q57 d   1     -12.530   9.770 -18.282  0.00  0.00    -0.039 A 
ATOM     19  C6  Q57 d   1     -12.987  10.014 -16.961  0.00  0.00    -0.074 A 
ATOM     20 CL1  Q57 d   1      -9.672  11.427 -15.194  0.00  0.00    -0.084 Cl
ATOM     21  C23 Q57 d   1     -10.548   9.822 -19.925  0.00  0.00    -0.040 C 
ATOM     22  H1  Q57 d   1     -12.451  10.735 -14.980  0.00  0.00     0.086 H 
ATOM     23  H2  Q57 d   1      -9.257  10.786 -17.869  0.00  0.00     0.086 H 
ATOM     24  H4  Q57 d   1     -19.980   8.236 -19.038  0.00  0.00     0.084 H 
ATOM     25  H5  Q57 d   1     -18.242   9.802 -18.194  0.00  0.00     0.087 H 
ATOM     26  H6  Q57 d   1     -15.216   9.934 -20.492  0.00  0.00     0.076 H 
ATOM     27  H7  Q57 d   1     -14.537  11.130 -19.337  0.00  0.00     0.076 H 
ATOM     28  H8  Q57 d   1     -14.100   7.768 -17.932  0.00  0.00     0.066 H 
ATOM     29  H9  Q57 d   1     -12.844   7.192 -19.079  0.00  0.00     0.066 H 
ATOM     30  H16 Q57 d   1     -12.973  10.137 -21.255  0.00  0.00     0.034 H 
ATOM     31  H17 Q57 d   1     -13.384   8.392 -21.364  0.00  0.00     0.034 H 
ATOM     32  H18 Q57 d   1     -10.964   8.804 -21.796  0.00  0.00     0.033 H 
ATOM     33  H19 Q57 d   1     -11.214   7.797 -20.330  0.00  0.00     0.033 H 
ATOM     34  H20 Q57 d   1     -16.892   5.736 -20.682  0.00  0.00     0.088 H 
ATOM     35  H25 Q57 d   1     -14.016   9.797 -16.697  0.00  0.00     0.084 H 
ATOM     36  H26 Q57 d   1     -10.514  10.776 -20.471  0.00  0.00     0.040 H 
ATOM     37  H27 Q57 d   1      -9.525   9.443 -19.785  0.00  0.00     0.040 H 
ENDROOT
BRANCH  14  38
ATOM     38  C17 Q57 d   1     -14.373   5.989 -20.655  0.00  0.00    -0.001 C 
ATOM     39  H21 Q57 d   1     -14.951   5.997 -21.591  0.00  0.00     0.064 H 
ATOM     40  H22 Q57 d   1     -13.303   6.104 -20.884  0.00  0.00     0.064 H 
BRANCH  38  41
ATOM     41  C19 Q57 d   1     -14.586   4.655 -19.958  0.00  0.00    -0.039 C 
ATOM     42  C20 Q57 d   1     -14.172   3.407 -20.774  0.00  0.00    -0.060 C 
ATOM     43  C21 Q57 d   1     -13.565   2.818 -19.467  0.00  0.00    -0.064 C 
ATOM     44  H12 Q57 d   1     -13.438   3.604 -21.569  0.00  0.00     0.033 H 
ATOM     45  H13 Q57 d   1     -15.014   2.831 -21.186  0.00  0.00     0.033 H 
ATOM     46  C18 Q57 d   1     -13.534   4.253 -18.885  0.00  0.00    -0.060 C 
ATOM     47  H14 Q57 d   1     -12.575   2.356 -19.593  0.00  0.00     0.033 H 
ATOM     48  H15 Q57 d   1     -14.228   2.123 -18.930  0.00  0.00     0.033 H 
ATOM     49  H23 Q57 d   1     -13.888   4.332 -17.846  0.00  0.00     0.033 H 
ATOM     50  H24 Q57 d   1     -12.565   4.764 -18.982  0.00  0.00     0.033 H 
ATOM     51  H11 Q57 d   1     -15.622   4.619 -19.589  0.00  0.00     0.042 H 
ENDBRANCH  38  41
ENDBRANCH  14  38
BRANCH   4  52
ATOM     52  C16 Q57 d   1     -19.519   5.844 -20.529  0.00  0.00     0.144 C 
ATOM     53  H10 Q57 d   1     -19.185   4.816 -20.326  0.00  0.00     0.107 H 
BRANCH  52  54
ATOM     54  O4  Q57 d   1     -20.811   6.073 -20.060  0.00  0.00    -0.380 OA
ATOM     55  H3  Q57 d   1     -20.841   5.908 -19.125  0.00  0.00     0.211 HD
ENDBRANCH  52  54
BRANCH  52  56
ATOM     56  C7  Q57 d   1     -19.621   6.141 -22.009  0.00  0.00     0.207 C 
ATOM     57  O2  Q57 d   1     -20.352   6.959 -22.445  0.00  0.00    -0.646 OA
ATOM     58  O3  Q57 d   1     -18.807   5.376 -22.817  0.00  0.00    -0.646 OA
ENDBRANCH  52  56
ENDBRANCH   4  52
TORSDOF 5
