REMARK  3 active torsions:
REMARK  status: ('A' for Active; 'I' for Inactive)
REMARK    1  A    between atoms: C8_5  and  C16_13 
REMARK    2  A    between atoms: C17_23  and  C19_14 
REMARK    3  A    between atoms: N1_19  and  C17_23 
ROOT
ATOM      1  C1  Q54 d   1     -12.077  10.493 -15.969  0.00  0.00    -0.061 A 
ATOM      2  C2  Q54 d   1     -10.769  10.795 -16.344  0.00  0.00     0.034 A 
ATOM      3  C3  Q54 d   1     -10.288  10.601 -17.627  0.00  0.00    -0.055 A 
ATOM      4  C7  Q54 d   1     -17.272   6.634 -19.946  0.00  0.00    -0.038 A 
ATOM      5  C8  Q54 d   1     -18.599   6.899 -19.721  0.00  0.00     0.043 A 
ATOM      6  C9  Q54 d   1     -18.990   8.104 -19.037  0.00  0.00    -0.064 A 
ATOM      7  C10 Q54 d   1     -17.989   8.983 -18.609  0.00  0.00    -0.048 A 
ATOM      8  C11 Q54 d   1     -14.770   9.978 -19.436  0.00  0.00     0.038 C 
ATOM      9  C12 Q54 d   1     -13.813   7.705 -18.892  0.00  0.00     0.008 C 
ATOM     10  C13 Q54 d   1     -16.230   7.500 -19.525  0.00  0.00     0.065 A 
ATOM     11  C14 Q54 d   1     -16.618   8.687 -18.854  0.00  0.00     0.095 A 
ATOM     12  C15 Q54 d   1     -13.466   9.136 -19.343  0.00  0.00     0.025 C 
ATOM     13  C22 Q54 d   1     -12.853   9.022 -20.759  0.00  0.00    -0.050 C 
ATOM     14  C24 Q54 d   1     -10.585   9.824 -19.977  0.00  0.00    -0.040 C 
ATOM     15  N1  Q54 d   1     -14.898   7.150 -19.750  0.00  0.00    -0.377 N 
ATOM     16  O1  Q54 d   1     -15.710   9.641 -18.425  0.00  0.00    -0.348 OA
ATOM     17  C4  Q54 d   1     -11.131  10.072 -18.602  0.00  0.00    -0.049 A 
ATOM     18  C5  Q54 d   1     -12.506   9.735 -18.291  0.00  0.00    -0.039 A 
ATOM     19  C6  Q54 d   1     -12.931   9.970 -16.938  0.00  0.00    -0.074 A 
ATOM     20  C23 Q54 d   1     -11.322   8.730 -20.770  0.00  0.00    -0.060 C 
ATOM     21 CL1  Q54 d   1      -9.664  11.418 -15.152  0.00  0.00    -0.084 Cl
ATOM     22  H1  Q54 d   1     -12.420  10.660 -14.954  0.00  0.00     0.086 H 
ATOM     23  H2  Q54 d   1      -9.264  10.858 -17.871  0.00  0.00     0.086 H 
ATOM     24  H3  Q54 d   1     -17.008   5.722 -20.469  0.00  0.00     0.088 H 
ATOM     25  H4  Q54 d   1     -20.036   8.325 -18.858  0.00  0.00     0.085 H 
ATOM     26  H5  Q54 d   1     -18.259   9.895 -18.088  0.00  0.00     0.087 H 
ATOM     27  H6  Q54 d   1     -15.232   9.805 -20.419  0.00  0.00     0.076 H 
ATOM     28  H7  Q54 d   1     -14.510  11.042 -19.335  0.00  0.00     0.076 H 
ATOM     29  H8  Q54 d   1     -14.150   7.724 -17.845  0.00  0.00     0.066 H 
ATOM     30  H9  Q54 d   1     -12.919   7.069 -18.978  0.00  0.00     0.066 H 
ATOM     31  H15 Q54 d   1     -13.027   9.971 -21.288  0.00  0.00     0.034 H 
ATOM     32  H16 Q54 d   1     -13.364   8.206 -21.291  0.00  0.00     0.034 H 
ATOM     33  H17 Q54 d   1      -9.531   9.526 -19.879  0.00  0.00     0.040 H 
ATOM     34  H18 Q54 d   1     -10.649  10.763 -20.546  0.00  0.00     0.040 H 
ATOM     35  H23 Q54 d   1     -13.952   9.732 -16.662  0.00  0.00     0.084 H 
ATOM     36  H24 Q54 d   1     -10.958   8.721 -21.808  0.00  0.00     0.033 H 
ATOM     37  H25 Q54 d   1     -11.132   7.751 -20.307  0.00  0.00     0.033 H 
ENDROOT
BRANCH  15  38
ATOM     38  C17 Q54 d   1     -14.499   6.005 -20.582  0.00  0.00    -0.001 C 
ATOM     39  H19 Q54 d   1     -15.141   5.981 -21.475  0.00  0.00     0.064 H 
ATOM     40  H20 Q54 d   1     -13.451   6.143 -20.887  0.00  0.00     0.064 H 
BRANCH  38  41
ATOM     41  C19 Q54 d   1     -14.621   4.667 -19.862  0.00  0.00    -0.039 C 
ATOM     42  C20 Q54 d   1     -14.266   3.428 -20.719  0.00  0.00    -0.060 C 
ATOM     43  C21 Q54 d   1     -13.614   2.815 -19.471  0.00  0.00    -0.064 C 
ATOM     44  H11 Q54 d   1     -13.569   3.629 -21.546  0.00  0.00     0.033 H 
ATOM     45  H12 Q54 d   1     -15.135   2.872 -21.099  0.00  0.00     0.033 H 
ATOM     46  C18 Q54 d   1     -13.600   4.196 -18.798  0.00  0.00    -0.060 C 
ATOM     47  H13 Q54 d   1     -12.614   2.392 -19.649  0.00  0.00     0.033 H 
ATOM     48  H14 Q54 d   1     -14.241   2.071 -18.957  0.00  0.00     0.033 H 
ATOM     49  H21 Q54 d   1     -13.980   4.205 -17.766  0.00  0.00     0.033 H 
ATOM     50  H22 Q54 d   1     -12.630   4.713 -18.836  0.00  0.00     0.033 H 
ATOM     51  H10 Q54 d   1     -15.646   4.626 -19.465  0.00  0.00     0.042 H 
ENDBRANCH  38  41
ENDBRANCH  15  38
BRANCH   5  52
ATOM     52  C16 Q54 d   1     -19.593   5.948 -20.138  0.00  0.00     0.209 C 
ATOM     53  O2  Q54 d   1     -20.842   6.184 -19.860  0.00  0.00    -0.644 OA
ATOM     54  O3  Q54 d   1     -19.275   4.937 -20.736  0.00  0.00    -0.644 OA
ENDBRANCH   5  52
TORSDOF 3
