REMARK  14 active torsions:
REMARK  status: ('A' for Active; 'I' for Inactive)
REMARK    1  A    between atoms: C17_4  and  O8_42 
REMARK    2  A    between atoms: S1_10  and  C14_6 
REMARK    3  A    between atoms: C11_12  and  C12_7 
REMARK    4  A    between atoms: O8_42  and  C26_8 
REMARK    5  A    between atoms: N2_11  and  S1_10 
REMARK    6  A    between atoms: N2_11  and  C11_12 
REMARK    7  A    between atoms: C2_15  and  N2_11 
REMARK    8  A    between atoms: N3_19  and  C5_18 
REMARK    9  A    between atoms: N3_19  and  C10_20 
REMARK   10  A    between atoms: S2_25  and  N3_19 
REMARK   11  A    between atoms: C10_20  and  C13_21 
REMARK   12  A    between atoms: S2_25  and  C20_27 
REMARK   13  A    between atoms: C23_29  and  O7_30 
REMARK   14  A    between atoms: O7_30  and  C27_31 
ROOT
ATOM      1  C2  Q5V d   1     -11.561 -25.050 -12.918  0.00  0.00     0.150 A 
ATOM      2  N1  Q5V d   1     -12.851 -25.227 -12.623  0.00  0.00    -0.239 NA
ATOM      3  C1  Q5V d   1     -13.712 -25.935 -13.376  0.00  0.00     0.032 A 
ATOM      4  C5  Q5V d   1     -13.252 -26.512 -14.547  0.00  0.00     0.074 A 
ATOM      5  C4  Q5V d   1     -11.883 -26.365 -14.902  0.00  0.00     0.007 A 
ATOM      6  C3  Q5V d   1     -11.044 -25.601 -14.100  0.00  0.00     0.023 A 
ATOM      7  C9  Q5V d   1      -9.704 -25.441 -14.419  0.00  0.00    -0.068 A 
ATOM      8  C8  Q5V d   1      -9.228 -26.037 -15.575  0.00  0.00    -0.082 A 
ATOM      9  C7  Q5V d   1     -10.053 -26.775 -16.388  0.00  0.00    -0.082 A 
ATOM     10  C6  Q5V d   1     -11.378 -26.944 -16.060  0.00  0.00    -0.070 A 
ATOM     11  H10 Q5V d   1     -14.746 -26.051 -13.072  0.00  0.00     0.118 H 
ATOM     12  H19 Q5V d   1      -9.046 -24.864 -13.780  0.00  0.00     0.085 H 
ATOM     13  H20 Q5V d   1      -8.184 -25.919 -15.843  0.00  0.00     0.083 H 
ATOM     14  H21 Q5V d   1      -9.659 -27.226 -17.291  0.00  0.00     0.083 H 
ATOM     15  H22 Q5V d   1     -12.027 -27.527 -16.703  0.00  0.00     0.084 H 
ENDROOT
BRANCH   4  16
ATOM     16  N3  Q5V d   1     -14.074 -27.409 -15.363  0.00  0.00    -0.261 N 
BRANCH  16  17
ATOM     17  C10 Q5V d   1     -14.539 -27.050 -16.681  0.00  0.00     0.101 C 
ATOM     18  H11 Q5V d   1     -14.546 -27.980 -17.269  0.00  0.00     0.079 H 
ATOM     19  H12 Q5V d   1     -13.789 -26.360 -17.095  0.00  0.00     0.079 H 
BRANCH  17  20
ATOM     20  C13 Q5V d   1     -15.868 -26.405 -16.905  0.00  0.00     0.404 C 
ATOM     21  F1  Q5V d   1     -16.861 -26.563 -15.998  0.00  0.00    -0.169 F 
ATOM     22  F2  Q5V d   1     -15.569 -25.106 -17.097  0.00  0.00    -0.169 F 
ATOM     23  F3  Q5V d   1     -16.263 -26.985 -18.029  0.00  0.00    -0.169 F 
ENDBRANCH  17  20
ENDBRANCH  16  17
BRANCH  16  24
ATOM     24  S2  Q5V d   1     -14.133 -29.148 -14.738  0.00  0.00     0.265 S 
ATOM     25  O5  Q5V d   1     -12.842 -29.750 -14.467  0.00  0.00    -0.200 OA
ATOM     26  O6  Q5V d   1     -14.832 -29.867 -15.792  0.00  0.00    -0.200 OA
BRANCH  24  27
ATOM     27  C20 Q5V d   1     -14.854 -29.391 -13.092  0.00  0.00     0.080 A 
ATOM     28  C21 Q5V d   1     -16.226 -29.487 -13.009  0.00  0.00    -0.058 A 
ATOM     29  C22 Q5V d   1     -16.808 -29.660 -11.761  0.00  0.00    -0.049 A 
ATOM     30  H2  Q5V d   1     -16.839 -29.428 -13.901  0.00  0.00     0.086 H 
ATOM     31  C23 Q5V d   1     -16.005 -29.764 -10.640  0.00  0.00     0.068 A 
ATOM     32  H13 Q5V d   1     -17.887 -29.713 -11.665  0.00  0.00     0.087 H 
ATOM     33  C24 Q5V d   1     -14.624 -29.642 -10.744  0.00  0.00    -0.049 A 
ATOM     34  C25 Q5V d   1     -14.023 -29.469 -11.986  0.00  0.00    -0.058 A 
ATOM     35  H17 Q5V d   1     -14.011 -29.682  -9.851  0.00  0.00     0.087 H 
ATOM     36  H18 Q5V d   1     -12.946 -29.398 -12.085  0.00  0.00     0.086 H 
BRANCH  31  37
ATOM     37  O7  Q5V d   1     -16.647 -29.941  -9.403  0.00  0.00    -0.356 OA
BRANCH  37  38
ATOM     38  C27 Q5V d   1     -17.218 -28.759  -8.873  0.00  0.00     0.010 C 
ATOM     39  H14 Q5V d   1     -17.698 -28.984  -7.909  0.00  0.00     0.066 H 
ATOM     40  H15 Q5V d   1     -17.970 -28.369  -9.575  0.00  0.00     0.066 H 
ATOM     41  H16 Q5V d   1     -16.430 -28.006  -8.723  0.00  0.00     0.066 H 
ENDBRANCH  37  38
ENDBRANCH  31  37
ENDBRANCH  24  27
ENDBRANCH  16  24
ENDBRANCH   4  16
BRANCH   1  42
ATOM     42  N2  Q5V d   1     -10.651 -24.278 -11.978  0.00  0.00    -0.244 N 
BRANCH  42  43
ATOM     43  S1  Q5V d   1      -9.481 -25.077 -10.796  0.00  0.00     0.266 S 
ATOM     44  O3  Q5V d   1      -8.472 -26.066 -11.134  0.00  0.00    -0.200 OA
ATOM     45  O4  Q5V d   1      -8.561 -24.089 -10.256  0.00  0.00    -0.200 OA
BRANCH  43  46
ATOM     46  C14 Q5V d   1     -10.552 -25.796  -9.538  0.00  0.00     0.080 A 
ATOM     47  C19 Q5V d   1     -11.075 -27.059  -9.744  0.00  0.00    -0.058 A 
ATOM     48  C18 Q5V d   1     -11.940 -27.575  -8.793  0.00  0.00    -0.049 A 
ATOM     49  H1  Q5V d   1     -10.815 -27.631 -10.627  0.00  0.00     0.086 H 
ATOM     50  C17 Q5V d   1     -12.278 -26.806  -7.669  0.00  0.00     0.068 A 
ATOM     51  H3  Q5V d   1     -12.354 -28.569  -8.917  0.00  0.00     0.087 H 
ATOM     52  C16 Q5V d   1     -11.740 -25.526  -7.520  0.00  0.00    -0.049 A 
ATOM     53  C15 Q5V d   1     -10.869 -25.021  -8.461  0.00  0.00    -0.058 A 
ATOM     54  H4  Q5V d   1     -12.009 -24.926  -6.659  0.00  0.00     0.087 H 
ATOM     55  H23 Q5V d   1     -10.445 -24.030  -8.348  0.00  0.00     0.086 H 
BRANCH  50  56
ATOM     56  O8  Q5V d   1     -13.137 -27.306  -6.671  0.00  0.00    -0.356 OA
BRANCH  56  57
ATOM     57  C26 Q5V d   1     -14.367 -27.792  -7.141  0.00  0.00     0.010 C 
ATOM     58  H5  Q5V d   1     -14.964 -28.158  -6.293  0.00  0.00     0.066 H 
ATOM     59  H6  Q5V d   1     -14.190 -28.616  -7.848  0.00  0.00     0.066 H 
ATOM     60  H7  Q5V d   1     -14.911 -26.983  -7.650  0.00  0.00     0.066 H 
ENDBRANCH  56  57
ENDBRANCH  50  56
ENDBRANCH  43  46
ENDBRANCH  42  43
BRANCH  42  61
ATOM     61  C11 Q5V d   1     -10.819 -22.822 -12.027  0.00  0.00     0.092 C 
ATOM     62  H8  Q5V d   1     -10.264 -22.405 -11.174  0.00  0.00     0.082 H 
ATOM     63  H9  Q5V d   1     -10.362 -22.476 -12.966  0.00  0.00     0.082 H 
BRANCH  61  64
ATOM     64  C12 Q5V d   1     -12.240 -22.233 -11.973  0.00  0.00     0.192 C 
ATOM     65  O1  Q5V d   1     -13.184 -22.634 -11.259  0.00  0.00    -0.647 OA
ATOM     66  O2  Q5V d   1     -12.472 -21.256 -12.695  0.00  0.00    -0.647 OA
ENDBRANCH  61  64
ENDBRANCH  42  61
ENDBRANCH   1  42
TORSDOF 14
