REMARK  13 active torsions:
REMARK  status: ('A' for Active; 'I' for Inactive)
REMARK    1  A    between atoms: C11_1  and  C12_2 
REMARK    2  A    between atoms: N10_11  and  C11_1 
REMARK    3  A    between atoms: C12_2  and  C13_3 
REMARK    4  A    between atoms: C13_3  and  N14_12 
REMARK    5  A    between atoms: C02_5  and  C01_4 
REMARK    6  A    between atoms: C05_6  and  C02_5 
REMARK    7  A    between atoms: C02_5  and  O03_13 
REMARK    8  A    between atoms: C02_5  and  O04_14 
REMARK    9  A    between atoms: C06_7  and  C05_6 
REMARK   10  A    between atoms: C07_8  and  C06_7 
REMARK   11  A    between atoms: C08_9  and  C07_8 
REMARK   12  A    between atoms: C09_10  and  C08_9 
REMARK   13  A    between atoms: C09_10  and  N10_11 
ROOT
ATOM      1  C08 Q6M d   1      24.443  40.410  34.965  0.00  0.00    -0.043 C 
ATOM      2  H16 Q6M d   1      24.677  41.485  34.966  0.00  0.00     0.035 H 
ATOM      3  H17 Q6M d   1      24.463  40.031  33.932  0.00  0.00     0.035 H 
ENDROOT
BRANCH   1   4
ATOM      4  C07 Q6M d   1      23.021  40.226  35.518  0.00  0.00    -0.063 C 
ATOM      5  H14 Q6M d   1      22.942  39.216  35.946  0.00  0.00     0.033 H 
ATOM      6  H15 Q6M d   1      22.856  40.973  36.309  0.00  0.00     0.033 H 
BRANCH   4   7
ATOM      7  C06 Q6M d   1      21.917  40.392  34.453  0.00  0.00    -0.060 C 
ATOM      8  H12 Q6M d   1      22.221  41.188  33.758  0.00  0.00     0.033 H 
ATOM      9  H13 Q6M d   1      21.818  39.444  33.904  0.00  0.00     0.033 H 
BRANCH   7  10
ATOM     10  C05 Q6M d   1      20.548  40.758  35.041  0.00  0.00    -0.013 C 
ATOM     11  H10 Q6M d   1      20.474  40.301  36.039  0.00  0.00     0.041 H 
ATOM     12  H11 Q6M d   1      20.501  41.853  35.135  0.00  0.00     0.041 H 
BRANCH  10  13
ATOM     13  C02 Q6M d   1      19.328  40.299  34.217  0.00  0.00     0.155 C 
BRANCH  13  14
ATOM     14  C01 Q6M d   1      18.016  40.924  34.713  0.00  0.00    -0.026 C 
ATOM     15  H7  Q6M d   1      17.181  40.565  34.093  0.00  0.00     0.035 H 
ATOM     16  H8  Q6M d   1      18.081  42.020  34.640  0.00  0.00     0.035 H 
ATOM     17  H9  Q6M d   1      17.845  40.635  35.761  0.00  0.00     0.035 H 
ENDBRANCH  13  14
BRANCH  13  18
ATOM     18  O03 Q6M d   1      19.269  38.904  34.298  0.00  0.00    -0.366 OA
ATOM     19  H25 Q6M d   1      19.108  38.647  35.198  0.00  0.00     0.213 HD
ENDBRANCH  13  18
BRANCH  13  20
ATOM     20  O04 Q6M d   1      19.565  40.637  32.887  0.00  0.00    -0.366 OA
ATOM     21  H26 Q6M d   1      19.610  41.582  32.805  0.00  0.00     0.213 HD
ENDBRANCH  13  20
ENDBRANCH  10  13
ENDBRANCH   7  10
ENDBRANCH   4   7
ENDBRANCH   1   4
BRANCH   1  22
ATOM     22  C09 Q6M d   1      25.542  39.673  35.774  0.00  0.00     0.082 C 
ATOM     23  H18 Q6M d   1      25.641  38.648  35.386  0.00  0.00     0.075 H 
ATOM     24  H19 Q6M d   1      25.240  39.638  36.831  0.00  0.00     0.075 H 
BRANCH  22  25
ATOM     25  N10 Q6M d   1      26.862  40.352  35.675  0.00  0.00    -0.075 N 
ATOM     26  H20 Q6M d   1      26.704  41.347  35.692  0.00  0.00     0.277 HD
ATOM     27  H21 Q6M d   1      27.413  40.085  36.476  0.00  0.00     0.277 HD
BRANCH  25  28
ATOM     28  C11 Q6M d   1      27.641  40.028  34.449  0.00  0.00     0.083 C 
ATOM     29  H1  Q6M d   1      27.998  38.990  34.518  0.00  0.00     0.075 H 
ATOM     30  H2  Q6M d   1      26.985  40.132  33.572  0.00  0.00     0.075 H 
BRANCH  28  31
ATOM     31  C12 Q6M d   1      28.859  40.966  34.277  0.00  0.00    -0.020 C 
ATOM     32  H3  Q6M d   1      29.764  40.441  34.616  0.00  0.00     0.037 H 
ATOM     33  H4  Q6M d   1      28.705  41.866  34.891  0.00  0.00     0.037 H 
BRANCH  31  34
ATOM     34  C13 Q6M d   1      29.051  41.394  32.797  0.00  0.00     0.081 C 
ATOM     35  H5  Q6M d   1      28.371  42.229  32.571  0.00  0.00     0.075 H 
ATOM     36  H6  Q6M d   1      28.816  40.543  32.141  0.00  0.00     0.075 H 
BRANCH  34  37
ATOM     37  N14 Q6M d   1      30.437  41.821  32.556  0.00  0.00    -0.079 N 
ATOM     38  H22 Q6M d   1      30.541  42.094  31.591  0.00  0.00     0.274 HD
ATOM     39  H23 Q6M d   1      31.064  41.058  32.759  0.00  0.00     0.274 HD
ATOM     40  H24 Q6M d   1      30.656  42.603  33.153  0.00  0.00     0.274 HD
ENDBRANCH  34  37
ENDBRANCH  31  34
ENDBRANCH  28  31
ENDBRANCH  25  28
ENDBRANCH  22  25
ENDBRANCH   1  22
TORSDOF 13
