REMARK  15 active torsions:
REMARK  status: ('A' for Active; 'I' for Inactive)
REMARK    1  A    between atoms: C10_1  and  C11_2 
REMARK    2  A    between atoms: C09_11  and  C10_1 
REMARK    3  A    between atoms: C11_2  and  N12_12 
REMARK    4  A    between atoms: C13_3  and  C14_4 
REMARK    5  A    between atoms: N12_12  and  C13_3 
REMARK    6  A    between atoms: C14_4  and  C15_5 
REMARK    7  A    between atoms: C15_5  and  N16_13 
REMARK    8  A    between atoms: O02_14  and  C01_6 
REMARK    9  A    between atoms: C04_8  and  C03_7 
REMARK   10  A    between atoms: C03_7  and  O02_14 
REMARK   11  A    between atoms: C07_9  and  C04_8 
REMARK   12  A    between atoms: C04_8  and  O05_15 
REMARK   13  A    between atoms: C04_8  and  O06_16 
REMARK   14  A    between atoms: C08_10  and  C07_9 
REMARK   15  A    between atoms: C08_10  and  C09_11 
ROOT
ATOM      1  C10 Q6P d   1     -24.641 -40.331  36.038  0.00  0.00    -0.043 C 
ATOM      2  H1  Q6P d   1     -24.964 -41.086  36.770  0.00  0.00     0.035 H 
ATOM      3  H2  Q6P d   1     -24.280 -39.437  36.568  0.00  0.00     0.035 H 
ENDROOT
BRANCH   1   4
ATOM      4  C11 Q6P d   1     -25.875 -39.925  35.180  0.00  0.00     0.082 C 
ATOM      5  H3  Q6P d   1     -25.625 -40.072  34.119  0.00  0.00     0.075 H 
ATOM      6  H4  Q6P d   1     -26.091 -38.862  35.362  0.00  0.00     0.075 H 
BRANCH   4   7
ATOM      7  N12 Q6P d   1     -27.105 -40.719  35.492  0.00  0.00    -0.075 N 
ATOM      8  H22 Q6P d   1     -27.517 -40.352  36.336  0.00  0.00     0.277 HD
ATOM      9  H23 Q6P d   1     -26.837 -41.680  35.639  0.00  0.00     0.277 HD
BRANCH   7  10
ATOM     10  C13 Q6P d   1     -28.134 -40.673  34.400  0.00  0.00     0.083 C 
ATOM     11  H5  Q6P d   1     -27.624 -40.503  33.441  0.00  0.00     0.075 H 
ATOM     12  H6  Q6P d   1     -28.660 -41.639  34.369  0.00  0.00     0.075 H 
BRANCH  10  13
ATOM     13  C14 Q6P d   1     -29.179 -39.541  34.618  0.00  0.00    -0.020 C 
ATOM     14  H7  Q6P d   1     -29.344 -39.033  33.657  0.00  0.00     0.037 H 
ATOM     15  H8  Q6P d   1     -28.767 -38.826  35.345  0.00  0.00     0.037 H 
BRANCH  13  16
ATOM     16  C15 Q6P d   1     -30.557 -40.042  35.150  0.00  0.00     0.081 C 
ATOM     17  H9  Q6P d   1     -30.503 -41.130  35.306  0.00  0.00     0.075 H 
ATOM     18  H10 Q6P d   1     -31.330 -39.817  34.400  0.00  0.00     0.075 H 
BRANCH  16  19
ATOM     19  N16 Q6P d   1     -30.930 -39.393  36.431  0.00  0.00    -0.079 N 
ATOM     20  H24 Q6P d   1     -31.824 -39.744  36.738  0.00  0.00     0.274 HD
ATOM     21  H25 Q6P d   1     -30.989 -38.396  36.298  0.00  0.00     0.274 HD
ATOM     22  H26 Q6P d   1     -30.231 -39.598  37.128  0.00  0.00     0.274 HD
ENDBRANCH  16  19
ENDBRANCH  13  16
ENDBRANCH  10  13
ENDBRANCH   7  10
ENDBRANCH   4   7
ENDBRANCH   1   4
BRANCH   1  23
ATOM     23  C09 Q6P d   1     -23.461 -40.920  35.220  0.00  0.00    -0.063 C 
ATOM     24  H20 Q6P d   1     -23.764 -40.949  34.163  0.00  0.00     0.033 H 
ATOM     25  H21 Q6P d   1     -23.280 -41.944  35.578  0.00  0.00     0.033 H 
BRANCH  23  26
ATOM     26  C08 Q6P d   1     -22.122 -40.141  35.310  0.00  0.00    -0.060 C 
ATOM     27  H18 Q6P d   1     -22.099 -39.401  34.496  0.00  0.00     0.033 H 
ATOM     28  H19 Q6P d   1     -22.091 -39.621  36.279  0.00  0.00     0.033 H 
BRANCH  26  29
ATOM     29  C07 Q6P d   1     -20.857 -41.025  35.195  0.00  0.00    -0.011 C 
ATOM     30  H16 Q6P d   1     -20.316 -40.986  36.152  0.00  0.00     0.041 H 
ATOM     31  H17 Q6P d   1     -21.171 -42.060  34.993  0.00  0.00     0.041 H 
BRANCH  29  32
ATOM     32  C04 Q6P d   1     -19.899 -40.577  34.073  0.00  0.00     0.181 C 
BRANCH  32  33
ATOM     33  C03 Q6P d   1     -18.714 -41.618  34.219  0.00  0.00     0.070 C 
ATOM     34  H14 Q6P d   1     -17.989 -41.476  33.404  0.00  0.00     0.082 H 
ATOM     35  H15 Q6P d   1     -19.110 -42.643  34.182  0.00  0.00     0.082 H 
BRANCH  33  36
ATOM     36  O02 Q6P d   1     -18.097 -41.393  35.447  0.00  0.00    -0.391 OA
BRANCH  36  37
ATOM     37  C01 Q6P d   1     -16.852 -40.791  35.300  0.00  0.00     0.004 C 
ATOM     38  H11 Q6P d   1     -16.402 -40.632  36.291  0.00  0.00     0.066 H 
ATOM     39  H12 Q6P d   1     -16.971 -39.823  34.792  0.00  0.00     0.066 H 
ATOM     40  H13 Q6P d   1     -16.198 -41.442  34.701  0.00  0.00     0.066 H 
ENDBRANCH  36  37
ENDBRANCH  33  36
ENDBRANCH  32  33
BRANCH  32  41
ATOM     41  O05 Q6P d   1     -20.444 -40.670  32.802  0.00  0.00    -0.364 OA
ATOM     42  H27 Q6P d   1     -20.729 -41.563  32.645  0.00  0.00     0.213 HD
ENDBRANCH  32  41
BRANCH  32  43
ATOM     43  O06 Q6P d   1     -19.473 -39.280  34.330  0.00  0.00    -0.364 OA
ATOM     44  H28 Q6P d   1     -18.813 -39.033  33.693  0.00  0.00     0.213 HD
ENDBRANCH  32  43
ENDBRANCH  29  32
ENDBRANCH  26  29
ENDBRANCH  23  26
ENDBRANCH   1  23
TORSDOF 15
