REMARK  2 active torsions:
REMARK  status: ('A' for Active; 'I' for Inactive)
REMARK    1  A    between atoms: C01_3  and  C14_1 
REMARK    2  A    between atoms: C03_5  and  C15_2 
ROOT
ATOM      1  C01 Q77 d   1     -26.228   5.571  15.620  0.00  0.00    -0.060 A 
ATOM      2  C02 Q77 d   1     -25.059   5.519  14.873  0.00  0.00    -0.069 A 
ATOM      3  C03 Q77 d   1     -24.511   4.296  14.637  0.00  0.00    -0.033 A 
ATOM      4  C04 Q77 d   1     -25.115   3.152  15.173  0.00  0.00     0.065 A 
ATOM      5  C05 Q77 d   1     -26.276   3.153  15.914  0.00  0.00     0.107 A 
ATOM      6  C06 Q77 d   1     -26.852   4.412  16.137  0.00  0.00    -0.052 A 
ATOM      7  C08 Q77 d   1     -25.014   0.503  15.262  0.00  0.00     0.334 C 
ATOM      8  N07 Q77 d   1     -24.400   1.833  14.833  0.00  0.00    -0.306 N 
ATOM      9  N09 Q77 d   1     -26.248   0.469  16.013  0.00  0.00    -0.232 N 
ATOM     10  O11 Q77 d   1     -24.476  -0.479  14.938  0.00  0.00    -0.246 OA
ATOM     11  O12 Q77 d   1     -28.309   1.721  16.689  0.00  0.00    -0.200 OA
ATOM     12  O13 Q77 d   1     -26.278   1.643  17.975  0.00  0.00    -0.200 OA
ATOM     13  S10 Q77 d   1     -26.856   1.772  16.636  0.00  0.00     0.268 S 
ATOM     14  H7  Q77 d   1     -24.598   6.423  14.491  0.00  0.00     0.085 H 
ATOM     15  H8  Q77 d   1     -27.772   4.497  16.704  0.00  0.00     0.086 H 
ATOM     16  H9  Q77 d   1     -23.535   1.847  14.332  0.00  0.00     0.171 HD
ATOM     17  H10 Q77 d   1     -26.723  -0.402  16.137  0.00  0.00     0.183 HD
ENDROOT
BRANCH   1  18
ATOM     18  C14 Q77 d   1     -26.781   6.968  15.868  0.00  0.00    -0.051 C 
ATOM     19  H1  Q77 d   1     -26.137   7.710  15.374  0.00  0.00     0.033 H 
ATOM     20  H2  Q77 d   1     -26.805   7.166  16.950  0.00  0.00     0.033 H 
ATOM     21  H3  Q77 d   1     -27.800   7.037  15.460  0.00  0.00     0.033 H 
ENDBRANCH   1  18
BRANCH   3  22
ATOM     22  C15 Q77 d   1     -23.234   4.156  13.817  0.00  0.00    -0.049 C 
ATOM     23  H4  Q77 d   1     -22.904   5.150  13.479  0.00  0.00     0.033 H 
ATOM     24  H5  Q77 d   1     -23.428   3.517  12.943  0.00  0.00     0.033 H 
ATOM     25  H6  Q77 d   1     -22.448   3.700  14.437  0.00  0.00     0.033 H 
ENDBRANCH   3  22
TORSDOF 2
