REMARK  0 active torsions:
REMARK  status: ('A' for Active; 'I' for Inactive)
ROOT
ATOM      1  O11 Q7A d   1     -24.444  -0.529  15.064  0.00  0.00    -0.246 OA
ATOM      2  O12 Q7A d   1     -26.381   1.348  18.095  0.00  0.00    -0.200 OA
ATOM      3  O13 Q7A d   1     -28.521   1.314  16.847  0.00  0.00    -0.200 OA
ATOM      4  C01 Q7A d   1     -27.011   5.095  15.968  0.00  0.00    -0.080 C 
ATOM      5  C02 Q7A d   1     -25.746   5.283  15.331  0.00  0.00    -0.060 C 
ATOM      6  C03 Q7A d   1     -24.941   4.201  14.994  0.00  0.00     0.062 C 
ATOM      7  C04 Q7A d   1     -25.424   2.969  15.416  0.00  0.00     0.081 C 
ATOM      8  C05 Q7A d   1     -26.594   2.811  16.120  0.00  0.00     0.108 C 
ATOM      9  C06 Q7A d   1     -27.368   3.894  16.444  0.00  0.00    -0.058 C 
ATOM     10  C08 Q7A d   1     -25.082   0.355  15.425  0.00  0.00     0.334 C 
ATOM     11  N07 Q7A d   1     -24.558   1.737  15.059  0.00  0.00    -0.305 N 
ATOM     12  N09 Q7A d   1     -26.334   0.144  16.131  0.00  0.00    -0.232 N 
ATOM     13  S10 Q7A d   1     -27.050   1.399  16.774  0.00  0.00     0.268 S 
ATOM     14 CL14 Q7A d   1     -23.346   4.265  14.145  0.00  0.00    -0.082 Cl
ATOM     15  H1  Q7A d   1     -27.690   5.934  16.067  0.00  0.00     0.083 H 
ATOM     16  H2  Q7A d   1     -25.408   6.288  15.106  0.00  0.00     0.086 H 
ATOM     17  H3  Q7A d   1     -28.247   3.782  17.069  0.00  0.00     0.086 H 
ATOM     18  H4  Q7A d   1     -23.677   1.846  14.600  0.00  0.00     0.171 HD
ATOM     19  H5  Q7A d   1     -26.732  -0.770  16.208  0.00  0.00     0.183 HD
ENDROOT
TORSDOF 0
