REMARK  13 active torsions:
REMARK  status: ('A' for Active; 'I' for Inactive)
REMARK    1  A    between atoms: C10_1  and  B11_2 
REMARK    2  A    between atoms: C09_9  and  C10_1 
REMARK    3  A    between atoms: B11_2  and  O12_12 
REMARK    4  A    between atoms: B11_2  and  O14_14 
REMARK    5  A    between atoms: B11_2  and  O13_13 
REMARK    6  A    between atoms: C03_4  and  C02_3 
REMARK    7  A    between atoms: C02_3  and  N01_10 
REMARK    8  A    between atoms: C04_5  and  C03_4 
REMARK    9  A    between atoms: N05_11  and  C04_5 
REMARK   10  A    between atoms: C07_7  and  C06_6 
REMARK   11  A    between atoms: C06_6  and  N05_11 
REMARK   12  A    between atoms: C08_8  and  C07_7 
REMARK   13  A    between atoms: C08_8  and  C09_9 
ROOT
ATOM      1  C07 Q7V d   1      24.477  40.250  34.726  0.00  0.00    -0.043 C 
ATOM      2  H12 Q7V d   1      24.427  39.607  33.835  0.00  0.00     0.035 H 
ATOM      3  H13 Q7V d   1      24.579  41.300  34.415  0.00  0.00     0.035 H 
ENDROOT
BRANCH   1   4
ATOM      4  C06 Q7V d   1      25.724  39.868  35.513  0.00  0.00     0.082 C 
ATOM      5  H10 Q7V d   1      25.973  38.830  35.249  0.00  0.00     0.075 H 
ATOM      6  H11 Q7V d   1      25.468  39.924  36.581  0.00  0.00     0.075 H 
BRANCH   4   7
ATOM      7  N05 Q7V d   1      26.928  40.670  35.311  0.00  0.00    -0.075 N 
ATOM      8  H21 Q7V d   1      26.675  41.613  35.562  0.00  0.00     0.277 HD
ATOM      9  H22 Q7V d   1      27.606  40.318  35.968  0.00  0.00     0.277 HD
BRANCH   7  10
ATOM     10  C04 Q7V d   1      27.644  40.775  34.005  0.00  0.00     0.083 C 
ATOM     11  H8  Q7V d   1      28.711  40.916  34.234  0.00  0.00     0.075 H 
ATOM     12  H9  Q7V d   1      27.504  39.816  33.484  0.00  0.00     0.075 H 
BRANCH  10  13
ATOM     13  C03 Q7V d   1      27.250  41.874  33.028  0.00  0.00    -0.020 C 
ATOM     14  H6  Q7V d   1      26.448  41.508  32.370  0.00  0.00     0.037 H 
ATOM     15  H7  Q7V d   1      26.893  42.751  33.588  0.00  0.00     0.037 H 
BRANCH  13  16
ATOM     16  C02 Q7V d   1      28.466  42.272  32.179  0.00  0.00     0.081 C 
ATOM     17  H4  Q7V d   1      29.211  41.466  32.247  0.00  0.00     0.075 H 
ATOM     18  H5  Q7V d   1      28.889  43.198  32.596  0.00  0.00     0.075 H 
BRANCH  16  19
ATOM     19  N01 Q7V d   1      28.173  42.498  30.789  0.00  0.00    -0.079 N 
ATOM     20  H18 Q7V d   1      29.019  42.754  30.305  0.00  0.00     0.274 HD
ATOM     21  H19 Q7V d   1      27.499  43.243  30.704  0.00  0.00     0.274 HD
ATOM     22  H20 Q7V d   1      27.795  41.656  30.384  0.00  0.00     0.274 HD
ENDBRANCH  16  19
ENDBRANCH  13  16
ENDBRANCH  10  13
ENDBRANCH   7  10
ENDBRANCH   4   7
ENDBRANCH   1   4
BRANCH   1  23
ATOM     23  C08 Q7V d   1      23.165  40.108  35.484  0.00  0.00    -0.064 C 
ATOM     24  H14 Q7V d   1      23.049  40.971  36.156  0.00  0.00     0.033 H 
ATOM     25  H15 Q7V d   1      23.198  39.183  36.078  0.00  0.00     0.033 H 
BRANCH  23  26
ATOM     26  C09 Q7V d   1      21.959  40.048  34.550  0.00  0.00    -0.074 C 
ATOM     27  H16 Q7V d   1      22.269  40.469  33.582  0.00  0.00     0.032 H 
ATOM     28  H17 Q7V d   1      21.694  38.988  34.420  0.00  0.00     0.032 H 
BRANCH  26  29
ATOM     29  C10 Q7V d   1      20.711  40.779  34.985  0.00  0.00    -0.109 C 
ATOM     30  H2  Q7V d   1      20.980  41.568  35.703  0.00  0.00     0.020 H 
ATOM     31  H3  Q7V d   1      20.018  40.070  35.462  0.00  0.00     0.020 H 
BRANCH  29  32
ATOM     32  B11 Q7V d   1      19.494  40.521  34.019  0.00  0.00     0.082 B 
BRANCH  32  33
ATOM     33  O12 Q7V d   1      18.488  41.574  34.154  0.00  0.00     0.000 OA
ATOM     34  H23 Q7V d   1      17.779  41.413  33.543  0.00  0.00     0.000 HD
ATOM     35  H24 Q7V d   1      17.779  41.413  33.543  0.00  0.00     0.000 HD
ENDBRANCH  32  33
BRANCH  32  36
ATOM     36  O14 Q7V d   1      18.864  39.227  34.314  0.00  0.00     0.000 OA
ATOM     37  H27 Q7V d   1      18.523  39.237  35.201  0.00  0.00     0.000 HD
ATOM     38  H28 Q7V d   1      18.523  39.237  35.201  0.00  0.00     0.000 HD
ENDBRANCH  32  36
BRANCH  32  39
ATOM     39  O13 Q7V d   1      19.946  40.510  32.614  0.00  0.00     0.000 OA
ATOM     40  H25 Q7V d   1      20.321  41.355  32.396  0.00  0.00     0.000 HD
ATOM     41  H26 Q7V d   1      20.321  41.355  32.396  0.00  0.00     0.000 HD
ENDBRANCH  32  39
ENDBRANCH  29  32
ENDBRANCH  26  29
ENDBRANCH  23  26
ENDBRANCH   1  23
TORSDOF 13
