REMARK  11 active torsions:
REMARK  status: ('A' for Active; 'I' for Inactive)
REMARK    1  A    between atoms: C3_2  and  C2_1 
REMARK    2  A    between atoms: C2_1  and  N1_10 
REMARK    3  A    between atoms: C4_3  and  C3_2 
REMARK    4  A    between atoms: N5_11  and  C4_3 
REMARK    5  A    between atoms: C6_4  and  C7_5 
REMARK    6  A    between atoms: C6_4  and  N5_11 
REMARK    7  A    between atoms: C7_5  and  C8_6 
REMARK    8  A    between atoms: C8_6  and  C9_7 
REMARK    9  A    between atoms: C9_7  and  C10_8 
REMARK   10  A    between atoms: C10_8  and  C11_9 
REMARK       I    between atoms: C11_9  and  N13_12 
REMARK   11  A    between atoms: N13_12  and  O14_14 
ROOT
ATOM      1  C6  XS6 d   1      26.995  39.868  34.585  0.00  0.00     0.082 C 
ATOM      2  H7  XS6 d   1      27.817  40.172  35.250  0.00  0.00     0.075 H 
ATOM      3  H8  XS6 d   1      26.787  40.675  33.866  0.00  0.00     0.075 H 
ENDROOT
BRANCH   1   4
ATOM      4  C7  XS6 d   1      25.710  39.613  35.449  0.00  0.00    -0.043 C 
ATOM      5  H9  XS6 d   1      25.983  39.707  36.511  0.00  0.00     0.035 H 
ATOM      6  H10 XS6 d   1      25.357  38.590  35.250  0.00  0.00     0.035 H 
BRANCH   4   7
ATOM      7  C8  XS6 d   1      24.539  40.602  35.154  0.00  0.00    -0.063 C 
ATOM      8  H11 XS6 d   1      24.763  41.127  34.214  0.00  0.00     0.033 H 
ATOM      9  H12 XS6 d   1      24.490  41.330  35.977  0.00  0.00     0.033 H 
BRANCH   7  10
ATOM     10  C9  XS6 d   1      23.130  39.929  35.013  0.00  0.00    -0.057 C 
ATOM     11  H13 XS6 d   1      22.756  39.705  36.023  0.00  0.00     0.033 H 
ATOM     12  H14 XS6 d   1      23.254  38.992  34.451  0.00  0.00     0.033 H 
BRANCH  10  13
ATOM     13  C10 XS6 d   1      22.051  40.798  34.277  0.00  0.00     0.011 C 
ATOM     14  H15 XS6 d   1      22.547  41.292  33.429  0.00  0.00     0.047 H 
ATOM     15  H16 XS6 d   1      21.698  41.558  34.989  0.00  0.00     0.047 H 
BRANCH  13  16
ATOM     16  C11 XS6 d   1      20.814  40.071  33.727  0.00  0.00     0.240 C 
ATOM     17  N13 XS6 d   1      19.958  39.299  34.535  0.00  0.00    -0.237 N 
ATOM     18  H22 XS6 d   1      20.120  39.192  35.516  0.00  0.00     0.197 HD
ATOM     19  O12 XS6 d   1      20.584  40.184  32.482  0.00  0.00    -0.271 OA
BRANCH  17  20
ATOM     20  O14 XS6 d   1      18.847  38.675  33.889  0.00  0.00    -0.287 OA
ATOM     21  H23 XS6 d   1      18.344  38.185  34.529  0.00  0.00     0.244 HD
ENDBRANCH  17  20
ENDBRANCH  13  16
ENDBRANCH  10  13
ENDBRANCH   7  10
ENDBRANCH   4   7
ENDBRANCH   1   4
BRANCH   1  22
ATOM     22  N5  XS6 d   1      27.409  38.636  33.829  0.00  0.00    -0.075 N 
ATOM     23  H20 XS6 d   1      27.293  37.833  34.427  0.00  0.00     0.277 HD
ATOM     24  H21 XS6 d   1      26.819  38.539  33.018  0.00  0.00     0.277 HD
BRANCH  22  25
ATOM     25  C4  XS6 d   1      28.842  38.703  33.380  0.00  0.00     0.083 C 
ATOM     26  H5  XS6 d   1      29.013  39.662  32.870  0.00  0.00     0.075 H 
ATOM     27  H6  XS6 d   1      29.497  38.634  34.261  0.00  0.00     0.075 H 
BRANCH  25  28
ATOM     28  C3  XS6 d   1      29.185  37.537  32.399  0.00  0.00    -0.020 C 
ATOM     29  H3  XS6 d   1      29.579  36.694  32.985  0.00  0.00     0.037 H 
ATOM     30  H4  XS6 d   1      28.261  37.229  31.888  0.00  0.00     0.037 H 
BRANCH  28  31
ATOM     31  C2  XS6 d   1      30.241  37.923  31.319  0.00  0.00     0.081 C 
ATOM     32  H1  XS6 d   1      30.986  37.117  31.248  0.00  0.00     0.075 H 
ATOM     33  H2  XS6 d   1      30.738  38.855  31.626  0.00  0.00     0.075 H 
BRANCH  31  34
ATOM     34  N1  XS6 d   1      29.627  38.126  29.982  0.00  0.00    -0.079 N 
ATOM     35  H17 XS6 d   1      30.343  38.373  29.317  0.00  0.00     0.274 HD
ATOM     36  H18 XS6 d   1      28.947  38.868  30.034  0.00  0.00     0.274 HD
ATOM     37  H19 XS6 d   1      29.174  37.275  29.687  0.00  0.00     0.274 HD
ENDBRANCH  31  34
ENDBRANCH  28  31
ENDBRANCH  25  28
ENDBRANCH  22  25
ENDBRANCH   1  22
TORSDOF 11
