REMARK  10 active torsions:
REMARK  status: ('A' for Active; 'I' for Inactive)
REMARK    1  A    between atoms: C3_2  and  C2_1 
REMARK    2  A    between atoms: C2_1  and  N1_9 
REMARK    3  A    between atoms: C4_3  and  C3_2 
REMARK    4  A    between atoms: N5_10  and  C4_3 
REMARK    5  A    between atoms: C6_4  and  C7_5 
REMARK    6  A    between atoms: C6_4  and  N5_10 
REMARK    7  A    between atoms: C7_5  and  C8_6 
REMARK    8  A    between atoms: C8_6  and  C9_7 
REMARK    9  A    between atoms: C9_7  and  C10_8 
REMARK   10  A    between atoms: C10_8  and  S11_11 
ROOT
ATOM      1  C6  SS9 d   1     -24.996 -40.133  35.161  0.00  0.00     0.082 C 
ATOM      2  H7  SS9 d   1     -25.118 -40.322  36.238  0.00  0.00     0.075 H 
ATOM      3  H8  SS9 d   1     -25.000 -41.089  34.618  0.00  0.00     0.075 H 
ENDROOT
BRANCH   1   4
ATOM      4  C7  SS9 d   1     -23.688 -39.421  34.919  0.00  0.00    -0.043 C 
ATOM      5  H9  SS9 d   1     -23.137 -39.322  35.866  0.00  0.00     0.035 H 
ATOM      6  H10 SS9 d   1     -23.880 -38.422  34.501  0.00  0.00     0.035 H 
BRANCH   4   7
ATOM      7  C8  SS9 d   1     -22.894 -40.226  33.956  0.00  0.00    -0.063 C 
ATOM      8  H11 SS9 d   1     -23.456 -40.332  33.016  0.00  0.00     0.033 H 
ATOM      9  H12 SS9 d   1     -22.702 -41.222  34.382  0.00  0.00     0.033 H 
BRANCH   7  10
ATOM     10  C9  SS9 d   1     -21.612 -39.552  33.687  0.00  0.00    -0.057 C 
ATOM     11  H13 SS9 d   1     -21.512 -38.678  34.348  0.00  0.00     0.034 H 
ATOM     12  H14 SS9 d   1     -21.584 -39.223  32.638  0.00  0.00     0.034 H 
BRANCH  10  13
ATOM     13  C10 SS9 d   1     -20.499 -40.489  33.938  0.00  0.00    -0.026 C 
ATOM     14  H15 SS9 d   1     -20.625 -41.411  33.351  0.00  0.00     0.048 H 
ATOM     15  H16 SS9 d   1     -20.435 -40.741  35.007  0.00  0.00     0.048 H 
BRANCH  13  16
ATOM     16  S11 SS9 d   1     -19.050 -39.598  33.411  0.00  0.00    -0.182 SA
ATOM     17  H22 SS9 d   1     -18.962 -38.752  33.952  0.00  0.00     0.101 HD
ENDBRANCH  13  16
ENDBRANCH  10  13
ENDBRANCH   7  10
ENDBRANCH   4   7
ENDBRANCH   1   4
BRANCH   1  18
ATOM     18  N5  SS9 d   1     -26.102 -39.291  34.682  0.00  0.00    -0.075 N 
ATOM     19  H20 SS9 d   1     -26.162 -38.467  35.260  0.00  0.00     0.277 HD
ATOM     20  H21 SS9 d   1     -25.920 -39.020  33.728  0.00  0.00     0.277 HD
BRANCH  18  21
ATOM     21  C4  SS9 d   1     -27.373 -40.007  34.740  0.00  0.00     0.083 C 
ATOM     22  H5  SS9 d   1     -27.186 -41.076  34.919  0.00  0.00     0.075 H 
ATOM     23  H6  SS9 d   1     -27.988 -39.600  35.556  0.00  0.00     0.075 H 
BRANCH  21  24
ATOM     24  C3  SS9 d   1     -28.098 -39.832  33.421  0.00  0.00    -0.020 C 
ATOM     25  H3  SS9 d   1     -28.748 -38.947  33.479  0.00  0.00     0.037 H 
ATOM     26  H4  SS9 d   1     -27.360 -39.693  32.617  0.00  0.00     0.037 H 
BRANCH  24  27
ATOM     27  C2  SS9 d   1     -28.948 -41.063  33.118  0.00  0.00     0.081 C 
ATOM     28  H1  SS9 d   1     -29.693 -41.166  33.921  0.00  0.00     0.075 H 
ATOM     29  H2  SS9 d   1     -28.285 -41.941  33.118  0.00  0.00     0.075 H 
BRANCH  27  30
ATOM     30  N1  SS9 d   1     -29.661 -41.038  31.844  0.00  0.00    -0.079 N 
ATOM     31  H17 SS9 d   1     -30.190 -41.890  31.738  0.00  0.00     0.274 HD
ATOM     32  H18 SS9 d   1     -28.998 -40.958  31.089  0.00  0.00     0.274 HD
ATOM     33  H19 SS9 d   1     -30.288 -40.249  31.825  0.00  0.00     0.274 HD
ENDBRANCH  27  30
ENDBRANCH  24  27
ENDBRANCH  21  24
ENDBRANCH  18  21
ENDBRANCH   1  18
TORSDOF 10
