REMARK  13 active torsions:
REMARK  status: ('A' for Active; 'I' for Inactive)
REMARK    1  A    between atoms: C3_2  and  C2_1 
REMARK    2  A    between atoms: C2_1  and  N1_15 
REMARK    3  A    between atoms: C4_3  and  C3_2 
REMARK    4  A    between atoms: N5_14  and  C4_3 
REMARK    5  A    between atoms: C6_4  and  C7_5 
REMARK    6  A    between atoms: C6_4  and  N5_14 
REMARK    7  A    between atoms: C7_5  and  C8_6 
REMARK    8  A    between atoms: C8_6  and  C9_7 
REMARK    9  A    between atoms: C9_7  and  C10_8 
REMARK   10  A    between atoms: C10_8  and  C11_9 
REMARK   11  A    between atoms: C11_9  and  C12_10 
REMARK   12  A    between atoms: C11_9  and  O13_16 
REMARK   13  A    between atoms: C11_9  and  O14_17 
ROOT
ATOM      1  C7  FKS d   1      65.709 110.095 277.012  0.00  0.00    -0.043 C 
ATOM      2  H9  FKS d   1      65.733 110.225 275.920  0.00  0.00     0.035 H 
ATOM      3  H10 FKS d   1      65.849 111.071 277.500  0.00  0.00     0.035 H 
ENDROOT
BRANCH   1   4
ATOM      4  C6  FKS d   1      66.898 109.174 277.418  0.00  0.00     0.082 C 
ATOM      5  H7  FKS d   1      67.118 108.492 276.584  0.00  0.00     0.075 H 
ATOM      6  H8  FKS d   1      66.606 108.589 278.303  0.00  0.00     0.075 H 
BRANCH   4   7
ATOM      7  N5  FKS d   1      68.132 109.952 277.742  0.00  0.00    -0.075 N 
ATOM      8  H17 FKS d   1      67.900 110.933 277.722  0.00  0.00     0.277 HD
ATOM      9  H18 FKS d   1      68.430 109.696 278.670  0.00  0.00     0.277 HD
BRANCH   7  10
ATOM     10  C4  FKS d   1      69.273 109.724 276.806  0.00  0.00     0.083 C 
ATOM     11  H5  FKS d   1      70.216 109.907 277.341  0.00  0.00     0.075 H 
ATOM     12  H6  FKS d   1      69.246 108.681 276.457  0.00  0.00     0.075 H 
BRANCH  10  13
ATOM     13  C3  FKS d   1      69.200 110.666 275.580  0.00  0.00    -0.020 C 
ATOM     14  H3  FKS d   1      68.420 110.291 274.901  0.00  0.00     0.037 H 
ATOM     15  H4  FKS d   1      68.927 111.672 275.932  0.00  0.00     0.037 H 
BRANCH  13  16
ATOM     16  C2  FKS d   1      70.531 110.769 274.788  0.00  0.00     0.081 C 
ATOM     17  H1  FKS d   1      71.177 109.934 275.097  0.00  0.00     0.075 H 
ATOM     18  H2  FKS d   1      71.012 111.722 275.051  0.00  0.00     0.075 H 
BRANCH  16  19
ATOM     19  N1  FKS d   1      70.390 110.719 273.336  0.00  0.00    -0.079 N 
ATOM     20  H19 FKS d   1      71.299 110.792 272.907  0.00  0.00     0.274 HD
ATOM     21  H20 FKS d   1      69.811 111.484 273.028  0.00  0.00     0.274 HD
ATOM     22  H21 FKS d   1      69.963 109.846 273.070  0.00  0.00     0.274 HD
ENDBRANCH  16  19
ENDBRANCH  13  16
ENDBRANCH  10  13
ENDBRANCH   7  10
ENDBRANCH   4   7
ENDBRANCH   1   4
BRANCH   1  23
ATOM     23  C8  FKS d   1      64.312 109.556 277.403  0.00  0.00    -0.063 C 
ATOM     24  H11 FKS d   1      64.027 110.000 278.368  0.00  0.00     0.033 H 
ATOM     25  H12 FKS d   1      64.379 108.463 277.507  0.00  0.00     0.033 H 
BRANCH  23  26
ATOM     26  C9  FKS d   1      63.205 109.881 276.370  0.00  0.00    -0.060 C 
ATOM     27  H13 FKS d   1      63.066 109.000 275.726  0.00  0.00     0.033 H 
ATOM     28  H14 FKS d   1      63.543 110.731 275.760  0.00  0.00     0.033 H 
BRANCH  26  29
ATOM     29  C10 FKS d   1      61.845 110.244 276.989  0.00  0.00    -0.004 C 
ATOM     30  H15 FKS d   1      61.825 111.331 277.159  0.00  0.00     0.041 H 
ATOM     31  H16 FKS d   1      61.756 109.720 277.952  0.00  0.00     0.041 H 
BRANCH  29  32
ATOM     32  C11 FKS d   1      60.616 109.869 276.120  0.00  0.00     0.260 C 
BRANCH  32  33
ATOM     33  C12 FKS d   1      59.292 110.682 276.595  0.00  0.00     0.444 C 
ATOM     34  F15 FKS d   1      58.193 110.185 275.996  0.00  0.00    -0.166 F 
ATOM     35  F16 FKS d   1      59.039 110.607 277.906  0.00  0.00    -0.166 F 
ATOM     36  F17 FKS d   1      59.295 111.979 276.289  0.00  0.00    -0.166 F 
ENDBRANCH  32  33
BRANCH  32  37
ATOM     37  O13 FKS d   1      60.805 110.189 274.793  0.00  0.00    -0.359 OA
ATOM     38  H22 FKS d   1      61.009 111.114 274.717  0.00  0.00     0.213 HD
ENDBRANCH  32  37
BRANCH  32  39
ATOM     39  O14 FKS d   1      60.319 108.531 276.254  0.00  0.00    -0.359 OA
ATOM     40  H23 FKS d   1      59.525 108.334 275.772  0.00  0.00     0.213 HD
ENDBRANCH  32  39
ENDBRANCH  29  32
ENDBRANCH  26  29
ENDBRANCH  23  26
ENDBRANCH   1  23
TORSDOF 13
