REMARK  12 active torsions:
REMARK  status: ('A' for Active; 'I' for Inactive)
REMARK    1  A    between atoms: C10_1  and  C11_2 
REMARK    2  A    between atoms: C09_10  and  C10_1 
REMARK    3  A    between atoms: C11_2  and  C13_3 
REMARK    4  A    between atoms: C13_3  and  S14_14 
REMARK    5  A    between atoms: C03_5  and  C02_4 
REMARK    6  A    between atoms: C02_4  and  N01_11 
REMARK    7  A    between atoms: C04_6  and  C03_5 
REMARK    8  A    between atoms: N05_12  and  C04_6 
REMARK    9  A    between atoms: C07_8  and  C06_7 
REMARK   10  A    between atoms: C06_7  and  N05_12 
REMARK   11  A    between atoms: C08_9  and  C07_8 
REMARK   12  A    between atoms: C08_9  and  C09_10 
ROOT
ATOM      1  C06 Q7Y d   1      68.168 108.565 275.117  0.00  0.00     0.082 C 
ATOM      2  H11 Q7Y d   1      67.482 107.757 274.824  0.00  0.00     0.075 H 
ATOM      3  H12 Q7Y d   1      68.605 108.336 276.100  0.00  0.00     0.075 H 
ENDROOT
BRANCH   1   4
ATOM      4  C07 Q7Y d   1      67.392 109.892 275.198  0.00  0.00    -0.043 C 
ATOM      5  H13 Q7Y d   1      67.164 110.232 274.177  0.00  0.00     0.035 H 
ATOM      6  H14 Q7Y d   1      68.021 110.641 275.702  0.00  0.00     0.035 H 
BRANCH   4   7
ATOM      7  C08 Q7Y d   1      66.085 109.746 275.972  0.00  0.00    -0.063 C 
ATOM      8  H15 Q7Y d   1      66.081 110.472 276.798  0.00  0.00     0.033 H 
ATOM      9  H16 Q7Y d   1      66.028 108.726 276.380  0.00  0.00     0.033 H 
BRANCH   7  10
ATOM     10  C09 Q7Y d   1      64.858 109.993 275.098  0.00  0.00    -0.059 C 
ATOM     11  H17 Q7Y d   1      64.873 111.038 274.755  0.00  0.00     0.033 H 
ATOM     12  H18 Q7Y d   1      64.903 109.321 274.228  0.00  0.00     0.033 H 
BRANCH  10  13
ATOM     13  C10 Q7Y d   1      63.563 109.743 275.840  0.00  0.00    -0.009 C 
ATOM     14  H1  Q7Y d   1      63.600 108.740 276.290  0.00  0.00     0.044 H 
ATOM     15  H2  Q7Y d   1      63.458 110.497 276.634  0.00  0.00     0.044 H 
BRANCH  13  16
ATOM     16  C11 Q7Y d   1      62.366 109.824 274.933  0.00  0.00     0.135 C 
ATOM     17  O12 Q7Y d   1      62.470 109.703 273.722  0.00  0.00    -0.297 OA
BRANCH  16  18
ATOM     18  C13 Q7Y d   1      61.034 110.063 275.554  0.00  0.00     0.029 C 
ATOM     19  H3  Q7Y d   1      60.852 111.145 275.638  0.00  0.00     0.060 H 
ATOM     20  H4  Q7Y d   1      61.004 109.607 276.555  0.00  0.00     0.060 H 
BRANCH  18  21
ATOM     21  S14 Q7Y d   1      59.787 109.322 274.517  0.00  0.00    -0.175 SA
ATOM     22  H24 Q7Y d   1      58.878 109.475 274.925  0.00  0.00     0.102 HD
ENDBRANCH  18  21
ENDBRANCH  16  18
ENDBRANCH  13  16
ENDBRANCH  10  13
ENDBRANCH   7  10
ENDBRANCH   4   7
ENDBRANCH   1   4
BRANCH   1  23
ATOM     23  N05 Q7Y d   1      69.246 108.681 274.115  0.00  0.00    -0.075 N 
ATOM     24  H22 Q7Y d   1      68.894 109.227 273.344  0.00  0.00     0.277 HD
ATOM     25  H23 Q7Y d   1      70.017 109.167 274.546  0.00  0.00     0.277 HD
BRANCH  23  26
ATOM     26  C04 Q7Y d   1      69.763 107.403 273.568  0.00  0.00     0.083 C 
ATOM     27  H9  Q7Y d   1      70.269 106.842 274.368  0.00  0.00     0.075 H 
ATOM     28  H10 Q7Y d   1      68.925 106.808 273.176  0.00  0.00     0.075 H 
BRANCH  26  29
ATOM     29  C03 Q7Y d   1      70.765 107.687 272.430  0.00  0.00    -0.020 C 
ATOM     30  H7  Q7Y d   1      70.886 108.774 272.314  0.00  0.00     0.037 H 
ATOM     31  H8  Q7Y d   1      71.736 107.234 272.678  0.00  0.00     0.037 H 
BRANCH  29  32
ATOM     32  C02 Q7Y d   1      70.244 107.087 271.107  0.00  0.00     0.081 C 
ATOM     33  H5  Q7Y d   1      69.167 107.289 271.015  0.00  0.00     0.075 H 
ATOM     34  H6  Q7Y d   1      70.414 106.000 271.108  0.00  0.00     0.075 H 
BRANCH  32  35
ATOM     35  N01 Q7Y d   1      70.949 107.687 269.970  0.00  0.00    -0.079 N 
ATOM     36  H19 Q7Y d   1      70.602 107.289 269.111  0.00  0.00     0.274 HD
ATOM     37  H20 Q7Y d   1      71.936 107.502 270.051  0.00  0.00     0.274 HD
ATOM     38  H21 Q7Y d   1      70.793 108.683 269.966  0.00  0.00     0.274 HD
ENDBRANCH  32  35
ENDBRANCH  29  32
ENDBRANCH  26  29
ENDBRANCH  23  26
ENDBRANCH   1  23
TORSDOF 12
