REMARK  3 active torsions:
REMARK  status: ('A' for Active; 'I' for Inactive)
REMARK    1  A    between atoms: C16_20  and  C17_3 
REMARK       I    between atoms: C02_8  and  N01_7 
REMARK    2  A    between atoms: C04_10  and  C02_8 
REMARK    3  A    between atoms: C11_16  and  O12_17 
ROOT
ATOM      1  C10 Q9J d   1      35.522 -41.566  -4.212  0.00  0.00    -0.034 C 
ATOM      2  C13 Q9J d   1      36.593 -41.075  -1.947  0.00  0.00     0.022 C 
ATOM      3  C04 Q9J d   1      36.803 -37.508  -2.698  0.00  0.00     0.108 A 
ATOM      4  C05 Q9J d   1      37.009 -38.819  -3.112  0.00  0.00     0.138 A 
ATOM      5  N06 Q9J d   1      37.524 -39.198  -4.327  0.00  0.00    -0.367 N 
ATOM      6  C07 Q9J d   1      37.590 -40.530  -4.932  0.00  0.00     0.036 C 
ATOM      7  C08 Q9J d   1      37.939 -41.674  -3.973  0.00  0.00    -0.039 C 
ATOM      8  C09 Q9J d   1      36.637 -41.923  -3.212  0.00  0.00    -0.032 C 
ATOM      9  C11 Q9J d   1      36.237 -41.020  -5.440  0.00  0.00     0.055 C 
ATOM     10  N14 Q9J d   1      36.618 -39.626  -2.097  0.00  0.00    -0.252 N 
ATOM     11  N15 Q9J d   1      36.151 -38.908  -1.028  0.00  0.00    -0.169 NA
ATOM     12  C16 Q9J d   1      36.255 -37.634  -1.383  0.00  0.00     0.107 A 
ATOM     13  H1  Q9J d   1      34.853 -40.804  -3.786  0.00  0.00     0.037 H 
ATOM     14  H2  Q9J d   1      34.939 -42.461  -4.473  0.00  0.00     0.037 H 
ATOM     15  H3  Q9J d   1      37.462 -41.356  -1.334  0.00  0.00     0.068 H 
ATOM     16  H4  Q9J d   1      35.667 -41.333  -1.411  0.00  0.00     0.068 H 
ATOM     17  H8  Q9J d   1      37.921 -38.436  -4.895  0.00  0.00     0.161 HD
ATOM     18  H9  Q9J d   1      38.321 -40.487  -5.753  0.00  0.00     0.076 H 
ATOM     19  H10 Q9J d   1      38.744 -41.377  -3.285  0.00  0.00     0.036 H 
ATOM     20  H11 Q9J d   1      38.245 -42.572  -4.529  0.00  0.00     0.036 H 
ATOM     21  H12 Q9J d   1      36.557 -42.983  -2.929  0.00  0.00     0.042 H 
ATOM     22  H13 Q9J d   1      35.666 -40.194  -5.889  0.00  0.00     0.086 H 
ENDROOT
BRANCH  12  23
ATOM     23  C17 Q9J d   1      35.846 -36.610  -0.404  0.00  0.00    -0.002 A 
ATOM     24  C18 Q9J d   1      35.021 -35.554  -0.784  0.00  0.00    -0.069 A 
ATOM     25  C19 Q9J d   1      34.643 -34.583   0.125  0.00  0.00    -0.063 A 
ATOM     26  H15 Q9J d   1      34.670 -35.492  -1.808  0.00  0.00     0.085 H 
ATOM     27  C20 Q9J d   1      35.090 -34.683   1.436  0.00  0.00     0.035 A 
ATOM     28  H16 Q9J d   1      34.009 -33.758  -0.180  0.00  0.00     0.085 H 
ATOM     29  C24 Q9J d   1      35.921 -35.735   1.843  0.00  0.00     0.075 A 
ATOM     30  S21 Q9J d   1      34.780 -33.621   2.771  0.00  0.00    -0.081 SA
ATOM     31  N23 Q9J d   1      36.294 -35.684   3.186  0.00  0.00    -0.253 NA
ATOM     32  C25 Q9J d   1      36.304 -36.707   0.914  0.00  0.00    -0.042 A 
ATOM     33  C22 Q9J d   1      35.771 -34.652   3.757  0.00  0.00     0.041 A 
ATOM     34  H5  Q9J d   1      35.943 -34.437   4.811  0.00  0.00     0.126 H 
ATOM     35  H17 Q9J d   1      36.948 -37.526   1.212  0.00  0.00     0.088 H 
ENDBRANCH  12  23
BRANCH   3  36
ATOM     36  C02 Q9J d   1      37.106 -36.310  -3.487  0.00  0.00     0.255 C 
ATOM     37  N01 Q9J d   1      37.310 -35.137  -2.890  0.00  0.00    -0.366 N 
ATOM     38  H6  Q9J d   1      37.225 -35.060  -1.897  0.00  0.00     0.159 HD
ATOM     39  H7  Q9J d   1      37.548 -34.333  -3.435  0.00  0.00     0.159 HD
ATOM     40  O03 Q9J d   1      37.211 -36.407  -4.719  0.00  0.00    -0.268 OA
ENDBRANCH   3  36
BRANCH   9  41
ATOM     41  O12 Q9J d   1      36.420 -42.059  -6.401  0.00  0.00    -0.394 OA
ATOM     42  H14 Q9J d   1      35.572 -42.356  -6.710  0.00  0.00     0.210 HD
ENDBRANCH   9  41
TORSDOF 3
