REMARK  7 active torsions:
REMARK  status: ('A' for Active; 'I' for Inactive)
REMARK    1  A    between atoms: C6_3  and  N14_14 
REMARK    2  A    between atoms: C2_6  and  C10_7 
REMARK    3  A    between atoms: C2_6  and  C9_8 
REMARK    4  A    between atoms: C3_9  and  C11_10 
REMARK       I    between atoms: N14_14  and  C15_15 
REMARK    5  A    between atoms: C15_15  and  C17_17 
REMARK    6  A    between atoms: C17_17  and  C33_18 
REMARK    7  A    between atoms: C17_17  and  C28_21 
ROOT
ATOM      1  C7  XT8 d   1      -6.097  37.061 -17.073  0.00  0.00     0.227 C 
ATOM      2  O8  XT8 d   1      -5.960  36.801 -15.887  0.00  0.00    -0.277 OA
ATOM      3  C6  XT8 d   1      -6.171  38.468 -17.596  0.00  0.00     0.109 C 
ATOM      4  C5  XT8 d   1      -4.851  38.735 -18.311  0.00  0.00     0.075 C 
ATOM      5  S1  XT8 d   1      -4.183  40.374 -18.117  0.00  0.00    -0.135 SA
ATOM      6  C2  XT8 d   1      -2.767  39.877 -17.168  0.00  0.00     0.029 C 
ATOM      7  C3  XT8 d   1      -3.107  38.441 -16.687  0.00  0.00     0.102 C 
ATOM      8  N4  XT8 d   1      -3.842  37.761 -17.777  0.00  0.00    -0.219 NA
ATOM      9  H1  XT8 d   1      -6.987  38.545 -18.330  0.00  0.00     0.090 H 
ATOM     10  H2  XT8 d   1      -5.004  38.556 -19.386  0.00  0.00     0.085 H 
ATOM     11  H9  XT8 d   1      -3.761  38.509 -15.805  0.00  0.00     0.084 H 
ENDROOT
BRANCH   3  12
ATOM     12  N14 XT8 d   1      -6.465  39.374 -16.510  0.00  0.00    -0.345 N 
ATOM     13  C15 XT8 d   1      -7.213  40.447 -16.661  0.00  0.00     0.237 C 
ATOM     14  O16 XT8 d   1      -7.715  40.682 -17.749  0.00  0.00    -0.272 OA
ATOM     15  H10 XT8 d   1      -6.085  39.178 -15.606  0.00  0.00     0.163 HD
BRANCH  13  16
ATOM     16  C17 XT8 d   1      -7.486  41.292 -15.407  0.00  0.00     0.133 C 
ATOM     17  H11 XT8 d   1      -7.583  40.603 -14.555  0.00  0.00     0.079 H 
BRANCH  16  18
ATOM     18  C33 XT8 d   1      -8.828  41.905 -15.611  0.00  0.00     0.191 C 
ATOM     19  O33 XT8 d   1      -9.826  41.169 -15.496  0.00  0.00    -0.647 OA
ATOM     20  O32 XT8 d   1      -8.921  43.060 -16.020  0.00  0.00    -0.647 OA
ENDBRANCH  16  18
BRANCH  16  21
ATOM     21  C28 XT8 d   1      -6.358  42.180 -15.063  0.00  0.00    -0.028 A 
ATOM     22  C32 XT8 d   1      -5.883  42.169 -13.760  0.00  0.00    -0.038 A 
ATOM     23  S31 XT8 d   1      -4.550  43.258 -13.682  0.00  0.00    -0.113 SA
ATOM     24  H12 XT8 d   1      -6.280  41.579 -12.935  0.00  0.00     0.095 H 
ATOM     25  C30 XT8 d   1      -4.659  43.726 -15.347  0.00  0.00    -0.045 A 
ATOM     26  C29 XT8 d   1      -5.708  43.043 -15.983  0.00  0.00    -0.069 A 
ATOM     27  H13 XT8 d   1      -4.005  44.449 -15.832  0.00  0.00     0.095 H 
ATOM     28  H14 XT8 d   1      -5.983  43.159 -17.030  0.00  0.00     0.085 H 
ENDBRANCH  16  21
ENDBRANCH  13  16
ENDBRANCH   3  12
BRANCH   7  29
ATOM     29  C11 XT8 d   1      -1.886  37.681 -16.300  0.00  0.00     0.193 C 
ATOM     30  O12 XT8 d   1      -1.513  36.859 -17.136  0.00  0.00    -0.647 OA
ATOM     31  O13 XT8 d   1      -1.284  37.869 -15.212  0.00  0.00    -0.647 OA
ENDBRANCH   7  29
BRANCH   6  32
ATOM     32  C10 XT8 d   1      -1.537  39.902 -18.065  0.00  0.00    -0.059 C 
ATOM     33  H3  XT8 d   1      -0.654  39.595 -17.485  0.00  0.00     0.029 H 
ATOM     34  H4  XT8 d   1      -1.386  40.921 -18.452  0.00  0.00     0.029 H 
ATOM     35  H5  XT8 d   1      -1.682  39.208 -18.906  0.00  0.00     0.029 H 
ENDBRANCH   6  32
BRANCH   6  36
ATOM     36  C9  XT8 d   1      -2.560  40.746 -15.950  0.00  0.00    -0.059 C 
ATOM     37  H6  XT8 d   1      -1.674  40.399 -15.398  0.00  0.00     0.029 H 
ATOM     38  H7  XT8 d   1      -3.445  40.683 -15.300  0.00  0.00     0.029 H 
ATOM     39  H8  XT8 d   1      -2.410  41.789 -16.265  0.00  0.00     0.029 H 
ENDBRANCH   6  36
TORSDOF 7
