REMARK  3 active torsions:
REMARK  status: ('A' for Active; 'I' for Inactive)
REMARK    1  A    between atoms: C7_1  and  C5_4 
REMARK       I    between atoms: N19_11  and  C7_1 
REMARK    2  A    between atoms: C14_12  and  N19_11 
REMARK    3  A    between atoms: C15_15  and  C12_14 
ROOT
ATOM      1  C14 QJJ d   1      24.480  55.879  86.587  0.00  0.00     0.019 A 
ATOM      2  C8  QJJ d   1      23.740  55.607  85.326  0.00  0.00    -0.038 A 
ATOM      3  C12 QJJ d   1      23.270  55.030  86.632  0.00  0.00    -0.006 A 
ATOM      4  H5  QJJ d   1      24.374  56.905  86.968  0.00  0.00     0.073 H 
ATOM      5  H6  QJJ d   1      24.178  54.952  84.559  0.00  0.00     0.036 H 
ATOM      6  H7  QJJ d   1      23.166  56.409  84.839  0.00  0.00     0.036 H 
ATOM      7  H8  QJJ d   1      23.425  53.950  86.771  0.00  0.00     0.047 H 
ENDROOT
BRANCH   3   8
ATOM      8  C15 QJJ d   1      21.975  55.354  87.391  0.00  0.00     0.065 C 
ATOM      9  N17 QJJ d   1      22.138  54.621  88.671  0.00  0.00    -0.359 N 
ATOM     10  C6  QJJ d   1      22.484  55.019  89.863  0.00  0.00     0.134 C 
ATOM     11  H9  QJJ d   1      21.942  53.612  88.605  0.00  0.00     0.162 HD
ATOM     12  S23 QJJ d   1      22.556  56.711  90.283  0.00  0.00    -0.094 SA
ATOM     13  N18 QJJ d   1      22.798  54.141  90.803  0.00  0.00    -0.380 N 
ATOM     14  C11 QJJ d   1      21.566  57.480  88.961  0.00  0.00    -0.009 C 
ATOM     15  C13 QJJ d   1      21.464  56.800  87.618  0.00  0.00     0.002 C 
ATOM     16  H15 QJJ d   1      20.541  57.582  89.347  0.00  0.00     0.050 H 
ATOM     17  H16 QJJ d   1      21.991  58.479  88.782  0.00  0.00     0.050 H 
ATOM     18  C9  QJJ d   1      20.006  56.725  87.191  0.00  0.00     0.026 C 
ATOM     19  H14 QJJ d   1      22.015  57.445  86.918  0.00  0.00     0.048 H 
ATOM     20  O21 QJJ d   1      19.614  55.360  87.243  0.00  0.00    -0.388 OA
ATOM     21  H12 QJJ d   1      19.384  57.321  87.875  0.00  0.00     0.075 H 
ATOM     22  H13 QJJ d   1      19.895  57.109  86.166  0.00  0.00     0.075 H 
ATOM     23  C10 QJJ d   1      20.756  54.746  86.695  0.00  0.00     0.043 C 
ATOM     24  H10 QJJ d   1      20.723  53.661  86.873  0.00  0.00     0.078 H 
ATOM     25  H11 QJJ d   1      20.805  54.939  85.613  0.00  0.00     0.078 H 
ATOM     26  H17 QJJ d   1      23.070  54.467  91.742  0.00  0.00     0.158 HD
ATOM     27  H18 QJJ d   1      22.770  53.133  90.596  0.00  0.00     0.158 HD
ENDBRANCH   3   8
BRANCH   1  28
ATOM     28  N19 QJJ d   1      25.788  55.470  87.027  0.00  0.00    -0.351 N 
ATOM     29  C7  QJJ d   1      27.010  55.747  86.396  0.00  0.00     0.270 C 
ATOM     30  O20 QJJ d   1      27.136  56.333  85.346  0.00  0.00    -0.266 OA
ATOM     31  H4  QJJ d   1      25.830  54.933  87.870  0.00  0.00     0.163 HD
BRANCH  29  32
ATOM     32  C5  QJJ d   1      28.231  55.314  87.135  0.00  0.00     0.124 A 
ATOM     33  C2  QJJ d   1      29.399  56.075  87.061  0.00  0.00    -0.047 A 
ATOM     34  C1  QJJ d   1      30.488  55.648  87.820  0.00  0.00    -0.042 A 
ATOM     35  H3  QJJ d   1      29.457  56.961  86.439  0.00  0.00     0.087 H 
ATOM     36  C4  QJJ d   1      30.363  54.525  88.637  0.00  0.00     0.133 A 
ATOM     37  H1  QJJ d   1      31.428  56.187  87.775  0.00  0.00     0.088 H 
ATOM     38  C3  QJJ d   1      29.164  53.860  88.664  0.00  0.00     0.040 A 
ATOM     39  F22 QJJ d   1      31.320  54.038  89.406  0.00  0.00    -0.205 F 
ATOM     40  N16 QJJ d   1      28.112  54.250  87.935  0.00  0.00    -0.252 NA
ATOM     41  H2  QJJ d   1      29.065  52.987  89.299  0.00  0.00     0.119 H 
ENDBRANCH  29  32
ENDBRANCH   1  28
TORSDOF 3
