REMARK  6 active torsions:
REMARK  status: ('A' for Active; 'I' for Inactive)
REMARK    1  A    between atoms: C8_11  and  C7_2 
REMARK    2  A    between atoms: C6_4  and  C5_7 
REMARK    3  A    between atoms: C2_10  and  C1_5 
REMARK       I    between atoms: C5_7  and  N1_6 
REMARK    4  A    between atoms: N1_6  and  C4_8 
REMARK    5  A    between atoms: C4_8  and  C3_9 
REMARK    6  A    between atoms: C3_9  and  C2_10 
ROOT
ATOM      1  C7  QJV d   1      22.599  55.480  86.072  0.00  0.00    -0.015 A 
ATOM      2  C6  QJV d   1      24.029  55.052  86.375  0.00  0.00     0.030 A 
ATOM      3  C14 QJV d   1      23.132  54.186  85.494  0.00  0.00    -0.047 A 
ATOM      4  H1  QJV d   1      22.419  56.348  85.421  0.00  0.00     0.045 H 
ATOM      5  H2  QJV d   1      24.296  54.726  87.391  0.00  0.00     0.055 H 
ATOM      6  H23 QJV d   1      23.332  54.107  84.415  0.00  0.00     0.035 H 
ATOM      7  H24 QJV d   1      22.759  53.222  85.869  0.00  0.00     0.035 H 
ENDROOT
BRANCH   1   8
ATOM      8  C8  QJV d   1      21.527  55.409  87.121  0.00  0.00     0.064 C 
ATOM      9  N2  QJV d   1      21.907  54.560  88.280  0.00  0.00    -0.359 N 
ATOM     10  C9  QJV d   1      22.291  54.928  89.509  0.00  0.00     0.134 C 
ATOM     11  H13 QJV d   1      21.870  53.544  88.115  0.00  0.00     0.162 HD
ATOM     12  N3  QJV d   1      22.583  54.013  90.432  0.00  0.00    -0.380 N 
ATOM     13  S1  QJV d   1      22.417  56.579  90.009  0.00  0.00    -0.094 SA
ATOM     14  H14 QJV d   1      22.877  54.307  91.374  0.00  0.00     0.158 HD
ATOM     15  H15 QJV d   1      22.515  53.011  90.204  0.00  0.00     0.158 HD
ATOM     16  C10 QJV d   1      22.043  57.514  88.509  0.00  0.00    -0.009 C 
ATOM     17  C11 QJV d   1      21.101  56.801  87.541  0.00  0.00     0.002 C 
ATOM     18  H16 QJV d   1      22.988  57.715  87.984  0.00  0.00     0.050 H 
ATOM     19  H17 QJV d   1      21.578  58.466  88.804  0.00  0.00     0.050 H 
ATOM     20  C12 QJV d   1      19.696  56.613  88.080  0.00  0.00     0.026 C 
ATOM     21  H18 QJV d   1      21.049  57.430  86.640  0.00  0.00     0.048 H 
ATOM     22  O2  QJV d   1      19.216  55.386  87.489  0.00  0.00    -0.388 OA
ATOM     23  H19 QJV d   1      19.713  56.530  89.177  0.00  0.00     0.075 H 
ATOM     24  H20 QJV d   1      19.055  57.458  87.786  0.00  0.00     0.075 H 
ATOM     25  C13 QJV d   1      20.208  54.828  86.612  0.00  0.00     0.043 C 
ATOM     26  H21 QJV d   1      20.024  55.132  85.571  0.00  0.00     0.078 H 
ATOM     27  H22 QJV d   1      20.214  53.730  86.678  0.00  0.00     0.078 H 
ENDBRANCH   1   8
BRANCH   2  28
ATOM     28  C5  QJV d   1      25.192  55.741  85.754  0.00  0.00     0.222 C 
ATOM     29  O1  QJV d   1      25.167  56.132  84.587  0.00  0.00    -0.273 OA
ATOM     30  N1  QJV d   1      26.277  55.878  86.589  0.00  0.00    -0.361 N 
ATOM     31  H6  QJV d   1      26.168  55.665  87.560  0.00  0.00     0.162 HD
BRANCH  30  32
ATOM     32  C4  QJV d   1      27.584  56.324  86.107  0.00  0.00    -0.005 C 
ATOM     33  H7  QJV d   1      27.555  57.407  85.917  0.00  0.00     0.064 H 
ATOM     34  H8  QJV d   1      27.832  55.795  85.175  0.00  0.00     0.064 H 
BRANCH  32  35
ATOM     35  C3  QJV d   1      28.641  56.020  87.161  0.00  0.00    -0.051 C 
ATOM     36  H9  QJV d   1      28.351  56.497  88.109  0.00  0.00     0.035 H 
ATOM     37  H10 QJV d   1      29.608  56.425  86.827  0.00  0.00     0.035 H 
BRANCH  35  38
ATOM     38  C2  QJV d   1      28.778  54.531  87.380  0.00  0.00    -0.067 C 
ATOM     39  H11 QJV d   1      27.783  54.090  87.542  0.00  0.00     0.032 H 
ATOM     40  H12 QJV d   1      29.244  54.071  86.496  0.00  0.00     0.032 H 
BRANCH  38  41
ATOM     41  C1  QJV d   1      29.652  54.282  88.605  0.00  0.00    -0.076 C 
ATOM     42  H3  QJV d   1      29.755  53.199  88.768  0.00  0.00     0.027 H 
ATOM     43  H4  QJV d   1      29.186  54.743  89.488  0.00  0.00     0.027 H 
ATOM     44  H5  QJV d   1      30.646  54.724  88.442  0.00  0.00     0.027 H 
ENDBRANCH  38  41
ENDBRANCH  35  38
ENDBRANCH  32  35
ENDBRANCH  30  32
ENDBRANCH   2  28
TORSDOF 6
