REMARK  5 active torsions:
REMARK  status: ('A' for Active; 'I' for Inactive)
REMARK    1  A    between atoms: C7_2  and  C6_4 
REMARK       I    between atoms: C6_4  and  N1_6 
REMARK    2  A    between atoms: C2_10  and  C1_5 
REMARK    3  A    between atoms: N1_6  and  C5_7 
REMARK    4  A    between atoms: C5_7  and  C4_8 
REMARK    5  A    between atoms: C9_16  and  C10_18 
ROOT
ATOM      1  C7  QJP d   1      24.128  54.917  86.786  0.00  0.00     0.030 A 
ATOM      2  C8  QJP d   1      23.219  54.029  85.973  0.00  0.00    -0.047 A 
ATOM      3  C9  QJP d   1      22.692  55.325  86.518  0.00  0.00    -0.015 A 
ATOM      4  H1  QJP d   1      24.429  54.615  87.800  0.00  0.00     0.055 H 
ATOM      5  H12 QJP d   1      22.867  53.075  86.391  0.00  0.00     0.035 H 
ATOM      6  H13 QJP d   1      23.386  53.916  84.892  0.00  0.00     0.035 H 
ATOM      7  H20 QJP d   1      22.484  56.163  85.837  0.00  0.00     0.045 H 
ENDROOT
BRANCH   3   8
ATOM      8  C10 QJP d   1      21.667  55.314  87.610  0.00  0.00     0.064 C 
ATOM      9  C15 QJP d   1      20.328  54.763  87.153  0.00  0.00     0.043 C 
ATOM     10  O2  QJP d   1      19.366  55.325  88.060  0.00  0.00    -0.388 OA
ATOM     11  H16 QJP d   1      20.114  55.075  86.120  0.00  0.00     0.078 H 
ATOM     12  H17 QJP d   1      20.321  53.665  87.213  0.00  0.00     0.078 H 
ATOM     13  C14 QJP d   1      19.909  56.520  88.666  0.00  0.00     0.026 C 
ATOM     14  C13 QJP d   1      21.281  56.716  88.029  0.00  0.00     0.002 C 
ATOM     15  H14 QJP d   1      20.006  56.389  89.754  0.00  0.00     0.075 H 
ATOM     16  H15 QJP d   1      19.262  57.385  88.457  0.00  0.00     0.075 H 
ATOM     17  C12 QJP d   1      22.305  57.411  88.901  0.00  0.00    -0.009 C 
ATOM     18  H21 QJP d   1      21.165  57.337  87.128  0.00  0.00     0.048 H 
ATOM     19  S1  QJP d   1      22.621  56.487  90.423  0.00  0.00    -0.094 SA
ATOM     20  H18 QJP d   1      21.931  58.412  89.162  0.00  0.00     0.050 H 
ATOM     21  H19 QJP d   1      23.246  57.506  88.340  0.00  0.00     0.050 H 
ATOM     22  C11 QJP d   1      22.480  54.837  89.964  0.00  0.00     0.134 C 
ATOM     23  N2  QJP d   1      22.057  54.473  88.762  0.00  0.00    -0.359 N 
ATOM     24  N3  QJP d   1      22.803  53.923  90.883  0.00  0.00    -0.380 N 
ATOM     25  H22 QJP d   1      21.990  53.457  88.608  0.00  0.00     0.162 HD
ATOM     26  H23 QJP d   1      23.130  54.221  91.813  0.00  0.00     0.158 HD
ATOM     27  H24 QJP d   1      22.725  52.920  90.662  0.00  0.00     0.158 HD
ENDBRANCH   3   8
BRANCH   1  28
ATOM     28  C6  QJP d   1      25.249  55.620  86.137  0.00  0.00     0.222 C 
ATOM     29  O1  QJP d   1      25.177  56.063  84.992  0.00  0.00    -0.273 OA
ATOM     30  N1  QJP d   1      26.359  55.727  86.949  0.00  0.00    -0.360 N 
ATOM     31  H5  QJP d   1      26.300  55.429  87.902  0.00  0.00     0.162 HD
BRANCH  30  32
ATOM     32  C5  QJP d   1      27.606  56.262  86.448  0.00  0.00    -0.001 C 
ATOM     33  H6  QJP d   1      27.469  57.315  86.160  0.00  0.00     0.064 H 
ATOM     34  H7  QJP d   1      27.934  55.682  85.573  0.00  0.00     0.064 H 
BRANCH  32  35
ATOM     35  C4  QJP d   1      28.637  56.165  87.535  0.00  0.00    -0.035 A 
ATOM     36  C3  QJP d   1      30.069  56.087  87.076  0.00  0.00    -0.057 A 
ATOM     37  C2  QJP d   1      29.384  54.867  87.615  0.00  0.00    -0.052 A 
ATOM     38  H9  QJP d   1      30.862  56.577  87.661  0.00  0.00     0.034 H 
ATOM     39  H10 QJP d   1      30.308  56.156  86.004  0.00  0.00     0.034 H 
ATOM     40  H11 QJP d   1      29.120  54.036  86.944  0.00  0.00     0.040 H 
ATOM     41  H8  QJP d   1      28.341  56.725  88.434  0.00  0.00     0.043 H 
BRANCH  37  42
ATOM     42  C1  QJP d   1      29.800  54.326  88.955  0.00  0.00    -0.072 C 
ATOM     43  H2  QJP d   1      30.332  53.373  88.817  0.00  0.00     0.028 H 
ATOM     44  H3  QJP d   1      28.908  54.160  89.577  0.00  0.00     0.028 H 
ATOM     45  H4  QJP d   1      30.464  55.048  89.452  0.00  0.00     0.028 H 
ENDBRANCH  37  42
ENDBRANCH  32  35
ENDBRANCH  30  32
ENDBRANCH   1  28
TORSDOF 5
