REMARK  5 active torsions:
REMARK  status: ('A' for Active; 'I' for Inactive)
REMARK       I    between atoms: C5_5  and  N5_10 
REMARK    1  A    between atoms: C11_15  and  C5_5 
REMARK    2  A    between atoms: N5_10  and  C18_11 
REMARK    3  A    between atoms: C18_11  and  C15_12 
REMARK    4  A    between atoms: C14_13  and  C17_14 
REMARK    5  A    between atoms: C16_17  and  C12_16 
ROOT
ATOM      1  C1  QKA d   1     -14.737 -25.611   0.147  0.00  0.00     0.022 A 
ATOM      2  N1  QKA d   1     -16.822 -23.948   0.941  0.00  0.00    -0.075 NA
ATOM      3  C4  QKA d   1     -14.588 -19.319  -1.107  0.00  0.00     0.134 C 
ATOM      4  C3  QKA d   1     -15.482 -23.577   0.915  0.00  0.00     0.724 A 
ATOM      5  C2  QKA d   1     -17.079 -25.194   0.490  0.00  0.00     0.022 A 
ATOM      6  C16 QKA d   1     -15.509 -19.977   1.110  0.00  0.00     0.059 C 
ATOM      7  N2  QKA d   1     -15.573 -19.750  -0.336  0.00  0.00    -0.359 N 
ATOM      8  C13 QKA d   1     -14.085 -20.250   1.652  0.00  0.00    -0.003 C 
ATOM      9  C10 QKA d   1     -13.036 -19.250   1.178  0.00  0.00    -0.009 C 
ATOM     10  S   QKA d   1     -12.936 -19.022  -0.617  0.00  0.00    -0.094 SA
ATOM     11  N4  QKA d   1     -14.798 -19.076  -2.428  0.00  0.00    -0.380 N 
ATOM     12  C9  QKA d   1     -16.255 -21.297   1.452  0.00  0.00     0.036 C 
ATOM     13  N3  QKA d   1     -15.217 -22.273   1.211  0.00  0.00    -0.211 N 
ATOM     14  C8  QKA d   1     -13.856 -21.718   1.202  0.00  0.00     0.018 C 
ATOM     15  N   QKA d   1     -14.415 -24.331   0.560  0.00  0.00    -0.075 NA
ATOM     16  C   QKA d   1     -16.050 -26.041   0.075  0.00  0.00    -0.048 A 
ATOM     17  H5  QKA d   1     -13.941 -26.294  -0.127  0.00  0.00     0.115 H 
ATOM     18  H6  QKA d   1     -18.104 -25.544   0.449  0.00  0.00     0.115 H 
ATOM     19  H17 QKA d   1     -16.473 -19.945  -0.797  0.00  0.00     0.162 HD
ATOM     20  H18 QKA d   1     -14.095 -20.205   2.751  0.00  0.00     0.047 H 
ATOM     21  H19 QKA d   1     -12.053 -19.596   1.532  0.00  0.00     0.050 H 
ATOM     22  H20 QKA d   1     -13.267 -18.275   1.632  0.00  0.00     0.050 H 
ATOM     23  H21 QKA d   1     -14.024 -18.741  -3.019  0.00  0.00     0.158 HD
ATOM     24  H22 QKA d   1     -15.731 -19.227  -2.837  0.00  0.00     0.158 HD
ATOM     25  H23 QKA d   1     -17.119 -21.455   0.790  0.00  0.00     0.069 H 
ATOM     26  H24 QKA d   1     -16.588 -21.312   2.500  0.00  0.00     0.069 H 
ATOM     27  H25 QKA d   1     -13.205 -22.253   1.909  0.00  0.00     0.066 H 
ATOM     28  H26 QKA d   1     -13.417 -21.760   0.194  0.00  0.00     0.066 H 
ATOM     29  H27 QKA d   1     -16.279 -27.031  -0.302  0.00  0.00     0.087 H 
ENDROOT
BRANCH   6  30
ATOM     30  C12 QKA d   1     -16.192 -18.843   1.875  0.00  0.00    -0.015 A 
ATOM     31  C6  QKA d   1     -17.542 -18.297   1.445  0.00  0.00    -0.047 A 
ATOM     32  C11 QKA d   1     -16.269 -17.440   1.267  0.00  0.00     0.030 A 
ATOM     33  H3  QKA d   1     -18.050 -18.717   0.564  0.00  0.00     0.035 H 
ATOM     34  H4  QKA d   1     -18.290 -18.020   2.203  0.00  0.00     0.035 H 
ATOM     35  H15 QKA d   1     -15.852 -17.236   0.270  0.00  0.00     0.055 H 
ATOM     36  H16 QKA d   1     -15.977 -18.958   2.948  0.00  0.00     0.045 H 
BRANCH  32  37
ATOM     37  C5  QKA d   1     -16.113 -16.270   2.141  0.00  0.00     0.222 C 
ATOM     38  O   QKA d   1     -16.488 -16.282   3.318  0.00  0.00    -0.273 OA
ATOM     39  N5  QKA d   1     -15.509 -15.200   1.556  0.00  0.00    -0.360 N 
ATOM     40  H7  QKA d   1     -15.183 -15.267   0.613  0.00  0.00     0.162 HD
BRANCH  39  41
ATOM     41  C18 QKA d   1     -15.334 -13.955   2.298  0.00  0.00    -0.001 C 
ATOM     42  H8  QKA d   1     -14.589 -14.099   3.094  0.00  0.00     0.064 H 
ATOM     43  H9  QKA d   1     -16.292 -13.650   2.744  0.00  0.00     0.064 H 
BRANCH  41  44
ATOM     44  C15 QKA d   1     -14.853 -12.883   1.331  0.00  0.00    -0.035 A 
ATOM     45  C7  QKA d   1     -15.182 -11.457   1.648  0.00  0.00    -0.057 A 
ATOM     46  C14 QKA d   1     -15.877 -12.175   0.478  0.00  0.00    -0.052 A 
ATOM     47  H1  QKA d   1     -14.446 -10.664   1.449  0.00  0.00     0.034 H 
ATOM     48  H2  QKA d   1     -15.748 -11.211   2.558  0.00  0.00     0.034 H 
ATOM     49  H11 QKA d   1     -16.941 -12.448   0.539  0.00  0.00     0.040 H 
ATOM     50  H10 QKA d   1     -13.871 -13.153   0.915  0.00  0.00     0.043 H 
BRANCH  46  51
ATOM     51  C17 QKA d   1     -15.526 -11.786  -0.934  0.00  0.00    -0.072 C 
ATOM     52  H12 QKA d   1     -16.386 -11.284  -1.401  0.00  0.00     0.028 H 
ATOM     53  H13 QKA d   1     -15.271 -12.688  -1.510  0.00  0.00     0.028 H 
ATOM     54  H14 QKA d   1     -14.664 -11.102  -0.923  0.00  0.00     0.028 H 
ENDBRANCH  46  51
ENDBRANCH  41  44
ENDBRANCH  39  41
ENDBRANCH  32  37
ENDBRANCH   6  30
TORSDOF 5
