REMARK  10 active torsions:
REMARK  status: ('A' for Active; 'I' for Inactive)
REMARK    1  A    between atoms: C5_4  and  N26_26 
REMARK    2  A    between atoms: N25_25  and  C4_5 
REMARK    3  A    between atoms: C11_11  and  C16_16 
REMARK    4  A    between atoms: C21_21  and  C13_13 
REMARK    5  A    between atoms: C14_14  and  C17_17 
REMARK    6  A    between atoms: C20_20  and  C15_15 
REMARK    7  A    between atoms: C21_21  and  C18_18 
REMARK    8  A    between atoms: C21_21  and  C19_19 
REMARK    9  A    between atoms: O27_27  and  C20_20 
REMARK   10  A    between atoms: C21_21  and  O27_27 
ROOT
ATOM      1  C6  QK7 d   1      23.633  54.394  86.414  0.00  0.00    -0.052 A 
ATOM      2  C11 QK7 d   1      22.714  55.590  86.579  0.00  0.00    -0.021 A 
ATOM      3  C13 QK7 d   1      24.184  55.705  86.937  0.00  0.00    -0.018 A 
ATOM      4  H3  QK7 d   1      23.906  54.045  85.407  0.00  0.00     0.034 H 
ATOM      5  H4  QK7 d   1      23.537  53.530  87.088  0.00  0.00     0.034 H 
ATOM      6  H14 QK7 d   1      22.346  56.108  85.681  0.00  0.00     0.044 H 
ATOM      7  H16 QK7 d   1      24.487  55.764  87.993  0.00  0.00     0.045 H 
ENDROOT
BRANCH   2   8
ATOM      8  C16 QK7 d   1      21.613  55.616  87.623  0.00  0.00     0.059 C 
ATOM      9  C9  QK7 d   1      20.297  55.098  86.990  0.00  0.00     0.036 C 
ATOM     10  N25 QK7 d   1      19.266  55.732  87.829  0.00  0.00    -0.211 N 
ATOM     11  H10 QK7 d   1      20.235  54.001  87.045  0.00  0.00     0.069 H 
ATOM     12  H11 QK7 d   1      20.208  55.418  85.941  0.00  0.00     0.069 H 
ATOM     13  C8  QK7 d   1      19.801  56.837  88.625  0.00  0.00     0.018 C 
ATOM     14  C12 QK7 d   1      21.222  57.030  88.060  0.00  0.00    -0.003 C 
ATOM     15  H8  QK7 d   1      19.197  57.747  88.491  0.00  0.00     0.066 H 
ATOM     16  H9  QK7 d   1      19.834  56.573  89.692  0.00  0.00     0.066 H 
ATOM     17  C10 QK7 d   1      22.195  57.665  89.052  0.00  0.00    -0.009 C 
ATOM     18  H15 QK7 d   1      21.180  57.686  87.178  0.00  0.00     0.047 H 
ATOM     19  S28 QK7 d   1      22.493  56.695  90.551  0.00  0.00    -0.094 SA
ATOM     20  H12 QK7 d   1      21.788  58.642  89.352  0.00  0.00     0.050 H 
ATOM     21  H13 QK7 d   1      23.158  57.810  88.541  0.00  0.00     0.050 H 
ATOM     22  C5  QK7 d   1      22.315  55.052  89.948  0.00  0.00     0.134 C 
ATOM     23  N24 QK7 d   1      21.946  54.706  88.725  0.00  0.00    -0.359 N 
ATOM     24  H30 QK7 d   1      21.887  53.697  88.527  0.00  0.00     0.162 HD
BRANCH  10  25
ATOM     25  C4  QK7 d   1      17.949  55.309  87.899  0.00  0.00     0.724 A 
ATOM     26  N22 QK7 d   1      17.164  55.990  88.752  0.00  0.00    -0.075 NA
ATOM     27  C2  QK7 d   1      15.888  55.566  88.788  0.00  0.00     0.022 A 
ATOM     28  C1  QK7 d   1      15.416  54.502  88.043  0.00  0.00    -0.048 A 
ATOM     29  H7  QK7 d   1      15.193  56.087  89.436  0.00  0.00     0.115 H 
ATOM     30  C3  QK7 d   1      16.323  53.888  87.200  0.00  0.00     0.022 A 
ATOM     31  H5  QK7 d   1      14.388  54.166  88.116  0.00  0.00     0.087 H 
ATOM     32  N23 QK7 d   1      17.613  54.276  87.109  0.00  0.00    -0.075 NA
ATOM     33  H6  QK7 d   1      15.985  53.061  86.587  0.00  0.00     0.115 H 
ENDBRANCH  10  25
BRANCH  22  34
ATOM     34  N26 QK7 d   1      22.597  54.106  90.902  0.00  0.00    -0.380 N 
ATOM     35  H31 QK7 d   1      22.883  54.398  91.848  0.00  0.00     0.158 HD
ATOM     36  H32 QK7 d   1      22.523  53.105  90.672  0.00  0.00     0.158 HD
ENDBRANCH  22  34
ENDBRANCH   2   8
BRANCH   3  37
ATOM     37  C21 QK7 d   1      25.076  56.615  86.134  0.00  0.00     0.058 C 
BRANCH  37  38
ATOM     38  C18 QK7 d   1      25.167  56.219  84.644  0.00  0.00    -0.048 C 
ATOM     39  H22 QK7 d   1      25.831  56.921  84.118  0.00  0.00     0.031 H 
ATOM     40  H23 QK7 d   1      24.164  56.255  84.193  0.00  0.00     0.031 H 
ATOM     41  H24 QK7 d   1      25.571  55.199  84.560  0.00  0.00     0.031 H 
ENDBRANCH  37  38
BRANCH  37  42
ATOM     42  C19 QK7 d   1      24.620  58.090  86.188  0.00  0.00    -0.048 C 
ATOM     43  H25 QK7 d   1      24.543  58.412  87.237  0.00  0.00     0.031 H 
ATOM     44  H26 QK7 d   1      23.639  58.188  85.701  0.00  0.00     0.031 H 
ATOM     45  H27 QK7 d   1      25.354  58.720  85.665  0.00  0.00     0.031 H 
ENDBRANCH  37  42
BRANCH  37  46
ATOM     46  O27 QK7 d   1      26.420  56.651  86.696  0.00  0.00    -0.380 OA
BRANCH  46  47
ATOM     47  C20 QK7 d   1      27.034  55.373  86.861  0.00  0.00     0.024 C 
ATOM     48  H28 QK7 d   1      26.311  54.666  87.295  0.00  0.00     0.075 H 
ATOM     49  H29 QK7 d   1      27.376  54.996  85.886  0.00  0.00     0.075 H 
BRANCH  47  50
ATOM     50  C15 QK7 d   1      28.223  55.534  87.797  0.00  0.00    -0.030 A 
ATOM     51  C7  QK7 d   1      29.598  55.800  87.213  0.00  0.00    -0.056 A 
ATOM     52  C14 QK7 d   1      29.290  54.464  87.840  0.00  0.00    -0.052 A 
ATOM     53  H1  QK7 d   1      29.727  55.880  86.124  0.00  0.00     0.034 H 
ATOM     54  H2  QK7 d   1      30.283  56.499  87.715  0.00  0.00     0.034 H 
ATOM     55  H17 QK7 d   1      29.206  53.565  87.212  0.00  0.00     0.040 H 
ATOM     56  H18 QK7 d   1      27.904  56.037  88.722  0.00  0.00     0.043 H 
BRANCH  52  57
ATOM     57  C17 QK7 d   1      29.891  54.110  89.160  0.00  0.00    -0.072 C 
ATOM     58  H19 QK7 d   1      30.645  53.321  89.020  0.00  0.00     0.028 H 
ATOM     59  H20 QK7 d   1      29.103  53.748  89.837  0.00  0.00     0.028 H 
ATOM     60  H21 QK7 d   1      30.368  55.000  89.596  0.00  0.00     0.028 H 
ENDBRANCH  52  57
ENDBRANCH  47  50
ENDBRANCH  46  47
ENDBRANCH  37  46
ENDBRANCH   3  37
TORSDOF 10
