REMARK WARNING: 32 MAX_TORS EXCEEDED!!!
REMARK  47 active torsions:
REMARK  status: ('A' for Active; 'I' for Inactive)
REMARK    1  A    between atoms: N_1  and  CA_2 
REMARK    2  A    between atoms: CA_2  and  C_3 
REMARK    3  A    between atoms: CA_2  and  CB_5 
REMARK       I    between atoms: C_3  and  N_6 
REMARK    4  A    between atoms: N_6  and  CA_7 
REMARK    5  A    between atoms: CA_7  and  C_8 
REMARK    6  A    between atoms: CA_7  and  CB_10 
REMARK       I    between atoms: C_8  and  N_15 
REMARK    7  A    between atoms: CB_10  and  CG_11 
REMARK    8  A    between atoms: CG_11  and  CD_12 
REMARK    9  A    between atoms: N_15  and  CA_16 
REMARK   10  A    between atoms: CA_16  and  C_17 
REMARK   11  A    between atoms: CA_16  and  CB_19 
REMARK       I    between atoms: C_17  and  N_24 
REMARK   12  A    between atoms: CB_19  and  CG_20 
REMARK   13  A    between atoms: CG_20  and  CD_21 
REMARK   14  A    between atoms: N_24  and  CA_25 
REMARK   15  A    between atoms: CA_25  and  C_26 
REMARK   16  A    between atoms: CA_25  and  CB_28 
REMARK       I    between atoms: C_26  and  N_35 
REMARK   17  A    between atoms: CB_28  and  CG_29 
REMARK   18  A    between atoms: CG_29  and  CD_30 
REMARK   19  A    between atoms: CD_30  and  NE_31 
REMARK       I    between atoms: NE_31  and  CZ_32 
REMARK       I    between atoms: CZ_32  and  NH1_33 
REMARK   20  A    between atoms: N_35  and  CA_36 
REMARK   21  A    between atoms: CA_36  and  C_37 
REMARK   22  A    between atoms: CA_36  and  CB_39 
REMARK       I    between atoms: C_37  and  N_43 
REMARK   23  A    between atoms: CB_39  and  CG1_40 
REMARK   24  A    between atoms: CB_39  and  CG2_41 
REMARK   25  A    between atoms: CG1_40  and  CD1_42 
REMARK   26  A    between atoms: N_43  and  CA_44 
REMARK   27  A    between atoms: CA_44  and  C_45 
REMARK   28  A    between atoms: CA_44  and  CB_47 
REMARK       I    between atoms: C_45  and  N_51 
REMARK   29  A    between atoms: CB_47  and  CG1_48 
REMARK   30  A    between atoms: CB_47  and  CG2_49 
REMARK   31  A    between atoms: CG1_48  and  CD1_50 
REMARK   32  A    between atoms: N_51  and  CA_52 
REMARK   33  A    between atoms: CA_52  and  C_53 
REMARK   34  A    between atoms: CA_52  and  CB_55 
REMARK       I    between atoms: C_53  and  N_58 
REMARK   35  A    between atoms: CB_55  and  CG1_56 
REMARK   36  A    between atoms: CB_55  and  CG2_57 
REMARK   37  A    between atoms: N_58  and  CA_59 
REMARK   38  A    between atoms: CA_59  and  C_60 
REMARK   39  A    between atoms: CA_59  and  CB_62 
REMARK       I    between atoms: C_60  and  N_66 
REMARK   40  A    between atoms: CB_62  and  CG_63 
REMARK   41  A    between atoms: CG_63  and  CD1_64 
REMARK   42  A    between atoms: CG_63  and  CD2_65 
REMARK   43  A    between atoms: N_66  and  CA_67 
REMARK   44  A    between atoms: CA_67  and  CB_68 
REMARK   45  A    between atoms: CA_67  and  C_70 
REMARK   46  A    between atoms: CB_68  and  OG_69 
REMARK   47  A    between atoms: OG_69  and  P_72 
ROOT
ATOM      1  CA  ALA d   1      11.156  -1.743   9.939  0.00  0.00     0.092 C 
ATOM      2  H34 ALA d   1      11.014  -1.396   8.905  0.00  0.00     0.088 H 
ENDROOT
BRANCH   1   3
ATOM      3  N   ALA d   1      11.673  -3.107   9.901  0.00  0.00    -0.346 N 
ATOM      4  C   ALA d   1      11.730  -3.859   8.797  0.00  0.00     0.241 C 
ATOM      5  O   ALA d   1      11.338  -3.503   7.681  0.00  0.00    -0.271 OA
ATOM      6  H33 ALA d   1      12.006  -3.505  10.756  0.00  0.00     0.163 HD
BRANCH   4   7
ATOM      7  CA  ALA d   1      12.300  -5.248   8.982  0.00  0.00     0.089 C 
ATOM      8  H21 ALA d   1      12.566  -5.391  10.040  0.00  0.00     0.087 H 
BRANCH   7   9
ATOM      9  N   ALA d   1      11.272  -6.206   8.615  0.00  0.00    -0.346 N 
ATOM     10  C   ALA d   1      10.912  -7.210   9.394  0.00  0.00     0.241 C 
ATOM     11  O   ALA d   1      11.388  -7.406  10.522  0.00  0.00    -0.271 OA
ATOM     12  H20 ALA d   1      10.816  -6.101   7.731  0.00  0.00     0.163 HD
BRANCH  10  13
ATOM     13  CA  ALA d   1       9.860  -8.117   8.790  0.00  0.00     0.090 C 
ATOM     14  H15 ALA d   1       9.935  -8.062   7.694  0.00  0.00     0.087 H 
BRANCH  13  15
ATOM     15  N   ALA d   1      10.102  -9.486   9.207  0.00  0.00    -0.346 N 
ATOM     16  C   ALA d   1      11.175 -10.156   8.808  0.00  0.00     0.241 C 
ATOM     17  O   ALA d   1      12.016  -9.665   8.065  0.00  0.00    -0.271 OA
ATOM     18  H14 ALA d   1       9.443  -9.935   9.810  0.00  0.00     0.163 HD
BRANCH  16  19
ATOM     19  CA  ALA d   1      11.276 -11.601   9.321  0.00  0.00     0.090 C 
ATOM     20  H9  ALA d   1      10.251 -11.982   9.439  0.00  0.00     0.087 H 
BRANCH  19  21
ATOM     21  N   ALA d   1      11.974 -12.504   8.422  0.00  0.00    -0.346 N 
ATOM     22  C   ALA d   1      11.335 -13.298   7.565  0.00  0.00     0.248 C 
ATOM     23  O   ALA d   1      10.177 -13.183   7.299  0.00  0.00    -0.271 OA
ATOM     24  H8  ALA d   1      12.973 -12.530   8.448  0.00  0.00     0.163 HD
BRANCH  22  25
ATOM     25  CA  ALA d   1      12.138 -14.362   6.855  0.00  0.00     0.172 C 
ATOM     26  H4  ALA d   1      13.205 -14.114   6.956  0.00  0.00     0.098 H 
BRANCH  25  27
ATOM     27  N   ALA d   1      11.927 -15.708   7.413  0.00  0.00    -0.067 N 
ATOM     28  H1  ALA d   1      12.485 -16.375   6.903  0.00  0.00     0.275 HD
ATOM     29  H2  ALA d   1      10.953 -15.955   7.335  0.00  0.00     0.275 HD
ATOM     30  H3  ALA d   1      12.198 -15.716   8.384  0.00  0.00     0.275 HD
ENDBRANCH  25  27
BRANCH  25  31
ATOM     31  CB  ALA d   1      11.770 -14.350   5.397  0.00  0.00    -0.042 C 
ATOM     32  H5  ALA d   1      11.930 -13.342   4.987  0.00  0.00     0.030 H 
ATOM     33  H6  ALA d   1      10.712 -14.628   5.284  0.00  0.00     0.030 H 
ATOM     34  H7  ALA d   1      12.399 -15.071   4.854  0.00  0.00     0.030 H 
ENDBRANCH  25  31
ENDBRANCH  22  25
ENDBRANCH  19  21
BRANCH  19  35
ATOM     35  CB  ALA d   1      11.955 -11.605  10.698  0.00  0.00    -0.029 C 
ATOM     36  H10 ALA d   1      11.438 -10.874  11.338  0.00  0.00     0.037 H 
ATOM     37  H11 ALA d   1      13.003 -11.299  10.565  0.00  0.00     0.037 H 
BRANCH  35  38
ATOM     38  CG  ALA d   1      11.941 -12.938  11.401  0.00  0.00     0.018 C 
ATOM     39  H12 ALA d   1      12.741 -13.568  10.984  0.00  0.00     0.049 H 
ATOM     40  H13 ALA d   1      10.967 -13.420  11.229  0.00  0.00     0.049 H 
BRANCH  38  41
ATOM     41  CD  ALA d   1      12.156 -12.797  12.872  0.00  0.00     0.172 C 
ATOM     42  OE1 ALA d   1      12.037 -11.696  13.396  0.00  0.00    -0.648 OA
ATOM     43  OE2 ALA d   1      12.448 -13.801  13.521  0.00  0.00    -0.648 OA
ENDBRANCH  38  41
ENDBRANCH  35  38
ENDBRANCH  19  35
ENDBRANCH  16  19
ENDBRANCH  13  15
BRANCH  13  44
ATOM     44  CB  ALA d   1       8.454  -7.674   9.204  0.00  0.00    -0.029 C 
ATOM     45  H16 ALA d   1       8.443  -7.579  10.300  0.00  0.00     0.037 H 
ATOM     46  H17 ALA d   1       7.751  -8.462   8.897  0.00  0.00     0.037 H 
BRANCH  44  47
ATOM     47  CG  ALA d   1       7.946  -6.327   8.606  0.00  0.00     0.018 C 
ATOM     48  H18 ALA d   1       7.967  -6.402   7.509  0.00  0.00     0.049 H 
ATOM     49  H19 ALA d   1       8.622  -5.523   8.932  0.00  0.00     0.049 H 
BRANCH  47  50
ATOM     50  CD  ALA d   1       6.516  -5.969   9.043  0.00  0.00     0.172 C 
ATOM     51  OE1 ALA d   1       6.078  -6.365  10.128  0.00  0.00    -0.648 OA
ATOM     52  OE2 ALA d   1       5.817  -5.286   8.304  0.00  0.00    -0.648 OA
ENDBRANCH  47  50
ENDBRANCH  44  47
ENDBRANCH  13  44
ENDBRANCH  10  13
ENDBRANCH   7   9
BRANCH   7  53
ATOM     53  CB  ALA d   1      13.555  -5.445   8.135  0.00  0.00    -0.036 C 
ATOM     54  H22 ALA d   1      14.243  -4.609   8.326  0.00  0.00     0.036 H 
ATOM     55  H23 ALA d   1      13.267  -5.447   7.074  0.00  0.00     0.036 H 
BRANCH  53  56
ATOM     56  CG  ALA d   1      14.262  -6.726   8.441  0.00  0.00    -0.048 C 
ATOM     57  H24 ALA d   1      13.564  -7.568   8.323  0.00  0.00     0.035 H 
ATOM     58  H25 ALA d   1      14.636  -6.702   9.475  0.00  0.00     0.035 H 
BRANCH  56  59
ATOM     59  CD  ALA d   1      15.405  -6.892   7.502  0.00  0.00     0.009 C 
ATOM     60  H26 ALA d   1      16.108  -7.620   7.931  0.00  0.00     0.064 H 
ATOM     61  H27 ALA d   1      15.908  -5.920   7.387  0.00  0.00     0.064 H 
BRANCH  59  62
ATOM     62  NE  ALA d   1      14.998  -7.360   6.191  0.00  0.00    -0.227 N 
ATOM     63  CZ  ALA d   1      15.832  -7.526   5.182  0.00  0.00     0.665 C 
ATOM     64  NH1 ALA d   1      17.096  -7.242   5.310  0.00  0.00    -0.235 N 
ATOM     65  NH2 ALA d   1      15.382  -7.958   4.037  0.00  0.00    -0.235 N 
ATOM     66  H29 ALA d   1      17.737  -7.376   4.515  0.00  0.00     0.174 HD
ATOM     67  H30 ALA d   1      17.455  -6.883   6.206  0.00  0.00     0.174 HD
ATOM     68  H31 ALA d   1      14.383  -8.185   3.929  0.00  0.00     0.174 HD
ATOM     69  H32 ALA d   1      16.025  -8.073   3.241  0.00  0.00     0.174 HD
ATOM     70  H28 ALA d   1      14.002  -7.575   6.039  0.00  0.00     0.177 HD
ENDBRANCH  59  62
ENDBRANCH  56  59
ENDBRANCH  53  56
ENDBRANCH   7  53
ENDBRANCH   4   7
ENDBRANCH   1   3
BRANCH   1  71
ATOM     71  C   ALA d   1      12.183  -0.847  10.624  0.00  0.00     0.241 C 
ATOM     72  O   ALA d   1      12.521  -1.051  11.792  0.00  0.00    -0.271 OA
ATOM     73  N   ALA d   1      12.631   0.171   9.911  0.00  0.00    -0.346 N 
ATOM     74  H44 ALA d   1      12.223   0.331   9.012  0.00  0.00     0.163 HD
BRANCH  73  75
ATOM     75  CA  ALA d   1      13.683   1.074  10.354  0.00  0.00     0.092 C 
ATOM     76  H45 ALA d   1      13.945   0.832  11.395  0.00  0.00     0.088 H 
BRANCH  75  77
ATOM     77  C   ALA d   1      13.161   2.502  10.304  0.00  0.00     0.241 C 
ATOM     78  O   ALA d   1      12.667   2.945   9.264  0.00  0.00    -0.271 OA
ATOM     79  N   ALA d   1      13.296   3.221  11.417  0.00  0.00    -0.346 N 
ATOM     80  H55 ALA d   1      13.826   2.831  12.170  0.00  0.00     0.163 HD
BRANCH  79  81
ATOM     81  CA  ALA d   1      12.713   4.546  11.598  0.00  0.00     0.092 C 
ATOM     82  H56 ALA d   1      11.924   4.680  10.844  0.00  0.00     0.088 H 
BRANCH  81  83
ATOM     83  C   ALA d   1      13.762   5.630  11.403  0.00  0.00     0.241 C 
ATOM     84  O   ALA d   1      14.692   5.747  12.208  0.00  0.00    -0.271 OA
ATOM     85  N   ALA d   1      13.550   6.449  10.407  0.00  0.00    -0.346 N 
ATOM     86  H64 ALA d   1      12.746   6.291   9.834  0.00  0.00     0.163 HD
BRANCH  85  87
ATOM     87  CA  ALA d   1      14.362   7.514  10.097  0.00  0.00     0.089 C 
ATOM     88  H65 ALA d   1      15.312   7.375  10.634  0.00  0.00     0.087 H 
BRANCH  87  89
ATOM     89  C   ALA d   1      13.746   8.879  10.594  0.00  0.00     0.241 C 
ATOM     90  O   ALA d   1      12.668   9.036  10.664  0.00  0.00    -0.271 OA
ATOM     91  N   ALA d   1      14.624   9.761  10.953  0.00  0.00    -0.346 N 
ATOM     92  H75 ALA d   1      15.567   9.428  10.943  0.00  0.00     0.163 HD
BRANCH  91  93
ATOM     93  CA  ALA d   1      14.487  11.135  11.364  0.00  0.00     0.083 C 
ATOM     94  H76 ALA d   1      13.443  11.411  11.574  0.00  0.00     0.087 H 
BRANCH  93  95
ATOM     95  CB  ALA d   1      15.380  11.491  12.499  0.00  0.00     0.057 C 
ATOM     96  H77 ALA d   1      15.268  10.703  13.259  0.00  0.00     0.079 H 
ATOM     97  H78 ALA d   1      15.021  12.447  12.907  0.00  0.00     0.079 H 
BRANCH  95  98
ATOM     98  OG  ALA d   1      16.776  11.639  12.249  0.00  0.00    -0.280 OA
BRANCH  98  99
ATOM     99  P   ALA d   1      17.812  11.233  13.345  0.00  0.00     0.422 P 
ATOM    100  O1P ALA d   1      19.103  11.499  12.726  0.00  0.00    -0.617 OA
ATOM    101  O2P ALA d   1      17.355   9.818  13.427  0.00  0.00    -0.617 OA
ATOM    102  O3P ALA d   1      17.427  12.089  14.458  0.00  0.00    -0.617 OA
ENDBRANCH  98  99
ENDBRANCH  95  98
ENDBRANCH  93  95
BRANCH  93 103
ATOM    103  C   ALA d   1      15.058  11.799  10.183  0.00  0.00     0.112 C 
ATOM    104  O   ALA d   1      16.209  11.826   9.843  0.00  0.00    -0.305 OA
ATOM    105  H79 ALA d   1      14.355  12.328   9.542  0.00  0.00     0.146 H 
ENDBRANCH  93 103
ENDBRANCH  91  93
ENDBRANCH  87  89
BRANCH  87 106
ATOM    106  CB  ALA d   1      14.679   7.517   8.605  0.00  0.00    -0.035 C 
ATOM    107  H66 ALA d   1      15.377   8.349   8.432  0.00  0.00     0.037 H 
ATOM    108  H67 ALA d   1      13.733   7.717   8.081  0.00  0.00     0.037 H 
BRANCH 106 109
ATOM    109  CG  ALA d   1      15.294   6.284   7.946  0.00  0.00    -0.059 C 
ATOM    110  H68 ALA d   1      14.599   5.466   8.186  0.00  0.00     0.038 H 
BRANCH 109 111
ATOM    111  CD1 ALA d   1      15.388   6.308   6.502  0.00  0.00    -0.073 C 
ATOM    112  H69 ALA d   1      15.844   5.372   6.149  0.00  0.00     0.028 H 
ATOM    113  H70 ALA d   1      16.010   7.160   6.189  0.00  0.00     0.028 H 
ATOM    114  H71 ALA d   1      14.381   6.411   6.071  0.00  0.00     0.028 H 
ENDBRANCH 109 111
BRANCH 109 115
ATOM    115  CD2 ALA d   1      16.608   5.882   8.499  0.00  0.00    -0.073 C 
ATOM    116  H72 ALA d   1      16.552   5.859   9.597  0.00  0.00     0.028 H 
ATOM    117  H73 ALA d   1      17.375   6.606   8.186  0.00  0.00     0.028 H 
ATOM    118  H74 ALA d   1      16.873   4.882   8.125  0.00  0.00     0.028 H 
ENDBRANCH 109 115
ENDBRANCH 106 109
ENDBRANCH  87 106
ENDBRANCH  85  87
ENDBRANCH  81  83
BRANCH  81 119
ATOM    119  CB  ALA d   1      12.088   4.698  12.991  0.00  0.00    -0.033 C 
ATOM    120  H57 ALA d   1      12.822   4.396  13.753  0.00  0.00     0.042 H 
BRANCH 119 121
ATOM    121  CG1 ALA d   1      11.757   6.144  13.169  0.00  0.00    -0.071 C 
ATOM    122  H58 ALA d   1      11.305   6.297  14.160  0.00  0.00     0.028 H 
ATOM    123  H59 ALA d   1      11.047   6.456  12.389  0.00  0.00     0.028 H 
ATOM    124  H60 ALA d   1      12.676   6.743  13.089  0.00  0.00     0.028 H 
ENDBRANCH 119 121
BRANCH 119 125
ATOM    125  CG2 ALA d   1      10.895   3.863  13.139  0.00  0.00    -0.071 C 
ATOM    126  H61 ALA d   1      11.168   2.806  13.003  0.00  0.00     0.028 H 
ATOM    127  H62 ALA d   1      10.151   4.149  12.382  0.00  0.00     0.028 H 
ATOM    128  H63 ALA d   1      10.470   4.006  14.143  0.00  0.00     0.028 H 
ENDBRANCH 119 125
ENDBRANCH  81 119
ENDBRANCH  79  81
ENDBRANCH  75  77
BRANCH  75 129
ATOM    129  CB  ALA d   1      14.939   0.896   9.485  0.00  0.00    -0.030 C 
ATOM    130  H46 ALA d   1      14.632   0.823   8.431  0.00  0.00     0.043 H 
BRANCH 129 131
ATOM    131  CG1 ALA d   1      15.661  -0.376   9.855  0.00  0.00    -0.063 C 
ATOM    132  H47 ALA d   1      14.936  -1.087  10.277  0.00  0.00     0.033 H 
ATOM    133  H48 ALA d   1      16.428  -0.144  10.609  0.00  0.00     0.033 H 
BRANCH 131 134
ATOM    134  CD1 ALA d   1      16.295  -0.979   8.718  0.00  0.00    -0.076 C 
ATOM    135  H52 ALA d   1      16.808  -1.901   9.030  0.00  0.00     0.027 H 
ATOM    136  H53 ALA d   1      17.028  -0.278   8.292  0.00  0.00     0.027 H 
ATOM    137  H54 ALA d   1      15.535  -1.221   7.960  0.00  0.00     0.027 H 
ENDBRANCH 131 134
ENDBRANCH 129 131
BRANCH 129 138
ATOM    138  CG2 ALA d   1      15.818   2.101   9.642  0.00  0.00    -0.071 C 
ATOM    139  H49 ALA d   1      15.255   3.004   9.363  0.00  0.00     0.028 H 
ATOM    140  H50 ALA d   1      16.698   2.001   8.989  0.00  0.00     0.028 H 
ATOM    141  H51 ALA d   1      16.146   2.182  10.689  0.00  0.00     0.028 H 
ENDBRANCH 129 138
ENDBRANCH  75 129
ENDBRANCH  73  75
ENDBRANCH   1  71
BRANCH   1 142
ATOM    142  CB  ALA d   1       9.806  -1.650  10.665  0.00  0.00    -0.030 C 
ATOM    143  H35 ALA d   1       9.948  -1.963  11.710  0.00  0.00     0.043 H 
BRANCH 142 144
ATOM    144  CG1 ALA d   1       8.751  -2.557  10.016  0.00  0.00    -0.063 C 
ATOM    145  H36 ALA d   1       9.155  -3.580   9.987  0.00  0.00     0.033 H 
ATOM    146  H37 ALA d   1       8.582  -2.200   8.989  0.00  0.00     0.033 H 
BRANCH 144 147
ATOM    147  CD1 ALA d   1       7.386  -2.606  10.732  0.00  0.00    -0.076 C 
ATOM    148  H41 ALA d   1       6.710  -3.281  10.187  0.00  0.00     0.027 H 
ATOM    149  H42 ALA d   1       6.951  -1.596  10.761  0.00  0.00     0.027 H 
ATOM    150  H43 ALA d   1       7.524  -2.976  11.759  0.00  0.00     0.027 H 
ENDBRANCH 144 147
ENDBRANCH 142 144
BRANCH 142 151
ATOM    151  CG2 ALA d   1       9.299  -0.205  10.637  0.00  0.00    -0.071 C 
ATOM    152  H38 ALA d   1      10.047   0.455  11.100  0.00  0.00     0.028 H 
ATOM    153  H39 ALA d   1       8.354  -0.137  11.196  0.00  0.00     0.028 H 
ATOM    154  H40 ALA d   1       9.132   0.105   9.595  0.00  0.00     0.028 H 
ENDBRANCH 142 151
ENDBRANCH   1 142
TORSDOF 47
