REMARK WARNING: 32 MAX_TORS EXCEEDED!!!
REMARK  56 active torsions:
REMARK  status: ('A' for Active; 'I' for Inactive)
REMARK    1  A    between atoms: N_1  and  CA_2 
REMARK    2  A    between atoms: CA_2  and  C_3 
REMARK    3  A    between atoms: CA_2  and  CB_5 
REMARK       I    between atoms: C_3  and  N_10 
REMARK    4  A    between atoms: CB_5  and  CG_6 
REMARK    5  A    between atoms: CG_6  and  CD_7 
REMARK    6  A    between atoms: N_10  and  CA_11 
REMARK    7  A    between atoms: CA_11  and  C_12 
REMARK    8  A    between atoms: CA_11  and  CB_14 
REMARK       I    between atoms: C_12  and  N_15 
REMARK    9  A    between atoms: N_15  and  CA_16 
REMARK   10  A    between atoms: CA_16  and  C_17 
REMARK   11  A    between atoms: CA_16  and  CB_19 
REMARK       I    between atoms: C_17  and  N_24 
REMARK   12  A    between atoms: CB_19  and  CG_20 
REMARK   13  A    between atoms: CG_20  and  CD_21 
REMARK   14  A    between atoms: N_24  and  CA_25 
REMARK   15  A    between atoms: CA_25  and  C_26 
REMARK   16  A    between atoms: CA_25  and  CB_28 
REMARK       I    between atoms: C_26  and  N_33 
REMARK   17  A    between atoms: CB_28  and  CG_29 
REMARK   18  A    between atoms: CG_29  and  CD_30 
REMARK   19  A    between atoms: N_33  and  CA_34 
REMARK   20  A    between atoms: CA_34  and  C_35 
REMARK   21  A    between atoms: CA_34  and  CB_37 
REMARK       I    between atoms: C_35  and  N_44 
REMARK   22  A    between atoms: CB_37  and  CG_38 
REMARK   23  A    between atoms: CG_38  and  CD_39 
REMARK   24  A    between atoms: CD_39  and  NE_40 
REMARK       I    between atoms: NE_40  and  CZ_41 
REMARK       I    between atoms: CZ_41  and  NH1_42 
REMARK   25  A    between atoms: N_44  and  CA_45 
REMARK   26  A    between atoms: CA_45  and  C_46 
REMARK   27  A    between atoms: CA_45  and  CB_48 
REMARK       I    between atoms: C_46  and  N_52 
REMARK   28  A    between atoms: CB_48  and  CG1_49 
REMARK   29  A    between atoms: CB_48  and  CG2_50 
REMARK   30  A    between atoms: CG1_49  and  CD1_51 
REMARK   31  A    between atoms: N_52  and  CA_53 
REMARK   32  A    between atoms: CA_53  and  C_54 
REMARK   33  A    between atoms: CA_53  and  CB_56 
REMARK       I    between atoms: C_54  and  N_60 
REMARK   34  A    between atoms: CB_56  and  CG1_57 
REMARK   35  A    between atoms: CB_56  and  CG2_58 
REMARK   36  A    between atoms: CG1_57  and  CD1_59 
REMARK   37  A    between atoms: N_60  and  CA_61 
REMARK   38  A    between atoms: CA_61  and  C_62 
REMARK   39  A    between atoms: CA_61  and  CB_64 
REMARK       I    between atoms: C_62  and  N_67 
REMARK   40  A    between atoms: CB_64  and  CG1_65 
REMARK   41  A    between atoms: CB_64  and  CG2_66 
REMARK   42  A    between atoms: N_67  and  CA_68 
REMARK   43  A    between atoms: CA_68  and  C_69 
REMARK   44  A    between atoms: CA_68  and  CB_71 
REMARK       I    between atoms: C_69  and  N_75 
REMARK   45  A    between atoms: CB_71  and  CG_72 
REMARK   46  A    between atoms: CG_72  and  CD1_73 
REMARK   47  A    between atoms: CG_72  and  CD2_74 
REMARK   48  A    between atoms: N_75  and  CA_76 
REMARK   49  A    between atoms: CA_76  and  CB_77 
REMARK   50  A    between atoms: CA_76  and  C_79 
REMARK   51  A    between atoms: CB_77  and  OG_78 
REMARK   52  A    between atoms: OG_78  and  P_81 
REMARK       I    between atoms: C_79  and  N_85 
REMARK   53  A    between atoms: N_85  and  CA_86 
REMARK   54  A    between atoms: CA_86  and  C_87 
REMARK   55  A    between atoms: CA_86  and  CB_89 
REMARK   56  A    between atoms: CB_89  and  CG_90 
ROOT
ATOM      1  CA  GLU d   1       5.398 -11.910   1.681  0.00  0.00     0.092 C 
ATOM      2  H40 GLU d   1       5.938 -11.013   2.019  0.00  0.00     0.088 H 
ENDROOT
BRANCH   1   3
ATOM      3  N   GLU d   1       5.740 -12.177   0.281  0.00  0.00    -0.346 N 
ATOM      4  C   GLU d   1       6.449 -11.341  -0.486  0.00  0.00     0.241 C 
ATOM      5  O   GLU d   1       6.824 -10.234  -0.109  0.00  0.00    -0.271 OA
ATOM      6  H39 GLU d   1       5.425 -13.035  -0.125  0.00  0.00     0.163 HD
BRANCH   4   7
ATOM      7  CA  GLU d   1       6.771 -11.822  -1.895  0.00  0.00     0.089 C 
ATOM      8  H27 GLU d   1       6.403 -12.852  -2.008  0.00  0.00     0.087 H 
BRANCH   7   9
ATOM      9  N   GLU d   1       6.097 -10.971  -2.874  0.00  0.00    -0.346 N 
ATOM     10  C   GLU d   1       5.254 -11.419  -3.812  0.00  0.00     0.241 C 
ATOM     11  O   GLU d   1       4.955 -12.616  -3.941  0.00  0.00    -0.271 OA
ATOM     12  H26 GLU d   1       6.278  -9.988  -2.841  0.00  0.00     0.163 HD
BRANCH  10  13
ATOM     13  CA  GLU d   1       4.656 -10.350  -4.718  0.00  0.00     0.090 C 
ATOM     14  H21 GLU d   1       5.250  -9.430  -4.617  0.00  0.00     0.087 H 
BRANCH  13  15
ATOM     15  N   GLU d   1       4.677 -10.770  -6.117  0.00  0.00    -0.346 N 
ATOM     16  C   GLU d   1       5.816 -11.009  -6.747  0.00  0.00     0.241 C 
ATOM     17  O   GLU d   1       6.922 -10.774  -6.262  0.00  0.00    -0.271 OA
ATOM     18  H20 GLU d   1       3.813 -10.879  -6.609  0.00  0.00     0.163 HD
BRANCH  16  19
ATOM     19  CA  GLU d   1       5.684 -11.605  -8.142  0.00  0.00     0.090 C 
ATOM     20  H15 GLU d   1       4.831 -11.144  -8.661  0.00  0.00     0.087 H 
BRANCH  19  21
ATOM     21  N   GLU d   1       6.901 -11.309  -8.862  0.00  0.00    -0.346 N 
ATOM     22  C   GLU d   1       7.093 -10.129  -9.425  0.00  0.00     0.240 C 
ATOM     23  O   GLU d   1       6.223  -9.260  -9.474  0.00  0.00    -0.271 OA
ATOM     24  H14 GLU d   1       7.611 -12.010  -8.936  0.00  0.00     0.163 HD
BRANCH  22  25
ATOM     25  CA  GLU d   1       8.473  -9.900 -10.028  0.00  0.00     0.086 C 
ATOM     26  H10 GLU d   1       8.913 -10.875 -10.284  0.00  0.00     0.086 H 
BRANCH  25  27
ATOM     27  N   GLU d   1       8.355  -9.112 -11.246  0.00  0.00    -0.346 N 
ATOM     28  C   GLU d   1       7.801  -9.645 -12.330  0.00  0.00     0.248 C 
ATOM     29  O   GLU d   1       7.501 -10.848 -12.407  0.00  0.00    -0.271 OA
ATOM     30  H9  GLU d   1       8.691  -8.170 -11.267  0.00  0.00     0.163 HD
BRANCH  28  31
ATOM     31  CA  GLU d   1       7.578  -8.699 -13.515  0.00  0.00     0.176 C 
ATOM     32  H4  GLU d   1       6.892  -9.188 -14.222  0.00  0.00     0.099 H 
BRANCH  31  33
ATOM     33  N   GLU d   1       6.971  -7.445 -13.078  0.00  0.00    -0.066 N 
ATOM     34  H1  GLU d   1       6.835  -6.842 -13.874  0.00  0.00     0.275 HD
ATOM     35  H2  GLU d   1       7.578  -6.992 -12.413  0.00  0.00     0.275 HD
ATOM     36  H3  GLU d   1       6.081  -7.636 -12.645  0.00  0.00     0.275 HD
ENDBRANCH  31  33
BRANCH  31  37
ATOM     37  CB  GLU d   1       8.899  -8.421 -14.235  0.00  0.00    -0.021 C 
ATOM     38  H5  GLU d   1       8.672  -8.040 -15.242  0.00  0.00     0.037 H 
ATOM     39  H6  GLU d   1       9.456  -9.366 -14.317  0.00  0.00     0.037 H 
BRANCH  37  40
ATOM     40  CG  GLU d   1       9.781  -7.404 -13.524  0.00  0.00     0.018 C 
ATOM     41  H7  GLU d   1       9.377  -7.230 -12.516  0.00  0.00     0.049 H 
ATOM     42  H8  GLU d   1       9.764  -6.463 -14.094  0.00  0.00     0.049 H 
BRANCH  40  43
ATOM     43  CD  GLU d   1      11.217  -7.871 -13.398  0.00  0.00     0.172 C 
ATOM     44  OE1 GLU d   1      11.745  -8.437 -14.379  0.00  0.00    -0.648 OA
ATOM     45  OE2 GLU d   1      11.813  -7.684 -12.315  0.00  0.00    -0.648 OA
ENDBRANCH  40  43
ENDBRANCH  37  40
ENDBRANCH  31  37
ENDBRANCH  28  31
ENDBRANCH  25  27
BRANCH  25  46
ATOM     46  CB  GLU d   1       9.375  -9.216  -9.013  0.00  0.00    -0.049 C 
ATOM     47  H11 GLU d   1       9.443  -9.836  -8.107  0.00  0.00     0.030 H 
ATOM     48  H12 GLU d   1       8.956  -8.232  -8.754  0.00  0.00     0.030 H 
ATOM     49  H13 GLU d   1      10.379  -9.085  -9.444  0.00  0.00     0.030 H 
ENDBRANCH  25  46
ENDBRANCH  22  25
ENDBRANCH  19  21
BRANCH  19  50
ATOM     50  CB  GLU d   1       5.454 -13.105  -8.052  0.00  0.00    -0.029 C 
ATOM     51  H16 GLU d   1       4.521 -13.282  -7.496  0.00  0.00     0.037 H 
ATOM     52  H17 GLU d   1       6.297 -13.555  -7.506  0.00  0.00     0.037 H 
BRANCH  50  53
ATOM     53  CG  GLU d   1       5.343 -13.777  -9.397  0.00  0.00     0.018 C 
ATOM     54  H18 GLU d   1       6.356 -14.021  -9.749  0.00  0.00     0.049 H 
ATOM     55  H19 GLU d   1       4.871 -13.074 -10.099  0.00  0.00     0.049 H 
BRANCH  53  56
ATOM     56  CD  GLU d   1       4.535 -15.035  -9.371  0.00  0.00     0.172 C 
ATOM     57  OE1 GLU d   1       4.214 -15.522  -8.274  0.00  0.00    -0.648 OA
ATOM     58  OE2 GLU d   1       4.208 -15.536 -10.473  0.00  0.00    -0.648 OA
ENDBRANCH  53  56
ENDBRANCH  50  53
ENDBRANCH  19  50
ENDBRANCH  16  19
ENDBRANCH  13  15
BRANCH  13  59
ATOM     59  CB  GLU d   1       3.221 -10.064  -4.295  0.00  0.00    -0.029 C 
ATOM     60  H22 GLU d   1       2.673 -11.018  -4.273  0.00  0.00     0.037 H 
ATOM     61  H23 GLU d   1       2.768  -9.398  -5.045  0.00  0.00     0.037 H 
BRANCH  59  62
ATOM     62  CG  GLU d   1       3.084  -9.416  -2.952  0.00  0.00     0.018 C 
ATOM     63  H24 GLU d   1       3.729  -8.525  -2.921  0.00  0.00     0.049 H 
ATOM     64  H25 GLU d   1       3.407 -10.130  -2.180  0.00  0.00     0.049 H 
BRANCH  62  65
ATOM     65  CD  GLU d   1       1.652  -8.994  -2.661  0.00  0.00     0.172 C 
ATOM     66  OE1 GLU d   1       0.729  -9.719  -3.064  0.00  0.00    -0.648 OA
ATOM     67  OE2 GLU d   1       1.466  -7.939  -2.027  0.00  0.00    -0.648 OA
ENDBRANCH  62  65
ENDBRANCH  59  62
ENDBRANCH  13  59
ENDBRANCH  10  13
ENDBRANCH   7   9
BRANCH   7  68
ATOM     68  CB  GLU d   1       8.282 -11.813  -2.140  0.00  0.00    -0.036 C 
ATOM     69  H28 GLU d   1       8.778 -12.319  -1.298  0.00  0.00     0.036 H 
ATOM     70  H29 GLU d   1       8.623 -10.769  -2.192  0.00  0.00     0.036 H 
BRANCH  68  71
ATOM     71  CG  GLU d   1       8.673 -12.516  -3.427  0.00  0.00    -0.048 C 
ATOM     72  H30 GLU d   1       8.150 -12.037  -4.268  0.00  0.00     0.035 H 
ATOM     73  H31 GLU d   1       8.373 -13.572  -3.362  0.00  0.00     0.035 H 
BRANCH  71  74
ATOM     74  CD  GLU d   1      10.151 -12.445  -3.671  0.00  0.00     0.009 C 
ATOM     75  H32 GLU d   1      10.410 -13.132  -4.490  0.00  0.00     0.064 H 
ATOM     76  H33 GLU d   1      10.678 -12.752  -2.755  0.00  0.00     0.064 H 
BRANCH  74  77
ATOM     77  NE  GLU d   1      10.578 -11.098  -4.032  0.00  0.00    -0.227 N 
ATOM     78  CZ  GLU d   1      11.841 -10.745  -4.221  0.00  0.00     0.665 C 
ATOM     79  NH1 GLU d   1      12.811 -11.630  -4.043  0.00  0.00    -0.235 N 
ATOM     80  NH2 GLU d   1      12.142  -9.484  -4.545  0.00  0.00    -0.235 N 
ATOM     81  H35 GLU d   1      13.793 -11.355  -4.190  0.00  0.00     0.174 HD
ATOM     82  H36 GLU d   1      12.583 -12.593  -3.757  0.00  0.00     0.174 HD
ATOM     83  H37 GLU d   1      11.390  -8.794  -4.684  0.00  0.00     0.174 HD
ATOM     84  H38 GLU d   1      13.126  -9.202  -4.656  0.00  0.00     0.174 HD
ATOM     85  H34 GLU d   1       9.852 -10.376  -4.147  0.00  0.00     0.177 HD
ENDBRANCH  74  77
ENDBRANCH  71  74
ENDBRANCH  68  71
ENDBRANCH   7  68
ENDBRANCH   4   7
ENDBRANCH   1   3
BRANCH   1  86
ATOM     86  C   GLU d   1       5.860 -13.111   2.497  0.00  0.00     0.241 C 
ATOM     87  O   GLU d   1       5.458 -14.259   2.212  0.00  0.00    -0.271 OA
ATOM     88  N   GLU d   1       6.726 -12.865   3.480  0.00  0.00    -0.346 N 
ATOM     89  H50 GLU d   1       7.014 -11.917   3.617  0.00  0.00     0.163 HD
BRANCH  88  90
ATOM     90  CA  GLU d   1       7.288 -13.880   4.375  0.00  0.00     0.092 C 
ATOM     91  H51 GLU d   1       6.963 -14.876   4.041  0.00  0.00     0.088 H 
BRANCH  90  92
ATOM     92  C   GLU d   1       6.774 -13.615   5.789  0.00  0.00     0.241 C 
ATOM     93  O   GLU d   1       6.958 -12.508   6.315  0.00  0.00    -0.271 OA
ATOM     94  N   GLU d   1       6.195 -14.635   6.420  0.00  0.00    -0.346 N 
ATOM     95  H61 GLU d   1       5.997 -15.473   5.912  0.00  0.00     0.163 HD
BRANCH  94  96
ATOM     96  CA  GLU d   1       5.841 -14.559   7.839  0.00  0.00     0.092 C 
ATOM     97  H62 GLU d   1       5.632 -13.510   8.095  0.00  0.00     0.088 H 
BRANCH  96  98
ATOM     98  C   GLU d   1       7.016 -15.044   8.672  0.00  0.00     0.241 C 
ATOM     99  O   GLU d   1       7.518 -16.156   8.462  0.00  0.00    -0.271 OA
ATOM    100  N   GLU d   1       7.455 -14.213   9.614  0.00  0.00    -0.346 N 
ATOM    101  H70 GLU d   1       7.012 -13.324   9.734  0.00  0.00     0.163 HD
BRANCH 100 102
ATOM    102  CA  GLU d   1       8.563 -14.578  10.466  0.00  0.00     0.089 C 
ATOM    103  H71 GLU d   1       9.154 -15.359   9.965  0.00  0.00     0.087 H 
BRANCH 102 104
ATOM    104  C   GLU d   1       8.032 -15.135  11.775  0.00  0.00     0.241 C 
ATOM    105  O   GLU d   1       7.096 -14.587  12.359  0.00  0.00    -0.271 OA
ATOM    106  N   GLU d   1       8.650 -16.214  12.239  0.00  0.00    -0.344 N 
ATOM    107  H81 GLU d   1       9.404 -16.606  11.712  0.00  0.00     0.163 HD
BRANCH 106 108
ATOM    108  CA  GLU d   1       8.257 -16.850  13.506  0.00  0.00     0.110 C 
ATOM    109  H82 GLU d   1       7.163 -16.964  13.526  0.00  0.00     0.090 H 
BRANCH 108 110
ATOM    110  CB  GLU d   1       8.904 -18.225  13.629  0.00  0.00     0.059 C 
ATOM    111  H83 GLU d   1       8.571 -18.867  12.800  0.00  0.00     0.079 H 
ATOM    112  H84 GLU d   1       8.619 -18.685  14.587  0.00  0.00     0.079 H 
BRANCH 110 113
ATOM    113  OG  GLU d   1      10.312 -18.066  13.575  0.00  0.00    -0.280 OA
BRANCH 113 114
ATOM    114  P   GLU d   1      11.098 -19.464  13.499  0.00  0.00     0.422 P 
ATOM    115  O1P GLU d   1      10.847 -20.147  12.054  0.00  0.00    -0.617 OA
ATOM    116  O2P GLU d   1      10.574 -20.424  14.682  0.00  0.00    -0.617 OA
ATOM    117  O3P GLU d   1      12.667 -19.149  13.690  0.00  0.00    -0.617 OA
ENDBRANCH 113 114
ENDBRANCH 110 113
ENDBRANCH 108 110
BRANCH 108 118
ATOM    118  C   GLU d   1       8.693 -15.972  14.682  0.00  0.00     0.243 C 
ATOM    119  O   GLU d   1       9.686 -15.262  14.564  0.00  0.00    -0.271 OA
ATOM    120  N   GLU d   1       7.984 -16.021  15.810  0.00  0.00    -0.344 N 
ATOM    121  H85 GLU d   1       7.141 -16.558  15.847  0.00  0.00     0.163 HD
BRANCH 120 122
ATOM    122  CA  GLU d   1       8.438 -15.289  16.996  0.00  0.00     0.105 C 
ATOM    123  H86 GLU d   1       9.204 -14.566  16.677  0.00  0.00     0.090 H 
BRANCH 122 124
ATOM    124  C   GLU d   1       9.079 -16.254  18.002  0.00  0.00     0.197 C 
ATOM    125  O   GLU d   1       8.919 -17.474  17.909  0.00  0.00    -0.646 OA
ATOM    126  OXT GLU d   1       9.773 -15.838  18.934  0.00  0.00    -0.646 OA
ENDBRANCH 122 124
BRANCH 122 127
ATOM    127  CB  GLU d   1       7.292 -14.505  17.652  0.00  0.00     0.044 C 
ATOM    128  H87 GLU d   1       6.569 -15.221  18.069  0.00  0.00     0.053 H 
ATOM    129  H88 GLU d   1       6.799 -13.892  16.883  0.00  0.00     0.053 H 
BRANCH 127 130
ATOM    130  CG  GLU d   1       7.778 -13.584  18.779  0.00  0.00     0.175 C 
ATOM    131  OD1 GLU d   1       8.230 -14.120  19.811  0.00  0.00    -0.648 OA
ATOM    132  OD2 GLU d   1       7.731 -12.337  18.632  0.00  0.00    -0.648 OA
ENDBRANCH 127 130
ENDBRANCH 122 127
ENDBRANCH 120 122
ENDBRANCH 108 118
ENDBRANCH 106 108
ENDBRANCH 102 104
BRANCH 102 133
ATOM    133  CB  GLU d   1       9.463 -13.373  10.709  0.00  0.00    -0.035 C 
ATOM    134  H72 GLU d   1      10.252 -13.677  11.412  0.00  0.00     0.037 H 
ATOM    135  H73 GLU d   1       8.851 -12.580  11.164  0.00  0.00     0.037 H 
BRANCH 133 136
ATOM    136  CG  GLU d   1      10.138 -12.791   9.469  0.00  0.00    -0.059 C 
ATOM    137  H74 GLU d   1       9.355 -12.492   8.757  0.00  0.00     0.038 H 
BRANCH 136 138
ATOM    138  CD1 GLU d   1      10.939 -11.541   9.872  0.00  0.00    -0.073 C 
ATOM    139  H75 GLU d   1      11.428 -11.117   8.983  0.00  0.00     0.028 H 
ATOM    140  H76 GLU d   1      11.703 -11.818  10.613  0.00  0.00     0.028 H 
ATOM    141  H77 GLU d   1      10.259 -10.794  10.308  0.00  0.00     0.028 H 
ENDBRANCH 136 138
BRANCH 136 142
ATOM    142  CD2 GLU d   1      11.042 -13.811   8.778  0.00  0.00    -0.073 C 
ATOM    143  H78 GLU d   1      10.450 -14.695   8.499  0.00  0.00     0.028 H 
ATOM    144  H79 GLU d   1      11.848 -14.111   9.464  0.00  0.00     0.028 H 
ATOM    145  H80 GLU d   1      11.478 -13.361   7.874  0.00  0.00     0.028 H 
ENDBRANCH 136 142
ENDBRANCH 133 136
ENDBRANCH 102 133
ENDBRANCH 100 102
ENDBRANCH  96  98
BRANCH  96 146
ATOM    146  CB  GLU d   1       4.589 -15.392   8.147  0.00  0.00    -0.033 C 
ATOM    147  H63 GLU d   1       4.824 -16.447   7.943  0.00  0.00     0.042 H 
BRANCH 146 148
ATOM    148  CG1 GLU d   1       4.206 -15.268   9.614  0.00  0.00    -0.071 C 
ATOM    149  H64 GLU d   1       3.308 -15.872   9.811  0.00  0.00     0.028 H 
ATOM    150  H65 GLU d   1       3.998 -14.214   9.851  0.00  0.00     0.028 H 
ATOM    151  H66 GLU d   1       5.035 -15.628  10.241  0.00  0.00     0.028 H 
ENDBRANCH 146 148
BRANCH 146 152
ATOM    152  CG2 GLU d   1       3.435 -14.989   7.259  0.00  0.00    -0.071 C 
ATOM    153  H67 GLU d   1       3.733 -15.086   6.205  0.00  0.00     0.028 H 
ATOM    154  H68 GLU d   1       3.159 -13.945   7.468  0.00  0.00     0.028 H 
ATOM    155  H69 GLU d   1       2.573 -15.643   7.458  0.00  0.00     0.028 H 
ENDBRANCH 146 152
ENDBRANCH  96 146
ENDBRANCH  94  96
ENDBRANCH  90  92
BRANCH  90 156
ATOM    156  CB  GLU d   1       8.830 -13.832   4.395  0.00  0.00    -0.030 C 
ATOM    157  H52 GLU d   1       9.133 -12.796   4.609  0.00  0.00     0.043 H 
BRANCH 156 158
ATOM    158  CG1 GLU d   1       9.422 -14.220   3.038  0.00  0.00    -0.063 C 
ATOM    159  H53 GLU d   1      10.504 -14.024   3.067  0.00  0.00     0.033 H 
ATOM    160  H54 GLU d   1       8.956 -13.589   2.267  0.00  0.00     0.033 H 
BRANCH 158 161
ATOM    161  CD1 GLU d   1       9.211 -15.699   2.642  0.00  0.00    -0.076 C 
ATOM    162  H58 GLU d   1       9.667 -15.884   1.658  0.00  0.00     0.027 H 
ATOM    163  H59 GLU d   1       8.134 -15.915   2.593  0.00  0.00     0.027 H 
ATOM    164  H60 GLU d   1       9.682 -16.350   3.393  0.00  0.00     0.027 H 
ENDBRANCH 158 161
ENDBRANCH 156 158
BRANCH 156 165
ATOM    165  CG2 GLU d   1       9.380 -14.725   5.512  0.00  0.00    -0.071 C 
ATOM    166  H55 GLU d   1       8.938 -14.424   6.473  0.00  0.00     0.028 H 
ATOM    167  H56 GLU d   1      10.474 -14.618   5.562  0.00  0.00     0.028 H 
ATOM    168  H57 GLU d   1       9.123 -15.774   5.303  0.00  0.00     0.028 H 
ENDBRANCH 156 165
ENDBRANCH  90 156
ENDBRANCH  88  90
ENDBRANCH   1  86
BRANCH   1 169
ATOM    169  CB  GLU d   1       3.885 -11.663   1.859  0.00  0.00    -0.030 C 
ATOM    170  H41 GLU d   1       3.348 -12.552   1.497  0.00  0.00     0.043 H 
BRANCH 169 171
ATOM    171  CG1 GLU d   1       3.421 -10.456   1.021  0.00  0.00    -0.063 C 
ATOM    172  H42 GLU d   1       3.778 -10.594  -0.010  0.00  0.00     0.033 H 
ATOM    173  H43 GLU d   1       3.871  -9.547   1.446  0.00  0.00     0.033 H 
BRANCH 171 174
ATOM    174  CD1 GLU d   1       1.885 -10.266   0.983  0.00  0.00    -0.076 C 
ATOM    175  H47 GLU d   1       1.639  -9.388   0.367  0.00  0.00     0.027 H 
ATOM    176  H48 GLU d   1       1.509 -10.114   2.005  0.00  0.00     0.027 H 
ATOM    177  H49 GLU d   1       1.415 -11.161   0.549  0.00  0.00     0.027 H 
ENDBRANCH 171 174
ENDBRANCH 169 171
BRANCH 169 178
ATOM    178  CG2 GLU d   1       3.552 -11.480   3.333  0.00  0.00    -0.071 C 
ATOM    179  H44 GLU d   1       3.897 -12.358   3.899  0.00  0.00     0.028 H 
ATOM    180  H45 GLU d   1       2.464 -11.371   3.452  0.00  0.00     0.028 H 
ATOM    181  H46 GLU d   1       4.055 -10.579   3.713  0.00  0.00     0.028 H 
ENDBRANCH 169 178
ENDBRANCH   1 169
TORSDOF 56
