REMARK WARNING: 32 MAX_TORS EXCEEDED!!!
REMARK  42 active torsions:
REMARK  status: ('A' for Active; 'I' for Inactive)
REMARK    1  A    between atoms: N_1  and  CA_2 
REMARK    2  A    between atoms: CA_2  and  C_3 
REMARK    3  A    between atoms: CA_2  and  CB_5 
REMARK       I    between atoms: C_3  and  N_6 
REMARK    4  A    between atoms: N_6  and  CA_7 
REMARK    5  A    between atoms: CA_7  and  C_8 
REMARK    6  A    between atoms: CA_7  and  CB_10 
REMARK       I    between atoms: C_8  and  N_15 
REMARK    7  A    between atoms: CB_10  and  CG_11 
REMARK    8  A    between atoms: CG_11  and  CD_12 
REMARK    9  A    between atoms: N_15  and  CA_16 
REMARK   10  A    between atoms: CA_16  and  C_17 
REMARK   11  A    between atoms: CA_16  and  CB_19 
REMARK       I    between atoms: C_17  and  N_24 
REMARK   12  A    between atoms: CB_19  and  CG_20 
REMARK   13  A    between atoms: CG_20  and  CD_21 
REMARK   14  A    between atoms: N_24  and  CA_25 
REMARK   15  A    between atoms: CA_25  and  C_26 
REMARK   16  A    between atoms: CA_25  and  CB_28 
REMARK       I    between atoms: C_26  and  N_35 
REMARK   17  A    between atoms: CB_28  and  CG_29 
REMARK   18  A    between atoms: CG_29  and  CD_30 
REMARK   19  A    between atoms: CD_30  and  NE_31 
REMARK       I    between atoms: NE_31  and  CZ_32 
REMARK       I    between atoms: CZ_32  and  NH1_33 
REMARK   20  A    between atoms: N_35  and  CA_36 
REMARK   21  A    between atoms: CA_36  and  C_37 
REMARK   22  A    between atoms: CA_36  and  CB_39 
REMARK       I    between atoms: C_37  and  N_43 
REMARK   23  A    between atoms: CB_39  and  CG1_40 
REMARK   24  A    between atoms: CB_39  and  CG2_41 
REMARK   25  A    between atoms: CG1_40  and  CD1_42 
REMARK   26  A    between atoms: N_43  and  CA_44 
REMARK   27  A    between atoms: CA_44  and  C_45 
REMARK   28  A    between atoms: CA_44  and  CB_47 
REMARK       I    between atoms: C_45  and  N_51 
REMARK   29  A    between atoms: CB_47  and  CG1_48 
REMARK   30  A    between atoms: CB_47  and  CG2_49 
REMARK   31  A    between atoms: CG1_48  and  CD1_50 
REMARK   32  A    between atoms: N_51  and  CA_52 
REMARK   33  A    between atoms: CA_52  and  C_53 
REMARK   34  A    between atoms: CA_52  and  CB_55 
REMARK       I    between atoms: C_53  and  N_58 
REMARK   35  A    between atoms: CB_55  and  CG1_56 
REMARK   36  A    between atoms: CB_55  and  CG2_57 
REMARK   37  A    between atoms: N_58  and  CA_59 
REMARK   38  A    between atoms: CA_59  and  C_60 
REMARK   39  A    between atoms: CA_59  and  CB_62 
REMARK   40  A    between atoms: CB_62  and  CG_63 
REMARK   41  A    between atoms: CG_63  and  CD1_64 
REMARK   42  A    between atoms: CG_63  and  CD2_65 
ROOT
ATOM      1  CA  ALA d   1      99.953   4.340  31.782  0.00  0.00     0.092 C 
ATOM      2  H34 ALA d   1     100.262   3.423  31.259  0.00  0.00     0.088 H 
ENDROOT
BRANCH   1   3
ATOM      3  N   ALA d   1     100.834   4.550  32.926  0.00  0.00    -0.346 N 
ATOM      4  C   ALA d   1     101.798   3.708  33.287  0.00  0.00     0.241 C 
ATOM      5  O   ALA d   1     101.980   2.612  32.746  0.00  0.00    -0.271 OA
ATOM      6  H33 ALA d   1     100.705   5.378  33.472  0.00  0.00     0.163 HD
BRANCH   4   7
ATOM      7  CA  ALA d   1     102.697   4.155  34.437  0.00  0.00     0.089 C 
ATOM      8  H21 ALA d   1     102.431   5.178  34.741  0.00  0.00     0.087 H 
BRANCH   7   9
ATOM      9  N   ALA d   1     102.473   3.240  35.546  0.00  0.00    -0.346 N 
ATOM     10  C   ALA d   1     102.228   3.649  36.785  0.00  0.00     0.241 C 
ATOM     11  O   ALA d   1     102.130   4.837  37.089  0.00  0.00    -0.271 OA
ATOM     12  H20 ALA d   1     102.505   2.257  35.366  0.00  0.00     0.163 HD
BRANCH  10  13
ATOM     13  CA  ALA d   1     102.063   2.547  37.818  0.00  0.00     0.090 C 
ATOM     14  H15 ALA d   1     102.498   1.616  37.426  0.00  0.00     0.087 H 
BRANCH  13  15
ATOM     15  N   ALA d   1     102.738   2.902  39.060  0.00  0.00    -0.346 N 
ATOM     16  C   ALA d   1     104.057   3.056  39.109  0.00  0.00     0.241 C 
ATOM     17  O   ALA d   1     104.800   2.782  38.160  0.00  0.00    -0.271 OA
ATOM     18  H14 ALA d   1     102.198   3.032  39.892  0.00  0.00     0.163 HD
BRANCH  16  19
ATOM     19  CA  ALA d   1     104.601   3.578  40.433  0.00  0.00     0.090 C 
ATOM     20  H9  ALA d   1     104.022   3.132  41.255  0.00  0.00     0.087 H 
BRANCH  19  21
ATOM     21  N   ALA d   1     105.997   3.210  40.598  0.00  0.00    -0.346 N 
ATOM     22  C   ALA d   1     106.353   1.966  40.921  0.00  0.00     0.248 C 
ATOM     23  O   ALA d   1     105.538   1.086  41.165  0.00  0.00    -0.271 OA
ATOM     24  H8  ALA d   1     106.705   3.904  40.467  0.00  0.00     0.163 HD
BRANCH  22  25
ATOM     25  CA  ALA d   1     107.856   1.671  40.957  0.00  0.00     0.172 C 
ATOM     26  H4  ALA d   1     108.393   2.600  41.201  0.00  0.00     0.098 H 
BRANCH  25  27
ATOM     27  N   ALA d   1     108.139   0.670  42.004  0.00  0.00    -0.067 N 
ATOM     28  H1  ALA d   1     109.128   0.477  42.026  0.00  0.00     0.275 HD
ATOM     29  H2  ALA d   1     107.636  -0.179  41.801  0.00  0.00     0.275 HD
ATOM     30  H3  ALA d   1     107.847   1.028  42.900  0.00  0.00     0.275 HD
ENDBRANCH  25  27
BRANCH  25  31
ATOM     31  CB  ALA d   1     108.330   1.183  39.620  0.00  0.00    -0.042 C 
ATOM     32  H5  ALA d   1     108.111   1.941  38.854  0.00  0.00     0.030 H 
ATOM     33  H6  ALA d   1     107.812   0.246  39.367  0.00  0.00     0.030 H 
ATOM     34  H7  ALA d   1     109.415   1.004  39.658  0.00  0.00     0.030 H 
ENDBRANCH  25  31
ENDBRANCH  22  25
ENDBRANCH  19  21
BRANCH  19  35
ATOM     35  CB  ALA d   1     104.440   5.096  40.483  0.00  0.00    -0.029 C 
ATOM     36  H10 ALA d   1     103.367   5.333  40.441  0.00  0.00     0.037 H 
ATOM     37  H11 ALA d   1     104.945   5.528  39.607  0.00  0.00     0.037 H 
BRANCH  35  38
ATOM     38  CG  ALA d   1     105.022   5.729  41.732  0.00  0.00     0.018 C 
ATOM     39  H12 ALA d   1     106.099   5.885  41.570  0.00  0.00     0.049 H 
ATOM     40  H13 ALA d   1     104.874   5.034  42.572  0.00  0.00     0.049 H 
BRANCH  38  41
ATOM     41  CD  ALA d   1     104.398   7.061  42.101  0.00  0.00     0.172 C 
ATOM     42  OE1 ALA d   1     103.564   7.595  41.339  0.00  0.00    -0.648 OA
ATOM     43  OE2 ALA d   1     104.755   7.549  43.203  0.00  0.00    -0.648 OA
ENDBRANCH  38  41
ENDBRANCH  35  38
ENDBRANCH  19  35
ENDBRANCH  16  19
ENDBRANCH  13  15
BRANCH  13  44
ATOM     44  CB  ALA d   1     100.576   2.338  38.087  0.00  0.00    -0.029 C 
ATOM     45  H16 ALA d   1     100.142   3.306  38.377  0.00  0.00     0.037 H 
ATOM     46  H17 ALA d   1     100.476   1.627  38.920  0.00  0.00     0.037 H 
BRANCH  44  47
ATOM     47  CG  ALA d   1      99.783   1.799  36.907  0.00  0.00     0.018 C 
ATOM     48  H18 ALA d   1     100.199   0.822  36.620  0.00  0.00     0.049 H 
ATOM     49  H19 ALA d   1      99.883   2.501  36.066  0.00  0.00     0.049 H 
BRANCH  47  50
ATOM     50  CD  ALA d   1      98.300   1.624  37.223  0.00  0.00     0.172 C 
ATOM     51  OE1 ALA d   1      97.659   2.585  37.705  0.00  0.00    -0.648 OA
ATOM     52  OE2 ALA d   1      97.779   0.510  36.999  0.00  0.00    -0.648 OA
ENDBRANCH  47  50
ENDBRANCH  44  47
ENDBRANCH  13  44
ENDBRANCH  10  13
ENDBRANCH   7   9
BRANCH   7  53
ATOM     53  CB  ALA d   1     104.160   4.126  34.008  0.00  0.00    -0.036 C 
ATOM     54  H22 ALA d   1     104.266   4.724  33.091  0.00  0.00     0.036 H 
ATOM     55  H23 ALA d   1     104.442   3.083  33.800  0.00  0.00     0.036 H 
BRANCH  53  56
ATOM     56  CG  ALA d   1     105.113   4.683  35.060  0.00  0.00    -0.048 C 
ATOM     57  H24 ALA d   1     104.984   4.121  35.997  0.00  0.00     0.035 H 
ATOM     58  H25 ALA d   1     104.878   5.744  35.234  0.00  0.00     0.035 H 
BRANCH  56  59
ATOM     59  CD  ALA d   1     106.543   4.563  34.606  0.00  0.00     0.009 C 
ATOM     60  H26 ALA d   1     107.174   5.164  35.278  0.00  0.00     0.064 H 
ATOM     61  H27 ALA d   1     106.618   4.958  33.582  0.00  0.00     0.064 H 
BRANCH  59  62
ATOM     62  NE  ALA d   1     107.037   3.200  34.610  0.00  0.00    -0.227 N 
ATOM     63  CZ  ALA d   1     108.234   2.851  34.164  0.00  0.00     0.665 C 
ATOM     64  NH1 ALA d   1     109.051   3.771  33.679  0.00  0.00    -0.235 N 
ATOM     65  NH2 ALA d   1     108.615   1.587  34.196  0.00  0.00    -0.235 N 
ATOM     66  H29 ALA d   1     109.982   3.501  33.332  0.00  0.00     0.174 HD
ATOM     67  H30 ALA d   1     108.756   4.757  33.649  0.00  0.00     0.174 HD
ATOM     68  H31 ALA d   1     107.982   0.868  34.573  0.00  0.00     0.174 HD
ATOM     69  H32 ALA d   1     109.546   1.321  33.844  0.00  0.00     0.174 HD
ATOM     70  H28 ALA d   1     106.422   2.461  34.981  0.00  0.00     0.177 HD
ENDBRANCH  59  62
ENDBRANCH  56  59
ENDBRANCH  53  56
ENDBRANCH   7  53
ENDBRANCH   4   7
ENDBRANCH   1   3
BRANCH   1  71
ATOM     71  C   ALA d   1     100.129   5.535  30.848  0.00  0.00     0.241 C 
ATOM     72  O   ALA d   1      99.972   6.694  31.260  0.00  0.00    -0.271 OA
ATOM     73  N   ALA d   1     100.468   5.249  29.596  0.00  0.00    -0.346 N 
ATOM     74  H44 ALA d   1     100.658   4.294  29.366  0.00  0.00     0.163 HD
BRANCH  73  75
ATOM     75  CA  ALA d   1     100.580   6.247  28.534  0.00  0.00     0.092 C 
ATOM     76  H45 ALA d   1     100.519   7.258  28.964  0.00  0.00     0.088 H 
BRANCH  75  77
ATOM     77  C   ALA d   1      99.429   6.028  27.567  0.00  0.00     0.241 C 
ATOM     78  O   ALA d   1      99.213   4.907  27.099  0.00  0.00    -0.271 OA
ATOM     79  N   ALA d   1      98.690   7.090  27.281  0.00  0.00    -0.346 N 
ATOM     80  H55 ALA d   1      98.885   7.960  27.735  0.00  0.00     0.163 HD
BRANCH  79  81
ATOM     81  CA  ALA d   1      97.596   7.016  26.317  0.00  0.00     0.092 C 
ATOM     82  H56 ALA d   1      97.239   5.977  26.256  0.00  0.00     0.088 H 
BRANCH  81  83
ATOM     83  C   ALA d   1      98.123   7.439  24.953  0.00  0.00     0.241 C 
ATOM     84  O   ALA d   1      98.707   8.518  24.812  0.00  0.00    -0.271 OA
ATOM     85  N   ALA d   1      97.942   6.586  23.959  0.00  0.00    -0.345 N 
ATOM     86  H64 ALA d   1      97.506   5.704  24.139  0.00  0.00     0.163 HD
BRANCH  85  87
ATOM     87  CA  ALA d   1      98.370   6.915  22.601  0.00  0.00     0.096 C 
ATOM     88  H65 ALA d   1      99.106   7.731  22.655  0.00  0.00     0.089 H 
BRANCH  87  89
ATOM     89  C   ALA d   1      97.175   7.395  21.776  0.00  0.00     0.196 C 
ATOM     90  O   ALA d   1      96.120   6.765  21.788  0.00  0.00    -0.646 OA
ATOM     91  OXT ALA d   1      97.261   8.414  21.095  0.00  0.00    -0.646 OA
ENDBRANCH  87  89
BRANCH  87  92
ATOM     92  CB  ALA d   1      99.038   5.707  21.938  0.00  0.00    -0.034 C 
ATOM     93  H66 ALA d   1      99.298   5.981  20.905  0.00  0.00     0.037 H 
ATOM     94  H67 ALA d   1      98.316   4.878  21.926  0.00  0.00     0.037 H 
BRANCH  92  95
ATOM     95  CG  ALA d   1     100.309   5.225  22.640  0.00  0.00    -0.059 C 
ATOM     96  H68 ALA d   1     100.035   4.978  23.676  0.00  0.00     0.038 H 
BRANCH  95  97
ATOM     97  CD1 ALA d   1     100.859   3.985  22.004  0.00  0.00    -0.073 C 
ATOM     98  H69 ALA d   1     101.769   3.673  22.537  0.00  0.00     0.028 H 
ATOM     99  H70 ALA d   1     101.103   4.190  20.951  0.00  0.00     0.028 H 
ATOM    100  H71 ALA d   1     100.109   3.182  22.057  0.00  0.00     0.028 H 
ENDBRANCH  95  97
BRANCH  95 101
ATOM    101  CD2 ALA d   1     101.399   6.308  22.692  0.00  0.00    -0.073 C 
ATOM    102  H72 ALA d   1     100.991   7.216  23.160  0.00  0.00     0.028 H 
ATOM    103  H73 ALA d   1     101.734   6.540  21.670  0.00  0.00     0.028 H 
ATOM    104  H74 ALA d   1     102.251   5.942  23.283  0.00  0.00     0.028 H 
ENDBRANCH  95 101
ENDBRANCH  92  95
ENDBRANCH  87  92
ENDBRANCH  85  87
ENDBRANCH  81  83
BRANCH  81 105
ATOM    105  CB  ALA d   1      96.426   7.911  26.762  0.00  0.00    -0.033 C 
ATOM    106  H57 ALA d   1      96.764   8.958  26.755  0.00  0.00     0.042 H 
BRANCH 105 107
ATOM    107  CG1 ALA d   1      95.279   7.780  25.780  0.00  0.00    -0.071 C 
ATOM    108  H58 ALA d   1      94.445   8.421  26.102  0.00  0.00     0.028 H 
ATOM    109  H59 ALA d   1      94.944   6.733  25.745  0.00  0.00     0.028 H 
ATOM    110  H60 ALA d   1      95.615   8.091  24.780  0.00  0.00     0.028 H 
ENDBRANCH 105 107
BRANCH 105 111
ATOM    111  CG2 ALA d   1      96.009   7.559  28.186  0.00  0.00    -0.071 C 
ATOM    112  H61 ALA d   1      96.872   7.669  28.859  0.00  0.00     0.028 H 
ATOM    113  H62 ALA d   1      95.650   6.520  28.217  0.00  0.00     0.028 H 
ATOM    114  H63 ALA d   1      95.204   8.235  28.510  0.00  0.00     0.028 H 
ENDBRANCH 105 111
ENDBRANCH  81 105
ENDBRANCH  79  81
ENDBRANCH  75  77
BRANCH  75 115
ATOM    115  CB  ALA d   1     101.917   6.085  27.802  0.00  0.00    -0.030 C 
ATOM    116  H46 ALA d   1     102.009   5.042  27.464  0.00  0.00     0.043 H 
BRANCH 115 117
ATOM    117  CG1 ALA d   1     103.056   6.381  28.770  0.00  0.00    -0.063 C 
ATOM    118  H47 ALA d   1     102.817   5.922  29.741  0.00  0.00     0.033 H 
ATOM    119  H48 ALA d   1     103.137   7.471  28.890  0.00  0.00     0.033 H 
BRANCH 117 120
ATOM    120  CD1 ALA d   1     104.395   5.849  28.304  0.00  0.00    -0.076 C 
ATOM    121  H52 ALA d   1     105.167   6.097  29.047  0.00  0.00     0.027 H 
ATOM    122  H53 ALA d   1     104.655   6.306  27.338  0.00  0.00     0.027 H 
ATOM    123  H54 ALA d   1     104.335   4.757  28.188  0.00  0.00     0.027 H 
ENDBRANCH 117 120
ENDBRANCH 115 117
BRANCH 115 124
ATOM    124  CG2 ALA d   1     101.973   6.994  26.569  0.00  0.00    -0.071 C 
ATOM    125  H49 ALA d   1     101.138   6.751  25.896  0.00  0.00     0.028 H 
ATOM    126  H50 ALA d   1     102.926   6.838  26.042  0.00  0.00     0.028 H 
ATOM    127  H51 ALA d   1     101.896   8.045  26.884  0.00  0.00     0.028 H 
ENDBRANCH 115 124
ENDBRANCH  75 115
ENDBRANCH  73  75
ENDBRANCH   1  71
BRANCH   1 128
ATOM    128  CB  ALA d   1      98.482   4.183  32.196  0.00  0.00    -0.030 C 
ATOM    129  H35 ALA d   1      98.151   5.116  32.676  0.00  0.00     0.043 H 
BRANCH 128 130
ATOM    130  CG1 ALA d   1      98.307   3.030  33.191  0.00  0.00    -0.063 C 
ATOM    131  H36 ALA d   1      99.063   3.140  33.982  0.00  0.00     0.033 H 
ATOM    132  H37 ALA d   1      98.473   2.084  32.654  0.00  0.00     0.033 H 
BRANCH 130 133
ATOM    133  CD1 ALA d   1      96.926   2.970  33.853  0.00  0.00    -0.076 C 
ATOM    134  H41 ALA d   1      96.889   2.118  34.547  0.00  0.00     0.027 H 
ATOM    135  H42 ALA d   1      96.154   2.846  33.080  0.00  0.00     0.027 H 
ATOM    136  H43 ALA d   1      96.744   3.903  34.407  0.00  0.00     0.027 H 
ENDBRANCH 130 133
ENDBRANCH 128 130
BRANCH 128 137
ATOM    137  CG2 ALA d   1      97.624   3.929  30.969  0.00  0.00    -0.071 C 
ATOM    138  H38 ALA d   1      97.750   4.757  30.256  0.00  0.00     0.028 H 
ATOM    139  H39 ALA d   1      96.568   3.861  31.268  0.00  0.00     0.028 H 
ATOM    140  H40 ALA d   1      97.933   2.986  30.494  0.00  0.00     0.028 H 
ENDBRANCH 128 137
ENDBRANCH   1 128
TORSDOF 42
