REMARK  5 active torsions:
REMARK  status: ('A' for Active; 'I' for Inactive)
REMARK    1  A    between atoms: C11_15  and  C14_4 
REMARK    2  A    between atoms: C8_5  and  C3_8 
REMARK       I    between atoms: N9_21  and  C8_5 
REMARK    3  A    between atoms: C11_15  and  C12_12 
REMARK       I    between atoms: C12_12  and  N13_23 
REMARK    4  A    between atoms: N10_22  and  C11_15 
REMARK    5  A    between atoms: N9_21  and  N10_22 
ROOT
ATOM      1  N10 QPD d   1      11.278   4.492 -10.410  0.00  0.00     0.024 N 
ATOM      2  H14 QPD d   1      11.513   5.328 -10.921  0.00  0.00     0.307 HD
ATOM      3  H15 QPD d   1      12.081   3.885 -10.371  0.00  0.00     0.307 HD
ENDROOT
BRANCH   1   4
ATOM      4  C11 QPD d   1      10.183   3.797 -11.103  0.00  0.00     0.224 C 
ATOM      5  H9  QPD d   1       9.966   2.855 -10.578  0.00  0.00     0.111 H 
BRANCH   4   6
ATOM      6  C14 QPD d   1      10.538   3.514 -12.416  0.00  0.00    -0.016 A 
ATOM      7  C15 QPD d   1       9.745   2.662 -13.175  0.00  0.00    -0.074 A 
ATOM      8  C16 QPD d   1      10.159   2.269 -14.444  0.00  0.00    -0.082 A 
ATOM      9  H10 QPD d   1       8.802   2.303 -12.778  0.00  0.00     0.084 H 
ATOM     10  C17 QPD d   1      11.362   2.737 -14.956  0.00  0.00    -0.083 A 
ATOM     11  H2  QPD d   1       9.543   1.598 -15.032  0.00  0.00     0.083 H 
ATOM     12  C18 QPD d   1      12.150   3.601 -14.203  0.00  0.00    -0.082 A 
ATOM     13  H11 QPD d   1      11.687   2.429 -15.943  0.00  0.00     0.083 H 
ATOM     14  C19 QPD d   1      11.736   3.991 -12.936  0.00  0.00    -0.074 A 
ATOM     15  H7  QPD d   1      13.087   3.970 -14.605  0.00  0.00     0.083 H 
ATOM     16  H12 QPD d   1      12.348   4.668 -12.351  0.00  0.00     0.084 H 
ENDBRANCH   4   6
BRANCH   4  17
ATOM     17  C12 QPD d   1       8.934   4.680 -11.094  0.00  0.00     0.253 C 
ATOM     18  O2  QPD d   1       9.019   5.904 -10.992  0.00  0.00    -0.271 OA
ATOM     19  N13 QPD d   1       7.782   4.021 -11.184  0.00  0.00    -0.368 N 
ATOM     20  H16 QPD d   1       7.781   3.024 -11.265  0.00  0.00     0.159 HD
ATOM     21  H17 QPD d   1       6.917   4.522 -11.171  0.00  0.00     0.159 HD
ENDBRANCH   4  17
ENDBRANCH   1   4
BRANCH   1  22
ATOM     22  N9  QPD d   1      10.980   4.773  -9.365  0.00  0.00    -0.183 N 
ATOM     23  C8  QPD d   1      10.830   3.776  -8.481  0.00  0.00     0.277 C 
ATOM     24  O1  QPD d   1      11.052   2.593  -8.733  0.00  0.00    -0.266 OA
ATOM     25  H13 QPD d   1      10.832   5.727  -9.104  0.00  0.00     0.197 HD
BRANCH  23  26
ATOM     26  C3  QPD d   1      10.477   4.161  -7.257  0.00  0.00     0.061 A 
ATOM     27  C2  QPD d   1       9.781   5.270  -7.028  0.00  0.00    -0.006 A 
ATOM     28  N1  QPD d   1       9.146   5.100  -5.873  0.00  0.00    -0.364 N 
ATOM     29  H5  QPD d   1       9.739   6.151  -7.666  0.00  0.00     0.112 H 
ATOM     30  C7A QPD d   1       9.446   3.895  -5.399  0.00  0.00     0.043 A 
ATOM     31  H4  QPD d   1       8.525   5.787  -5.421  0.00  0.00     0.165 HD
ATOM     32  C7  QPD d   1       9.074   3.284  -4.278  0.00  0.00    -0.056 A 
ATOM     33  C4A QPD d   1      10.277   3.308  -6.258  0.00  0.00     0.008 A 
ATOM     34  C6  QPD d   1       9.550   2.013  -3.980  0.00  0.00    -0.081 A 
ATOM     35  H6  QPD d   1       8.396   3.780  -3.593  0.00  0.00     0.086 H 
ATOM     36  C5  QPD d   1      10.412   1.400  -4.879  0.00  0.00    -0.082 A 
ATOM     37  H8  QPD d   1       9.255   1.511  -3.066  0.00  0.00     0.083 H 
ATOM     38  C4  QPD d   1      10.767   2.089  -6.032  0.00  0.00    -0.070 A 
ATOM     39  H1  QPD d   1      10.799   0.406  -4.686  0.00  0.00     0.083 H 
ATOM     40  H3  QPD d   1      11.443   1.635  -6.748  0.00  0.00     0.084 H 
ENDBRANCH  23  26
ENDBRANCH   1  22
TORSDOF 5
