REMARK  5 active torsions:
REMARK  status: ('A' for Active; 'I' for Inactive)
REMARK    1  A    between atoms: C1_1  and  O1_7 
REMARK    2  A    between atoms: C2_2  and  O2_8 
REMARK    3  A    between atoms: C3_3  and  O3_9 
REMARK    4  A    between atoms: C4_4  and  O4_10 
REMARK    5  A    between atoms: C5_5  and  C6_6 
ROOT
ATOM      1  C1  FCA d   1      14.301  57.126  55.225  0.00  0.00     0.156 C 
ATOM      2  C2  FCA d   1      12.840  57.299  54.858  0.00  0.00     0.110 C 
ATOM      3  C4  FCA d   1      13.229  56.608  52.487  0.00  0.00     0.087 C 
ATOM      4  C5  FCA d   1      14.690  56.321  52.885  0.00  0.00     0.065 C 
ATOM      5  O5  FCA d   1      15.085  57.069  54.016  0.00  0.00    -0.351 OA
ATOM      6  H1  FCA d   1      14.628  57.973  55.846  0.00  0.00     0.133 H 
ATOM      7  H2  FCA d   1      12.686  58.342  54.545  0.00  0.00     0.094 H 
ATOM      8  H3  FCA d   1      12.437  55.382  54.099  0.00  0.00     0.091 H 
ATOM      9  H4  FCA d   1      12.917  55.857  51.747  0.00  0.00     0.091 H 
ATOM     10  H5  FCA d   1      14.789  55.243  53.083  0.00  0.00     0.086 H 
ATOM     11  C3  FCB d   1      12.373  56.428  53.766  0.00  0.00     0.092 C 
ENDROOT
BRANCH   4  12
ATOM     12  C6  FCA d   1      15.707  56.759  51.824  0.00  0.00    -0.050 C 
ATOM     13  H6  FCA d   1      16.724  56.525  52.172  0.00  0.00     0.031 H 
ATOM     14  H7  FCA d   1      15.617  57.842  51.655  0.00  0.00     0.031 H 
ATOM     15  H8  FCA d   1      15.509  56.224  50.884  0.00  0.00     0.031 H 
ENDBRANCH   4  12
BRANCH   3  16
ATOM     16  O4  FCA d   1      13.045  57.903  51.887  0.00  0.00    -0.390 OA
ATOM     17  H12 FCA d   1      12.129  58.020  51.665  0.00  0.00     0.210 HD
ENDBRANCH   3  16
BRANCH  11  18
ATOM     18  O3  FCB d   1      11.018  56.738  53.431  0.00  0.00    -0.390 OA
ATOM     19  H11 FCA d   1      10.471  56.635  54.201  0.00  0.00     0.210 HD
ENDBRANCH  11  18
BRANCH   1  20
ATOM     20  O1  FCA d   1      14.484  55.939  55.919  0.00  0.00    -0.369 OA
ATOM     21  H9  FCA d   1      15.404  55.836  56.131  0.00  0.00     0.212 HD
ENDBRANCH   1  20
BRANCH   2  22
ATOM     22  O2  FCA d   1      12.045  57.033  56.067  0.00  0.00    -0.388 OA
ATOM     23  H10 FCA d   1      11.129  57.211  55.888  0.00  0.00     0.210 HD
ENDBRANCH   2  22
TORSDOF 5
