REMARK  17 active torsions:
REMARK  status: ('A' for Active; 'I' for Inactive)
REMARK    1  A    between atoms: C1_1  and  OA1_32 
REMARK       I    between atoms: N2_39  and  C1_1 
REMARK    2  A    between atoms: CB1_2  and  CG1_3 
REMARK    3  A    between atoms: OA1_32  and  CB1_2 
REMARK    4  A    between atoms: C2_9  and  CA2_10 
REMARK       I    between atoms: N3_40  and  C2_9 
REMARK    5  A    between atoms: CA2_10  and  CB2_11 
REMARK    6  A    between atoms: CA2_10  and  N2_39 
REMARK    7  A    between atoms: CB2_11  and  CG2_12 
REMARK    8  A    between atoms: CA3_18  and  CB3_19 
REMARK    9  A    between atoms: P3_41  and  CA3_18 
REMARK   10  A    between atoms: CA3_18  and  N3_40 
REMARK   11  A    between atoms: CB3_19  and  CG31_20 
REMARK   12  A    between atoms: CB3_19  and  CG32_21 
REMARK   13  A    between atoms: CA4_23  and  C4_22 
REMARK   14  A    between atoms: CA4_23  and  CB4_24 
REMARK   15  A    between atoms: OP33_36  and  CA4_23 
REMARK   16  A    between atoms: CB4_24  and  CG4_25 
REMARK   17  A    between atoms: OP33_36  and  P3_41 
ROOT
ATOM      1  C2  FVF d   1      48.485  16.204  37.584  0.00  0.00     0.241 C 
ATOM      2  O2  FVF d   1      47.561  15.927  38.277  0.00  0.00    -0.271 OA
ATOM      3  N3  FVF d   1      48.820  17.515  37.401  0.00  0.00    -0.343 N 
ATOM      4  H33 FVF d   1      49.514  17.772  36.728  0.00  0.00     0.163 HD
ENDROOT
BRANCH   1   5
ATOM      5  CA2 FVF d   1      49.387  15.235  36.942  0.00  0.00     0.095 C 
ATOM      6  H8  FVF d   1      50.317  15.794  36.761  0.00  0.00     0.088 H 
BRANCH   5   7
ATOM      7  CB2 FVF d   1      48.955  14.566  35.597  0.00  0.00    -0.014 C 
ATOM      8  H9  FVF d   1      48.583  15.354  34.925  0.00  0.00     0.043 H 
ATOM      9  H10 FVF d   1      48.144  13.855  35.812  0.00  0.00     0.043 H 
BRANCH   7  10
ATOM     10  CG2 FVF d   1      50.013  13.852  34.914  0.00  0.00    -0.056 A 
ATOM     11  CD2 FVF d   1      50.095  12.502  34.980  0.00  0.00    -0.077 A 
ATOM     12  CE2 FVF d   1      51.100  11.849  34.354  0.00  0.00    -0.082 A 
ATOM     13  H11 FVF d   1      49.352  11.943  35.537  0.00  0.00     0.084 H 
ATOM     14  CZ2 FVF d   1      52.035  12.541  33.668  0.00  0.00    -0.083 A 
ATOM     15  H13 FVF d   1      51.155  10.768  34.403  0.00  0.00     0.083 H 
ATOM     16  CE2 FVF d   1      51.964  13.889  33.611  0.00  0.00    -0.082 A 
ATOM     17  H15 FVF d   1      52.840  12.017  33.165  0.00  0.00     0.083 H 
ATOM     18  CD2 FVF d   1      50.949  14.540  34.224  0.00  0.00    -0.077 A 
ATOM     19  H14 FVF d   1      52.721  14.449  33.074  0.00  0.00     0.083 H 
ATOM     20  H12 FVF d   1      50.886  15.620  34.161  0.00  0.00     0.084 H 
ENDBRANCH   7  10
ENDBRANCH   5   7
BRANCH   5  21
ATOM     21  N2  FVF d   1      49.699  14.061  37.693  0.00  0.00    -0.323 N 
ATOM     22  C1  FVF d   1      50.452  14.017  38.832  0.00  0.00     0.361 C 
ATOM     23  O1  FVF d   1      50.566  13.015  39.511  0.00  0.00    -0.238 OA
ATOM     24  H32 FVF d   1      49.334  13.194  37.355  0.00  0.00     0.165 HD
BRANCH  22  25
ATOM     25  OA1 FVF d   1      51.120  15.108  39.136  0.00  0.00    -0.299 OA
BRANCH  25  26
ATOM     26  CB1 FVF d   1      52.453  15.061  39.590  0.00  0.00     0.054 C 
ATOM     27  H1  FVF d   1      52.415  14.790  40.655  0.00  0.00     0.082 H 
ATOM     28  H2  FVF d   1      52.951  14.259  39.025  0.00  0.00     0.082 H 
BRANCH  26  29
ATOM     29  CG1 FVF d   1      53.297  16.226  39.489  0.00  0.00    -0.034 A 
ATOM     30  CD1 FVF d   1      54.290  16.270  38.573  0.00  0.00    -0.075 A 
ATOM     31  CE1 FVF d   1      55.097  17.348  38.474  0.00  0.00    -0.082 A 
ATOM     32  H3  FVF d   1      54.441  15.427  37.908  0.00  0.00     0.084 H 
ATOM     33  CZ1 FVF d   1      54.938  18.381  39.324  0.00  0.00    -0.083 A 
ATOM     34  H5  FVF d   1      55.869  17.382  37.714  0.00  0.00     0.083 H 
ATOM     35  CE1 FVF d   1      53.957  18.343  40.251  0.00  0.00    -0.082 A 
ATOM     36  H7  FVF d   1      55.596  19.240  39.264  0.00  0.00     0.083 H 
ATOM     37  CD1 FVF d   1      53.123  17.278  40.317  0.00  0.00    -0.075 A 
ATOM     38  H6  FVF d   1      53.837  19.167  40.944  0.00  0.00     0.083 H 
ATOM     39  H4  FVF d   1      52.313  17.270  41.037  0.00  0.00     0.084 H 
ENDBRANCH  26  29
ENDBRANCH  25  26
ENDBRANCH  22  25
ENDBRANCH   5  21
ENDBRANCH   1   5
BRANCH   3  40
ATOM     40  CA3 FVF d   1      48.164  18.517  38.186  0.00  0.00     0.115 C 
ATOM     41  H16 FVF d   1      47.379  18.069  38.814  0.00  0.00     0.093 H 
BRANCH  40  42
ATOM     42  CB3 FVF d   1      49.295  19.145  39.179  0.00  0.00    -0.030 C 
ATOM     43  H17 FVF d   1      48.880  19.973  39.773  0.00  0.00     0.043 H 
BRANCH  42  44
ATOM     44  CG3 FVF d   1      50.483  19.633  38.373  0.00  0.00    -0.071 C 
ATOM     45  H18 FVF d   1      51.239  20.054  39.052  0.00  0.00     0.028 H 
ATOM     46  H19 FVF d   1      50.153  20.408  37.666  0.00  0.00     0.028 H 
ATOM     47  H20 FVF d   1      50.919  18.791  37.816  0.00  0.00     0.028 H 
ENDBRANCH  42  44
BRANCH  42  48
ATOM     48  CG3 FVF d   1      49.724  17.969  40.092  0.00  0.00    -0.071 C 
ATOM     49  H21 FVF d   1      48.857  17.621  40.673  0.00  0.00     0.028 H 
ATOM     50  H22 FVF d   1      50.514  18.307  40.779  0.00  0.00     0.028 H 
ATOM     51  H23 FVF d   1      50.105  17.144  39.472  0.00  0.00     0.028 H 
ENDBRANCH  42  48
ENDBRANCH  40  42
BRANCH  40  52
ATOM     52  P3  FVF d   1      47.397  19.545  37.012  0.00  0.00     0.274 P 
ATOM     53  OP3 FVF d   1      46.851  20.744  37.792  0.00  0.00    -0.645 OA
ATOM     54  OP3 FVF d   1      46.334  18.623  36.245  0.00  0.00    -0.645 OA
BRANCH  52  55
ATOM     55  OP3 FVF d   1      48.574  20.160  35.990  0.00  0.00    -0.294 OA
BRANCH  55  56
ATOM     56  CA4 FVF d   1      48.068  20.697  34.751  0.00  0.00     0.136 C 
ATOM     57  H24 FVF d   1      47.159  21.263  35.002  0.00  0.00     0.101 H 
BRANCH  56  58
ATOM     58  C4  FVF d   1      47.710  19.654  33.785  0.00  0.00     0.204 C 
ATOM     59  O42 FVF d   1      46.655  19.570  33.014  0.00  0.00    -0.646 OA
ATOM     60  O41 FVF d   1      48.517  18.779  33.818  0.00  0.00    -0.646 OA
ENDBRANCH  56  58
BRANCH  56  61
ATOM     61  CB4 FVF d   1      49.022  21.640  34.023  0.00  0.00    -0.007 C 
ATOM     62  H25 FVF d   1      49.898  21.043  33.730  0.00  0.00     0.044 H 
ATOM     63  H26 FVF d   1      49.327  22.407  34.750  0.00  0.00     0.044 H 
BRANCH  61  64
ATOM     64  CG4 FVF d   1      48.583  22.332  32.851  0.00  0.00    -0.055 A 
ATOM     65  CD4 FVF d   1      47.868  23.472  32.958  0.00  0.00    -0.077 A 
ATOM     66  CE4 FVF d   1      47.456  24.115  31.844  0.00  0.00    -0.082 A 
ATOM     67  H27 FVF d   1      47.625  23.871  33.936  0.00  0.00     0.084 H 
ATOM     68  CZ4 FVF d   1      47.733  23.604  30.625  0.00  0.00    -0.083 A 
ATOM     69  H29 FVF d   1      46.902  25.043  31.928  0.00  0.00     0.083 H 
ATOM     70  CE4 FVF d   1      48.440  22.459  30.520  0.00  0.00    -0.082 A 
ATOM     71  H31 FVF d   1      47.388  24.113  29.732  0.00  0.00     0.083 H 
ATOM     72  CD4 FVF d   1      48.868  21.826  31.632  0.00  0.00    -0.077 A 
ATOM     73  H30 FVF d   1      48.664  22.048  29.542  0.00  0.00     0.083 H 
ATOM     74  H28 FVF d   1      49.441  20.910  31.547  0.00  0.00     0.084 H 
ENDBRANCH  61  64
ENDBRANCH  56  61
ENDBRANCH  55  56
ENDBRANCH  52  55
ENDBRANCH  40  52
ENDBRANCH   3  40
TORSDOF 17
