REMARK  13 active torsions:
REMARK  status: ('A' for Active; 'I' for Inactive)
REMARK    1  A    between atoms: C1_1  and  C2_5 
REMARK    2  A    between atoms: C2_5  and  O2_6 
REMARK    3  A    between atoms: C2_5  and  C3_7 
REMARK    4  A    between atoms: C3_7  and  C4_8 
REMARK    5  A    between atoms: C3_7  and  N3_15 
REMARK    6  A    between atoms: C4_8  and  CP1_9 
REMARK       I    between atoms: N3_15  and  CN1_16 
REMARK    7  A    between atoms: CN1_16  and  CN2_18 
REMARK    8  A    between atoms: CN2_18  and  NL1_19 
REMARK    9  A    between atoms: CN2_18  and  CA1_23 
REMARK   10  A    between atoms: CL1_20  and  CL2_22 
REMARK   11  A    between atoms: CA1_23  and  CA2_24 
REMARK   12  A    between atoms: CA2_24  and  CA3_25 
REMARK   13  A    between atoms: CA2_24  and  CA4_26 
ROOT
ATOM      1  N3  LPF d   1      36.669  75.332  87.510  0.00  0.00    -0.352 N 
ATOM      2  CN1 LPF d   1      35.943  74.259  88.085  0.00  0.00     0.240 C 
ATOM      3  ON1 LPF d   1      34.883  74.489  88.624  0.00  0.00    -0.271 OA
ATOM      4  H11 LPF d   1      37.567  75.130  87.118  0.00  0.00     0.163 HD
ENDROOT
BRANCH   1   5
ATOM      5  C3  LPF d   1      36.189  76.731  87.450  0.00  0.00     0.049 C 
ATOM      6  H3  LPF d   1      35.209  76.852  87.934  0.00  0.00     0.077 H 
BRANCH   5   7
ATOM      7  C2  LPF d   1      36.151  77.076  86.045  0.00  0.00     0.148 C 
ATOM      8  H1  LPF d   1      37.081  76.808  85.522  0.00  0.00     0.100 H 
BRANCH   7   9
ATOM      9  C1  LPF d   1      34.964  76.358  85.468  0.00  0.00     0.414 C 
ATOM     10  F11 LPF d   1      35.084  74.814  85.424  0.00  0.00    -0.168 F 
ATOM     11  F12 LPF d   1      34.498  76.828  83.988  0.00  0.00    -0.168 F 
ATOM     12  F13 LPF d   1      33.748  76.819  86.378  0.00  0.00    -0.168 F 
ENDBRANCH   7   9
BRANCH   7  13
ATOM     13  O2  LPF d   1      35.895  78.566  86.007  0.00  0.00    -0.384 OA
ATOM     14  H2  LPF d   1      35.761  78.840  85.107  0.00  0.00     0.210 HD
ENDBRANCH   7  13
ENDBRANCH   5   7
BRANCH   5  15
ATOM     15  C4  LPF d   1      37.274  77.633  88.107  0.00  0.00    -0.019 C 
ATOM     16  H4  LPF d   1      36.931  78.664  87.938  0.00  0.00     0.043 H 
ATOM     17  H5  LPF d   1      38.189  77.451  87.525  0.00  0.00     0.043 H 
BRANCH  15  18
ATOM     18  CP1 LPF d   1      37.716  77.596  89.563  0.00  0.00    -0.056 A 
ATOM     19  CP2 LPF d   1      36.955  77.178  90.562  0.00  0.00    -0.077 A 
ATOM     20  CP3 LPF d   1      37.393  77.218  91.866  0.00  0.00    -0.082 A 
ATOM     21  H6  LPF d   1      35.964  76.795  90.348  0.00  0.00     0.084 H 
ATOM     22  CP4 LPF d   1      38.634  77.680  92.123  0.00  0.00    -0.083 A 
ATOM     23  H7  LPF d   1      36.751  76.884  92.673  0.00  0.00     0.083 H 
ATOM     24  CP5 LPF d   1      39.426  78.104  91.103  0.00  0.00    -0.082 A 
ATOM     25  H8  LPF d   1      39.000  77.713  93.143  0.00  0.00     0.083 H 
ATOM     26  CP6 LPF d   1      38.926  78.058  89.853  0.00  0.00    -0.077 A 
ATOM     27  H9  LPF d   1      40.430  78.468  91.290  0.00  0.00     0.083 H 
ATOM     28  H10 LPF d   1      39.546  78.418  89.040  0.00  0.00     0.084 H 
ENDBRANCH  15  18
ENDBRANCH   5  15
ENDBRANCH   1   5
BRANCH   2  29
ATOM     29  CN2 LPF d   1      36.827  73.022  87.909  0.00  0.00     0.088 C 
ATOM     30  H12 LPF d   1      37.817  73.439  87.672  0.00  0.00     0.087 H 
BRANCH  29  31
ATOM     31  NL1 LPF d   1      36.978  72.314  89.166  0.00  0.00    -0.359 N 
ATOM     32  CL1 LPF d   1      37.085  72.925  90.273  0.00  0.00     0.148 C 
ATOM     33  OL1 LPF d   1      37.967  74.027  90.644  0.00  0.00    -0.178 OA
ATOM     34  H13 LPF d   1      36.998  71.314  89.160  0.00  0.00     0.162 HD
BRANCH  32  35
ATOM     35  CL2 LPF d   1      36.398  72.565  91.285  0.00  0.00    -0.015 C 
ATOM     36  H14 LPF d   1      36.634  73.216  92.139  0.00  0.00     0.038 H 
ATOM     37  H15 LPF d   1      36.640  71.523  91.541  0.00  0.00     0.038 H 
ATOM     38  H16 LPF d   1      35.327  72.645  91.048  0.00  0.00     0.038 H 
ENDBRANCH  32  35
ENDBRANCH  29  31
BRANCH  29  39
ATOM     39  CA1 LPF d   1      36.574  72.019  86.796  0.00  0.00    -0.035 C 
ATOM     40  H17 LPF d   1      36.511  72.585  85.855  0.00  0.00     0.037 H 
ATOM     41  H18 LPF d   1      35.605  71.541  87.002  0.00  0.00     0.037 H 
BRANCH  39  42
ATOM     42  CA2 LPF d   1      37.607  70.885  86.580  0.00  0.00    -0.059 C 
ATOM     43  H19 LPF d   1      37.148  70.139  85.914  0.00  0.00     0.038 H 
BRANCH  42  44
ATOM     44  CA3 LPF d   1      38.019  70.186  87.908  0.00  0.00    -0.073 C 
ATOM     45  H20 LPF d   1      38.751  69.393  87.693  0.00  0.00     0.028 H 
ATOM     46  H21 LPF d   1      37.130  69.745  88.382  0.00  0.00     0.028 H 
ATOM     47  H22 LPF d   1      38.468  70.925  88.588  0.00  0.00     0.028 H 
ENDBRANCH  42  44
BRANCH  42  48
ATOM     48  CA4 LPF d   1      38.933  71.400  85.927  0.00  0.00    -0.073 C 
ATOM     49  H23 LPF d   1      38.702  71.906  84.978  0.00  0.00     0.028 H 
ATOM     50  H24 LPF d   1      39.602  70.548  85.734  0.00  0.00     0.028 H 
ATOM     51  H25 LPF d   1      39.427  72.107  86.609  0.00  0.00     0.028 H 
ENDBRANCH  42  48
ENDBRANCH  39  42
ENDBRANCH  29  39
ENDBRANCH   2  29
TORSDOF 13
