REMARK  7 active torsions:
REMARK  status: ('A' for Active; 'I' for Inactive)
REMARK    1  A    between atoms: P_1  and  O5_5 
REMARK    2  A    between atoms: O5_5  and  C5_6 
REMARK    3  A    between atoms: C5_6  and  C4_7 
REMARK    4  A    between atoms: C3_9  and  O3_10 
REMARK    5  A    between atoms: C2_11  and  O2_12 
REMARK    6  A    between atoms: C1_13  and  N9_14 
REMARK    7  A    between atoms: C6_18  and  N6_19 
ROOT
ATOM      1  C4  AMP d   1      62.217 -18.788  38.205  0.00  0.00     0.089 C 
ATOM      2  O4  AMP d   1      62.367 -19.889  37.296  0.00  0.00    -0.353 OA
ATOM      3  C3  AMP d   1      63.096 -19.160  39.396  0.00  0.00     0.091 C 
ATOM      4  C2  AMP d   1      62.726 -20.636  39.563  0.00  0.00     0.105 C 
ATOM      5  C1  AMP d   1      62.743 -21.037  38.072  0.00  0.00     0.139 C 
ATOM      6  H3  AMP d   1      61.173 -18.679  38.533  0.00  0.00     0.090 H 
ATOM      7  H4  AMP d   1      64.169 -19.018  39.203  0.00  0.00     0.091 H 
ATOM      8  H6  AMP d   1      63.441 -21.190  40.188  0.00  0.00     0.093 H 
ATOM      9  H8  AMP d   1      62.011 -21.844  37.920  0.00  0.00     0.122 H 
ENDROOT
BRANCH   5  10
ATOM     10  N9  AMP d   1      64.075 -21.504  37.580  0.00  0.00    -0.294 N 
ATOM     11  C8  AMP d   1      65.115 -20.749  37.067  0.00  0.00     0.071 A 
ATOM     12  N7  AMP d   1      66.142 -21.460  36.690  0.00  0.00    -0.236 NA
ATOM     13  H9  AMP d   1      65.080 -19.664  36.986  0.00  0.00     0.144 H 
ATOM     14  C5  AMP d   1      65.765 -22.767  36.968  0.00  0.00     0.149 A 
ATOM     15  C6  AMP d   1      66.426 -23.989  36.791  0.00  0.00     0.155 A 
ATOM     16  C4  AMP d   1      64.509 -22.808  37.512  0.00  0.00     0.167 A 
ATOM     17  N1  AMP d   1      65.780 -25.101  37.168  0.00  0.00    -0.222 NA
ATOM     18  C2  AMP d   1      64.561 -24.997  37.684  0.00  0.00     0.091 A 
ATOM     19  N3  AMP d   1      63.830 -23.913  37.903  0.00  0.00    -0.222 NA
ATOM     20  H12 AMP d   1      64.096 -25.934  37.967  0.00  0.00     0.146 H 
BRANCH  15  21
ATOM     21  N6  AMP d   1      67.645 -24.068  36.265  0.00  0.00    -0.382 N 
ATOM     22  H10 AMP d   1      68.098 -24.986  36.151  0.00  0.00     0.157 HD
ATOM     23  H11 AMP d   1      68.136 -23.211  35.972  0.00  0.00     0.157 HD
ENDBRANCH  15  21
ENDBRANCH   5  10
BRANCH   4  24
ATOM     24  O2  AMP d   1      61.374 -20.818  40.026  0.00  0.00    -0.388 OA
ATOM     25  H7  AMP d   1      61.269 -20.393  40.869  0.00  0.00     0.210 HD
ENDBRANCH   4  24
BRANCH   1  26
ATOM     26  C5  AMP d   1      62.646 -17.517  37.454  0.00  0.00     0.059 C 
ATOM     27  H1  AMP d   1      62.007 -17.383  36.569  0.00  0.00     0.079 H 
ATOM     28  H2  AMP d   1      62.540 -16.647  38.118  0.00  0.00     0.079 H 
BRANCH  26  29
ATOM     29  O5  AMP d   1      64.020 -17.638  37.039  0.00  0.00    -0.280 OA
BRANCH  29  30
ATOM     30  P   AMP d   1      64.891 -16.396  36.487  0.00  0.00     0.422 P 
ATOM     31  O1P AMP d   1      66.243 -16.698  37.002  0.00  0.00    -0.617 OA
ATOM     32  O2P AMP d   1      64.746 -16.506  35.019  0.00  0.00    -0.617 OA
ATOM     33  O3P AMP d   1      64.245 -15.210  37.099  0.00  0.00    -0.617 OA
ENDBRANCH  29  30
ENDBRANCH  26  29
ENDBRANCH   1  26
BRANCH   3  34
ATOM     34  O3  AMP d   1      62.671 -18.376  40.519  0.00  0.00    -0.390 OA
ATOM     35  H5  AMP d   1      61.760 -18.566  40.710  0.00  0.00     0.210 HD
ENDBRANCH   3  34
TORSDOF 7
