REMARK WARNING: 32 MAX_TORS EXCEEDED!!!
REMARK  36 active torsions:
REMARK  status: ('A' for Active; 'I' for Inactive)
REMARK    1  A    between atoms: C_1  and  CH3_3 
REMARK       I    between atoms: N_4  and  C_1 
REMARK    2  A    between atoms: CA_5  and  N_4 
REMARK    3  A    between atoms: CA_5  and  CB_8 
REMARK    4  A    between atoms: C_6  and  CA_5 
REMARK       I    between atoms: N_10  and  C_6 
REMARK    5  A    between atoms: CB_8  and  OG_9 
REMARK    6  A    between atoms: CA_11  and  N_10 
REMARK    7  A    between atoms: CA_11  and  CB_14 
REMARK    8  A    between atoms: C_12  and  CA_11 
REMARK       I    between atoms: N_18  and  C_12 
REMARK    9  A    between atoms: CB_14  and  CG_15 
REMARK   10  A    between atoms: CG_15  and  CD1_16 
REMARK   11  A    between atoms: CG_15  and  CD2_17 
REMARK   12  A    between atoms: CA_19  and  N_18 
REMARK   13  A    between atoms: CA_19  and  CB_22 
REMARK   14  A    between atoms: C_20  and  CA_19 
REMARK       I    between atoms: N_26  and  C_20 
REMARK   15  A    between atoms: CB_22  and  CG_23 
REMARK       I    between atoms: CG_23  and  ND2_25 
REMARK   16  A    between atoms: CA_27  and  N_26 
REMARK   17  A    between atoms: CA_27  and  CB_30 
REMARK   18  A    between atoms: C_28  and  CA_27 
REMARK   19  A    between atoms: C_28  and  O_29 
REMARK   20  A    between atoms: C_37  and  C_28 
REMARK   21  A    between atoms: CB_30  and  CG_31 
REMARK   22  A    between atoms: N_38  and  C_37 
REMARK   23  A    between atoms: C_40  and  CA_39 
REMARK       I    between atoms: N_45  and  C_40 
REMARK   24  A    between atoms: CA_46  and  N_45 
REMARK   25  A    between atoms: CA_46  and  CB_49 
REMARK   26  A    between atoms: C_47  and  CA_46 
REMARK       I    between atoms: N_53  and  C_47 
REMARK   27  A    between atoms: CB_49  and  CG2_51 
REMARK   28  A    between atoms: CB_49  and  CG1_50 
REMARK   29  A    between atoms: CG1_50  and  CD1_52 
REMARK   30  A    between atoms: CA_54  and  N_53 
REMARK   31  A    between atoms: CA_54  and  CB_57 
REMARK   32  A    between atoms: C_55  and  CA_54 
REMARK   33  A    between atoms: O_61  and  C_55 
REMARK   34  A    between atoms: CB_57  and  CG2_59 
REMARK   35  A    between atoms: CB_57  and  CG1_58 
REMARK   36  A    between atoms: O_61  and  CM_60 
ROOT
ATOM      1  CA  JG3 d   1       5.609  -0.373  14.165  0.00  0.00     0.042 C 
ATOM      2  H27 JG3 d   1       5.912  -1.173  13.473  0.00  0.00     0.077 H 
ENDROOT
BRANCH   1   3
ATOM      3  N   JG3 d   1       4.627   0.475  13.482  0.00  0.00    -0.352 N 
ATOM      4  C   ASN d   1       3.862   0.131  12.452  0.00  0.00     0.241 C 
ATOM      5  O   ASN d   1       3.842  -0.957  11.867  0.00  0.00    -0.271 OA
ATOM      6  H26 JG3 d   1       4.522   1.408  13.827  0.00  0.00     0.163 HD
BRANCH   4   7
ATOM      7  CA  ASN d   1       2.980   1.333  12.064  0.00  0.00     0.097 C 
ATOM      8  H21 ASN d   1       3.033   2.070  12.879  0.00  0.00     0.088 H 
BRANCH   7   9
ATOM      9  N   ASN d   1       3.506   1.968  10.846  0.00  0.00    -0.346 N 
ATOM     10  C   LEU d   1       3.533   3.251  10.571  0.00  0.00     0.241 C 
ATOM     11  O   LEU d   1       3.116   4.112  11.310  0.00  0.00    -0.271 OA
ATOM     12  H20 ASN d   1       3.884   1.355  10.152  0.00  0.00     0.163 HD
BRANCH  10  13
ATOM     13  CA  LEU d   1       4.083   3.622   9.214  0.00  0.00     0.089 C 
ATOM     14  H10 LEU d   1       4.010   2.719   8.590  0.00  0.00     0.087 H 
BRANCH  13  15
ATOM     15  N   LEU d   1       3.177   4.671   8.726  0.00  0.00    -0.346 N 
ATOM     16  C   SER d   1       2.536   4.505   7.563  0.00  0.00     0.243 C 
ATOM     17  O   SER d   1       2.586   3.532   6.794  0.00  0.00    -0.271 OA
ATOM     18  H9  LEU d   1       3.040   5.505   9.261  0.00  0.00     0.163 HD
BRANCH  16  19
ATOM     19  CA  SER d   1       1.703   5.755   7.376  0.00  0.00     0.109 C 
ATOM     20  H5  SER d   1       2.415   6.586   7.488  0.00  0.00     0.090 H 
BRANCH  19  21
ATOM     21  N   SER d   1       1.085   6.003   6.106  0.00  0.00    -0.346 N 
ATOM     22  C   ACE d   1       1.890   6.193   5.032  0.00  0.00     0.214 C 
ATOM     23  O   ACE d   1       1.933   5.117   4.395  0.00  0.00    -0.274 OA
ATOM     24  H4  SER d   1       0.090   6.035   6.015  0.00  0.00     0.163 HD
BRANCH  22  25
ATOM     25  CH3 ACE d   1       2.420   7.511   4.526  0.00  0.00    -0.003 C 
ATOM     26  H1  ACE d   1       2.253   8.289   5.286  0.00  0.00     0.040 H 
ATOM     27  H2  ACE d   1       1.895   7.785   3.599  0.00  0.00     0.040 H 
ATOM     28  H3  ACE d   1       3.498   7.420   4.325  0.00  0.00     0.040 H 
ENDBRANCH  22  25
ENDBRANCH  19  21
BRANCH  19  29
ATOM     29  CB  SER d   1       0.746   5.867   8.545  0.00  0.00     0.044 C 
ATOM     30  H6  SER d   1       1.292   5.746   9.492  0.00  0.00     0.077 H 
ATOM     31  H7  SER d   1      -0.034   5.095   8.469  0.00  0.00     0.077 H 
BRANCH  29  32
ATOM     32  OG  SER d   1       0.150   7.178   8.483  0.00  0.00    -0.398 OA
ATOM     33  H8  SER d   1      -0.459   7.282   9.205  0.00  0.00     0.209 HD
ENDBRANCH  29  32
ENDBRANCH  19  29
ENDBRANCH  16  19
ENDBRANCH  13  15
BRANCH  13  34
ATOM     34  CB  LEU d   1       5.445   4.202   8.974  0.00  0.00    -0.035 C 
ATOM     35  H11 LEU d   1       6.089   3.792   9.765  0.00  0.00     0.037 H 
ATOM     36  H12 LEU d   1       5.338   5.288   9.115  0.00  0.00     0.037 H 
BRANCH  34  37
ATOM     37  CG  LEU d   1       6.215   4.028   7.684  0.00  0.00    -0.059 C 
ATOM     38  H13 LEU d   1       6.966   3.236   7.820  0.00  0.00     0.038 H 
BRANCH  37  39
ATOM     39  CD1 LEU d   1       5.403   3.696   6.477  0.00  0.00    -0.073 C 
ATOM     40  H14 LEU d   1       6.066   3.594   5.606  0.00  0.00     0.028 H 
ATOM     41  H15 LEU d   1       4.675   4.500   6.292  0.00  0.00     0.028 H 
ATOM     42  H16 LEU d   1       4.869   2.749   6.644  0.00  0.00     0.028 H 
ENDBRANCH  37  39
BRANCH  37  43
ATOM     43  CD2 LEU d   1       6.900   5.389   7.462  0.00  0.00    -0.073 C 
ATOM     44  H17 LEU d   1       7.502   5.645   8.346  0.00  0.00     0.028 H 
ATOM     45  H18 LEU d   1       6.135   6.163   7.303  0.00  0.00     0.028 H 
ATOM     46  H19 LEU d   1       7.552   5.331   6.578  0.00  0.00     0.028 H 
ENDBRANCH  37  43
ENDBRANCH  34  37
ENDBRANCH  13  34
ENDBRANCH  10  13
ENDBRANCH   7   9
BRANCH   7  47
ATOM     47  CB  ASN d   1       1.509   0.918  11.908  0.00  0.00     0.036 C 
ATOM     48  H22 ASN d   1       1.106   0.629  12.890  0.00  0.00     0.051 H 
ATOM     49  H23 ASN d   1       1.442   0.064  11.218  0.00  0.00     0.051 H 
BRANCH  47  50
ATOM     50  CG  ASN d   1       0.697   2.082  11.351  0.00  0.00     0.217 C 
ATOM     51  ND2 ASN d   1       0.373   3.061  12.197  0.00  0.00    -0.370 N 
ATOM     52  H24 ASN d   1      -0.159   3.844  11.875  0.00  0.00     0.159 HD
ATOM     53  H25 ASN d   1       0.662   3.012  13.153  0.00  0.00     0.159 HD
ATOM     54  OD1 ASN d   1       0.485   2.033  10.129  0.00  0.00    -0.274 OA
ENDBRANCH  47  50
ENDBRANCH   7  47
ENDBRANCH   4   7
ENDBRANCH   1   3
BRANCH   1  55
ATOM     55  CB  JG3 d   1       6.830   0.545  14.365  0.00  0.00    -0.020 C 
ATOM     56  H30 JG3 d   1       7.570   0.059  15.018  0.00  0.00     0.043 H 
ATOM     57  H31 JG3 d   1       6.519   1.501  14.812  0.00  0.00     0.043 H 
BRANCH  55  58
ATOM     58  CG  JG3 d   1       7.427   0.780  12.964  0.00  0.00    -0.056 A 
ATOM     59  CD1 JG3 d   1       7.807  -0.319  12.193  0.00  0.00    -0.077 A 
ATOM     60  CE1 JG3 d   1       8.321  -0.126  10.942  0.00  0.00    -0.082 A 
ATOM     61  H32 JG3 d   1       7.695  -1.323  12.585  0.00  0.00     0.084 H 
ATOM     62  CZ  JG3 d   1       8.503   1.174  10.443  0.00  0.00    -0.083 A 
ATOM     63  H34 JG3 d   1       8.590  -0.981  10.332  0.00  0.00     0.083 H 
ATOM     64  CE2 JG3 d   1       8.191   2.274  11.204  0.00  0.00    -0.082 A 
ATOM     65  H36 JG3 d   1       8.896   1.311   9.442  0.00  0.00     0.083 H 
ATOM     66  CD2 JG3 d   1       7.629   2.051  12.443  0.00  0.00    -0.077 A 
ATOM     67  H35 JG3 d   1       8.379   3.279  10.844  0.00  0.00     0.083 H 
ATOM     68  H33 JG3 d   1       7.331   2.907  13.038  0.00  0.00     0.084 H 
ENDBRANCH  55  58
ENDBRANCH   1  55
BRANCH   1  69
ATOM     69  C   JG3 d   1       5.040  -1.090  15.397  0.00  0.00     0.078 C 
ATOM     70  H28 JG3 d   1       5.727  -1.868  15.762  0.00  0.00     0.088 H 
BRANCH  69  71
ATOM     71  O   JG3 d   1       4.867  -0.036  16.393  0.00  0.00    -0.392 OA
ATOM     72  H29 JG3 d   1       4.267   0.620  16.058  0.00  0.00     0.210 HD
ENDBRANCH  69  71
BRANCH  69  73
ATOM     73  C   JG3 d   1       3.667  -1.721  15.017  0.00  0.00     0.110 C 
ATOM     74  H37 JG3 d   1       3.746  -1.934  13.941  0.00  0.00     0.080 H 
ATOM     75  H38 JG3 d   1       2.936  -0.915  15.179  0.00  0.00     0.080 H 
BRANCH  73  76
ATOM     76  N   JG3 d   1       3.013  -2.959  15.607  0.00  0.00    -0.056 N 
ATOM     77  CA  JG3 d   1       4.032  -3.673  16.445  0.00  0.00     0.180 C 
ATOM     78  CB  JG3 d   1       3.060  -4.845  16.834  0.00  0.00    -0.028 C 
ATOM     79  H40 JG3 d   1       4.284  -3.059  17.322  0.00  0.00     0.100 H 
ATOM     80  CG  JG3 d   1       2.408  -5.202  15.540  0.00  0.00    -0.040 C 
ATOM     81  H41 JG3 d   1       2.315  -4.510  17.570  0.00  0.00     0.036 H 
ATOM     82  H42 JG3 d   1       3.619  -5.700  17.242  0.00  0.00     0.036 H 
ATOM     83  CD  JG3 d   1       2.393  -3.934  14.693  0.00  0.00     0.085 C 
ATOM     84  H43 JG3 d   1       2.982  -5.991  15.031  0.00  0.00     0.035 H 
ATOM     85  H44 JG3 d   1       1.380  -5.552  15.717  0.00  0.00     0.035 H 
ATOM     86  H45 JG3 d   1       2.987  -4.058  13.775  0.00  0.00     0.076 H 
ATOM     87  H46 JG3 d   1       1.366  -3.640  14.429  0.00  0.00     0.076 H 
ATOM     88  H39 JG3 d   1       2.277  -2.630  16.212  0.00  0.00     0.281 HD
BRANCH  77  89
ATOM     89  C   JG3 d   1       5.364  -4.129  15.856  0.00  0.00     0.249 C 
ATOM     90  O   JG3 d   1       5.726  -4.020  14.658  0.00  0.00    -0.271 OA
ATOM     91  N   ILE d   1       6.173  -4.626  16.776  0.00  0.00    -0.346 N 
ATOM     92  H47 ILE d   1       5.818  -4.552  17.708  0.00  0.00     0.163 HD
BRANCH  91  93
ATOM     93  CA  ILE d   1       7.464  -5.252  16.696  0.00  0.00     0.092 C 
ATOM     94  H48 ILE d   1       7.604  -5.526  15.640  0.00  0.00     0.088 H 
BRANCH  93  95
ATOM     95  CB  ILE d   1       8.862  -4.761  17.155  0.00  0.00    -0.030 C 
ATOM     96  H49 ILE d   1       8.804  -4.620  18.244  0.00  0.00     0.043 H 
BRANCH  95  97
ATOM     97  CG2 ILE d   1       9.876  -5.942  16.879  0.00  0.00    -0.071 C 
ATOM     98  H52 ILE d   1       9.475  -6.876  17.300  0.00  0.00     0.028 H 
ATOM     99  H53 ILE d   1      10.843  -5.713  17.351  0.00  0.00     0.028 H 
ATOM    100  H54 ILE d   1      10.016  -6.059  15.794  0.00  0.00     0.028 H 
ENDBRANCH  95  97
BRANCH  95 101
ATOM    101  CG1 ILE d   1       9.356  -3.429  16.596  0.00  0.00    -0.063 C 
ATOM    102  H50 ILE d   1      10.416  -3.350  16.880  0.00  0.00     0.033 H 
ATOM    103  H51 ILE d   1       8.779  -2.646  17.110  0.00  0.00     0.033 H 
BRANCH 101 104
ATOM    104  CD1 ILE d   1       9.287  -3.103  15.111  0.00  0.00    -0.076 C 
ATOM    105  H55 ILE d   1       9.695  -2.096  14.937  0.00  0.00     0.027 H 
ATOM    106  H56 ILE d   1       8.240  -3.136  14.777  0.00  0.00     0.027 H 
ATOM    107  H57 ILE d   1       9.876  -3.840  14.546  0.00  0.00     0.027 H 
ENDBRANCH 101 104
ENDBRANCH  95 101
ENDBRANCH  93  95
BRANCH  93 108
ATOM    108  C   ILE d   1       7.117  -6.518  17.577  0.00  0.00     0.241 C 
ATOM    109  O   ILE d   1       6.691  -6.326  18.710  0.00  0.00    -0.271 OA
ATOM    110  N   VME d   1       7.288  -7.667  16.959  0.00  0.00    -0.349 N 
ATOM    111  H58 VME d   1       7.646  -7.722  16.027  0.00  0.00     0.163 HD
BRANCH 110 112
ATOM    112  CA  VME d   1       6.917  -8.870  17.732  0.00  0.00     0.077 C 
ATOM    113  H59 VME d   1       7.009  -8.642  18.804  0.00  0.00     0.082 H 
BRANCH 112 114
ATOM    114  CB  VME d   1       5.392  -9.043  17.423  0.00  0.00    -0.036 C 
ATOM    115  H60 VME d   1       5.086  -8.209  16.775  0.00  0.00     0.042 H 
BRANCH 114 116
ATOM    116  CG2 VME d   1       4.640  -8.868  18.717  0.00  0.00    -0.071 C 
ATOM    117  H64 VME d   1       4.928  -7.914  19.182  0.00  0.00     0.028 H 
ATOM    118  H65 VME d   1       4.885  -9.696  19.398  0.00  0.00     0.028 H 
ATOM    119  H66 VME d   1       3.559  -8.866  18.515  0.00  0.00     0.028 H 
ENDBRANCH 114 116
BRANCH 114 120
ATOM    120  CG1 VME d   1       5.144 -10.301  16.613  0.00  0.00    -0.071 C 
ATOM    121  H61 VME d   1       4.067 -10.400  16.409  0.00  0.00     0.028 H 
ATOM    122  H62 VME d   1       5.492 -11.177  17.180  0.00  0.00     0.028 H 
ATOM    123  H63 VME d   1       5.693 -10.239  15.662  0.00  0.00     0.028 H 
ENDBRANCH 114 120
ENDBRANCH 112 114
BRANCH 112 124
ATOM    124  C   VME d   1       7.846 -10.017  17.484  0.00  0.00     0.279 C 
ATOM    125  O   VME d   1       8.495 -10.376  16.320  0.00  0.00    -0.189 OA
BRANCH 124 126
ATOM    126  O   VME d   1       8.317 -10.883  18.590  0.00  0.00    -0.352 OA
BRANCH 126 127
ATOM    127  CM  VME d   1       9.420 -10.293  19.497  0.00  0.00     0.008 C 
ATOM    128  H67 VME d   1       9.684 -11.024  20.275  0.00  0.00     0.066 H 
ATOM    129  H68 VME d   1       9.051  -9.371  19.970  0.00  0.00     0.066 H 
ATOM    130  H69 VME d   1      10.309 -10.064  18.891  0.00  0.00     0.066 H 
ENDBRANCH 126 127
ENDBRANCH 124 126
ENDBRANCH 112 124
ENDBRANCH 110 112
ENDBRANCH  93 108
ENDBRANCH  91  93
ENDBRANCH  77  89
ENDBRANCH  73  76
ENDBRANCH  69  73
ENDBRANCH   1  69
TORSDOF 36
