REMARK  16 active torsions:
REMARK  status: ('A' for Active; 'I' for Inactive)
REMARK    1  A    between atoms: CA_2  and  N_1 
REMARK    2  A    between atoms: CA_2  and  C7_16 
REMARK    3  A    between atoms: C_3  and  CA_2 
REMARK       I    between atoms: N7_26  and  C_3 
REMARK    4  A    between atoms: C11_7  and  CH_6 
REMARK    5  A    between atoms: C15_17  and  N16_8 
REMARK    6  A    between atoms: C7_16  and  C1_10 
REMARK    7  A    between atoms: C4_13  and  C15_17 
REMARK    8  A    between atoms: C7_24  and  C1_18 
REMARK    9  A    between atoms: N7_26  and  C7_24 
REMARK   10  A    between atoms: C7_24  and  C8_25 
REMARK       I    between atoms: C8_25  and  N_28 
REMARK   11  A    between atoms: N_28  and  CA_29 
REMARK   12  A    between atoms: CA_29  and  C5_36 
REMARK   13  A    between atoms: CA_29  and  C_30 
REMARK   14  A    between atoms: C_30  and  O_31 
REMARK   15  A    between atoms: N1_32  and  C10_39 
REMARK   16  A    between atoms: C5_36  and  C8_37 
ROOT
ATOM      1  C7  CHG d   1      15.013 -16.190  21.633  0.00  0.00     0.093 C 
ATOM      2  H27 CHG d   1      14.334 -15.866  22.435  0.00  0.00     0.088 H 
ENDROOT
BRANCH   1   3
ATOM      3  C1  CHG d   1      14.164 -17.026  20.641  0.00  0.00    -0.026 C 
ATOM      4  C6  CHG d   1      13.098 -16.121  20.259  0.00  0.00    -0.059 C 
ATOM      5  C5  CHG d   1      12.031 -16.716  19.518  0.00  0.00    -0.065 C 
ATOM      6  H25 CHG d   1      13.535 -15.321  19.643  0.00  0.00     0.033 H 
ATOM      7  H26 CHG d   1      12.674 -15.688  21.177  0.00  0.00     0.033 H 
ATOM      8  C4  CHG d   1      11.316 -17.669  20.493  0.00  0.00    -0.065 C 
ATOM      9  H23 CHG d   1      11.336 -15.942  19.161  0.00  0.00     0.033 H 
ATOM     10  H24 CHG d   1      12.428 -17.276  18.659  0.00  0.00     0.033 H 
ATOM     11  C3  CHG d   1      12.352 -18.753  20.748  0.00  0.00    -0.065 C 
ATOM     12  H21 CHG d   1      11.050 -17.151  21.426  0.00  0.00     0.033 H 
ATOM     13  H22 CHG d   1      10.409 -18.091  20.037  0.00  0.00     0.033 H 
ATOM     14  C2  CHG d   1      13.511 -18.141  21.508  0.00  0.00    -0.059 C 
ATOM     15  H19 CHG d   1      11.904 -19.562  21.343  0.00  0.00     0.033 H 
ATOM     16  H20 CHG d   1      12.709 -19.158  19.790  0.00  0.00     0.033 H 
ATOM     17  H17 CHG d   1      13.144 -17.707  22.450  0.00  0.00     0.033 H 
ATOM     18  H18 CHG d   1      14.257 -18.919  21.729  0.00  0.00     0.033 H 
ATOM     19  H16 CHG d   1      14.735 -17.419  19.787  0.00  0.00     0.043 H 
ENDBRANCH   1   3
BRANCH   1  20
ATOM     20  N7  CHG d   1      15.585 -14.989  21.027  0.00  0.00    -0.346 N 
ATOM     21  C   0BN d   1      15.889 -13.898  21.663  0.00  0.00     0.241 C 
ATOM     22  O   0BN d   1      15.706 -13.848  22.936  0.00  0.00    -0.271 OA
ATOM     23  H28 CHG d   1      15.756 -15.009  20.042  0.00  0.00     0.163 HD
BRANCH  21  24
ATOM     24  CA  0BN d   1      16.252 -12.720  20.851  0.00  0.00     0.092 C 
ATOM     25  H2  0BN d   1      16.692 -11.954  21.506  0.00  0.00     0.088 H 
BRANCH  24  26
ATOM     26  N   0BN d   1      17.183 -13.092  19.932  0.00  0.00    -0.359 N 
ATOM     27  C11 ACE d   1      18.460 -13.212  20.064  0.00  0.00     0.148 C 
ATOM     28  O1  ACE d   1      18.970 -13.629  21.304  0.00  0.00    -0.178 OA
ATOM     29  H1  0BN d   1      16.825 -13.303  19.022  0.00  0.00     0.162 HD
BRANCH  27  30
ATOM     30  CH  ACE d   1      19.380 -12.913  18.961  0.00  0.00    -0.015 C 
ATOM     31  H3  ACE d   1      20.416 -13.082  19.291  0.00  0.00     0.038 H 
ATOM     32  H4  ACE d   1      19.259 -11.863  18.657  0.00  0.00     0.038 H 
ATOM     33  H5  ACE d   1      19.155 -13.570  18.108  0.00  0.00     0.038 H 
ENDBRANCH  27  30
ENDBRANCH  24  26
BRANCH  24  34
ATOM     34  C7  0BN d   1      14.902 -12.087  20.145  0.00  0.00    -0.014 C 
ATOM     35  H14 0BN d   1      14.520 -12.798  19.398  0.00  0.00     0.043 H 
ATOM     36  H15 0BN d   1      15.165 -11.141  19.649  0.00  0.00     0.043 H 
BRANCH  34  37
ATOM     37  C1  0BN d   1      13.910 -11.844  21.091  0.00  0.00    -0.056 A 
ATOM     38  C6  0BN d   1      13.848 -10.723  21.840  0.00  0.00    -0.076 A 
ATOM     39  C5  0BN d   1      12.854 -10.511  22.809  0.00  0.00    -0.069 A 
ATOM     40  H13 0BN d   1      14.597  -9.954  21.687  0.00  0.00     0.084 H 
ATOM     41  C4  0BN d   1      11.878 -11.426  23.001  0.00  0.00     0.007 A 
ATOM     42  H12 0BN d   1      12.870  -9.607  23.407  0.00  0.00     0.085 H 
ATOM     43  C3  0BN d   1      11.869 -12.593  22.198  0.00  0.00    -0.069 A 
ATOM     44  C2  0BN d   1      12.869 -12.854  21.274  0.00  0.00    -0.076 A 
ATOM     45  H11 0BN d   1      11.057 -13.302  22.309  0.00  0.00     0.085 H 
ATOM     46  H10 0BN d   1      12.879 -13.777  20.706  0.00  0.00     0.084 H 
BRANCH  41  47
ATOM     47  C15 0BN d   1      10.960 -11.239  23.867  0.00  0.00     0.102 C 
ATOM     48  N17 0BN d   1      10.042 -12.135  24.013  0.00  0.00    -0.385 N 
ATOM     49  H8  0BN d   1      10.066 -12.995  23.446  0.00  0.00     0.157 HD
ATOM     50  H9  0BN d   1       9.285 -11.990  24.697  0.00  0.00     0.157 HD
BRANCH  47  51
ATOM     51  N16 0BN d   1      10.886 -10.257  24.551  0.00  0.00    -0.385 N 
ATOM     52  H6  0BN d   1      10.121 -10.162  25.234  0.00  0.00     0.157 HD
ATOM     53  H7  0BN d   1      11.587  -9.509  24.455  0.00  0.00     0.157 HD
ENDBRANCH  47  51
ENDBRANCH  41  47
ENDBRANCH  34  37
ENDBRANCH  24  34
ENDBRANCH  21  24
ENDBRANCH   1  20
BRANCH   1  54
ATOM     54  C8  CHG d   1      16.160 -17.010  22.291  0.00  0.00     0.241 C 
ATOM     55  O1  CHG d   1      17.154 -17.411  21.637  0.00  0.00    -0.271 OA
ATOM     56  N   PRR d   1      16.118 -17.111  23.788  0.00  0.00    -0.352 N 
ATOM     57  H29 PRR d   1      15.411 -16.610  24.286  0.00  0.00     0.163 HD
BRANCH  56  58
ATOM     58  CA  PRR d   1      17.111 -17.946  24.569  0.00  0.00     0.036 C 
ATOM     59  H30 PRR d   1      18.016 -18.081  23.959  0.00  0.00     0.076 H 
BRANCH  58  60
ATOM     60  C5  PRR d   1      17.497 -17.013  25.650  0.00  0.00    -0.019 C 
ATOM     61  H37 PRR d   1      17.730 -17.590  26.557  0.00  0.00     0.043 H 
ATOM     62  H38 PRR d   1      16.658 -16.332  25.854  0.00  0.00     0.043 H 
BRANCH  60  63
ATOM     63  C8  PRR d   1      18.674 -16.224  25.266  0.00  0.00    -0.041 A 
ATOM     64  C9  PRR d   1      19.929 -16.586  25.783  0.00  0.00    -0.015 A 
ATOM     65  N1  PRR d   1      21.038 -15.835  25.389  0.00  0.00    -0.370 N 
ATOM     66  H39 PRR d   1      20.033 -17.422  26.466  0.00  0.00     0.112 H 
ATOM     67  C2  PRR d   1      20.925 -14.783  24.464  0.00  0.00    -0.021 A 
ATOM     68  C3  PRR d   1      19.692 -14.521  23.961  0.00  0.00    -0.067 A 
ATOM     69  H34 PRR d   1      21.790 -14.203  24.164  0.00  0.00     0.111 H 
ATOM     70  C4  PRR d   1      18.577 -15.224  24.342  0.00  0.00    -0.074 A 
ATOM     71  H35 PRR d   1      19.584 -13.727  23.231  0.00  0.00     0.085 H 
ATOM     72  H36 PRR d   1      17.614 -14.984  23.907  0.00  0.00     0.084 H 
BRANCH  65  73
ATOM     73  C10 PRR d   1      22.226 -16.159  25.895  0.00  0.00    -0.015 C 
ATOM     74  H40 PRR d   1      22.993 -15.481  25.492  0.00  0.00     0.057 H 
ATOM     75  H41 PRR d   1      22.471 -17.195  25.620  0.00  0.00     0.057 H 
ATOM     76  H42 PRR d   1      22.195 -16.068  26.991  0.00  0.00     0.057 H 
ENDBRANCH  65  73
ENDBRANCH  60  63
ENDBRANCH  58  60
BRANCH  58  77
ATOM     77  C   PRR d   1      16.594 -19.333  24.757  0.00  0.00     0.036 C 
ATOM     78  H31 PRR d   1      17.050 -19.692  25.691  0.00  0.00     0.077 H 
ATOM     79  H32 PRR d   1      16.990 -19.912  23.909  0.00  0.00     0.077 H 
BRANCH  77  80
ATOM     80  O   PRR d   1      15.136 -19.705  24.852  0.00  0.00    -0.399 OA
ATOM     81  H33 PRR d   1      15.057 -20.644  24.970  0.00  0.00     0.209 HD
ENDBRANCH  77  80
ENDBRANCH  58  77
ENDBRANCH  56  58
ENDBRANCH   1  54
TORSDOF 16
