REMARK  15 active torsions:
REMARK  status: ('A' for Active; 'I' for Inactive)
REMARK    1  A    between atoms: CA_2  and  N_1 
REMARK    2  A    between atoms: C_3  and  CA_2 
REMARK    3  A    between atoms: CA_2  and  CB_5 
REMARK       I    between atoms: N_6  and  C_3 
REMARK    4  A    between atoms: CA_7  and  N_6 
REMARK    5  A    between atoms: C_8  and  CA_7 
REMARK    6  A    between atoms: CA_7  and  CB_10 
REMARK       I    between atoms: N_11  and  C_8 
REMARK    7  A    between atoms: C_13  and  CA_12 
REMARK       I    between atoms: N_23  and  C_13 
REMARK    8  A    between atoms: CA_18  and  CB_19 
REMARK    9  A    between atoms: CA_18  and  N_23 
REMARK   10  A    between atoms: CA_18  and  B_24 
REMARK   11  A    between atoms: CB_19  and  CG_20 
REMARK   12  A    between atoms: CG_20  and  CD1_21 
REMARK   13  A    between atoms: CG_20  and  CD2_22 
REMARK   14  A    between atoms: B_24  and  O1_25 
REMARK   15  A    between atoms: B_24  and  O2_26 
ROOT
ATOM      1  C   ALA d   1      13.636  36.111  17.594  0.00  0.00     0.243 C 
ATOM      2  O   ALA d   1      14.519  36.426  16.803  0.00  0.00    -0.271 OA
ATOM      3  N   PRO d   1      13.367  34.977  18.175  0.00  0.00    -0.337 N 
ATOM      4  CA  PRO d   1      14.171  33.782  17.897  0.00  0.00     0.091 C 
ATOM      5  CB  PRO d   1      13.570  32.715  18.844  0.00  0.00    -0.036 C 
ATOM      6  CG  PRO d   1      12.592  33.400  19.736  0.00  0.00    -0.048 C 
ATOM      7  CD  PRO d   1      12.225  34.734  19.103  0.00  0.00    -0.001 C 
ATOM      8  H13 PRO d   1      15.249  33.939  18.051  0.00  0.00     0.087 H 
ATOM      9  H14 PRO d   1      14.368  32.256  19.446  0.00  0.00     0.036 H 
ATOM     10  H15 PRO d   1      13.060  31.937  18.256  0.00  0.00     0.036 H 
ATOM     11  H16 PRO d   1      13.044  33.569  20.724  0.00  0.00     0.035 H 
ATOM     12  H17 PRO d   1      11.690  32.780  19.846  0.00  0.00     0.035 H 
ATOM     13  H18 PRO d   1      11.274  34.665  18.554  0.00  0.00     0.064 H 
ATOM     14  H19 PRO d   1      12.154  35.527  19.861  0.00  0.00     0.064 H 
ENDROOT
BRANCH   4  15
ATOM     15  C   PRO d   1      13.838  33.348  16.452  0.00  0.00     0.240 C 
ATOM     16  O   PRO d   1      12.623  33.439  16.070  0.00  0.00    -0.271 OA
ATOM     17  N   BLE d   1      14.813  32.862  15.712  0.00  0.00    -0.358 N 
ATOM     18  H30 BLE d   1      15.740  32.804  16.082  0.00  0.00     0.162 HD
BRANCH  17  19
ATOM     19  CA  BLE d   1      14.532  32.395  14.313  0.00  0.00     0.046 C 
ATOM     20  H20 BLE d   1      13.459  32.528  14.112  0.00  0.00     0.064 H 
BRANCH  19  21
ATOM     21  CB  BLE d   1      15.341  33.348  13.336  0.00  0.00    -0.046 C 
ATOM     22  H21 BLE d   1      15.103  33.060  12.301  0.00  0.00     0.035 H 
ATOM     23  H22 BLE d   1      16.415  33.197  13.521  0.00  0.00     0.035 H 
BRANCH  21  24
ATOM     24  CG  BLE d   1      15.033  34.840  13.499  0.00  0.00    -0.060 C 
ATOM     25  H23 BLE d   1      15.042  35.114  14.564  0.00  0.00     0.038 H 
BRANCH  24  26
ATOM     26  CD1 BLE d   1      16.001  35.727  12.717  0.00  0.00    -0.073 C 
ATOM     27  H24 BLE d   1      15.735  36.783  12.869  0.00  0.00     0.028 H 
ATOM     28  H25 BLE d   1      15.938  35.484  11.646  0.00  0.00     0.028 H 
ATOM     29  H26 BLE d   1      17.027  35.553  13.073  0.00  0.00     0.028 H 
ENDBRANCH  24  26
BRANCH  24  30
ATOM     30  CD2 BLE d   1      13.653  35.071  12.871  0.00  0.00    -0.073 C 
ATOM     31  H27 BLE d   1      12.905  34.456  13.393  0.00  0.00     0.028 H 
ATOM     32  H28 BLE d   1      13.682  34.789  11.808  0.00  0.00     0.028 H 
ATOM     33  H29 BLE d   1      13.382  36.133  12.961  0.00  0.00     0.028 H 
ENDBRANCH  24  30
ENDBRANCH  21  24
ENDBRANCH  19  21
BRANCH  19  34
ATOM     34  B   BLE d   1      14.854  30.877  14.112  0.00  0.00     0.515 B 
BRANCH  34  35
ATOM     35  O1  BLE d   1      14.869  30.380  12.703  0.00  0.00    -0.436 OA
ATOM     36  H31 BLE d   1      15.418  30.947  12.174  0.00  0.00     0.184 HD
ENDBRANCH  34  35
BRANCH  34  37
ATOM     37  O2  BLE d   1      14.008  30.025  14.989  0.00  0.00    -0.436 OA
ATOM     38  H32 BLE d   1      14.023  30.370  15.874  0.00  0.00     0.184 HD
ENDBRANCH  34  37
ENDBRANCH  19  34
ENDBRANCH  17  19
ENDBRANCH   4  15
BRANCH   1  39
ATOM     39  CA  ALA d   1      12.680  37.271  17.889  0.00  0.00     0.086 C 
ATOM     40  H9  ALA d   1      12.352  37.238  18.939  0.00  0.00     0.086 H 
BRANCH  39  41
ATOM     41  N   ALA d   1      13.470  38.516  17.651  0.00  0.00    -0.346 N 
ATOM     42  C   ALA d   1      13.404  39.480  18.566  0.00  0.00     0.248 C 
ATOM     43  O   ALA d   1      12.724  39.353  19.615  0.00  0.00    -0.271 OA
ATOM     44  H8  ALA d   1      14.031  38.622  16.830  0.00  0.00     0.163 HD
BRANCH  42  45
ATOM     45  CA  ALA d   1      14.331  40.640  18.205  0.00  0.00     0.172 C 
ATOM     46  H4  ALA d   1      14.586  40.530  17.141  0.00  0.00     0.098 H 
BRANCH  45  47
ATOM     47  N   ALA d   1      14.027  42.065  18.370  0.00  0.00    -0.067 N 
ATOM     48  H1  ALA d   1      14.811  42.614  18.054  0.00  0.00     0.275 HD
ATOM     49  H2  ALA d   1      13.851  42.261  19.343  0.00  0.00     0.275 HD
ATOM     50  H3  ALA d   1      13.211  42.300  17.827  0.00  0.00     0.275 HD
ENDBRANCH  45  47
BRANCH  45  51
ATOM     51  CB  ALA d   1      15.533  40.229  19.091  0.00  0.00    -0.042 C 
ATOM     52  H5  ALA d   1      15.742  39.158  18.951  0.00  0.00     0.030 H 
ATOM     53  H6  ALA d   1      15.293  40.421  20.147  0.00  0.00     0.030 H 
ATOM     54  H7  ALA d   1      16.418  40.816  18.804  0.00  0.00     0.030 H 
ENDBRANCH  45  51
ENDBRANCH  42  45
ENDBRANCH  39  41
BRANCH  39  55
ATOM     55  CB  ALA d   1      11.466  37.160  16.995  0.00  0.00    -0.049 C 
ATOM     56  H10 ALA d   1      10.930  36.226  17.219  0.00  0.00     0.030 H 
ATOM     57  H11 ALA d   1      11.785  37.156  15.942  0.00  0.00     0.030 H 
ATOM     58  H12 ALA d   1      10.800  38.017  17.173  0.00  0.00     0.030 H 
ENDBRANCH  39  55
ENDBRANCH   1  39
TORSDOF 15
