REMARK  7 active torsions:
REMARK  status: ('A' for Active; 'I' for Inactive)
REMARK    1  A    between atoms: C5_7  and  O11_9 
REMARK    2  A    between atoms: O11_9  and  C12_10 
REMARK    3  A    between atoms: C15_13  and  S22_16 
REMARK    4  A    between atoms: S22_16  and  C25_19 
REMARK    5  A    between atoms: C25_19  and  C26_20 
REMARK    6  A    between atoms: C26_20  and  C40_26 
REMARK       I    between atoms: C40_26  and  N41_27 
REMARK    7  A    between atoms: N41_27  and  O43_29 
ROOT
ATOM      1  S22 RS1 d   1      -5.519  28.413  57.215  0.00  0.00     0.176 S 
ATOM      2  O23 RS1 d   1      -5.582  27.507  58.339  0.00  0.00    -0.223 OA
ATOM      3  O24 RS1 d   1      -6.298  29.601  57.362  0.00  0.00    -0.223 OA
ENDROOT
BRANCH   1   4
ATOM      4  C15 RS1 d   1      -6.196  27.703  55.731  0.00  0.00     0.059 A 
ATOM      5  C14 RS1 d   1      -6.271  26.322  55.600  0.00  0.00    -0.059 A 
ATOM      6  C13 RS1 d   1      -6.869  25.801  54.483  0.00  0.00    -0.049 A 
ATOM      7  H6  RS1 d   1      -5.865  25.671  56.365  0.00  0.00     0.085 H 
ATOM      8  C12 RS1 d   1      -7.343  26.634  53.481  0.00  0.00     0.076 A 
ATOM      9  H5  RS1 d   1      -6.973  24.727  54.382  0.00  0.00     0.087 H 
ATOM     10  C17 RS1 d   1      -7.209  28.022  53.577  0.00  0.00    -0.049 A 
ATOM     11  C16 RS1 d   1      -6.634  28.547  54.714  0.00  0.00    -0.059 A 
ATOM     12  H8  RS1 d   1      -7.549  28.669  52.777  0.00  0.00     0.087 H 
ATOM     13  H7  RS1 d   1      -6.522  29.620  54.817  0.00  0.00     0.085 H 
BRANCH   8  14
ATOM     14  O11 RS1 d   1      -7.949  25.967  52.469  0.00  0.00    -0.311 OA
BRANCH  14  15
ATOM     15  C5  RS1 d   1      -8.174  26.588  51.256  0.00  0.00     0.076 A 
ATOM     16  C4  RS1 d   1      -9.449  26.389  50.785  0.00  0.00    -0.049 A 
ATOM     17  C3  RS1 d   1      -9.796  26.898  49.552  0.00  0.00    -0.059 A 
ATOM     18  H3  RS1 d   1     -10.173  25.839  51.375  0.00  0.00     0.087 H 
ATOM     19  C2  RS1 d   1      -8.840  27.621  48.843  0.00  0.00     0.034 A 
ATOM     20  H2  RS1 d   1     -10.788  26.739  49.145  0.00  0.00     0.086 H 
ATOM     21  C1  RS1 d   1      -7.567  27.852  49.302  0.00  0.00    -0.059 A 
ATOM     22 CL2  RS1 d   1      -9.306  28.205  47.300  0.00  0.00    -0.084 Cl
ATOM     23  C6  RS1 d   1      -7.220  27.325  50.521  0.00  0.00    -0.049 A 
ATOM     24  H1  RS1 d   1      -6.859  28.432  48.721  0.00  0.00     0.086 H 
ATOM     25  H4  RS1 d   1      -6.222  27.473  50.916  0.00  0.00     0.087 H 
ENDBRANCH  14  15
ENDBRANCH   8  14
ENDBRANCH   1   4
BRANCH   1  26
ATOM     26  C25 RS1 d   1      -3.878  28.941  56.798  0.00  0.00     0.049 C 
ATOM     27  H9  RS1 d   1      -3.686  29.865  57.363  0.00  0.00     0.058 H 
ATOM     28  H10 RS1 d   1      -3.877  29.164  55.721  0.00  0.00     0.058 H 
BRANCH  26  29
ATOM     29  C26 RS1 d   1      -2.676  27.989  57.064  0.00  0.00     0.060 C 
ATOM     30  C33 RS1 d   1      -1.399  28.855  56.874  0.00  0.00    -0.029 C 
ATOM     31  C32 RS1 d   1      -0.138  28.130  57.360  0.00  0.00     0.021 C 
ATOM     32  H17 RS1 d   1      -1.514  29.788  57.444  0.00  0.00     0.038 H 
ATOM     33  H18 RS1 d   1      -1.284  29.090  55.806  0.00  0.00     0.038 H 
ATOM     34  O31 RS1 d   1      -0.312  27.803  58.734  0.00  0.00    -0.391 OA
ATOM     35  H15 RS1 d   1       0.011  27.211  56.775  0.00  0.00     0.074 H 
ATOM     36  H16 RS1 d   1       0.737  28.786  57.242  0.00  0.00     0.074 H 
ATOM     37  C30 RS1 d   1      -1.345  26.828  58.961  0.00  0.00     0.021 C 
ATOM     38  C29 RS1 d   1      -2.685  27.413  58.520  0.00  0.00    -0.029 C 
ATOM     39  H13 RS1 d   1      -1.129  25.920  58.379  0.00  0.00     0.074 H 
ATOM     40  H14 RS1 d   1      -1.386  26.577  60.031  0.00  0.00     0.074 H 
ATOM     41  H11 RS1 d   1      -3.444  26.619  58.574  0.00  0.00     0.038 H 
ATOM     42  H12 RS1 d   1      -2.953  28.225  59.212  0.00  0.00     0.038 H 
BRANCH  29  43
ATOM     43  C40 RS1 d   1      -2.682  26.885  55.985  0.00  0.00     0.250 C 
ATOM     44  O42 RS1 d   1      -2.594  27.155  54.778  0.00  0.00    -0.271 OA
ATOM     45  N41 RS1 d   1      -2.738  25.574  56.257  0.00  0.00    -0.237 N 
ATOM     46  H19 RS1 d   1      -2.907  25.202  57.170  0.00  0.00     0.197 HD
BRANCH  45  47
ATOM     47  O43 RS1 d   1      -2.531  24.771  55.103  0.00  0.00    -0.287 OA
ATOM     48  H20 RS1 d   1      -3.201  24.966  54.459  0.00  0.00     0.244 HD
ENDBRANCH  45  47
ENDBRANCH  29  43
ENDBRANCH  26  29
ENDBRANCH   1  26
TORSDOF 7
