REMARK  7 active torsions:
REMARK  status: ('A' for Active; 'I' for Inactive)
REMARK    1  A    between atoms: P_1  and  O5_5 
REMARK    2  A    between atoms: O5_5  and  C5_6 
REMARK    3  A    between atoms: C5_6  and  C4_7 
REMARK    4  A    between atoms: C3_9  and  O3_10 
REMARK    5  A    between atoms: C2_11  and  O2_12 
REMARK    6  A    between atoms: C1_13  and  N9_14 
REMARK    7  A    between atoms: C6_18  and  N6_19 
ROOT
ATOM      1  C4  AMP d   1      28.204  -0.874  51.651  0.00  0.00     0.089 C 
ATOM      2  O4  AMP d   1      28.529  -2.302  51.660  0.00  0.00    -0.353 OA
ATOM      3  C3  AMP d   1      27.783  -0.640  53.062  0.00  0.00     0.091 C 
ATOM      4  C2  AMP d   1      27.057  -1.997  53.382  0.00  0.00     0.105 C 
ATOM      5  C1  AMP d   1      28.057  -2.971  52.839  0.00  0.00     0.139 C 
ATOM      6  H3  AMP d   1      27.361  -0.641  50.984  0.00  0.00     0.090 H 
ATOM      7  H4  AMP d   1      28.636  -0.449  53.730  0.00  0.00     0.091 H 
ATOM      8  H6  AMP d   1      26.858  -2.104  54.459  0.00  0.00     0.093 H 
ATOM      9  H8  AMP d   1      27.577  -3.933  52.604  0.00  0.00     0.122 H 
ENDROOT
BRANCH   5  10
ATOM     10  N9  AMP d   1      29.220  -3.197  53.727  0.00  0.00    -0.294 N 
ATOM     11  C8  AMP d   1      30.364  -2.405  53.876  0.00  0.00     0.071 A 
ATOM     12  N7  AMP d   1      31.224  -2.741  54.785  0.00  0.00    -0.236 NA
ATOM     13  H9  AMP d   1      30.527  -1.532  53.246  0.00  0.00     0.144 H 
ATOM     14  C5  AMP d   1      30.586  -3.878  55.294  0.00  0.00     0.149 A 
ATOM     15  C6  AMP d   1      30.985  -4.711  56.342  0.00  0.00     0.155 A 
ATOM     16  C4  AMP d   1      29.357  -4.140  54.699  0.00  0.00     0.167 A 
ATOM     17  N1  AMP d   1      30.156  -5.733  56.690  0.00  0.00    -0.222 NA
ATOM     18  C2  AMP d   1      29.036  -5.913  55.961  0.00  0.00     0.091 A 
ATOM     19  N3  AMP d   1      28.521  -5.167  54.970  0.00  0.00    -0.222 NA
ATOM     20  H12 AMP d   1      28.462  -6.797  56.214  0.00  0.00     0.146 H 
BRANCH  15  21
ATOM     21  N6  AMP d   1      32.145  -4.390  56.979  0.00  0.00    -0.382 N 
ATOM     22  H10 AMP d   1      32.483  -4.973  57.758  0.00  0.00     0.157 HD
ATOM     23  H11 AMP d   1      32.685  -3.565  56.681  0.00  0.00     0.157 HD
ENDBRANCH  15  21
ENDBRANCH   5  10
BRANCH   4  24
ATOM     24  O2  AMP d   1      25.884  -2.277  52.614  0.00  0.00    -0.388 OA
ATOM     25  H7  AMP d   1      26.111  -2.310  51.692  0.00  0.00     0.210 HD
ENDBRANCH   4  24
BRANCH   1  26
ATOM     26  C5  AMP d   1      29.522  -0.175  51.070  0.00  0.00     0.059 C 
ATOM     27  H1  AMP d   1      30.311  -0.940  51.018  0.00  0.00     0.079 H 
ATOM     28  H2  AMP d   1      29.291   0.183  50.056  0.00  0.00     0.079 H 
BRANCH  26  29
ATOM     29  O5  AMP d   1      30.049   0.956  51.831  0.00  0.00    -0.280 OA
BRANCH  29  30
ATOM     30  P   AMP d   1      31.112   1.973  51.210  0.00  0.00     0.422 P 
ATOM     31  O1P AMP d   1      32.375   1.258  51.242  0.00  0.00    -0.617 OA
ATOM     32  O2P AMP d   1      30.682   2.447  49.847  0.00  0.00    -0.617 OA
ATOM     33  O3P AMP d   1      31.133   3.142  52.156  0.00  0.00    -0.617 OA
ENDBRANCH  29  30
ENDBRANCH  26  29
ENDBRANCH   1  26
BRANCH   3  34
ATOM     34  O3  AMP d   1      26.832   0.446  53.121  0.00  0.00    -0.390 OA
ATOM     35  H5  AMP d   1      26.069   0.226  52.599  0.00  0.00     0.210 HD
ENDBRANCH   3  34
TORSDOF 7
