REMARK WARNING: 32 MAX_TORS EXCEEDED!!!
REMARK  42 active torsions:
REMARK  status: ('A' for Active; 'I' for Inactive)
REMARK    1  A    between atoms: CA_2  and  N_1 
REMARK    2  A    between atoms: CA_2  and  CB_5 
REMARK    3  A    between atoms: C_3  and  CA_2 
REMARK       I    between atoms: N_8  and  C_3 
REMARK    4  A    between atoms: CB_5  and  CG2_7 
REMARK    5  A    between atoms: CB_5  and  CG1_6 
REMARK    6  A    between atoms: CA_9  and  N_8 
REMARK    7  A    between atoms: CA_9  and  CB_12 
REMARK    8  A    between atoms: C_10  and  CA_9 
REMARK       I    between atoms: N_14  and  C_10 
REMARK    9  A    between atoms: CB_12  and  OG_13 
REMARK   10  A    between atoms: CA_15  and  N_14 
REMARK   11  A    between atoms: CA_15  and  CB_18 
REMARK   12  A    between atoms: C_16  and  CA_15 
REMARK       I    between atoms: N_23  and  C_16 
REMARK   13  A    between atoms: CB_18  and  CG_19 
REMARK   14  A    between atoms: CG_19  and  CD_20 
REMARK       I    between atoms: CD_20  and  NE2_22 
REMARK   15  A    between atoms: CA_24  and  N_23 
REMARK   16  A    between atoms: CA_24  and  CB_27 
REMARK   17  A    between atoms: C_25  and  CA_24 
REMARK       I    between atoms: N_37  and  C_25 
REMARK   18  A    between atoms: CB_27  and  CG_28 
REMARK       I    between atoms: CG_28  and  ND2_30 
REMARK   19  A    between atoms: C1G_33  and  CD1_31 
REMARK   20  A    between atoms: C1G_33  and  CD2_32 
REMARK   21  A    between atoms: C1B_34  and  C1G_33 
REMARK   22  A    between atoms: C1A_35  and  C1B_34 
REMARK   23  A    between atoms: CS_36  and  C1A_35 
REMARK   24  A    between atoms: C1A_35  and  N_37 
REMARK   25  A    between atoms: CS_36  and  OS_38 
REMARK   26  A    between atoms: CT_39  and  CS_36 
REMARK   27  A    between atoms: CA_40  and  CT_39 
REMARK   28  A    between atoms: CA_40  and  CB_41 
REMARK   29  A    between atoms: C_44  and  CA_40 
REMARK   30  A    between atoms: CB_41  and  CG1_42 
REMARK   31  A    between atoms: CB_41  and  CG2_43 
REMARK       I    between atoms: C_44  and  N_46 
REMARK   32  A    between atoms: N_46  and  CA_47 
REMARK   33  A    between atoms: CA_47  and  CB_50 
REMARK   34  A    between atoms: CA_47  and  C_48 
REMARK       I    between atoms: C_48  and  N_54 
REMARK   35  A    between atoms: CB_50  and  CG2_52 
REMARK   36  A    between atoms: CB_50  and  CG1_51 
REMARK   37  A    between atoms: CG1_51  and  CD1_53 
REMARK   38  A    between atoms: N_54  and  CA_55 
REMARK   39  A    between atoms: CA_55  and  CB_58 
REMARK   40  A    between atoms: CA_55  and  C_56 
REMARK   41  A    between atoms: CB_58  and  CG2_60 
REMARK   42  A    between atoms: CB_58  and  CG1_59 
ROOT
ATOM      1  C1A LOV d   1       5.904  -0.101  13.814  0.00  0.00     0.037 C 
ATOM      2  H40 LOV d   1       6.108  -0.976  13.180  0.00  0.00     0.076 H 
ENDROOT
BRANCH   1   3
ATOM      3  C1B LOV d   1       7.163   0.772  13.787  0.00  0.00    -0.041 C 
ATOM      4  H38 LOV d   1       6.880   1.790  14.093  0.00  0.00     0.036 H 
ATOM      5  H39 LOV d   1       7.881   0.358  14.510  0.00  0.00     0.036 H 
BRANCH   3   6
ATOM      6  C1G LOV d   1       7.861   0.862  12.418  0.00  0.00    -0.059 C 
ATOM      7  H37 LOV d   1       8.229  -0.134  12.131  0.00  0.00     0.038 H 
BRANCH   6   8
ATOM      8  CD1 LOV d   1       6.990   1.440  11.323  0.00  0.00    -0.073 C 
ATOM      9  H31 LOV d   1       7.557   1.471  10.381  0.00  0.00     0.028 H 
ATOM     10  H32 LOV d   1       6.682   2.459  11.599  0.00  0.00     0.028 H 
ATOM     11  H33 LOV d   1       6.098   0.810  11.193  0.00  0.00     0.028 H 
ENDBRANCH   6   8
BRANCH   6  12
ATOM     12  CD2 LOV d   1       9.002   1.876  12.515  0.00  0.00    -0.073 C 
ATOM     13  H34 LOV d   1       9.711   1.556  13.293  0.00  0.00     0.028 H 
ATOM     14  H35 LOV d   1       8.594   2.864  12.775  0.00  0.00     0.028 H 
ATOM     15  H36 LOV d   1       9.522   1.937  11.547  0.00  0.00     0.028 H 
ENDBRANCH   6  12
ENDBRANCH   3   6
ENDBRANCH   1   3
BRANCH   1  16
ATOM     16  CS  LOV d   1       5.465  -0.675  15.137  0.00  0.00     0.056 C 
ATOM     17  H41 LOV d   1       6.318  -1.307  15.425  0.00  0.00     0.086 H 
BRANCH  16  18
ATOM     18  OS  LOV d   1       5.369   0.252  16.190  0.00  0.00    -0.393 OA
ATOM     19  H43 LOV d   1       6.218   0.652  16.337  0.00  0.00     0.210 HD
ENDBRANCH  16  18
BRANCH  16  20
ATOM     20  CT  LOV d   1       4.310  -1.642  15.109  0.00  0.00    -0.028 C 
ATOM     21  H44 LOV d   1       4.127  -1.939  14.066  0.00  0.00     0.038 H 
ATOM     22  H45 LOV d   1       3.419  -1.135  15.508  0.00  0.00     0.038 H 
BRANCH  20  23
ATOM     23  CA  LOV d   1       4.567  -2.908  15.940  0.00  0.00     0.029 C 
ATOM     24  H46 LOV d   1       4.714  -2.591  16.983  0.00  0.00     0.055 H 
BRANCH  23  25
ATOM     25  CB  LOV d   1       3.269  -3.761  15.889  0.00  0.00    -0.049 C 
ATOM     26  H47 LOV d   1       2.756  -3.499  14.952  0.00  0.00     0.040 H 
BRANCH  25  27
ATOM     27  CG1 LOV d   1       3.478  -5.277  15.902  0.00  0.00    -0.072 C 
ATOM     28  H48 LOV d   1       2.502  -5.782  15.863  0.00  0.00     0.028 H 
ATOM     29  H49 LOV d   1       4.004  -5.567  16.823  0.00  0.00     0.028 H 
ATOM     30  H50 LOV d   1       4.078  -5.572  15.029  0.00  0.00     0.028 H 
ENDBRANCH  25  27
BRANCH  25  31
ATOM     31  CG2 LOV d   1       2.342  -3.457  17.047  0.00  0.00    -0.072 C 
ATOM     32  H51 LOV d   1       2.152  -2.374  17.090  0.00  0.00     0.028 H 
ATOM     33  H52 LOV d   1       2.809  -3.785  17.987  0.00  0.00     0.028 H 
ATOM     34  H53 LOV d   1       1.391  -3.990  16.905  0.00  0.00     0.028 H 
ENDBRANCH  25  31
ENDBRANCH  23  25
BRANCH  23  35
ATOM     35  C   LOV d   1       5.830  -3.684  15.551  0.00  0.00     0.223 C 
ATOM     36  O   LOV d   1       6.281  -3.728  14.374  0.00  0.00    -0.273 OA
ATOM     37  N   ILE d   1       6.427  -4.343  16.512  0.00  0.00    -0.347 N 
ATOM     38  H54 ILE d   1       6.104  -4.224  17.451  0.00  0.00     0.163 HD
BRANCH  37  39
ATOM     39  CA  ILE d   1       7.551  -5.249  16.261  0.00  0.00     0.092 C 
ATOM     40  H55 ILE d   1       7.445  -5.591  15.221  0.00  0.00     0.088 H 
BRANCH  39  41
ATOM     41  CB  ILE d   1       9.010  -4.748  16.351  0.00  0.00    -0.030 C 
ATOM     42  H56 ILE d   1       9.050  -3.707  15.997  0.00  0.00     0.043 H 
BRANCH  41  43
ATOM     43  CG2 ILE d   1       9.628  -4.887  17.793  0.00  0.00    -0.071 C 
ATOM     44  H59 ILE d   1       9.037  -4.291  18.504  0.00  0.00     0.028 H 
ATOM     45  H60 ILE d   1      10.666  -4.523  17.784  0.00  0.00     0.028 H 
ATOM     46  H61 ILE d   1       9.613  -5.944  18.098  0.00  0.00     0.028 H 
ENDBRANCH  41  43
BRANCH  41  47
ATOM     47  CG1 ILE d   1      10.003  -5.658  15.565  0.00  0.00    -0.063 C 
ATOM     48  H57 ILE d   1      10.624  -6.196  16.297  0.00  0.00     0.033 H 
ATOM     49  H58 ILE d   1      10.642  -5.010  14.947  0.00  0.00     0.033 H 
BRANCH  47  50
ATOM     50  CD1 ILE d   1       9.341  -6.707  14.634  0.00  0.00    -0.076 C 
ATOM     51  H62 ILE d   1      10.122  -7.294  14.129  0.00  0.00     0.027 H 
ATOM     52  H63 ILE d   1       8.725  -6.193  13.882  0.00  0.00     0.027 H 
ATOM     53  H64 ILE d   1       8.706  -7.378  15.231  0.00  0.00     0.027 H 
ENDBRANCH  47  50
ENDBRANCH  41  47
ENDBRANCH  39  41
BRANCH  39  54
ATOM     54  C   ILE d   1       7.249  -6.445  17.181  0.00  0.00     0.241 C 
ATOM     55  O   ILE d   1       7.022  -6.186  18.373  0.00  0.00    -0.271 OA
ATOM     56  N   VAL d   1       7.164  -7.651  16.671  0.00  0.00    -0.344 N 
ATOM     57  H65 VAL d   1       7.249  -7.819  15.689  0.00  0.00     0.163 HD
BRANCH  56  58
ATOM     58  CA  VAL d   1       6.932  -8.756  17.647  0.00  0.00     0.099 C 
ATOM     59  H66 VAL d   1       7.133  -8.347  18.648  0.00  0.00     0.090 H 
BRANCH  58  60
ATOM     60  CB  VAL d   1       5.477  -9.194  17.710  0.00  0.00    -0.032 C 
ATOM     61  H67 VAL d   1       5.495 -10.121  18.301  0.00  0.00     0.042 H 
BRANCH  60  62
ATOM     62  CG2 VAL d   1       4.801  -9.569  16.397  0.00  0.00    -0.071 C 
ATOM     63  H71 VAL d   1       5.442 -10.270  15.842  0.00  0.00     0.028 H 
ATOM     64  H72 VAL d   1       4.641  -8.662  15.795  0.00  0.00     0.028 H 
ATOM     65  H73 VAL d   1       3.832 -10.046  16.607  0.00  0.00     0.028 H 
ENDBRANCH  60  62
BRANCH  60  66
ATOM     66  CG1 VAL d   1       4.575  -8.212  18.485  0.00  0.00    -0.071 C 
ATOM     67  H68 VAL d   1       3.542  -8.590  18.491  0.00  0.00     0.028 H 
ATOM     68  H69 VAL d   1       4.602  -7.226  17.998  0.00  0.00     0.028 H 
ATOM     69  H70 VAL d   1       4.937  -8.120  19.520  0.00  0.00     0.028 H 
ENDBRANCH  60  66
ENDBRANCH  58  60
BRANCH  58  70
ATOM     70  C   VAL d   1       8.045  -9.788  17.397  0.00  0.00     0.197 C 
ATOM     71  O   VAL d   1       8.550  -9.863  16.247  0.00  0.00    -0.646 OA
ATOM     72  OXT VAL d   1       8.299 -10.540  18.365  0.00  0.00    -0.646 OA
ENDBRANCH  58  70
ENDBRANCH  56  58
ENDBRANCH  39  54
ENDBRANCH  37  39
ENDBRANCH  23  35
ENDBRANCH  20  23
ENDBRANCH  16  20
ENDBRANCH   1  16
BRANCH   1  73
ATOM     73  N   LOV d   1       4.881   0.722  13.126  0.00  0.00    -0.352 N 
ATOM     74  C   ASN d   1       4.079   0.279  12.181  0.00  0.00     0.241 C 
ATOM     75  O   ASN d   1       3.939  -0.926  11.913  0.00  0.00    -0.271 OA
ATOM     76  H42 LOV d   1       4.794   1.680  13.399  0.00  0.00     0.163 HD
BRANCH  74  77
ATOM     77  CA  ASN d   1       3.154   1.352  11.620  0.00  0.00     0.097 C 
ATOM     78  H26 ASN d   1       3.093   2.160  12.364  0.00  0.00     0.088 H 
BRANCH  77  79
ATOM     79  N   ASN d   1       3.464   1.991  10.356  0.00  0.00    -0.346 N 
ATOM     80  C   GLN d   1       3.378   3.262   9.996  0.00  0.00     0.241 C 
ATOM     81  O   GLN d   1       3.068   4.175  10.740  0.00  0.00    -0.271 OA
ATOM     82  H25 ASN d   1       3.796   1.373   9.643  0.00  0.00     0.163 HD
BRANCH  80  83
ATOM     83  CA  GLN d   1       3.735   3.601   8.529  0.00  0.00     0.090 C 
ATOM     84  H18 GLN d   1       3.461   2.728   7.918  0.00  0.00     0.087 H 
BRANCH  83  85
ATOM     85  N   GLN d   1       2.962   4.735   7.985  0.00  0.00    -0.346 N 
ATOM     86  C   SER d   1       1.996   4.575   7.075  0.00  0.00     0.243 C 
ATOM     87  O   SER d   1       1.709   3.452   6.587  0.00  0.00    -0.271 OA
ATOM     88  H17 GLN d   1       3.169   5.658   8.310  0.00  0.00     0.163 HD
BRANCH  86  89
ATOM     89  CA  SER d   1       1.138   5.731   6.519  0.00  0.00     0.109 C 
ATOM     90  H13 SER d   1       1.516   6.684   6.917  0.00  0.00     0.090 H 
BRANCH  89  91
ATOM     91  N   SER d   1       1.230   5.717   5.055  0.00  0.00    -0.344 N 
ATOM     92  C   VAL d   1       1.924   6.584   4.348  0.00  0.00     0.249 C 
ATOM     93  O   VAL d   1       2.567   7.494   4.904  0.00  0.00    -0.271 OA
ATOM     94  H12 SER d   1       0.733   5.003   4.562  0.00  0.00     0.163 HD
BRANCH  92  95
ATOM     95  CA  VAL d   1       1.982   6.316   2.835  0.00  0.00     0.178 C 
ATOM     96  H4  VAL d   1       2.979   5.880   2.676  0.00  0.00     0.099 H 
BRANCH  95  97
ATOM     97  N   VAL d   1       1.002   5.256   2.453  0.00  0.00    -0.066 N 
ATOM     98  H1  VAL d   1       1.053   5.093   1.460  0.00  0.00     0.275 HD
ATOM     99  H2  VAL d   1       0.071   5.556   2.697  0.00  0.00     0.275 HD
ATOM    100  H3  VAL d   1       1.220   4.404   2.945  0.00  0.00     0.275 HD
ENDBRANCH  95  97
BRANCH  95 101
ATOM    101  CB  VAL d   1       1.922   7.494   1.842  0.00  0.00    -0.025 C 
ATOM    102  H5  VAL d   1       1.637   7.032   0.885  0.00  0.00     0.042 H 
BRANCH 101 103
ATOM    103  CG2 VAL d   1       3.267   8.164   1.591  0.00  0.00    -0.071 C 
ATOM    104  H9  VAL d   1       4.030   7.395   1.399  0.00  0.00     0.028 H 
ATOM    105  H10 VAL d   1       3.554   8.753   2.475  0.00  0.00     0.028 H 
ATOM    106  H11 VAL d   1       3.188   8.828   0.718  0.00  0.00     0.028 H 
ENDBRANCH 101 103
BRANCH 101 107
ATOM    107  CG1 VAL d   1       0.853   8.555   2.110  0.00  0.00    -0.071 C 
ATOM    108  H6  VAL d   1       0.911   9.337   1.339  0.00  0.00     0.028 H 
ATOM    109  H7  VAL d   1       1.022   9.004   3.100  0.00  0.00     0.028 H 
ATOM    110  H8  VAL d   1      -0.142   8.088   2.084  0.00  0.00     0.028 H 
ENDBRANCH 101 107
ENDBRANCH  95 101
ENDBRANCH  92  95
ENDBRANCH  89  91
BRANCH  89 111
ATOM    111  CB  SER d   1      -0.342   5.585   6.864  0.00  0.00     0.044 C 
ATOM    112  H14 SER d   1      -0.898   5.238   5.981  0.00  0.00     0.077 H 
ATOM    113  H15 SER d   1      -0.745   6.554   7.193  0.00  0.00     0.077 H 
BRANCH 111 114
ATOM    114  OG  SER d   1      -0.461   4.626   7.920  0.00  0.00    -0.398 OA
ATOM    115  H16 SER d   1      -1.377   4.521   8.149  0.00  0.00     0.209 HD
ENDBRANCH 111 114
ENDBRANCH  89 111
ENDBRANCH  86  89
ENDBRANCH  83  85
BRANCH  83 116
ATOM    116  CB  GLN d   1       5.258   3.756   8.428  0.00  0.00    -0.030 C 
ATOM    117  H19 GLN d   1       5.523   4.037   7.398  0.00  0.00     0.037 H 
ATOM    118  H20 GLN d   1       5.734   2.797   8.680  0.00  0.00     0.037 H 
BRANCH 116 119
ATOM    119  CG  GLN d   1       5.755   4.804   9.360  0.00  0.00     0.011 C 
ATOM    120  H21 GLN d   1       5.080   4.790  10.228  0.00  0.00     0.047 H 
ATOM    121  H22 GLN d   1       5.652   5.762   8.830  0.00  0.00     0.047 H 
BRANCH 119 122
ATOM    122  CD  GLN d   1       7.152   4.776   9.912  0.00  0.00     0.215 C 
ATOM    123  NE2 GLN d   1       7.906   3.701   9.651  0.00  0.00    -0.370 N 
ATOM    124  H23 GLN d   1       8.841   3.649  10.003  0.00  0.00     0.159 HD
ATOM    125  H24 GLN d   1       7.535   2.950   9.104  0.00  0.00     0.159 HD
ATOM    126  OE1 GLN d   1       7.500   5.754  10.608  0.00  0.00    -0.274 OA
ENDBRANCH 119 122
ENDBRANCH 116 119
ENDBRANCH  83 116
ENDBRANCH  80  83
ENDBRANCH  77  79
BRANCH  77 127
ATOM    127  CB  ASN d   1       1.783   0.611  11.539  0.00  0.00     0.036 C 
ATOM    128  H27 ASN d   1       1.540   0.129  12.498  0.00  0.00     0.051 H 
ATOM    129  H28 ASN d   1       1.792  -0.146  10.741  0.00  0.00     0.051 H 
BRANCH 127 130
ATOM    130  CG  ASN d   1       0.795   1.717  11.224  0.00  0.00     0.217 C 
ATOM    131  ND2 ASN d   1       0.596   2.492  12.300  0.00  0.00    -0.370 N 
ATOM    132  H29 ASN d   1      -0.033   3.268  12.248  0.00  0.00     0.159 HD
ATOM    133  H30 ASN d   1       1.076   2.294  13.155  0.00  0.00     0.159 HD
ATOM    134  OD1 ASN d   1       0.393   1.852  10.076  0.00  0.00    -0.274 OA
ENDBRANCH 127 130
ENDBRANCH  77 127
ENDBRANCH  74  77
ENDBRANCH   1  73
TORSDOF 42
