REMARK  13 active torsions:
REMARK  status: ('A' for Active; 'I' for Inactive)
REMARK    1  A    between atoms: N_1  and  CA_2 
REMARK    2  A    between atoms: CA_2  and  C_3 
REMARK    3  A    between atoms: CA_2  and  CB_5 
REMARK       I    between atoms: C_3  and  N_6 
REMARK    4  A    between atoms: N_6  and  CA_7 
REMARK    5  A    between atoms: CA_7  and  C_8 
REMARK    6  A    between atoms: CA_7  and  CB_10 
REMARK       I    between atoms: C_8  and  N_11 
REMARK    7  A    between atoms: CA_12  and  C_13 
REMARK       I    between atoms: C_13  and  N_18 
REMARK    8  A    between atoms: N_18  and  CA_19 
REMARK    9  A    between atoms: CA_19  and  CB_20 
REMARK   10  A    between atoms: CA_19  and  B_27 
REMARK   11  A    between atoms: CB_20  and  CG_21 
REMARK   12  A    between atoms: B_27  and  O1_28 
REMARK   13  A    between atoms: B_27  and  O2_29 
ROOT
ATOM      1  C   ALA d   1      13.532  36.085  17.602  0.00  0.00     0.243 C 
ATOM      2  O   ALA d   1      14.388  36.365  16.735  0.00  0.00    -0.271 OA
ATOM      3  N   PRO d   1      13.257  34.924  18.151  0.00  0.00    -0.337 N 
ATOM      4  CA  PRO d   1      14.038  33.718  17.794  0.00  0.00     0.091 C 
ATOM      5  CB  PRO d   1      13.542  32.648  18.799  0.00  0.00    -0.036 C 
ATOM      6  CG  PRO d   1      12.704  33.374  19.802  0.00  0.00    -0.048 C 
ATOM      7  CD  PRO d   1      12.133  34.626  19.090  0.00  0.00    -0.001 C 
ATOM      8  H13 PRO d   1      15.117  33.895  17.917  0.00  0.00     0.087 H 
ATOM      9  H14 PRO d   1      14.397  32.165  19.295  0.00  0.00     0.036 H 
ATOM     10  H15 PRO d   1      12.941  31.887  18.280  0.00  0.00     0.036 H 
ATOM     11  H16 PRO d   1      13.320  33.676  20.662  0.00  0.00     0.035 H 
ATOM     12  H17 PRO d   1      11.883  32.728  20.148  0.00  0.00     0.035 H 
ATOM     13  H18 PRO d   1      11.200  34.400  18.552  0.00  0.00     0.064 H 
ATOM     14  H19 PRO d   1      11.959  35.453  19.794  0.00  0.00     0.064 H 
ENDROOT
BRANCH   4  15
ATOM     15  C   PRO d   1      13.747  33.316  16.334  0.00  0.00     0.240 C 
ATOM     16  O   PRO d   1      12.611  33.476  15.815  0.00  0.00    -0.271 OA
ATOM     17  N   B2F d   1      14.759  32.757  15.654  0.00  0.00    -0.358 N 
ATOM     18  H20 B2F d   1      15.635  32.671  16.128  0.00  0.00     0.162 HD
BRANCH  17  19
ATOM     19  CA  B2F d   1      14.692  32.270  14.299  0.00  0.00     0.050 C 
ATOM     20  H21 B2F d   1      13.674  32.513  13.961  0.00  0.00     0.065 H 
BRANCH  19  21
ATOM     21  CB  B2F d   1      15.642  32.959  13.305  0.00  0.00    -0.025 C 
ATOM     22  H22 B2F d   1      15.537  32.428  12.347  0.00  0.00     0.042 H 
ATOM     23  H23 B2F d   1      16.662  32.817  13.692  0.00  0.00     0.042 H 
BRANCH  21  24
ATOM     24  CG  B2F d   1      15.495  34.408  13.009  0.00  0.00    -0.057 A 
ATOM     25  CD1 B2F d   1      16.425  35.023  12.173  0.00  0.00    -0.077 A 
ATOM     26  CE1 B2F d   1      16.336  36.391  11.902  0.00  0.00    -0.082 A 
ATOM     27  H24 B2F d   1      17.222  34.437  11.730  0.00  0.00     0.084 H 
ATOM     28  CZ  B2F d   1      15.297  37.147  12.442  0.00  0.00    -0.083 A 
ATOM     29  H26 B2F d   1      17.078  36.866  11.270  0.00  0.00     0.083 H 
ATOM     30  CE2 B2F d   1      14.358  36.553  13.306  0.00  0.00    -0.082 A 
ATOM     31  H28 B2F d   1      15.212  38.199  12.195  0.00  0.00     0.083 H 
ATOM     32  CD2 B2F d   1      14.485  35.182  13.596  0.00  0.00    -0.077 A 
ATOM     33  H27 B2F d   1      13.555  37.139  13.738  0.00  0.00     0.083 H 
ATOM     34  H25 B2F d   1      13.790  34.717  14.285  0.00  0.00     0.084 H 
ENDBRANCH  21  24
ENDBRANCH  19  21
BRANCH  19  35
ATOM     35  B   B2F d   1      14.835  30.712  14.161  0.00  0.00     0.515 B 
BRANCH  35  36
ATOM     36  O1  B2F d   1      14.853  30.195  12.756  0.00  0.00    -0.436 OA
ATOM     37  H29 B2F d   1      15.393  30.762  12.218  0.00  0.00     0.184 HD
ENDBRANCH  35  36
BRANCH  35  38
ATOM     38  O2  B2F d   1      14.041  29.952  15.145  0.00  0.00    -0.436 OA
ATOM     39  H30 B2F d   1      14.105  30.372  15.995  0.00  0.00     0.184 HD
ENDBRANCH  35  38
ENDBRANCH  19  35
ENDBRANCH  17  19
ENDBRANCH   4  15
BRANCH   1  40
ATOM     40  CA  ALA d   1      12.550  37.208  17.969  0.00  0.00     0.086 C 
ATOM     41  H9  ALA d   1      12.166  37.112  18.995  0.00  0.00     0.086 H 
BRANCH  40  42
ATOM     42  N   ALA d   1      13.325  38.462  17.796  0.00  0.00    -0.346 N 
ATOM     43  C   ALA d   1      13.284  39.368  18.749  0.00  0.00     0.248 C 
ATOM     44  O   ALA d   1      12.641  39.308  19.814  0.00  0.00    -0.271 OA
ATOM     45  H8  ALA d   1      13.868  38.615  16.971  0.00  0.00     0.163 HD
BRANCH  43  46
ATOM     46  CA  ALA d   1      14.188  40.577  18.525  0.00  0.00     0.172 C 
ATOM     47  H4  ALA d   1      14.548  40.599  17.486  0.00  0.00     0.098 H 
BRANCH  46  48
ATOM     48  N   ALA d   1      13.625  41.904  18.867  0.00  0.00    -0.067 N 
ATOM     49  H1  ALA d   1      14.310  42.619  18.678  0.00  0.00     0.275 HD
ATOM     50  H2  ALA d   1      13.381  41.923  19.845  0.00  0.00     0.275 HD
ATOM     51  H3  ALA d   1      12.801  42.073  18.311  0.00  0.00     0.275 HD
ENDBRANCH  46  48
BRANCH  46  52
ATOM     52  CB  ALA d   1      15.318  40.262  19.530  0.00  0.00    -0.042 C 
ATOM     53  H5  ALA d   1      15.753  39.279  19.296  0.00  0.00     0.030 H 
ATOM     54  H6  ALA d   1      14.908  40.248  20.550  0.00  0.00     0.030 H 
ATOM     55  H7  ALA d   1      16.098  41.034  19.459  0.00  0.00     0.030 H 
ENDBRANCH  46  52
ENDBRANCH  43  46
ENDBRANCH  40  42
BRANCH  40  56
ATOM     56  CB  ALA d   1      11.414  37.121  16.942  0.00  0.00    -0.049 C 
ATOM     57  H10 ALA d   1      10.856  36.185  17.091  0.00  0.00     0.030 H 
ATOM     58  H11 ALA d   1      11.836  37.139  15.926  0.00  0.00     0.030 H 
ATOM     59  H12 ALA d   1      10.736  37.977  17.072  0.00  0.00     0.030 H 
ENDBRANCH  40  56
ENDBRANCH   1  40
TORSDOF 13
