REMARK  25 active torsions:
REMARK  status: ('A' for Active; 'I' for Inactive)
REMARK    1  A    between atoms: C_1  and  O2_3 
REMARK       I    between atoms: N_11  and  C_1 
REMARK    2  A    between atoms: O2_3  and  C1'_4 
REMARK    3  A    between atoms: C1'_4  and  C1_5 
REMARK    4  A    between atoms: CA_12  and  N_11 
REMARK    5  A    between atoms: C_13  and  CA_12 
REMARK    6  A    between atoms: CA_12  and  CB_15 
REMARK       I    between atoms: N2_20  and  C_13 
REMARK    7  A    between atoms: CB_15  and  CG1_16 
REMARK    8  A    between atoms: CB_15  and  CG2_17 
REMARK    9  A    between atoms: C2_19  and  C1_18 
REMARK   10  A    between atoms: C1_18  and  C1A_26 
REMARK   11  A    between atoms: C2_19  and  N2_20 
REMARK   12  A    between atoms: C3_21  and  C2_19 
REMARK   13  A    between atoms: C3_21  and  O3_22 
REMARK   14  A    between atoms: C4_23  and  C3_21 
REMARK   15  A    between atoms: N4_24  and  C4_23 
REMARK   16  A    between atoms: C4_23  and  C5_25 
REMARK       I    between atoms: C_40  and  N4_24 
REMARK   17  A    between atoms: C5_25  and  C1B_32 
REMARK   18  A    between atoms: CA_39  and  N_38 
REMARK       I    between atoms: N_38  and  C_45 
REMARK   19  A    between atoms: CA_39  and  C_40 
REMARK   20  A    between atoms: CA_39  and  CB_42 
REMARK   21  A    between atoms: CB_42  and  CG1_43 
REMARK   22  A    between atoms: CB_42  and  CG2_44 
REMARK   23  A    between atoms: C_45  and  O2_47 
REMARK   24  A    between atoms: O2_47  and  C1'_48 
REMARK   25  A    between atoms: C1'_48  and  C1_49 
ROOT
ATOM      1  C3  0E9 d   1     -10.355  17.698  27.688  0.00  0.00     0.075 C 
ATOM      2  H21 0E9 d   1     -10.851  17.880  26.723  0.00  0.00     0.089 H 
ENDROOT
BRANCH   1   3
ATOM      3  C2  0E9 d   1     -10.988  16.530  28.401  0.00  0.00     0.043 C 
ATOM      4  H19 0E9 d   1     -10.394  15.671  28.056  0.00  0.00     0.077 H 
BRANCH   3   5
ATOM      5  C1  0E9 d   1     -12.397  16.245  27.955  0.00  0.00    -0.020 C 
ATOM      6  H17 0E9 d   1     -12.467  16.301  26.859  0.00  0.00     0.043 H 
ATOM      7  H18 0E9 d   1     -13.091  16.970  28.404  0.00  0.00     0.043 H 
BRANCH   5   8
ATOM      8  C1A 0E9 d   1     -12.730  14.826  28.435  0.00  0.00    -0.056 A 
ATOM      9  C2A 0E9 d   1     -12.145  13.740  27.794  0.00  0.00    -0.077 A 
ATOM     10  C3A 0E9 d   1     -12.295  12.483  28.330  0.00  0.00    -0.082 A 
ATOM     11  H27 0E9 d   1     -11.577  13.883  26.882  0.00  0.00     0.084 H 
ATOM     12  C4A 0E9 d   1     -13.033  12.300  29.488  0.00  0.00    -0.083 A 
ATOM     13  H28 0E9 d   1     -11.834  11.631  27.844  0.00  0.00     0.083 H 
ATOM     14  C5A 0E9 d   1     -13.628  13.379  30.108  0.00  0.00    -0.082 A 
ATOM     15  H29 0E9 d   1     -13.143  11.307  29.908  0.00  0.00     0.083 H 
ATOM     16  C6A 0E9 d   1     -13.481  14.645  29.593  0.00  0.00    -0.077 A 
ATOM     17  H30 0E9 d   1     -14.215  13.228  31.007  0.00  0.00     0.083 H 
ATOM     18  H31 0E9 d   1     -13.945  15.493  30.083  0.00  0.00     0.084 H 
ENDBRANCH   5   8
ENDBRANCH   3   5
BRANCH   3  19
ATOM     19  N2  0E9 d   1     -10.920  16.447  29.878  0.00  0.00    -0.352 N 
ATOM     20  C   0E9 d   1     -10.159  15.551  30.515  0.00  0.00     0.241 C 
ATOM     21  O   0E9 d   1      -9.467  14.684  29.968  0.00  0.00    -0.271 OA
ATOM     22  H20 0E9 d   1     -11.465  17.086  30.421  0.00  0.00     0.163 HD
BRANCH  20  23
ATOM     23  CA  0E9 d   1     -10.225  15.690  32.020  0.00  0.00     0.094 C 
ATOM     24  H9  0E9 d   1     -10.747  16.617  32.300  0.00  0.00     0.088 H 
BRANCH  23  25
ATOM     25  N   0E9 d   1     -10.976  14.541  32.506  0.00  0.00    -0.323 N 
ATOM     26  C   0E9 d   1     -12.083  14.594  33.261  0.00  0.00     0.361 C 
ATOM     27  O1  0E9 d   1     -12.600  15.649  33.662  0.00  0.00    -0.238 OA
ATOM     28  H8  0E9 d   1     -10.637  13.634  32.255  0.00  0.00     0.165 HD
BRANCH  26  29
ATOM     29  O2  0E9 d   1     -12.601  13.312  33.668  0.00  0.00    -0.299 OA
BRANCH  29  30
ATOM     30  C1' 0E9 d   1     -13.299  13.009  34.848  0.00  0.00     0.054 C 
ATOM     31  H1  0E9 d   1     -14.296  12.675  34.525  0.00  0.00     0.082 H 
ATOM     32  H2  0E9 d   1     -13.389  13.961  35.391  0.00  0.00     0.082 H 
BRANCH  30  33
ATOM     33  C1  0E9 d   1     -12.826  11.956  35.916  0.00  0.00    -0.034 A 
ATOM     34  C2  0E9 d   1     -12.548  10.611  35.557  0.00  0.00    -0.075 A 
ATOM     35  C3  0E9 d   1     -12.215   9.655  36.514  0.00  0.00    -0.082 A 
ATOM     36  H3  0E9 d   1     -12.596  10.321  34.514  0.00  0.00     0.084 H 
ATOM     37  C4  0E9 d   1     -12.138  10.020  37.837  0.00  0.00    -0.083 A 
ATOM     38  H4  0E9 d   1     -12.018   8.631  36.218  0.00  0.00     0.083 H 
ATOM     39  C5  0E9 d   1     -12.395  11.324  38.205  0.00  0.00    -0.082 A 
ATOM     40  H5  0E9 d   1     -11.876   9.285  38.589  0.00  0.00     0.083 H 
ATOM     41  C6  0E9 d   1     -12.736  12.301  37.276  0.00  0.00    -0.075 A 
ATOM     42  H6  0E9 d   1     -12.329  11.596  39.252  0.00  0.00     0.083 H 
ATOM     43  H7  0E9 d   1     -12.930  13.318  37.597  0.00  0.00     0.084 H 
ENDBRANCH  30  33
ENDBRANCH  29  30
ENDBRANCH  26  29
ENDBRANCH  23  25
BRANCH  23  44
ATOM     44  CB  0E9 d   1      -8.749  15.738  32.572  0.00  0.00    -0.033 C 
ATOM     45  H10 0E9 d   1      -8.199  14.888  32.142  0.00  0.00     0.042 H 
BRANCH  44  46
ATOM     46  CG1 0E9 d   1      -8.076  17.032  32.146  0.00  0.00    -0.071 C 
ATOM     47  H11 0E9 d   1      -7.048  17.056  32.536  0.00  0.00     0.028 H 
ATOM     48  H12 0E9 d   1      -8.640  17.888  32.546  0.00  0.00     0.028 H 
ATOM     49  H13 0E9 d   1      -8.053  17.089  31.048  0.00  0.00     0.028 H 
ENDBRANCH  44  46
BRANCH  44  50
ATOM     50  CG2 0E9 d   1      -8.665  15.646  34.076  0.00  0.00    -0.071 C 
ATOM     51  H14 0E9 d   1      -9.146  14.716  34.414  0.00  0.00     0.028 H 
ATOM     52  H15 0E9 d   1      -9.179  16.509  34.525  0.00  0.00     0.028 H 
ATOM     53  H16 0E9 d   1      -7.609  15.646  34.385  0.00  0.00     0.028 H 
ENDBRANCH  44  50
ENDBRANCH  23  44
ENDBRANCH  20  23
ENDBRANCH   3  19
ENDBRANCH   1   3
BRANCH   1  54
ATOM     54  O3  0E9 d   1     -10.555  18.735  28.572  0.00  0.00    -0.391 OA
ATOM     55  H22 0E9 d   1     -10.186  19.533  28.211  0.00  0.00     0.210 HD
ENDBRANCH   1  54
BRANCH   1  56
ATOM     56  C4  0E9 d   1      -8.816  17.540  27.467  0.00  0.00     0.043 C 
ATOM     57  H23 0E9 d   1      -8.508  16.585  27.917  0.00  0.00     0.077 H 
BRANCH  56  58
ATOM     58  N4  0E9 d   1      -8.621  17.469  26.005  0.00  0.00    -0.352 N 
ATOM     59  C   0E9 d   1      -8.366  16.331  25.321  0.00  0.00     0.241 C 
ATOM     60  O   0E9 d   1      -7.988  15.256  25.827  0.00  0.00    -0.271 OA
ATOM     61  H24 0E9 d   1      -8.682  18.321  25.485  0.00  0.00     0.163 HD
BRANCH  59  62
ATOM     62  CA  0E9 d   1      -8.419  16.522  23.803  0.00  0.00     0.094 C 
ATOM     63  H38 0E9 d   1      -9.017  17.413  23.559  0.00  0.00     0.088 H 
BRANCH  62  64
ATOM     64  N   0E9 d   1      -7.043  16.775  23.406  0.00  0.00    -0.323 N 
ATOM     65  C   0E9 d   1      -6.751  17.802  22.604  0.00  0.00     0.361 C 
ATOM     66  O1  0E9 d   1      -7.563  18.410  21.875  0.00  0.00    -0.238 OA
ATOM     67  H37 0E9 d   1      -6.312  16.177  23.735  0.00  0.00     0.165 HD
BRANCH  65  68
ATOM     68  O2  0E9 d   1      -5.400  18.133  22.514  0.00  0.00    -0.299 OA
BRANCH  68  69
ATOM     69  C1' 0E9 d   1      -4.683  18.441  21.398  0.00  0.00     0.054 C 
ATOM     70  H46 0E9 d   1      -4.606  19.535  21.308  0.00  0.00     0.082 H 
ATOM     71  H47 0E9 d   1      -5.197  18.035  20.514  0.00  0.00     0.082 H 
BRANCH  69  72
ATOM     72  C1  0E9 d   1      -3.283  17.845  21.482  0.00  0.00    -0.034 A 
ATOM     73  C2  0E9 d   1      -2.208  18.660  21.769  0.00  0.00    -0.075 A 
ATOM     74  C3  0E9 d   1      -0.979  18.067  21.960  0.00  0.00    -0.082 A 
ATOM     75  H48 0E9 d   1      -2.326  19.735  21.842  0.00  0.00     0.084 H 
ATOM     76  C4  0E9 d   1      -0.823  16.692  21.873  0.00  0.00    -0.083 A 
ATOM     77  H49 0E9 d   1      -0.118  18.687  22.182  0.00  0.00     0.083 H 
ATOM     78  C5  0E9 d   1      -1.904  15.897  21.579  0.00  0.00    -0.082 A 
ATOM     79  H50 0E9 d   1       0.151  16.245  22.037  0.00  0.00     0.083 H 
ATOM     80  C6  0E9 d   1      -3.138  16.468  21.374  0.00  0.00    -0.075 A 
ATOM     81  H51 0E9 d   1      -1.784  14.822  21.509  0.00  0.00     0.083 H 
ATOM     82  H52 0E9 d   1      -3.992  15.847  21.130  0.00  0.00     0.084 H 
ENDBRANCH  69  72
ENDBRANCH  68  69
ENDBRANCH  65  68
ENDBRANCH  62  64
BRANCH  62  83
ATOM     83  CB  0E9 d   1      -9.121  15.306  23.167  0.00  0.00    -0.033 C 
ATOM     84  H39 0E9 d   1      -8.803  14.399  23.701  0.00  0.00     0.042 H 
BRANCH  83  85
ATOM     85  CG1 0E9 d   1     -10.599  15.507  23.407  0.00  0.00    -0.071 C 
ATOM     86  H40 0E9 d   1     -11.159  14.665  22.973  0.00  0.00     0.028 H 
ATOM     87  H41 0E9 d   1     -10.923  16.446  22.934  0.00  0.00     0.028 H 
ATOM     88  H42 0E9 d   1     -10.791  15.556  24.489  0.00  0.00     0.028 H 
ENDBRANCH  83  85
BRANCH  83  89
ATOM     89  CG2 0E9 d   1      -8.755  15.111  21.691  0.00  0.00    -0.071 C 
ATOM     90  H43 0E9 d   1      -7.668  14.972  21.598  0.00  0.00     0.028 H 
ATOM     91  H44 0E9 d   1      -9.061  15.998  21.117  0.00  0.00     0.028 H 
ATOM     92  H45 0E9 d   1      -9.273  14.223  21.299  0.00  0.00     0.028 H 
ENDBRANCH  83  89
ENDBRANCH  62  83
ENDBRANCH  59  62
ENDBRANCH  56  58
BRANCH  56  93
ATOM     93  C5  0E9 d   1      -7.911  18.643  28.082  0.00  0.00    -0.020 C 
ATOM     94  H25 0E9 d   1      -7.754  18.416  29.147  0.00  0.00     0.043 H 
ATOM     95  H26 0E9 d   1      -8.422  19.612  27.985  0.00  0.00     0.043 H 
BRANCH  93  96
ATOM     96  C1B 0E9 d   1      -6.547  18.738  27.395  0.00  0.00    -0.056 A 
ATOM     97  C2B 0E9 d   1      -6.367  19.614  26.338  0.00  0.00    -0.077 A 
ATOM     98  C3B 0E9 d   1      -5.241  19.521  25.549  0.00  0.00    -0.082 A 
ATOM     99  H32 0E9 d   1      -7.112  20.373  26.131  0.00  0.00     0.084 H 
ATOM    100  C4B 0E9 d   1      -4.287  18.547  25.832  0.00  0.00    -0.083 A 
ATOM    101  H33 0E9 d   1      -5.099  20.200  24.716  0.00  0.00     0.083 H 
ATOM    102  C5B 0E9 d   1      -4.438  17.673  26.896  0.00  0.00    -0.082 A 
ATOM    103  H34 0E9 d   1      -3.406  18.471  25.205  0.00  0.00     0.083 H 
ATOM    104  C6B 0E9 d   1      -5.569  17.777  27.680  0.00  0.00    -0.077 A 
ATOM    105  H35 0E9 d   1      -3.684  16.924  27.108  0.00  0.00     0.083 H 
ATOM    106  H36 0E9 d   1      -5.702  17.109  28.523  0.00  0.00     0.084 H 
ENDBRANCH  93  96
ENDBRANCH  56  93
ENDBRANCH   1  56
TORSDOF 25
