REMARK  10 active torsions:
REMARK  status: ('A' for Active; 'I' for Inactive)
REMARK       I    between atoms: N1_2  and  C7_13 
REMARK    1  A    between atoms: C7_13  and  C8_41 
REMARK    2  A    between atoms: C13_22  and  N3_30 
REMARK       I    between atoms: N3_30  and  C21_31 
REMARK    3  A    between atoms: C21_31  and  O2_33 
REMARK    4  A    between atoms: O2_33  and  C22_34 
REMARK    5  A    between atoms: C22_34  and  C23_37 
REMARK    6  A    between atoms: C8_41  and  N2_44 
REMARK    7  A    between atoms: N2_44  and  C16_52 
REMARK    8  A    between atoms: N2_44  and  C15_45 
REMARK    9  A    between atoms: C15_45  and  C19_48 
REMARK   10  A    between atoms: C16_52  and  C20_55 
ROOT
ATOM      1  O1  UNK     1      10.979  29.683  80.354  1.00  0.00    -0.271 OA
ATOM      2  N1  UNK     1      11.415  30.239  78.219  1.00  0.00    -0.280 N 
ATOM      3  C1  UNK     1       9.376  29.360  76.054  1.00  0.00    -0.035 C 
ATOM      4  H11 UNK     1       9.559  29.342  74.954  1.00  0.00     0.040 H 
ATOM      5  H12 UNK     1       8.378  28.866  76.113  1.00  0.00     0.040 H 
ATOM      6  C2  UNK     1       9.239  30.823  76.516  1.00  0.00    -0.035 C 
ATOM      7  H21 UNK     1       8.842  30.889  77.556  1.00  0.00     0.040 H 
ATOM      8  H22 UNK     1       8.411  31.346  75.983  1.00  0.00     0.040 H 
ATOM      9  C3  UNK     1      10.417  28.470  76.748  1.00  0.00    -0.030 A 
ATOM     10  C4  UNK     1      11.343  28.889  77.725  1.00  0.00     0.051 A 
ATOM     11  C5  UNK     1      10.553  31.568  76.372  1.00  0.00    -0.030 A 
ATOM     12  C6  UNK     1      11.619  31.227  77.203  1.00  0.00     0.049 A 
ATOM     13  C7  UNK     1      11.227  30.547  79.534  1.00  0.00     0.257 C 
ATOM     14  C9  UNK     1      12.239  27.962  78.267  1.00  0.00    -0.030 A 
ATOM     15  H9  UNK     1      12.972  28.300  79.019  1.00  0.00     0.090 H 
ATOM     16  C10 UNK     1      10.426  27.129  76.355  1.00  0.00    -0.072 A 
ATOM     17  H10 UNK     1       9.715  26.789  75.583  1.00  0.00     0.084 H 
ATOM     18  C11 UNK     1      10.717  32.564  75.408  1.00  0.00    -0.075 A 
ATOM     19  H11 UNK     1       9.877  32.835  74.747  1.00  0.00     0.084 H 
ATOM     20  C12 UNK     1      12.850  31.872  77.067  1.00  0.00    -0.056 A 
ATOM     21  H12 UNK     1      13.695  31.593  77.718  1.00  0.00     0.087 H 
ATOM     22  C13 UNK     1      12.230  26.623  77.882  1.00  0.00     0.039 A 
ATOM     23  C14 UNK     1      11.311  26.212  76.914  1.00  0.00    -0.056 A 
ATOM     24  H14 UNK     1      11.287  25.157  76.592  1.00  0.00     0.086 H 
ATOM     25  C17 UNK     1      11.942  33.217  75.280  1.00  0.00    -0.082 A 
ATOM     26  H17 UNK     1      12.067  34.010  74.523  1.00  0.00     0.083 H 
ATOM     27  C18 UNK     1      13.008  32.869  76.107  1.00  0.00    -0.081 A 
ATOM     28  H18 UNK     1      13.978  33.383  76.001  1.00  0.00     0.083 H 
ENDROOT
BRANCH  13  29
ATOM     29  C8  UNK     1      11.411  32.003  79.952  1.00  0.00     0.186 C 
ATOM     30  H82 UNK     1      11.393  32.095  81.063  1.00  0.00     0.094 H 
ATOM     31  H81 UNK     1      12.455  32.338  79.750  1.00  0.00     0.094 H 
BRANCH  29  32
ATOM     32  N2  UNK     1      10.436  32.942  79.337  1.00  0.00     0.096 N 
BRANCH  32  33
ATOM     33  C16 UNK     1      10.952  34.338  79.292  1.00  0.00     0.111 C 
ATOM     34 2H16 UNK     1      10.782  34.857  80.264  1.00  0.00     0.079 H 
ATOM     35 1H16 UNK     1      12.067  34.351  79.272  1.00  0.00     0.079 H 
BRANCH  33  36
ATOM     36  C20 UNK     1      10.371  35.155  78.121  1.00  0.00    -0.051 C 
ATOM     37 3H20 UNK     1      10.541  34.636  77.149  1.00  0.00     0.029 H 
ATOM     38 2H20 UNK     1       9.256  35.142  78.141  1.00  0.00     0.029 H 
ATOM     39 1H20 UNK     1      10.757  36.200  78.087  1.00  0.00     0.029 H 
ENDBRANCH  33  36
ENDBRANCH  32  33
BRANCH  32  40
ATOM     40  C15 UNK     1       9.060  32.777  79.883  1.00  0.00     0.111 C 
ATOM     41 2H15 UNK     1       8.334  33.402  79.312  1.00  0.00     0.079 H 
ATOM     42 1H15 UNK     1       8.663  31.763  79.645  1.00  0.00     0.079 H 
BRANCH  40  43
ATOM     43  C19 UNK     1       8.948  33.062  81.397  1.00  0.00    -0.051 C 
ATOM     44 3H19 UNK     1       9.674  32.437  81.968  1.00  0.00     0.029 H 
ATOM     45 2H19 UNK     1       9.345  34.076  81.635  1.00  0.00     0.029 H 
ATOM     46 1H19 UNK     1       7.918  32.938  81.806  1.00  0.00     0.029 H 
ENDBRANCH  40  43
ENDBRANCH  32  40
ENDBRANCH  29  32
ENDBRANCH  13  29
BRANCH  22  47
ATOM     47  N3  UNK     1      13.147  25.740  78.547  1.00  0.00    -0.303 N 
ATOM     48  H24 UNK     1      13.758  25.241  77.919  1.00  0.00     0.171 HD
ATOM     49  C21 UNK     1      13.348  25.502  79.859  1.00  0.00     0.365 C 
ATOM     50  O3  UNK     1      12.718  25.987  80.778  1.00  0.00    -0.238 OA
BRANCH  49  51
ATOM     51  O2  UNK     1      14.384  24.647  79.986  1.00  0.00    -0.304 OA
BRANCH  51  52
ATOM     52  C22 UNK     1      14.136  23.232  79.823  1.00  0.00     0.027 C 
ATOM     53 2H22 UNK     1      13.637  22.781  80.712  1.00  0.00     0.074 H 
ATOM     54 1H22 UNK     1      13.336  23.022  79.075  1.00  0.00     0.074 H 
BRANCH  52  55
ATOM     55  C23 UNK     1      15.463  22.538  79.477  1.00  0.00    -0.056 C 
ATOM     56 3H23 UNK     1      15.962  22.989  78.588  1.00  0.00     0.030 H 
ATOM     57 2H23 UNK     1      16.263  22.748  80.225  1.00  0.00     0.030 H 
ATOM     58 1H23 UNK     1      15.272  21.447  79.351  1.00  0.00     0.030 H 
ENDBRANCH  52  55
ENDBRANCH  51  52
ENDBRANCH  49  51
ENDBRANCH  22  47
TORSDOF 10
