REMARK  6 active torsions:
REMARK  status: ('A' for Active; 'I' for Inactive)
REMARK    1  A    between atoms: C1_5  and  C6_23 
REMARK    2  A    between atoms: C2_6  and  C4_13 
REMARK    3  A    between atoms: C6_23  and  N3_26 
REMARK    4  A    between atoms: N3_26  and  O1_28 
REMARK    5  A    between atoms: O1_28  and  C13_29 
REMARK    6  A    between atoms: C13_29  and  C12_34 
ROOT
ATOM      1  S1  UNK     1      10.633  34.899  78.040  1.00  0.00     0.057 SA
ATOM      2  N1  UNK     1      10.829  33.578  78.592  1.00  0.00     0.077 N 
ATOM      3  N2  UNK     1      11.932  33.249  76.723  1.00  0.00    -0.326 N 
ATOM      4  H2  UNK     1      12.399  33.405  75.830  1.00  0.00     0.168 HD
ATOM      5  C1  UNK     1      11.169  32.271  78.631  1.00  0.00     0.178 A 
ATOM      6  C2  UNK     1      11.885  32.107  77.447  1.00  0.00     0.078 A 
ATOM      7  C3  UNK     1      11.223  34.132  77.449  1.00  0.00     0.279 A 
ATOM      8  C5  UNK     1      10.153  34.396  79.380  1.00  0.00     0.213 A 
ATOM      9  H5  UNK     1      11.098  34.736  79.864  1.00  0.00     0.114 H 
ATOM     10  C7  UNK     1      10.042  35.595  78.708  1.00  0.00    -0.010 A 
ATOM     11  H7  UNK     1       9.628  36.615  78.779  1.00  0.00     0.093 H 
ENDROOT
BRANCH   5  12
ATOM     12  C6  UNK     1      11.459  31.480  79.902  1.00  0.00     0.050 C 
ATOM     13  H62 UNK     1      12.292  30.763  79.715  1.00  0.00     0.068 H 
ATOM     14  H61 UNK     1      11.931  32.148  80.659  1.00  0.00     0.068 H 
BRANCH  12  15
ATOM     15  N3  UNK     1      10.314  30.764  80.515  1.00  0.00    -0.200 NA
ATOM     16  H   UNK     1      10.378  29.749  80.524  1.00  0.00     0.154 HD
BRANCH  15  17
ATOM     17  O1  UNK     1       9.179  30.992  79.655  1.00  0.00    -0.301 OA
BRANCH  17  18
ATOM     18  C13 UNK     1       8.477  29.754  79.458  1.00  0.00     0.063 C 
ATOM     19 2H13 UNK     1       8.388  29.164  80.400  1.00  0.00     0.084 H 
ATOM     20 1H13 UNK     1       7.390  29.910  79.266  1.00  0.00     0.084 H 
BRANCH  18  21
ATOM     21  C12 UNK     1       9.148  28.970  78.351  1.00  0.00    -0.031 A 
ATOM     22  C16 UNK     1       9.037  29.406  77.031  1.00  0.00    -0.073 A 
ATOM     23  C18 UNK     1       9.682  28.714  76.010  1.00  0.00    -0.060 A 
ATOM     24  H16 UNK     1       8.437  30.301  76.796  1.00  0.00     0.084 H 
ATOM     25  C19 UNK     1      10.441  27.583  76.305  1.00  0.00     0.055 A 
ATOM     26  H18 UNK     1       9.592  29.061  74.967  1.00  0.00     0.086 H 
ATOM     27 Cl3  UNK     1      11.241  26.752  75.012  1.00  0.00    -0.083 Cl
ATOM     28  C17 UNK     1      10.545  27.137  77.626  1.00  0.00     0.056 A 
ATOM     29 Cl2  UNK     1      11.474  25.732  78.031  1.00  0.00    -0.083 Cl
ATOM     30  C15 UNK     1       9.896  27.830  78.646  1.00  0.00    -0.052 A 
ATOM     31  H15 UNK     1       9.974  27.477  79.688  1.00  0.00     0.087 H 
ENDBRANCH  18  21
ENDBRANCH  17  18
ENDBRANCH  15  17
ENDBRANCH  12  15
ENDBRANCH   5  12
BRANCH   6  32
ATOM     32  C4  UNK     1      12.569  30.936  77.131  1.00  0.00    -0.007 A 
ATOM     33  C8  UNK     1      12.819  30.656  75.788  1.00  0.00    -0.069 A 
ATOM     34  C10 UNK     1      13.492  29.493  75.429  1.00  0.00    -0.061 A 
ATOM     35  H8  UNK     1      12.482  31.359  75.008  1.00  0.00     0.085 H 
ATOM     36  C14 UNK     1      13.887  28.588  76.410  1.00  0.00     0.034 A 
ATOM     37  H10 UNK     1      13.713  29.288  74.368  1.00  0.00     0.086 H 
ATOM     38 Cl1  UNK     1      14.738  27.151  75.959  1.00  0.00    -0.084 Cl
ATOM     39  C11 UNK     1      13.597  28.839  77.752  1.00  0.00    -0.061 A 
ATOM     40  C9  UNK     1      12.942  30.016  78.115  1.00  0.00    -0.069 A 
ATOM     41  H11 UNK     1      13.886  28.107  78.525  1.00  0.00     0.086 H 
ATOM     42  H9  UNK     1      12.719  30.220  79.176  1.00  0.00     0.085 H 
ENDBRANCH   6  32
TORSDOF 6
