REMARK  4 active torsions:
REMARK  status: ('A' for Active; 'I' for Inactive)
REMARK    1  A    between atoms: C7_1  and  C6_12 
REMARK    2  A    between atoms: C7_1  and  C8_13 
REMARK    3  A    between atoms: C7_1  and  C17_24 
REMARK    4  A    between atoms: C7_1  and  N1_35 
ROOT
ATOM      1  C7  UNK     1      11.987  31.321  77.074  1.00  0.00     0.121 C 
ENDROOT
BRANCH   1   2
ATOM      2  C6  UNK     1      13.242  31.141  76.160  1.00  0.00     0.002 A 
ATOM      3  C1  UNK     1      14.111  30.032  76.285  1.00  0.00     0.043 A 
ATOM      4 Cl1  UNK     1      13.849  28.728  77.401  1.00  0.00    -0.084 Cl
ATOM      5  C2  UNK     1      15.244  29.914  75.480  1.00  0.00    -0.061 A 
ATOM      6  C3  UNK     1      15.551  30.891  74.542  1.00  0.00    -0.081 A 
ATOM      7  H2  UNK     1      15.903  29.036  75.590  1.00  0.00     0.086 H 
ATOM      8  C4  UNK     1      14.723  31.996  74.411  1.00  0.00    -0.082 A 
ATOM      9  H3  UNK     1      16.446  30.789  73.906  1.00  0.00     0.083 H 
ATOM     10  C5  UNK     1      13.591  32.122  75.211  1.00  0.00    -0.072 A 
ATOM     11  H4  UNK     1      14.962  32.778  73.670  1.00  0.00     0.083 H 
ATOM     12  H5  UNK     1      12.951  33.013  75.099  1.00  0.00     0.084 H 
ENDBRANCH   1   2
BRANCH   1  13
ATOM     13  C8  UNK     1      11.093  32.506  76.613  1.00  0.00    -0.020 A 
ATOM     14  C9  UNK     1       9.845  32.237  76.027  1.00  0.00    -0.074 A 
ATOM     15  C10 UNK     1       8.988  33.264  75.640  1.00  0.00    -0.082 A 
ATOM     16  H9  UNK     1       9.537  31.190  75.870  1.00  0.00     0.084 H 
ATOM     17  C11 UNK     1       9.348  34.590  75.855  1.00  0.00    -0.083 A 
ATOM     18  H10 UNK     1       8.023  33.026  75.162  1.00  0.00     0.083 H 
ATOM     19  C12 UNK     1      10.557  34.880  76.478  1.00  0.00    -0.082 A 
ATOM     20  H11 UNK     1       8.679  35.406  75.534  1.00  0.00     0.083 H 
ATOM     21  C13 UNK     1      11.413  33.849  76.867  1.00  0.00    -0.074 A 
ATOM     22  H12 UNK     1      10.840  35.929  76.665  1.00  0.00     0.083 H 
ATOM     23  H13 UNK     1      12.357  34.093  77.383  1.00  0.00     0.084 H 
ENDBRANCH   1  13
BRANCH   1  24
ATOM     24  C17 UNK     1      11.259  29.950  77.061  1.00  0.00    -0.020 A 
ATOM     25  C22 UNK     1      11.102  29.280  75.836  1.00  0.00    -0.074 A 
ATOM     26  C21 UNK     1      10.435  28.060  75.756  1.00  0.00    -0.082 A 
ATOM     27  H22 UNK     1      11.516  29.730  74.918  1.00  0.00     0.084 H 
ATOM     28  C20 UNK     1       9.895  27.486  76.900  1.00  0.00    -0.083 A 
ATOM     29  H21 UNK     1      10.335  27.549  74.784  1.00  0.00     0.083 H 
ATOM     30  C19 UNK     1      10.016  28.141  78.121  1.00  0.00    -0.082 A 
ATOM     31  H20 UNK     1       9.373  26.516  76.840  1.00  0.00     0.083 H 
ATOM     32  C18 UNK     1      10.684  29.362  78.200  1.00  0.00    -0.074 A 
ATOM     33  H19 UNK     1       9.582  27.693  79.030  1.00  0.00     0.083 H 
ATOM     34  H18 UNK     1      10.762  29.875  79.173  1.00  0.00     0.084 H 
ENDBRANCH   1  24
BRANCH   1  35
ATOM     35  N1  UNK     1      12.374  31.675  78.468  1.00  0.00    -0.329 N 
ATOM     36  C14 UNK     1      13.643  31.757  78.943  1.00  0.00     0.043 A 
ATOM     37  N2  UNK     1      13.741  32.221  80.202  1.00  0.00    -0.361 N 
ATOM     38  H14 UNK     1      14.523  31.467  78.345  1.00  0.00     0.140 H 
ATOM     39  C15 UNK     1      12.462  32.464  80.526  1.00  0.00    -0.007 A 
ATOM     40  H2  UNK     1      14.579  32.355  80.769  1.00  0.00     0.166 HD
ATOM     41  C16 UNK     1      11.614  32.155  79.479  1.00  0.00    -0.003 A 
ATOM     42  H15 UNK     1      12.130  32.859  81.501  1.00  0.00     0.113 H 
ATOM     43  H16 UNK     1      10.518  32.277  79.470  1.00  0.00     0.113 H 
ENDBRANCH   1  35
TORSDOF 4
