REMARK  7 active torsions:
REMARK  status: ('A' for Active; 'I' for Inactive)
REMARK    1  A    between atoms: C7_1  and  C6_33 
REMARK    2  A    between atoms: C8_4  and  C16_17 
REMARK       I    between atoms: N1_28  and  C6_33 
REMARK    3  A    between atoms: N1_28  and  C5_29 
REMARK    4  A    between atoms: N1_28  and  C3_35 
REMARK    5  A    between atoms: C3_35  and  C2_45 
REMARK    6  A    between atoms: C3_35  and  C4_37 
REMARK    7  A    between atoms: C1_41  and  C2_45 
ROOT
ATOM      1  C7  UNK     1      11.857  29.435  76.430  1.00  0.00     0.102 C 
ATOM      2  N2  UNK     1      11.230  30.500  76.989  1.00  0.00    -0.350 N 
ATOM      3  H2  UNK     1      10.320  30.373  77.433  1.00  0.00     0.166 HD
ATOM      4  C8  UNK     1      11.799  31.734  76.965  1.00  0.00     0.056 C 
ATOM      5  C9  UNK     1      13.104  29.573  75.825  1.00  0.00    -0.041 C 
ATOM      6  H9  UNK     1      13.665  28.684  75.491  1.00  0.00     0.088 H 
ATOM      7  C10 UNK     1      13.633  30.847  75.647  1.00  0.00    -0.021 A 
ATOM      8  C11 UNK     1      14.790  31.014  74.886  1.00  0.00    -0.072 A 
ATOM      9  H11 UNK     1      15.333  30.131  74.508  1.00  0.00     0.084 H 
ATOM     10  C12 UNK     1      12.961  31.953  76.191  1.00  0.00     0.002 A 
ATOM     11  C13 UNK     1      15.260  32.293  74.603  1.00  0.00    -0.082 A 
ATOM     12  H13 UNK     1      16.182  32.426  74.013  1.00  0.00     0.083 H 
ATOM     13  C14 UNK     1      14.561  33.403  75.068  1.00  0.00    -0.082 A 
ATOM     14  H14 UNK     1      14.914  34.418  74.822  1.00  0.00     0.083 H 
ATOM     15  C15 UNK     1      13.416  33.235  75.844  1.00  0.00    -0.070 A 
ATOM     16  H15 UNK     1      12.859  34.122  76.191  1.00  0.00     0.084 H 
ENDROOT
BRANCH   1  17
ATOM     17  C6  UNK     1      11.234  28.060  76.529  1.00  0.00     0.270 C 
ATOM     18  N1  UNK     1      11.249  27.400  77.724  1.00  0.00    -0.347 N 
ATOM     19  O1  UNK     1      10.706  27.547  75.560  1.00  0.00    -0.266 OA
BRANCH  18  20
ATOM     20  C5  UNK     1      11.084  25.933  77.733  1.00  0.00    -0.015 C 
ATOM     21  H53 UNK     1      10.144  25.674  77.191  1.00  0.00     0.056 H 
ATOM     22  H52 UNK     1      11.853  25.481  77.063  1.00  0.00     0.056 H 
ATOM     23  H51 UNK     1      11.096  25.394  78.709  1.00  0.00     0.056 H 
ENDBRANCH  18  20
BRANCH  18  24
ATOM     24  C3  UNK     1      10.798  28.086  78.964  1.00  0.00     0.011 C 
ATOM     25  H3  UNK     1      11.355  29.051  79.015  1.00  0.00     0.072 H 
BRANCH  24  26
ATOM     26  C2  UNK     1       9.290  28.447  78.902  1.00  0.00    -0.050 C 
ATOM     27  H22 UNK     1       8.923  28.451  77.849  1.00  0.00     0.035 H 
ATOM     28  H21 UNK     1       8.664  27.619  79.308  1.00  0.00     0.035 H 
BRANCH  26  29
ATOM     29  C1  UNK     1       8.968  29.779  79.605  1.00  0.00    -0.075 C 
ATOM     30  H13 UNK     1       9.335  29.775  80.658  1.00  0.00     0.027 H 
ATOM     31  H12 UNK     1       9.594  30.607  79.199  1.00  0.00     0.027 H 
ATOM     32  H11 UNK     1       7.885  30.038  79.560  1.00  0.00     0.027 H 
ENDBRANCH  26  29
ENDBRANCH  24  26
BRANCH  24  33
ATOM     33  C4  UNK     1      11.154  27.303  80.249  1.00  0.00    -0.057 C 
ATOM     34  H43 UNK     1      10.759  26.261  80.203  1.00  0.00     0.030 H 
ATOM     35  H42 UNK     1      12.246  27.081  80.291  1.00  0.00     0.030 H 
ATOM     36  H41 UNK     1      10.816  27.817  81.179  1.00  0.00     0.030 H 
ENDBRANCH  24  33
ENDBRANCH  18  24
ENDBRANCH   1  17
BRANCH   4  37
ATOM     37  C16 UNK     1      11.180  32.745  77.731  1.00  0.00     0.013 A 
ATOM     38  C17 UNK     1      10.193  33.620  77.222  1.00  0.00     0.046 A 
ATOM     39 Cl1  UNK     1       9.774  33.718  75.539  1.00  0.00    -0.083 Cl
ATOM     40  C18 UNK     1       9.635  34.607  78.036  1.00  0.00    -0.061 A 
ATOM     41  C21 UNK     1      10.068  34.773  79.346  1.00  0.00    -0.081 A 
ATOM     42  H18 UNK     1       8.843  35.262  77.636  1.00  0.00     0.086 H 
ATOM     43  C20 UNK     1      11.090  33.972  79.837  1.00  0.00    -0.082 A 
ATOM     44  H21 UNK     1       9.603  35.537  79.992  1.00  0.00     0.083 H 
ATOM     45  C19 UNK     1      11.651  32.983  79.031  1.00  0.00    -0.069 A 
ATOM     46  H20 UNK     1      11.458  34.118  80.866  1.00  0.00     0.083 H 
ATOM     47  H19 UNK     1      12.483  32.374  79.423  1.00  0.00     0.085 H 
ENDBRANCH   4  37
TORSDOF 7
