REMARK  9 active torsions:
REMARK  status: ('A' for Active; 'I' for Inactive)
REMARK    1  A    between atoms: C9_1  and  N1_11 
REMARK    2  A    between atoms: C14_10  and  C15_33 
REMARK    3  A    between atoms: N1_11  and  S1_13 
REMARK    4  A    between atoms: N1_11  and  C7_26 
REMARK    5  A    between atoms: S1_13  and  C1_15 
REMARK    6  A    between atoms: C7_26  and  C8_29 
REMARK    7  A    between atoms: C15_33  and  C17_38 
REMARK    8  A    between atoms: C15_33  and  C16_34 
REMARK    9  A    between atoms: C15_33  and  O3_42 
ROOT
ATOM      1  N1  UNK     1      10.702  33.033  78.583  1.00  0.00    -0.263 N 
ENDROOT
BRANCH   1   2
ATOM      2  C9  UNK     1      11.057  31.714  78.440  1.00  0.00     0.045 A 
ATOM      3  C12 UNK     1      10.173  30.790  77.882  1.00  0.00    -0.056 A 
ATOM      4  C13 UNK     1      10.556  29.461  77.712  1.00  0.00    -0.071 A 
ATOM      5  H12 UNK     1       9.165  31.114  77.573  1.00  0.00     0.087 H 
ATOM      6  C14 UNK     1      11.824  29.014  78.110  1.00  0.00    -0.006 A 
ATOM      7  H13 UNK     1       9.849  28.748  77.256  1.00  0.00     0.084 H 
ATOM      8  C11 UNK     1      12.706  29.956  78.658  1.00  0.00    -0.071 A 
ATOM      9  C10 UNK     1      12.328  31.287  78.822  1.00  0.00    -0.056 A 
ATOM     10  H11 UNK     1      13.717  29.638  78.965  1.00  0.00     0.084 H 
ATOM     11  H10 UNK     1      13.040  32.008  79.257  1.00  0.00     0.087 H 
BRANCH   6  12
ATOM     12  C15 UNK     1      12.267  27.544  77.896  1.00  0.00     0.281 C 
BRANCH  12  13
ATOM     13  C17 UNK     1      13.026  27.411  76.536  1.00  0.00     0.431 C 
ATOM     14  F7  UNK     1      12.423  26.554  75.690  1.00  0.00    -0.167 F 
ATOM     15  F8  UNK     1      13.088  28.596  75.899  1.00  0.00    -0.167 F 
ATOM     16  F9  UNK     1      14.297  26.997  76.696  1.00  0.00    -0.167 F 
ENDBRANCH  12  13
BRANCH  12  17
ATOM     17  C16 UNK     1      11.090  26.511  78.020  1.00  0.00     0.431 C 
ATOM     18  F6  UNK     1      10.161  26.622  77.053  1.00  0.00    -0.167 F 
ATOM     19  F4  UNK     1      11.531  25.237  77.975  1.00  0.00    -0.167 F 
ATOM     20  F5  UNK     1      10.452  26.647  79.199  1.00  0.00    -0.167 F 
ENDBRANCH  12  17
BRANCH  12  21
ATOM     21  O3  UNK     1      13.198  27.179  78.934  1.00  0.00    -0.370 OA
ATOM     22  H   UNK     1      13.381  27.987  79.449  1.00  0.00     0.211 HD
ENDBRANCH  12  21
ENDBRANCH   6  12
ENDBRANCH   1   2
BRANCH   1  23
ATOM     23  S1  UNK     1      10.442  34.083  77.260  1.00  0.00     0.265 S 
ATOM     24  O1  UNK     1      10.863  35.418  77.584  1.00  0.00    -0.200 OA
ATOM     25  O2  UNK     1       9.174  33.827  76.635  1.00  0.00    -0.200 OA
BRANCH  23  26
ATOM     26  C1  UNK     1      11.717  33.401  76.237  1.00  0.00     0.080 A 
ATOM     27  C2  UNK     1      11.414  32.452  75.257  1.00  0.00    -0.060 A 
ATOM     28  C3  UNK     1      12.428  31.894  74.479  1.00  0.00    -0.082 A 
ATOM     29  H2  UNK     1      10.367  32.143  75.098  1.00  0.00     0.085 H 
ATOM     30  C4  UNK     1      13.752  32.279  74.678  1.00  0.00    -0.083 A 
ATOM     31  H3  UNK     1      12.182  31.147  73.706  1.00  0.00     0.083 H 
ATOM     32  C5  UNK     1      14.061  33.223  75.655  1.00  0.00    -0.082 A 
ATOM     33  H4  UNK     1      14.554  31.837  74.063  1.00  0.00     0.083 H 
ATOM     34  C6  UNK     1      13.047  33.782  76.430  1.00  0.00    -0.060 A 
ATOM     35  H5  UNK     1      15.109  33.528  75.815  1.00  0.00     0.083 H 
ATOM     36  H6  UNK     1      13.296  34.530  77.201  1.00  0.00     0.085 H 
ENDBRANCH  23  26
ENDBRANCH   1  23
BRANCH   1  37
ATOM     37  C7  UNK     1      10.388  33.547  79.931  1.00  0.00     0.101 C 
ATOM     38  H72 UNK     1      11.254  33.417  80.621  1.00  0.00     0.079 H 
ATOM     39  H71 UNK     1      10.324  34.660  79.930  1.00  0.00     0.079 H 
BRANCH  37  40
ATOM     40  C8  UNK     1       9.108  32.918  80.524  1.00  0.00     0.404 C 
ATOM     41  F1  UNK     1       8.134  32.895  79.598  1.00  0.00    -0.169 F 
ATOM     42  F3  UNK     1       9.319  31.647  80.916  1.00  0.00    -0.169 F 
ATOM     43  F2  UNK     1       8.651  33.613  81.582  1.00  0.00    -0.169 F 
ENDBRANCH  37  40
ENDBRANCH   1  37
TORSDOF 9
