REMARK  4 active torsions:
REMARK  status: ('A' for Active; 'I' for Inactive)
REMARK    1  A    between atoms: C1_1  and  C1'_7 
REMARK    2  A    between atoms: C1'_7  and  C2'_8 
REMARK    3  A    between atoms: C2'_8  and  C3'_9 
REMARK    4  A    between atoms: C2'_8  and  C4'_10 
ROOT
ATOM      1  C1' I4B d   1      28.135   7.495   2.335  0.00  0.00    -0.038 C 
ATOM      2  H6  I4B d   1      28.634   6.770   1.675  0.00  0.00     0.040 H 
ATOM      3  H7  I4B d   1      28.890   8.141   2.806  0.00  0.00     0.040 H 
ENDROOT
BRANCH   1   4
ATOM      4  C1  I4B d   1      27.357   6.772   3.388  0.00  0.00    -0.058 A 
ATOM      5  C2  I4B d   1      27.321   7.293   4.658  0.00  0.00    -0.077 A 
ATOM      6  C3  I4B d   1      26.568   6.650   5.670  0.00  0.00    -0.082 A 
ATOM      7  H1  I4B d   1      27.871   8.199   4.886  0.00  0.00     0.084 H 
ATOM      8  C4  I4B d   1      25.831   5.526   5.359  0.00  0.00    -0.083 A 
ATOM      9  H2  I4B d   1      26.571   7.038   6.682  0.00  0.00     0.083 H 
ATOM     10  C5  I4B d   1      25.887   4.987   4.077  0.00  0.00    -0.082 A 
ATOM     11  H3  I4B d   1      25.207   5.062   6.114  0.00  0.00     0.083 H 
ATOM     12  C6  I4B d   1      26.664   5.607   3.088  0.00  0.00    -0.077 A 
ATOM     13  H4  I4B d   1      25.329   4.087   3.843  0.00  0.00     0.083 H 
ATOM     14  H5  I4B d   1      26.723   5.179   2.094  0.00  0.00     0.084 H 
ENDBRANCH   1   4
BRANCH   1  15
ATOM     15  C2' I4B d   1      27.165   8.338   1.533  0.00  0.00    -0.057 C 
ATOM     16  H8  I4B d   1      26.302   7.718   1.248  0.00  0.00     0.039 H 
BRANCH  15  17
ATOM     17  C3' I4B d   1      27.868   8.799   0.291  0.00  0.00    -0.073 C 
ATOM     18  H9  I4B d   1      27.183   9.415  -0.311  0.00  0.00     0.028 H 
ATOM     19  H10 I4B d   1      28.186   7.925  -0.296  0.00  0.00     0.028 H 
ATOM     20  H11 I4B d   1      28.750   9.395   0.569  0.00  0.00     0.028 H 
ENDBRANCH  15  17
BRANCH  15  21
ATOM     21  C4' I4B d   1      26.664   9.508   2.339  0.00  0.00    -0.073 C 
ATOM     22  H12 I4B d   1      26.154   9.140   3.242  0.00  0.00     0.028 H 
ATOM     23  H13 I4B d   1      25.958  10.095   1.733  0.00  0.00     0.028 H 
ATOM     24  H14 I4B d   1      27.514  10.143   2.631  0.00  0.00     0.028 H 
ENDBRANCH  15  21
ENDBRANCH   1  15
TORSDOF 4
