REMARK  0 active torsions:
REMARK  status: ('A' for Active; 'I' for Inactive)
ROOT
ATOM      1  N1  IND d   1      28.556   7.358   3.183  0.00  0.00    -0.365 N 
ATOM      2  C2  IND d   1      28.367   6.590   2.068  0.00  0.00    -0.022 A 
ATOM      3  C3  IND d   1      27.481   5.601   2.323  0.00  0.00    -0.056 A 
ATOM      4  C4  IND d   1      26.141   5.118   4.468  0.00  0.00    -0.071 A 
ATOM      5  C5  IND d   1      26.002   5.525   5.765  0.00  0.00    -0.082 A 
ATOM      6  C6  IND d   1      26.718   6.587   6.277  0.00  0.00    -0.081 A 
ATOM      7  C7  IND d   1      27.597   7.292   5.505  0.00  0.00    -0.056 A 
ATOM      8  C8  IND d   1      27.747   6.877   4.189  0.00  0.00     0.042 A 
ATOM      9  C9  IND d   1      27.054   5.773   3.675  0.00  0.00    -0.008 A 
ATOM     10  H1  IND d   1      29.196   8.162   3.258  0.00  0.00     0.165 HD
ATOM     11  H2  IND d   1      28.860   6.752   1.111  0.00  0.00     0.111 H 
ATOM     12  H3  IND d   1      27.156   4.824   1.632  0.00  0.00     0.086 H 
ATOM     13  H4  IND d   1      25.547   4.301   4.075  0.00  0.00     0.084 H 
ATOM     14  H5  IND d   1      25.309   4.998   6.410  0.00  0.00     0.083 H 
ATOM     15  H6  IND d   1      26.580   6.868   7.315  0.00  0.00     0.083 H 
ATOM     16  H7  IND d   1      28.151   8.135   5.901  0.00  0.00     0.086 H 
ENDROOT
TORSDOF 0
