REMARK  2 active torsions:
REMARK  status: ('A' for Active; 'I' for Inactive)
REMARK    1  A    between atoms: C1_1  and  C1'_7 
REMARK    2  A    between atoms: C4_4  and  C4'_8 
ROOT
ATOM      1  C1  PXY d   1      26.645   6.141   4.668  0.00  0.00    -0.062 A 
ATOM      2  C2  PXY d   1      26.781   5.671   3.444  0.00  0.00    -0.077 A 
ATOM      3  C3  PXY d   1      27.270   6.472   2.435  0.00  0.00    -0.077 A 
ATOM      4  C4  PXY d   1      27.583   7.775   2.686  0.00  0.00    -0.062 A 
ATOM      5  C5  PXY d   1      27.442   8.266   3.939  0.00  0.00    -0.077 A 
ATOM      6  C6  PXY d   1      26.979   7.434   4.947  0.00  0.00    -0.077 A 
ATOM      7  H1  PXY d   1      26.506   4.645   3.229  0.00  0.00     0.084 H 
ATOM      8  H2  PXY d   1      27.406   6.065   1.440  0.00  0.00     0.084 H 
ATOM      9  H3  PXY d   1      27.689   9.300   4.153  0.00  0.00     0.084 H 
ATOM     10  H4  PXY d   1      26.882   7.812   5.958  0.00  0.00     0.084 H 
ENDROOT
BRANCH   1  11
ATOM     11  C1' PXY d   1      26.137   5.226   5.770  0.00  0.00    -0.051 C 
ATOM     12  H5  PXY d   1      25.923   4.232   5.351  0.00  0.00     0.033 H 
ATOM     13  H6  PXY d   1      25.218   5.648   6.202  0.00  0.00     0.033 H 
ATOM     14  H7  PXY d   1      26.903   5.136   6.554  0.00  0.00     0.033 H 
ENDBRANCH   1  11
BRANCH   4  15
ATOM     15  C4' PXY d   1      28.102   8.664   1.552  0.00  0.00    -0.051 C 
ATOM     16  H8  PXY d   1      28.143   8.082   0.620  0.00  0.00     0.033 H 
ATOM     17  H9  PXY d   1      29.110   9.027   1.803  0.00  0.00     0.033 H 
ATOM     18  H10 PXY d   1      27.426   9.521   1.419  0.00  0.00     0.033 H 
ENDBRANCH   4  15
TORSDOF 2
