REMARK  2 active torsions:
REMARK  status: ('A' for Active; 'I' for Inactive)
REMARK    1  A    between atoms: C1_1  and  C1'_7 
REMARK    2  A    between atoms: C2_2  and  C2'_8 
ROOT
ATOM      1  C1  OXE d   1      27.214   7.465   4.489  0.00  0.00    -0.056 A 
ATOM      2  C2  OXE d   1      27.575   6.946   3.269  0.00  0.00    -0.056 A 
ATOM      3  C3  OXE d   1      27.252   5.628   2.958  0.00  0.00    -0.077 A 
ATOM      4  C4  OXE d   1      26.432   4.879   3.810  0.00  0.00    -0.082 A 
ATOM      5  C5  OXE d   1      26.019   5.403   5.040  0.00  0.00    -0.082 A 
ATOM      6  C6  OXE d   1      26.436   6.676   5.413  0.00  0.00    -0.077 A 
ATOM      7  H1  OXE d   1      27.638   5.179   2.050  0.00  0.00     0.084 H 
ATOM      8  H2  OXE d   1      26.114   3.885   3.515  0.00  0.00     0.083 H 
ATOM      9  H3  OXE d   1      25.380   4.822   5.696  0.00  0.00     0.083 H 
ATOM     10  H4  OXE d   1      26.179   7.072   6.389  0.00  0.00     0.084 H 
ENDROOT
BRANCH   1  11
ATOM     11  C1' OXE d   1      27.643   8.878   4.796  0.00  0.00    -0.051 C 
ATOM     12  H5  OXE d   1      28.222   9.277   3.950  0.00  0.00     0.033 H 
ATOM     13  H6  OXE d   1      28.266   8.883   5.702  0.00  0.00     0.033 H 
ATOM     14  H7  OXE d   1      26.753   9.504   4.959  0.00  0.00     0.033 H 
ENDBRANCH   1  11
BRANCH   2  15
ATOM     15  C2' OXE d   1      28.453   7.766   2.349  0.00  0.00    -0.051 C 
ATOM     16  H8  OXE d   1      28.587   8.773   2.771  0.00  0.00     0.033 H 
ATOM     17  H9  OXE d   1      27.977   7.844   1.361  0.00  0.00     0.033 H 
ATOM     18  H10 OXE d   1      29.433   7.278   2.246  0.00  0.00     0.033 H 
ENDBRANCH   2  15
TORSDOF 2
