REMARK  16 active torsions:
REMARK  status: ('A' for Active; 'I' for Inactive)
REMARK    1  A    between atoms: C_1  and  CH3_3 
REMARK       I    between atoms: N_4  and  C_1 
REMARK    2  A    between atoms: CA_5  and  N_4 
REMARK    3  A    between atoms: CA_5  and  CB_8 
REMARK    4  A    between atoms: C_6  and  CA_5 
REMARK       I    between atoms: N_20  and  C_6 
REMARK    5  A    between atoms: CB_8  and  CG_9 
REMARK    6  A    between atoms: CZ_14  and  OH_15 
REMARK    7  A    between atoms: OH_15  and  P_16 
REMARK    8  A    between atoms: CA_21  and  N_20 
REMARK    9  A    between atoms: C_22  and  CA_21 
REMARK   10  A    between atoms: CA_21  and  CB_24 
REMARK       I    between atoms: C_22  and  N1_29 
REMARK   11  A    between atoms: CB_24  and  CG_25 
REMARK   12  A    between atoms: CG_25  and  CD_26 
REMARK   13  A    between atoms: C5_34  and  C1'_35 
REMARK   14  A    between atoms: C1'_35  and  C2'_36 
REMARK   15  A    between atoms: C2'_36  and  C3'_37 
REMARK   16  A    between atoms: C3'_37  and  C4'_38 
ROOT
ATOM      1  CA  GLU d   1      42.821  -7.926  42.925  0.00  0.00     0.090 C 
ATOM      2  H13 GLU d   1      43.563  -8.724  42.777  0.00  0.00     0.087 H 
ENDROOT
BRANCH   1   3
ATOM      3  C   GLU d   1      41.649  -8.473  43.728  0.00  0.00     0.242 C 
ATOM      4  O   GLU d   1      40.525  -7.995  43.504  0.00  0.00    -0.271 OA
ATOM      5  N1  DIY d   1      41.771  -9.459  44.656  0.00  0.00    -0.350 N 
ATOM      6  C6  DIY d   1      40.672  -9.774  45.545  0.00  0.00     0.001 C 
ATOM      7  C2  DIY d   1      43.010 -10.208  44.879  0.00  0.00    -0.002 C 
ATOM      8  C5  DIY d   1      41.021  -9.341  46.932  0.00  0.00    -0.038 C 
ATOM      9  H20 DIY d   1      40.489 -10.859  45.533  0.00  0.00     0.065 H 
ATOM     10  H21 DIY d   1      39.767  -9.246  45.212  0.00  0.00     0.065 H 
ATOM     11  C4  DIY d   1      42.397  -9.944  47.266  0.00  0.00    -0.059 C 
ATOM     12  H26 DIY d   1      40.290  -9.789  47.621  0.00  0.00     0.042 H 
ATOM     13  C3  DIY d   1      43.503  -9.748  46.237  0.00  0.00    -0.050 C 
ATOM     14  H24 DIY d   1      42.737  -9.493  48.210  0.00  0.00     0.033 H 
ATOM     15  H25 DIY d   1      42.261 -11.027  47.405  0.00  0.00     0.033 H 
ATOM     16  H22 DIY d   1      43.775  -8.683  46.188  0.00  0.00     0.035 H 
ATOM     17  H23 DIY d   1      44.384 -10.339  46.528  0.00  0.00     0.035 H 
ATOM     18  H18 DIY d   1      43.750  -9.974  44.099  0.00  0.00     0.064 H 
ATOM     19  H19 DIY d   1      42.813 -11.290  44.885  0.00  0.00     0.064 H 
BRANCH   8  20
ATOM     20  C1' DIY d   1      40.916  -7.843  47.112  0.00  0.00    -0.060 C 
ATOM     21  H27 DIY d   1      39.902  -7.508  46.848  0.00  0.00     0.033 H 
ATOM     22  H28 DIY d   1      41.649  -7.339  46.465  0.00  0.00     0.033 H 
BRANCH  20  23
ATOM     23  C2' DIY d   1      41.200  -7.514  48.554  0.00  0.00    -0.065 C 
ATOM     24  H29 DIY d   1      42.045  -8.127  48.901  0.00  0.00     0.033 H 
ATOM     25  H30 DIY d   1      40.308  -7.745  49.155  0.00  0.00     0.033 H 
BRANCH  23  26
ATOM     26  C3' DIY d   1      41.546  -6.062  48.731  0.00  0.00    -0.069 C 
ATOM     27  H31 DIY d   1      42.412  -5.799  48.106  0.00  0.00     0.032 H 
ATOM     28  H32 DIY d   1      41.778  -5.853  49.786  0.00  0.00     0.032 H 
BRANCH  26  29
ATOM     29  C4' DIY d   1      40.343  -5.283  48.302  0.00  0.00    -0.077 C 
ATOM     30  H33 DIY d   1      40.544  -4.207  48.412  0.00  0.00     0.027 H 
ATOM     31  H34 DIY d   1      39.483  -5.561  48.929  0.00  0.00     0.027 H 
ATOM     32  H35 DIY d   1      40.117  -5.508  47.249  0.00  0.00     0.027 H 
ENDBRANCH  26  29
ENDBRANCH  23  26
ENDBRANCH  20  23
ENDBRANCH   8  20
ENDBRANCH   1   3
BRANCH   1  33
ATOM     33  CB  GLU d   1      43.463  -6.759  43.607  0.00  0.00    -0.029 C 
ATOM     34  H14 GLU d   1      43.729  -7.061  44.631  0.00  0.00     0.037 H 
ATOM     35  H15 GLU d   1      42.733  -5.937  43.645  0.00  0.00     0.037 H 
BRANCH  33  36
ATOM     36  CG  GLU d   1      44.713  -6.254  42.920  0.00  0.00     0.018 C 
ATOM     37  H16 GLU d   1      44.975  -5.265  43.324  0.00  0.00     0.049 H 
ATOM     38  H17 GLU d   1      44.526  -6.171  41.839  0.00  0.00     0.049 H 
BRANCH  36  39
ATOM     39  CD  GLU d   1      45.850  -7.203  43.155  0.00  0.00     0.172 C 
ATOM     40  OE1 GLU d   1      46.351  -7.236  44.279  0.00  0.00    -0.648 OA
ATOM     41  OE2 GLU d   1      46.213  -7.920  42.238  0.00  0.00    -0.648 OA
ENDBRANCH  36  39
ENDBRANCH  33  36
ENDBRANCH   1  33
BRANCH   1  42
ATOM     42  N   GLU d   1      42.346  -7.452  41.662  0.00  0.00    -0.346 N 
ATOM     43  C   PTR d   1      42.397  -8.189  40.590  0.00  0.00     0.241 C 
ATOM     44  O   PTR d   1      42.867  -9.329  40.591  0.00  0.00    -0.271 OA
ATOM     45  H12 GLU d   1      41.964  -6.530  41.601  0.00  0.00     0.163 HD
BRANCH  43  46
ATOM     46  CA  PTR d   1      41.875  -7.504  39.354  0.00  0.00     0.093 C 
ATOM     47  H5  PTR d   1      42.374  -6.528  39.259  0.00  0.00     0.088 H 
BRANCH  46  48
ATOM     48  N   PTR d   1      42.169  -8.311  38.208  0.00  0.00    -0.348 N 
ATOM     49  C   ACE d   1      43.293  -8.128  37.550  0.00  0.00     0.214 C 
ATOM     50  O   ACE d   1      44.067  -7.186  37.788  0.00  0.00    -0.274 OA
ATOM     51  H4  PTR d   1      41.521  -9.012  37.909  0.00  0.00     0.163 HD
BRANCH  49  52
ATOM     52  CH3 ACE d   1      43.519  -9.010  36.332  0.00  0.00    -0.003 C 
ATOM     53  H1  ACE d   1      42.738  -9.783  36.289  0.00  0.00     0.040 H 
ATOM     54  H2  ACE d   1      44.506  -9.490  36.405  0.00  0.00     0.040 H 
ATOM     55  H3  ACE d   1      43.476  -8.395  35.421  0.00  0.00     0.040 H 
ENDBRANCH  49  52
ENDBRANCH  46  48
BRANCH  46  56
ATOM     56  CB  PTR d   1      40.391  -7.291  39.374  0.00  0.00    -0.014 C 
ATOM     57  H6  PTR d   1      40.103  -6.757  40.292  0.00  0.00     0.043 H 
ATOM     58  H7  PTR d   1      39.874  -8.261  39.337  0.00  0.00     0.043 H 
BRANCH  56  59
ATOM     59  CG  PTR d   1      40.020  -6.467  38.165  0.00  0.00    -0.056 A 
ATOM     60  CD2 PTR d   1      40.203  -5.089  38.163  0.00  0.00    -0.074 A 
ATOM     61  CE2 PTR d   1      39.795  -4.303  37.080  0.00  0.00    -0.050 A 
ATOM     62  H9  PTR d   1      40.671  -4.614  39.018  0.00  0.00     0.084 H 
ATOM     63  CZ  PTR d   1      39.197  -4.913  35.992  0.00  0.00     0.082 A 
ATOM     64  H11 PTR d   1      39.946  -3.230  37.093  0.00  0.00     0.087 H 
ATOM     65  CE1 PTR d   1      39.023  -6.299  35.991  0.00  0.00    -0.050 A 
ATOM     66  CD1 PTR d   1      39.433  -7.066  37.071  0.00  0.00    -0.074 A 
ATOM     67  H10 PTR d   1      38.562  -6.780  35.136  0.00  0.00     0.087 H 
ATOM     68  H8  PTR d   1      39.291  -8.141  37.055  0.00  0.00     0.084 H 
BRANCH  63  69
ATOM     69  OH  PTR d   1      38.714  -4.103  34.899  0.00  0.00    -0.240 OA
BRANCH  69  70
ATOM     70  P   PTR d   1      39.563  -3.959  33.541  0.00  0.00     0.427 P 
ATOM     71  O3P PTR d   1      40.975  -3.833  34.058  0.00  0.00    -0.617 OA
ATOM     72  O2P PTR d   1      38.986  -2.729  32.920  0.00  0.00    -0.617 OA
ATOM     73  O1P PTR d   1      39.296  -5.223  32.855  0.00  0.00    -0.617 OA
ENDBRANCH  69  70
ENDBRANCH  63  69
ENDBRANCH  56  59
ENDBRANCH  46  56
ENDBRANCH  43  46
ENDBRANCH   1  42
TORSDOF 16
