REMARK  4 active torsions:
REMARK  status: ('A' for Active; 'I' for Inactive)
REMARK    1  A    between atoms: C10_11  and  C19_20 
REMARK    2  A    between atoms: C13_14  and  C18_19 
REMARK    3  A    between atoms: C17_18  and  C20_21 
REMARK    4  A    between atoms: C20_21  and  C21_23 
ROOT
ATOM      1  C1  STR d   1      21.206   9.935  63.081  0.00  0.00    -0.048 C 
ATOM      2  C2  STR d   1      21.241   9.446  64.551  0.00  0.00    -0.005 C 
ATOM      3  C3  STR d   1      22.000   8.125  64.630  0.00  0.00     0.149 C 
ATOM      4  O3  STR d   1      21.701   7.301  65.512  0.00  0.00    -0.293 OA
ATOM      5  C4  STR d   1      23.118   7.872  63.734  0.00  0.00    -0.036 C 
ATOM      6  C5  STR d   1      23.453   8.727  62.785  0.00  0.00    -0.068 C 
ATOM      7  C6  STR d   1      24.697   8.443  61.951  0.00  0.00    -0.043 C 
ATOM      8  C7  STR d   1      24.449   8.637  60.443  0.00  0.00    -0.058 C 
ATOM      9  C8  STR d   1      23.789   9.997  60.098  0.00  0.00    -0.045 C 
ATOM     10  C9  STR d   1      22.434  10.095  60.872  0.00  0.00    -0.040 C 
ATOM     11  C10 STR d   1      22.614  10.023  62.434  0.00  0.00    -0.016 C 
ATOM     12  C11 STR d   1      21.633  11.354  60.450  0.00  0.00    -0.060 C 
ATOM     13  C12 STR d   1      21.432  11.434  58.911  0.00  0.00    -0.057 C 
ATOM     14  C13 STR d   1      22.786  11.404  58.169  0.00  0.00    -0.030 C 
ATOM     15  C14 STR d   1      23.483  10.060  58.598  0.00  0.00    -0.043 C 
ATOM     16  C15 STR d   1      24.674   9.918  57.618  0.00  0.00    -0.060 C 
ATOM     17  C16 STR d   1      24.072  10.450  56.267  0.00  0.00    -0.054 C 
ATOM     18  C17 STR d   1      22.714  11.149  56.627  0.00  0.00     0.011 C 
ATOM     19  H1  STR d   1      20.746  10.934  63.055  0.00  0.00     0.035 H 
ATOM     20  H2  STR d   1      20.594   9.235  62.494  0.00  0.00     0.035 H 
ATOM     21  H3  STR d   1      20.213   9.300  64.913  0.00  0.00     0.044 H 
ATOM     22  H4  STR d   1      21.747  10.197  65.175  0.00  0.00     0.044 H 
ATOM     23  H5  STR d   1      23.693   6.954  63.849  0.00  0.00     0.089 H 
ATOM     24  H6  STR d   1      25.011   7.403  62.127  0.00  0.00     0.039 H 
ATOM     25  H7  STR d   1      25.499   9.126  62.268  0.00  0.00     0.039 H 
ATOM     26  H8  STR d   1      23.789   7.830  60.091  0.00  0.00     0.034 H 
ATOM     27  H9  STR d   1      25.415   8.575  59.920  0.00  0.00     0.034 H 
ATOM     28  H10 STR d   1      24.456  10.824  60.384  0.00  0.00     0.041 H 
ATOM     29  H11 STR d   1      21.837   9.219  60.580  0.00  0.00     0.042 H 
ATOM     30  H12 STR d   1      22.179  12.249  60.783  0.00  0.00     0.033 H 
ATOM     31  H13 STR d   1      20.646  11.325  60.935  0.00  0.00     0.033 H 
ATOM     32  H14 STR d   1      20.909  12.370  58.666  0.00  0.00     0.034 H 
ATOM     33  H15 STR d   1      20.824  10.578  58.583  0.00  0.00     0.034 H 
ATOM     34  H16 STR d   1      22.790   9.230  58.398  0.00  0.00     0.041 H 
ATOM     35  H17 STR d   1      24.989   8.868  57.526  0.00  0.00     0.033 H 
ATOM     36  H18 STR d   1      25.529  10.531  57.940  0.00  0.00     0.033 H 
ATOM     37  H19 STR d   1      23.897   9.614  55.574  0.00  0.00     0.034 H 
ATOM     38  H20 STR d   1      24.760  11.172  55.803  0.00  0.00     0.034 H 
ATOM     39  H21 STR d   1      21.905  10.427  56.442  0.00  0.00     0.052 H 
ENDROOT
BRANCH  18  40
ATOM     40  C20 STR d   1      22.375  12.388  55.781  0.00  0.00     0.128 C 
ATOM     41  O20 STR d   1      23.212  12.876  55.052  0.00  0.00    -0.298 OA
BRANCH  40  42
ATOM     42  C21 STR d   1      21.009  12.976  55.857  0.00  0.00    -0.021 C 
ATOM     43  H28 STR d   1      20.948  13.849  55.191  0.00  0.00     0.037 H 
ATOM     44  H29 STR d   1      20.802  13.289  56.891  0.00  0.00     0.037 H 
ATOM     45  H30 STR d   1      20.268  12.225  55.546  0.00  0.00     0.037 H 
ENDBRANCH  40  42
ENDBRANCH  18  40
BRANCH  14  46
ATOM     46  C18 STR d   1      23.659  12.677  58.454  0.00  0.00    -0.068 C 
ATOM     47  H22 STR d   1      23.707  12.853  59.539  0.00  0.00     0.028 H 
ATOM     48  H23 STR d   1      23.207  13.550  57.961  0.00  0.00     0.028 H 
ATOM     49  H24 STR d   1      24.675  12.520  58.062  0.00  0.00     0.028 H 
ENDBRANCH  14  46
BRANCH  11  50
ATOM     50  C19 STR d   1      23.427  11.246  63.007  0.00  0.00    -0.065 C 
ATOM     51  H25 STR d   1      23.522  11.144  64.098  0.00  0.00     0.028 H 
ATOM     52  H26 STR d   1      22.898  12.181  62.771  0.00  0.00     0.028 H 
ATOM     53  H27 STR d   1      24.428  11.266  62.552  0.00  0.00     0.028 H 
ENDBRANCH  11  50
TORSDOF 4
