REMARK  15 active torsions:
REMARK  status: ('A' for Active; 'I' for Inactive)
REMARK    1  A    between atoms: CA_2  and  N_1 
REMARK    2  A    between atoms: C_3  and  CA_2 
REMARK    3  A    between atoms: CA_2  and  CB_5 
REMARK       I    between atoms: N_10  and  C_3 
REMARK    4  A    between atoms: CB_5  and  CG_6 
REMARK    5  A    between atoms: CG_6  and  CD_7 
REMARK    6  A    between atoms: CA_11  and  N_10 
REMARK    7  A    between atoms: C_12  and  CA_11 
REMARK    8  A    between atoms: CA_11  and  CB_14 
REMARK       I    between atoms: C_12  and  N_18 
REMARK    9  A    between atoms: CB_14  and  CG_15 
REMARK   10  A    between atoms: N_18  and  CA_19 
REMARK   11  A    between atoms: CA_19  and  C_20 
REMARK   12  A    between atoms: CA_19  and  CB_22 
REMARK   13  A    between atoms: CB_22  and  CG_23 
REMARK   14  A    between atoms: CG_23  and  CD2_25 
REMARK   15  A    between atoms: CG_23  and  CD1_24 
ROOT
ATOM      1  CA  ASP d   1       9.258  26.072   6.560  0.00  0.00     0.098 C 
ATOM      2  H10 ASP d   1       9.622  27.007   6.109  0.00  0.00     0.088 H 
ENDROOT
BRANCH   1   3
ATOM      3  C   ASP d   1      10.101  24.918   6.047  0.00  0.00     0.241 C 
ATOM      4  O   ASP d   1      10.182  23.864   6.682  0.00  0.00    -0.271 OA
ATOM      5  N   LEU d   1      10.686  25.115   4.869  0.00  0.00    -0.345 N 
ATOM      6  H13 LEU d   1      10.564  25.995   4.410  0.00  0.00     0.163 HD
BRANCH   5   7
ATOM      7  CA  LEU d   1      11.498  24.093   4.226  0.00  0.00     0.096 C 
ATOM      8  H14 LEU d   1      11.335  23.145   4.760  0.00  0.00     0.089 H 
BRANCH   7   9
ATOM      9  C   LEU d   1      12.984  24.399   4.268  0.00  0.00     0.196 C 
ATOM     10  OXT LEU d   1      13.334  25.592   4.378  0.00  0.00    -0.646 OA
ATOM     11  O   LEU d   1      13.784  23.442   4.192  0.00  0.00    -0.646 OA
ENDBRANCH   7   9
BRANCH   7  12
ATOM     12  CB  LEU d   1      11.038  23.922   2.785  0.00  0.00    -0.034 C 
ATOM     13  H15 LEU d   1      11.664  23.168   2.287  0.00  0.00     0.037 H 
ATOM     14  H16 LEU d   1      11.128  24.881   2.255  0.00  0.00     0.037 H 
BRANCH  12  15
ATOM     15  CG  LEU d   1       9.583  23.466   2.770  0.00  0.00    -0.059 C 
ATOM     16  H17 LEU d   1       9.131  23.717   3.741  0.00  0.00     0.038 H 
BRANCH  15  17
ATOM     17  CD2 LEU d   1       9.521  21.955   2.602  0.00  0.00    -0.073 C 
ATOM     18  H21 LEU d   1      10.097  21.473   3.406  0.00  0.00     0.028 H 
ATOM     19  H22 LEU d   1       9.948  21.677   1.627  0.00  0.00     0.028 H 
ATOM     20  H23 LEU d   1       8.473  21.623   2.651  0.00  0.00     0.028 H 
ENDBRANCH  15  17
BRANCH  15  21
ATOM     21  CD1 LEU d   1       8.819  24.197   1.708  0.00  0.00    -0.073 C 
ATOM     22  H18 LEU d   1       7.773  23.858   1.710  0.00  0.00     0.028 H 
ATOM     23  H19 LEU d   1       9.269  23.992   0.726  0.00  0.00     0.028 H 
ATOM     24  H20 LEU d   1       8.854  25.278   1.909  0.00  0.00     0.028 H 
ENDBRANCH  15  21
ENDBRANCH  12  15
ENDBRANCH   7  12
ENDBRANCH   5   7
ENDBRANCH   1   3
BRANCH   1  25
ATOM     25  CB  ASP d   1       9.346  26.196   8.079  0.00  0.00     0.043 C 
ATOM     26  H11 ASP d   1      10.406  26.238   8.371  0.00  0.00     0.052 H 
ATOM     27  H12 ASP d   1       8.874  25.313   8.535  0.00  0.00     0.052 H 
BRANCH  25  28
ATOM     28  CG  ASP d   1       8.649  27.441   8.588  0.00  0.00     0.175 C 
ATOM     29  OD1 ASP d   1       9.270  28.518   8.521  0.00  0.00    -0.648 OA
ATOM     30  OD2 ASP d   1       7.474  27.357   9.012  0.00  0.00    -0.648 OA
ENDBRANCH  25  28
ENDBRANCH   1  25
BRANCH   1  31
ATOM     31  N   ASP d   1       7.873  25.856   6.163  0.00  0.00    -0.345 N 
ATOM     32  C   GLU d   1       7.174  26.772   5.504  0.00  0.00     0.249 C 
ATOM     33  O   GLU d   1       7.624  27.887   5.218  0.00  0.00    -0.271 OA
ATOM     34  H9  ASP d   1       7.434  24.988   6.395  0.00  0.00     0.163 HD
BRANCH  32  35
ATOM     35  CA  GLU d   1       5.733  26.394   5.165  0.00  0.00     0.176 C 
ATOM     36  H4  GLU d   1       5.402  25.621   5.875  0.00  0.00     0.099 H 
BRANCH  35  37
ATOM     37  CB  GLU d   1       5.638  25.818   3.750  0.00  0.00    -0.021 C 
ATOM     38  H5  GLU d   1       4.645  25.361   3.628  0.00  0.00     0.037 H 
ATOM     39  H6  GLU d   1       6.413  25.046   3.638  0.00  0.00     0.037 H 
BRANCH  37  40
ATOM     40  CG  GLU d   1       5.827  26.846   2.652  0.00  0.00     0.018 C 
ATOM     41  H7  GLU d   1       6.849  27.248   2.720  0.00  0.00     0.049 H 
ATOM     42  H8  GLU d   1       5.102  27.659   2.805  0.00  0.00     0.049 H 
BRANCH  40  43
ATOM     43  CD  GLU d   1       5.625  26.275   1.262  0.00  0.00     0.172 C 
ATOM     44  OE1 GLU d   1       4.663  25.497   1.065  0.00  0.00    -0.648 OA
ATOM     45  OE2 GLU d   1       6.425  26.620   0.363  0.00  0.00    -0.648 OA
ENDBRANCH  40  43
ENDBRANCH  37  40
ENDBRANCH  35  37
BRANCH  35  46
ATOM     46  N   GLU d   1       4.841  27.576   5.310  0.00  0.00    -0.066 N 
ATOM     47  H1  GLU d   1       3.895  27.313   5.084  0.00  0.00     0.275 HD
ATOM     48  H2  GLU d   1       5.146  28.305   4.684  0.00  0.00     0.275 HD
ATOM     49  H3  GLU d   1       4.878  27.911   6.260  0.00  0.00     0.275 HD
ENDBRANCH  35  46
ENDBRANCH  32  35
ENDBRANCH   1  31
TORSDOF 15
