REMARK  7 active torsions:
REMARK  status: ('A' for Active; 'I' for Inactive)
REMARK    1  A    between atoms: C22_1  and  C1_2 
REMARK       I    between atoms: C1_2  and  N1_4 
REMARK    2  A    between atoms: N1_4  and  C2_5 
REMARK    3  A    between atoms: C5_8  and  N5_11 
REMARK    4  A    between atoms: C15_23  and  N15_24 
REMARK       I    between atoms: N15_24  and  C18_25 
REMARK    5  A    between atoms: C18_25  and  O19_27 
REMARK    6  A    between atoms: O19_27  and  C19_28 
REMARK    7  A    between atoms: C19_28  and  C20_29 
ROOT
ATOM      1  N5  FRA d   1      20.651   9.002   2.209  0.00  0.00    -0.252 N 
ATOM      2  C11 FRA d   1      20.346   9.766   3.311  0.00  0.00     0.236 A 
ATOM      3  C10 FRA d   1      21.505  10.603   3.794  0.00  0.00     0.042 A 
ATOM      4  C9  FRA d   1      22.662  10.221   2.808  0.00  0.00     0.061 A 
ATOM      5  C8  FRA d   1      21.953   9.223   1.883  0.00  0.00     0.238 A 
ATOM      6  O11 FRA d   1      19.267   9.825   3.888  0.00  0.00    -0.272 OA
ATOM      7  O8  FRA d   1      22.566   8.709   0.945  0.00  0.00    -0.272 OA
ATOM      8  C12 FRA d   1      21.311  12.229   3.791  0.00  0.00    -0.041 C 
ATOM      9  C17 FRA d   1      21.023  12.755   2.291  0.00  0.00    -0.059 C 
ATOM     10  C16 FRA d   1      22.225  12.300   1.329  0.00  0.00    -0.040 C 
ATOM     11  C14 FRA d   1      23.724  12.453   3.415  0.00  0.00    -0.040 C 
ATOM     12  C13 FRA d   1      22.670  12.844   4.246  0.00  0.00    -0.059 C 
ATOM     13  C15 FRA d   1      23.344  11.489   2.161  0.00  0.00     0.048 C 
ATOM     14  H9  FRA d   1      21.758  10.299   4.820  0.00  0.00     0.056 H 
ATOM     15  H10 FRA d   1      23.454   9.688   3.354  0.00  0.00     0.059 H 
ATOM     16  H11 FRA d   1      20.494  12.523   4.466  0.00  0.00     0.041 H 
ATOM     17  H12 FRA d   1      20.078  12.326   1.926  0.00  0.00     0.033 H 
ATOM     18  H13 FRA d   1      20.950  13.853   2.294  0.00  0.00     0.033 H 
ATOM     19  H14 FRA d   1      21.826  11.653   0.534  0.00  0.00     0.036 H 
ATOM     20  H15 FRA d   1      22.685  13.192   0.879  0.00  0.00     0.036 H 
ATOM     21  H16 FRA d   1      24.183  13.365   3.007  0.00  0.00     0.036 H 
ATOM     22  H17 FRA d   1      24.458  11.919   4.036  0.00  0.00     0.036 H 
ATOM     23  H18 FRA d   1      22.885  12.512   5.272  0.00  0.00     0.033 H 
ATOM     24  H19 FRA d   1      22.589  13.941   4.225  0.00  0.00     0.033 H 
ENDROOT
BRANCH   1  25
ATOM     25  C5  FRA d   1      19.699   8.085   1.479  0.00  0.00     0.045 A 
ATOM     26  C6  FRA d   1      18.339   8.488   1.294  0.00  0.00    -0.054 A 
ATOM     27  C7  FRA d   1      17.416   7.683   0.626  0.00  0.00    -0.055 A 
ATOM     28  H6  FRA d   1      18.016   9.447   1.684  0.00  0.00     0.087 H 
ATOM     29  C2  FRA d   1      17.801   6.430   0.103  0.00  0.00     0.034 A 
ATOM     30  H5  FRA d   1      16.394   8.023   0.507  0.00  0.00     0.087 H 
ATOM     31  C3  FRA d   1      19.151   5.991   0.264  0.00  0.00    -0.055 A 
ATOM     32  C4  FRA d   1      20.090   6.805   0.942  0.00  0.00    -0.054 A 
ATOM     33  H8  FRA d   1      19.457   5.031  -0.135  0.00  0.00     0.087 H 
ATOM     34  H7  FRA d   1      21.112   6.463   1.059  0.00  0.00     0.087 H 
BRANCH  29  35
ATOM     35  N1  FRA d   1      16.825   5.620  -0.583  0.00  0.00    -0.328 N 
ATOM     36  C1  FRA d   1      15.976   5.740  -1.594  0.00  0.00     0.218 C 
ATOM     37  O3  FRA d   1      15.472   4.694  -1.984  0.00  0.00    -0.274 OA
ATOM     38  H4  FRA d   1      16.774   4.706  -0.181  0.00  0.00     0.169 HD
BRANCH  36  39
ATOM     39  C22 FRA d   1      15.604   7.057  -2.284  0.00  0.00    -0.003 C 
ATOM     40  H1  FRA d   1      14.880   6.858  -3.088  0.00  0.00     0.040 H 
ATOM     41  H2  FRA d   1      16.508   7.516  -2.711  0.00  0.00     0.040 H 
ATOM     42  H3  FRA d   1      15.157   7.742  -1.549  0.00  0.00     0.040 H 
ENDBRANCH  36  39
ENDBRANCH  29  35
ENDBRANCH   1  25
BRANCH  13  43
ATOM     43  N15 FRA d   1      24.437  10.994   1.286  0.00  0.00    -0.327 N 
ATOM     44  C18 FRA d   1      25.712  10.832   1.563  0.00  0.00     0.361 C 
ATOM     45  O18 FRA d   1      26.240  11.085   2.643  0.00  0.00    -0.238 OA
ATOM     46  H20 FRA d   1      24.165  10.749   0.355  0.00  0.00     0.165 HD
BRANCH  44  47
ATOM     47  O19 FRA d   1      26.327  10.320   0.432  0.00  0.00    -0.293 OA
BRANCH  47  48
ATOM     48  C19 FRA d   1      27.752  10.026   0.447  0.00  0.00     0.110 C 
ATOM     49  H21 FRA d   1      27.981   9.446   1.353  0.00  0.00     0.092 H 
ATOM     50  H22 FRA d   1      28.306  10.976   0.471  0.00  0.00     0.092 H 
BRANCH  48  51
ATOM     51  C20 FRA d   1      28.208   9.228  -0.769  0.00  0.00     0.198 C 
ATOM     52  O21 FRA d   1      27.626   9.415  -1.869  0.00  0.00    -0.646 OA
ATOM     53  O20 FRA d   1      29.148   8.404  -0.634  0.00  0.00    -0.646 OA
ENDBRANCH  48  51
ENDBRANCH  47  48
ENDBRANCH  44  47
ENDBRANCH  13  43
TORSDOF 7
