REMARK  9 active torsions:
REMARK  status: ('A' for Active; 'I' for Inactive)
REMARK    1  A    between atoms: PB_2  and  N3B_1 
REMARK    2  A    between atoms: PB_2  and  O3A_5 
REMARK    3  A    between atoms: O3A_5  and  PA_6 
REMARK    4  A    between atoms: PA_6  and  O5'_9 
REMARK    5  A    between atoms: O5'_9  and  C5'_10 
REMARK    6  A    between atoms: C5'_10  and  C4'_11 
REMARK    7  A    between atoms: C3'_13  and  O3'_14 
REMARK    8  A    between atoms: C2'_15  and  O2'_16 
REMARK    9  A    between atoms: C1'_17  and  N9_18 
ROOT
ATOM      1  C4' GNH d   1     105.993  29.899  -2.100  0.00  0.00     0.089 C 
ATOM      2  O4' GNH d   1     105.482  31.183  -2.439  0.00  0.00    -0.353 OA
ATOM      3  C3' GNH d   1     106.463  30.062  -0.657  0.00  0.00     0.091 C 
ATOM      4  C2' GNH d   1     105.735  31.266  -0.096  0.00  0.00     0.105 C 
ATOM      5  C1' GNH d   1     105.582  32.139  -1.349  0.00  0.00     0.139 C 
ATOM      6  H5  GNH d   1     106.857  29.642  -2.730  0.00  0.00     0.090 H 
ATOM      7  H6  GNH d   1     106.177  29.171  -0.079  0.00  0.00     0.091 H 
ATOM      8  H8  GNH d   1     104.732  30.940   0.216  0.00  0.00     0.093 H 
ATOM      9  H10 GNH d   1     106.456  32.800  -1.442  0.00  0.00     0.122 H 
ENDROOT
BRANCH   5  10
ATOM     10  N9  GNH d   1     104.315  32.943  -1.510  0.00  0.00    -0.294 N 
ATOM     11  C8  GNH d   1     103.000  32.536  -1.354  0.00  0.00     0.071 A 
ATOM     12  N7  GNH d   1     102.073  33.446  -1.556  0.00  0.00    -0.234 NA
ATOM     13  H11 GNH d   1     102.747  31.513  -1.078  0.00  0.00     0.144 H 
ATOM     14  C5  GNH d   1     102.807  34.596  -1.889  0.00  0.00     0.172 A 
ATOM     15  C6  GNH d   1     102.366  35.971  -2.236  0.00  0.00     0.281 A 
ATOM     16  C4  GNH d   1     104.205  34.323  -1.866  0.00  0.00     0.171 A 
ATOM     17  O6  GNH d   1     101.206  36.385  -2.306  0.00  0.00    -0.265 OA
ATOM     18  N1  GNH d   1     103.448  36.888  -2.522  0.00  0.00    -0.292 N 
ATOM     19  C2  GNH d   1     104.839  36.556  -2.481  0.00  0.00     0.204 A 
ATOM     20  H12 GNH d   1     103.205  37.826  -2.767  0.00  0.00     0.172 HD
ATOM     21  N2  GNH d   1     105.733  37.517  -2.767  0.00  0.00    -0.369 N 
ATOM     22  N3  GNH d   1     105.280  35.271  -2.157  0.00  0.00    -0.195 NA
ATOM     23  H13 GNH d   1     106.741  37.306  -2.745  0.00  0.00     0.159 HD
ATOM     24  H14 GNH d   1     105.411  38.465  -3.008  0.00  0.00     0.159 HD
ENDBRANCH   5  10
BRANCH   4  25
ATOM     25  O2' GNH d   1     106.298  31.889   1.059  0.00  0.00    -0.388 OA
ATOM     26  H9  GNH d   1     107.175  32.193   0.858  0.00  0.00     0.210 HD
ENDBRANCH   4  25
BRANCH   1  27
ATOM     27  C5' GNH d   1     104.864  28.849  -2.367  0.00  0.00     0.058 C 
ATOM     28  H3  GNH d   1     104.531  28.951  -3.410  0.00  0.00     0.079 H 
ATOM     29  H4  GNH d   1     105.278  27.842  -2.211  0.00  0.00     0.079 H 
BRANCH  27  30
ATOM     30  O5' GNH d   1     103.718  29.017  -1.498  0.00  0.00    -0.287 OA
BRANCH  30  31
ATOM     31  PA  GNH d   1     102.980  27.819  -0.775  0.00  0.00     0.417 P 
ATOM     32  O1A GNH d   1     103.932  26.873  -0.157  0.00  0.00    -0.624 OA
ATOM     33  O2A GNH d   1     101.850  28.318   0.057  0.00  0.00    -0.624 OA
BRANCH  31  34
ATOM     34  O3A GNH d   1     102.409  27.149  -2.136  0.00  0.00    -0.186 OA
BRANCH  34  35
ATOM     35  PB  GNH d   1     101.522  25.886  -2.428  0.00  0.00     0.366 P 
ATOM     36  O1B GNH d   1     100.983  25.470  -1.079  0.00  0.00    -0.630 OA
ATOM     37  O2B GNH d   1     100.350  26.250  -3.273  0.00  0.00    -0.630 OA
BRANCH  35  38
ATOM     38  N3B GNH d   1     102.486  24.870  -2.909  0.00  0.00    -0.334 N 
ATOM     39  H1  GNH d   1     102.165  23.959  -3.167  0.00  0.00     0.162 HD
ATOM     40  H2  GNH d   1     103.458  25.095  -2.976  0.00  0.00     0.162 HD
ENDBRANCH  35  38
ENDBRANCH  34  35
ENDBRANCH  31  34
ENDBRANCH  30  31
ENDBRANCH  27  30
ENDBRANCH   1  27
BRANCH   3  41
ATOM     41  O3' GNH d   1     107.873  30.193  -0.594  0.00  0.00    -0.390 OA
ATOM     42  H7  GNH d   1     108.141  30.293   0.312  0.00  0.00     0.210 HD
ENDBRANCH   3  41
TORSDOF 9
