REMARK  15 active torsions:
REMARK  status: ('A' for Active; 'I' for Inactive)
REMARK    1  A    between atoms: S_14  and  C1_1 
REMARK    2  A    between atoms: C5_6  and  N_11 
REMARK    3  A    between atoms: N_11  and  CM2_13 
REMARK    4  A    between atoms: N_11  and  CM1_12 
REMARK    5  A    between atoms: N_17  and  S_14 
REMARK    6  A    between atoms: CA_18  and  N_17 
REMARK    7  A    between atoms: C_19  and  CA_18 
REMARK    8  A    between atoms: CA_18  and  CB_21 
REMARK       I    between atoms: N1_28  and  C_19 
REMARK    9  A    between atoms: CB_21  and  CG_22 
REMARK   10  A    between atoms: CG_22  and  CD_23 
REMARK   11  A    between atoms: CD_23  and  NE_24 
REMARK       I    between atoms: NE_24  and  CZ_25 
REMARK       I    between atoms: CZ_25  and  NH1_26 
REMARK   12  A    between atoms: C1'_34  and  C2_29 
REMARK   13  A    between atoms: C2'_35  and  C1'_34 
REMARK   14  A    between atoms: C2'_40  and  C2'_35 
REMARK   15  A    between atoms: C2'_40  and  C2_39 
ROOT
ATOM      1  CA  QWE d   1      15.193 -15.114  21.296  0.00  0.00     0.097 C 
ATOM      2  H14 QWE d   1      15.541 -15.731  20.454  0.00  0.00     0.088 H 
ENDROOT
BRANCH   1   3
ATOM      3  C   QWE d   1      16.307 -14.167  21.752  0.00  0.00     0.243 C 
ATOM      4  O   QWE d   1      16.212 -13.781  22.914  0.00  0.00    -0.271 OA
ATOM      5  N1  QWE d   1      17.280 -13.692  20.830  0.00  0.00    -0.346 N 
ATOM      6  C6  QWE d   1      18.351 -12.680  21.310  0.00  0.00    -0.002 C 
ATOM      7  C2  QWE d   1      17.043 -14.033  19.327  0.00  0.00     0.015 C 
ATOM      8  C5  QWE d   1      19.696 -13.083  20.765  0.00  0.00    -0.050 C 
ATOM      9  H33 QWE d   1      18.386 -12.676  22.409  0.00  0.00     0.064 H 
ATOM     10  H34 QWE d   1      18.094 -11.674  20.948  0.00  0.00     0.064 H 
ATOM     11  C4  QWE d   1      19.610 -13.417  19.194  0.00  0.00    -0.062 C 
ATOM     12  H31 QWE d   1      20.407 -12.258  20.918  0.00  0.00     0.035 H 
ATOM     13  H32 QWE d   1      20.048 -13.975  21.303  0.00  0.00     0.035 H 
ATOM     14  C3  QWE d   1      18.421 -14.472  18.809  0.00  0.00    -0.046 C 
ATOM     15  H29 QWE d   1      19.431 -12.478  18.649  0.00  0.00     0.033 H 
ATOM     16  H30 QWE d   1      20.572 -13.847  18.878  0.00  0.00     0.033 H 
ATOM     17  H27 QWE d   1      18.372 -14.562  17.714  0.00  0.00     0.036 H 
ATOM     18  H28 QWE d   1      18.665 -15.451  19.247  0.00  0.00     0.036 H 
ATOM     19  H26 QWE d   1      16.323 -14.862  19.257  0.00  0.00     0.072 H 
BRANCH   7  20
ATOM     20  C1' QWE d   1      16.593 -13.014  18.550  0.00  0.00    -0.039 C 
ATOM     21  H35 QWE d   1      17.447 -12.355  18.332  0.00  0.00     0.036 H 
ATOM     22  H36 QWE d   1      15.839 -12.459  19.127  0.00  0.00     0.036 H 
BRANCH  20  23
ATOM     23  C2' QWE d   1      15.941 -13.425  17.179  0.00  0.00    -0.001 C 
ATOM     24  H37 QWE d   1      14.938 -12.983  17.090  0.00  0.00     0.045 H 
ATOM     25  H38 QWE d   1      15.867 -14.520  17.108  0.00  0.00     0.045 H 
BRANCH  23  26
ATOM     26  C2' QWE d   1      16.825 -12.903  16.107  0.00  0.00     0.184 C 
ATOM     27  O2  QWE d   1      17.488 -11.922  16.287  0.00  0.00    -0.290 OA
BRANCH  26  28
ATOM     28  C2  QWE d   1      16.864 -13.556  14.739  0.00  0.00     0.142 A 
ATOM     29  S1  QWE d   1      15.783 -14.904  14.458  0.00  0.00    -0.077 SA
ATOM     30  C5  QWE d   1      17.059 -15.583  13.508  0.00  0.00    -0.026 A 
ATOM     31  C4  QWE d   1      18.146 -14.734  13.451  0.00  0.00     0.010 A 
ATOM     32  H39 QWE d   1      17.011 -16.555  13.018  0.00  0.00     0.097 H 
ATOM     33  N3  QWE d   1      18.049 -13.554  14.106  0.00  0.00    -0.249 NA
ATOM     34  H40 QWE d   1      19.046 -15.003  12.900  0.00  0.00     0.115 H 
ENDBRANCH  26  28
ENDBRANCH  23  26
ENDBRANCH  20  23
ENDBRANCH   7  20
ENDBRANCH   1   3
BRANCH   1  35
ATOM     35  CB  QWE d   1      13.942 -14.354  20.879  0.00  0.00    -0.036 C 
ATOM     36  H15 QWE d   1      13.245 -15.059  20.403  0.00  0.00     0.036 H 
ATOM     37  H16 QWE d   1      14.228 -13.577  20.155  0.00  0.00     0.036 H 
BRANCH  35  38
ATOM     38  CG  QWE d   1      13.232 -13.686  22.058  0.00  0.00    -0.048 C 
ATOM     39  H17 QWE d   1      13.854 -12.865  22.443  0.00  0.00     0.035 H 
ATOM     40  H18 QWE d   1      13.068 -14.427  22.855  0.00  0.00     0.035 H 
BRANCH  38  41
ATOM     41  CD  QWE d   1      11.892 -13.133  21.595  0.00  0.00     0.009 C 
ATOM     42  H19 QWE d   1      11.298 -13.926  21.118  0.00  0.00     0.064 H 
ATOM     43  H20 QWE d   1      12.046 -12.310  20.881  0.00  0.00     0.064 H 
BRANCH  41  44
ATOM     44  NE  QWE d   1      11.218 -12.647  22.780  0.00  0.00    -0.227 N 
ATOM     45  CZ  QWE d   1      11.457 -11.554  23.483  0.00  0.00     0.665 C 
ATOM     46  NH1 QWE d   1      12.359 -10.674  23.045  0.00  0.00    -0.235 N 
ATOM     47  NH2 QWE d   1      10.723 -11.336  24.566  0.00  0.00    -0.235 N 
ATOM     48  H22 QWE d   1      12.551  -9.820  23.587  0.00  0.00     0.174 HD
ATOM     49  H23 QWE d   1      12.864 -10.849  22.164  0.00  0.00     0.174 HD
ATOM     50  H24 QWE d   1      10.036 -12.040  24.873  0.00  0.00     0.174 HD
ATOM     51  H25 QWE d   1      10.840 -10.463  25.100  0.00  0.00     0.174 HD
ATOM     52  H21 QWE d   1      10.445 -13.235  23.123  0.00  0.00     0.177 HD
ENDBRANCH  41  44
ENDBRANCH  38  41
ENDBRANCH  35  38
ENDBRANCH   1  35
BRANCH   1  53
ATOM     53  N   QWE d   1      14.893 -15.970  22.485  0.00  0.00    -0.302 N 
ATOM     54  H13 QWE d   1      14.250 -15.731  23.213  0.00  0.00     0.173 HD
BRANCH  53  55
ATOM     55  S   QWE d   1      15.909 -17.581  22.417  0.00  0.00     0.260 S 
ATOM     56  O2S QWE d   1      14.998 -18.191  23.402  0.00  0.00    -0.200 OA
ATOM     57  O1S QWE d   1      15.988 -18.013  21.010  0.00  0.00    -0.200 OA
BRANCH  55  58
ATOM     58  C1  QWE d   1      17.735 -17.178  22.612  0.00  0.00     0.090 A 
ATOM     59  C8A QWE d   1      18.205 -16.689  23.809  0.00  0.00    -0.000 A 
ATOM     60  C4A QWE d   1      19.613 -16.358  23.893  0.00  0.00     0.002 A 
ATOM     61  C8  QWE d   1      17.370 -16.510  24.879  0.00  0.00    -0.071 A 
ATOM     62  C4  QWE d   1      20.401 -16.566  22.766  0.00  0.00    -0.070 A 
ATOM     63  C5  QWE d   1      20.084 -15.791  25.046  0.00  0.00     0.040 A 
ATOM     64  C3  QWE d   1      19.877 -17.046  21.558  0.00  0.00    -0.081 A 
ATOM     65  H3  QWE d   1      21.461 -16.349  22.824  0.00  0.00     0.084 H 
ATOM     66  C2  QWE d   1      18.543 -17.350  21.462  0.00  0.00    -0.059 A 
ATOM     67  H2  QWE d   1      20.526 -17.177  20.700  0.00  0.00     0.083 H 
ATOM     68  H1  QWE d   1      18.119 -17.712  20.532  0.00  0.00     0.085 H 
ATOM     69  C6  QWE d   1      19.241 -15.568  26.114  0.00  0.00    -0.057 A 
ATOM     70  C7  QWE d   1      17.893 -15.971  26.028  0.00  0.00    -0.080 A 
ATOM     71  H4  QWE d   1      19.612 -15.087  27.012  0.00  0.00     0.086 H 
ATOM     72  H5  QWE d   1      17.251 -15.852  26.893  0.00  0.00     0.083 H 
ATOM     73  H6  QWE d   1      16.323 -16.787  24.820  0.00  0.00     0.084 H 
BRANCH  63  74
ATOM     74  N   QWE d   1      21.383 -15.285  25.104  0.00  0.00    -0.389 N 
BRANCH  74  75
ATOM     75  CM2 QWE d   1      22.635 -16.213  25.496  0.00  0.00    -0.019 C 
ATOM     76  H10 QWE d   1      22.297 -17.023  26.159  0.00  0.00     0.056 H 
ATOM     77  H11 QWE d   1      23.393 -15.607  26.014  0.00  0.00     0.056 H 
ATOM     78  H12 QWE d   1      23.072 -16.644  24.583  0.00  0.00     0.056 H 
ENDBRANCH  74  75
BRANCH  74  79
ATOM     79  CM1 QWE d   1      21.898 -14.217  24.214  0.00  0.00    -0.019 C 
ATOM     80  H7  QWE d   1      22.947 -14.004  24.466  0.00  0.00     0.056 H 
ATOM     81  H8  QWE d   1      21.296 -13.306  24.348  0.00  0.00     0.056 H 
ATOM     82  H9  QWE d   1      21.833 -14.549  23.167  0.00  0.00     0.056 H 
ENDBRANCH  74  79
ENDBRANCH  63  74
ENDBRANCH  55  58
ENDBRANCH  53  55
ENDBRANCH   1  53
TORSDOF 15
