REMARK  5 active torsions:
REMARK  status: ('A' for Active; 'I' for Inactive)
REMARK    1  A    between atoms: C9_10  and  C1'_11 
REMARK    2  A    between atoms: C2'_12  and  O2'_13 
REMARK    3  A    between atoms: C3'_14  and  O3'_15 
REMARK    4  A    between atoms: C4'_16  and  C5'_18 
REMARK    5  A    between atoms: C5'_18  and  O5'_19 
ROOT
ATOM      1  C1' FMB d   1     -17.551  69.797  69.239  0.00  0.00     0.112 C 
ATOM      2  C2' FMB d   1     -16.412  70.730  69.634  0.00  0.00     0.093 C 
ATOM      3  C3' FMB d   1     -16.846  71.330  70.995  0.00  0.00     0.090 C 
ATOM      4  C4' FMB d   1     -18.319  70.954  71.113  0.00  0.00     0.087 C 
ATOM      5  O4' FMB d   1     -18.459  69.746  70.329  0.00  0.00    -0.367 OA
ATOM      6  H4  FMB d   1     -17.144  68.794  69.043  0.00  0.00     0.097 H 
ATOM      7  H5  FMB d   1     -16.309  71.542  68.899  0.00  0.00     0.091 H 
ATOM      8  H7  FMB d   1     -16.724  72.423  70.977  0.00  0.00     0.091 H 
ATOM      9  H9  FMB d   1     -18.555  70.748  72.168  0.00  0.00     0.090 H 
ENDROOT
BRANCH   1  10
ATOM     10  C9  FMB d   1     -18.282  70.263  68.034  0.00  0.00     0.117 A 
ATOM     11  C4  FMB d   1     -18.265  71.135  66.971  0.00  0.00     0.120 A 
ATOM     12  N3  FMB d   1     -17.434  72.188  66.828  0.00  0.00    -0.239 NA
ATOM     13  C5  FMB d   1     -19.264  70.708  66.118  0.00  0.00     0.149 A 
ATOM     14  C2  FMB d   1     -17.659  72.843  65.692  0.00  0.00     0.067 A 
ATOM     15  N1  FMB d   1     -18.629  72.496  64.781  0.00  0.00    -0.316 N 
ATOM     16  H2  FMB d   1     -17.036  73.708  65.470  0.00  0.00     0.143 H 
ATOM     17  C6  FMB d   1     -19.496  71.412  64.920  0.00  0.00     0.277 A 
ATOM     18  H1  FMB d   1     -18.719  73.061  63.961  0.00  0.00     0.170 HD
ATOM     19  O6  FMB d   1     -20.335  71.177  64.046  0.00  0.00    -0.266 OA
ATOM     20  N7  FMB d   1     -19.900  69.584  66.623  0.00  0.00    -0.270 N 
ATOM     21  N8  FMB d   1     -19.289  69.356  67.760  0.00  0.00    -0.174 NA
ATOM     22  H3  FMB d   1     -20.674  69.051  66.202  0.00  0.00     0.189 HD
ENDBRANCH   1  10
BRANCH   2  23
ATOM     23  O2' FMB d   1     -15.204  69.995  69.656  0.00  0.00    -0.390 OA
ATOM     24  H6  FMB d   1     -14.489  70.570  69.902  0.00  0.00     0.210 HD
ENDBRANCH   2  23
BRANCH   3  25
ATOM     25  O3' FMB d   1     -16.116  70.800  72.122  0.00  0.00    -0.390 OA
ATOM     26  H8  FMB d   1     -15.190  70.984  72.013  0.00  0.00     0.210 HD
ENDBRANCH   3  25
BRANCH   4  27
ATOM     27  C5' FMB d   1     -19.287  72.022  70.609  0.00  0.00     0.043 C 
ATOM     28  H10 FMB d   1     -18.979  72.321  69.596  0.00  0.00     0.078 H 
ATOM     29  H11 FMB d   1     -19.228  72.890  71.282  0.00  0.00     0.078 H 
BRANCH  27  30
ATOM     30  O5' FMB d   1     -20.656  71.580  70.556  0.00  0.00    -0.398 OA
ATOM     31  H12 FMB d   1     -20.725  70.835  69.971  0.00  0.00     0.209 HD
ENDBRANCH  27  30
ENDBRANCH   4  27
TORSDOF 5
