REMARK WARNING: 32 MAX_TORS EXCEEDED!!!
REMARK  35 active torsions:
REMARK  status: ('A' for Active; 'I' for Inactive)
REMARK    1  A    between atoms: CA_2  and  N_1 
REMARK    2  A    between atoms: C_3  and  CA_2 
REMARK    3  A    between atoms: CA_2  and  CB_5 
REMARK       I    between atoms: N_12  and  C_3 
REMARK    4  A    between atoms: CB_5  and  CG_6 
REMARK    5  A    between atoms: CG_6  and  CD_7 
REMARK    6  A    between atoms: CD_7  and  NE_8 
REMARK       I    between atoms: NE_8  and  CZ_9 
REMARK       I    between atoms: CZ_9  and  NH1_10 
REMARK    7  A    between atoms: CA_13  and  N_12 
REMARK    8  A    between atoms: C_14  and  CA_13 
REMARK    9  A    between atoms: CA_13  and  CB_16 
REMARK       I    between atoms: N_19  and  C_14 
REMARK   10  A    between atoms: CB_16  and  CG1_17 
REMARK   11  A    between atoms: CB_16  and  CG2_18 
REMARK   12  A    between atoms: CA_20  and  N_19 
REMARK   13  A    between atoms: C_21  and  CA_20 
REMARK   14  A    between atoms: CA_20  and  CB_23 
REMARK       I    between atoms: N_27  and  C_21 
REMARK   15  A    between atoms: CB_23  and  CG_24 
REMARK   16  A    between atoms: CG_24  and  CD2_26 
REMARK   17  A    between atoms: CG_24  and  CD1_25 
REMARK   18  A    between atoms: CA_28  and  N_27 
REMARK   19  A    between atoms: C_29  and  CA_28 
REMARK   20  A    between atoms: CA_28  and  CB_31 
REMARK       I    between atoms: N_38  and  C_29 
REMARK   21  A    between atoms: CB_31  and  CG_32 
REMARK   22  A    between atoms: CA_39  and  N_38 
REMARK   23  A    between atoms: C_40  and  CA_39 
REMARK   24  A    between atoms: CA_39  and  CB_42 
REMARK       I    between atoms: N_47  and  C_40 
REMARK   25  A    between atoms: CB_42  and  CG_43 
REMARK   26  A    between atoms: CG_43  and  CD_44 
REMARK   27  A    between atoms: CA_48  and  N_47 
REMARK   28  A    between atoms: C_49  and  CA_48 
REMARK   29  A    between atoms: CA_48  and  CB_51 
REMARK       I    between atoms: C_49  and  N_52 
REMARK   30  A    between atoms: N_52  and  CA_53 
REMARK   31  A    between atoms: CA_53  and  CB_56 
REMARK   32  A    between atoms: CA_53  and  C_54 
REMARK       I    between atoms: C_54  and  N_60 
REMARK   33  A    between atoms: CB_56  and  CG_57 
REMARK   34  A    between atoms: CG_57  and  CD_58 
REMARK   35  A    between atoms: CD_58  and  CE_59 
ROOT
ATOM      1  CA  0Q4 d   1      59.950  18.584  32.034  0.00  0.00     0.093 C 
ATOM      2  H37 0Q4 d   1      60.764  18.323  31.342  0.00  0.00     0.088 H 
ENDROOT
BRANCH   1   3
ATOM      3  C   0Q4 d   1      59.926  17.578  33.226  0.00  0.00     0.241 C 
ATOM      4  O   0Q4 d   1      58.890  17.374  33.894  0.00  0.00    -0.271 OA
ATOM      5  N   0Q4 d   1      61.046  16.928  33.491  0.00  0.00    -0.346 N 
ATOM      6  H45 0Q4 d   1      61.864  17.111  32.946  0.00  0.00     0.163 HD
BRANCH   5   7
ATOM      7  CA  0Q4 d   1      61.104  15.943  34.573  0.00  0.00     0.090 C 
ATOM      8  H46 0Q4 d   1      60.410  16.234  35.375  0.00  0.00     0.087 H 
BRANCH   7   9
ATOM      9  C   0Q4 d   1      62.521  15.954  35.127  0.00  0.00     0.241 C 
ATOM     10  O   0Q4 d   1      63.514  15.768  34.423  0.00  0.00    -0.271 OA
ATOM     11  N   0Q4 d   1      62.633  16.231  36.398  0.00  0.00    -0.346 N 
ATOM     12  H51 0Q4 d   1      61.819  16.396  36.955  0.00  0.00     0.163 HD
BRANCH  11  13
ATOM     13  CA  0Q4 d   1      63.949  16.295  36.988  0.00  0.00     0.086 C 
ATOM     14  H52 0Q4 d   1      64.693  16.032  36.221  0.00  0.00     0.086 H 
BRANCH  13  15
ATOM     15  C   0Q4 d   1      64.066  15.314  38.127  0.00  0.00     0.240 C 
ATOM     16  O   0Q4 d   1      63.128  15.148  38.920  0.00  0.00    -0.271 OA
ATOM     17  N   0Q4 d   1      65.223  14.681  38.211  0.00  0.00    -0.346 N 
ATOM     18  H56 0Q4 d   1      65.932  14.884  37.535  0.00  0.00     0.163 HD
BRANCH  17  19
ATOM     19  CA  0Q4 d   1      65.506  13.702  39.245  0.00  0.00     0.089 C 
ATOM     20  H57 0Q4 d   1      65.221  12.721  38.837  0.00  0.00     0.087 H 
BRANCH  19  21
ATOM     21  CB  0Q4 d   1      67.002  13.681  39.501  0.00  0.00    -0.038 C 
ATOM     22  H58 0Q4 d   1      67.193  13.102  40.417  0.00  0.00     0.036 H 
ATOM     23  H59 0Q4 d   1      67.348  14.716  39.642  0.00  0.00     0.036 H 
BRANCH  21  24
ATOM     24  CG  0Q4 d   1      67.794  13.055  38.356  0.00  0.00    -0.063 C 
ATOM     25  H60 0Q4 d   1      68.840  13.391  38.418  0.00  0.00     0.033 H 
ATOM     26  H61 0Q4 d   1      67.360  13.381  37.400  0.00  0.00     0.033 H 
BRANCH  24  27
ATOM     27  CD  0Q4 d   1      67.757  11.529  38.425  0.00  0.00    -0.068 C 
ATOM     28  H62 0Q4 d   1      66.801  11.167  38.020  0.00  0.00     0.032 H 
ATOM     29  H63 0Q4 d   1      67.857  11.207  39.472  0.00  0.00     0.032 H 
BRANCH  27  30
ATOM     30  CE  0Q4 d   1      68.909  10.952  37.603  0.00  0.00    -0.077 C 
ATOM     31  H64 0Q4 d   1      68.881   9.854  37.654  0.00  0.00     0.027 H 
ATOM     32  H65 0Q4 d   1      69.866  11.314  38.008  0.00  0.00     0.027 H 
ATOM     33  H66 0Q4 d   1      68.809  11.274  36.556  0.00  0.00     0.027 H 
ENDBRANCH  27  30
ENDBRANCH  24  27
ENDBRANCH  21  24
ENDBRANCH  19  21
BRANCH  19  34
ATOM     34  C   0Q4 d   1      64.738  13.860  40.562  0.00  0.00     0.238 C 
ATOM     35  O   0Q4 d   1      64.938  14.842  41.331  0.00  0.00    -0.271 OA
ATOM     36  N   0Q4 d   1      63.882  12.980  40.780  0.00  0.00    -0.368 N 
ATOM     37  H67 0Q4 d   1      63.337  13.010  41.618  0.00  0.00     0.159 HD
ATOM     38  H68 0Q4 d   1      63.741  12.245  40.117  0.00  0.00     0.159 HD
ENDBRANCH  19  34
ENDBRANCH  17  19
ENDBRANCH  13  15
BRANCH  13  39
ATOM     39  CB  0Q4 d   1      64.227  17.713  37.475  0.00  0.00    -0.049 C 
ATOM     40  H53 0Q4 d   1      65.231  17.756  37.923  0.00  0.00     0.030 H 
ATOM     41  H54 0Q4 d   1      63.476  17.996  38.228  0.00  0.00     0.030 H 
ATOM     42  H55 0Q4 d   1      64.175  18.409  36.625  0.00  0.00     0.030 H 
ENDBRANCH  13  39
ENDBRANCH  11  13
ENDBRANCH   7   9
BRANCH   7  43
ATOM     43  CB  0Q4 d   1      60.667  14.572  34.026  0.00  0.00    -0.029 C 
ATOM     44  H47 0Q4 d   1      61.257  14.371  33.120  0.00  0.00     0.037 H 
ATOM     45  H48 0Q4 d   1      59.602  14.643  33.761  0.00  0.00     0.037 H 
BRANCH  43  46
ATOM     46  CG  0Q4 d   1      60.833  13.381  34.959  0.00  0.00     0.018 C 
ATOM     47  H49 0Q4 d   1      60.270  12.530  34.549  0.00  0.00     0.049 H 
ATOM     48  H50 0Q4 d   1      60.429  13.646  35.947  0.00  0.00     0.049 H 
BRANCH  46  49
ATOM     49  CD  0Q4 d   1      62.294  12.971  35.121  0.00  0.00     0.172 C 
ATOM     50  OE1 0Q4 d   1      63.051  13.210  34.151  0.00  0.00    -0.648 OA
ATOM     51  OE2 0Q4 d   1      62.696  12.449  36.202  0.00  0.00    -0.648 OA
ENDBRANCH  46  49
ENDBRANCH  43  46
ENDBRANCH   7  43
ENDBRANCH   5   7
ENDBRANCH   1   3
BRANCH   1  52
ATOM     52  CB  0Q4 d   1      60.120  20.038  32.496  0.00  0.00    -0.014 C 
ATOM     53  H38 0Q4 d   1      59.130  20.434  32.764  0.00  0.00     0.043 H 
ATOM     54  H39 0Q4 d   1      60.534  20.621  31.660  0.00  0.00     0.043 H 
BRANCH  52  55
ATOM     55  CG  0Q4 d   1      61.030  20.198  33.681  0.00  0.00    -0.056 A 
ATOM     56  CD2 0Q4 d   1      60.498  20.419  34.948  0.00  0.00    -0.077 A 
ATOM     57  CE2 0Q4 d   1      61.308  20.450  36.061  0.00  0.00    -0.082 A 
ATOM     58  H41 0Q4 d   1      59.430  20.569  35.060  0.00  0.00     0.084 H 
ATOM     59  CZ  0Q4 d   1      62.672  20.262  35.919  0.00  0.00    -0.083 A 
ATOM     60  H43 0Q4 d   1      60.880  20.621  37.042  0.00  0.00     0.083 H 
ATOM     61  CE1 0Q4 d   1      63.227  20.052  34.655  0.00  0.00    -0.082 A 
ATOM     62  H44 0Q4 d   1      63.312  20.278  36.793  0.00  0.00     0.083 H 
ATOM     63  CD1 0Q4 d   1      62.399  20.023  33.548  0.00  0.00    -0.077 A 
ATOM     64  H42 0Q4 d   1      64.296  19.913  34.543  0.00  0.00     0.083 H 
ATOM     65  H40 0Q4 d   1      62.825  19.861  32.565  0.00  0.00     0.084 H 
ENDBRANCH  52  55
ENDBRANCH   1  52
BRANCH   1  66
ATOM     66  N   0Q4 d   1      58.657  18.462  31.375  0.00  0.00    -0.346 N 
ATOM     67  C   0Q4 d   1      58.185  17.295  30.945  0.00  0.00     0.241 C 
ATOM     68  O   0Q4 d   1      58.836  16.251  30.981  0.00  0.00    -0.271 OA
ATOM     69  H36 0Q4 d   1      58.104  19.285  31.241  0.00  0.00     0.163 HD
BRANCH  67  70
ATOM     70  CA  0Q4 d   1      56.793  17.310  30.363  0.00  0.00     0.089 C 
ATOM     71  H26 0Q4 d   1      56.132  17.172  31.231  0.00  0.00     0.087 H 
BRANCH  70  72
ATOM     72  CB  0Q4 d   1      56.550  16.127  29.452  0.00  0.00    -0.035 C 
ATOM     73  H27 0Q4 d   1      56.762  15.190  29.988  0.00  0.00     0.037 H 
ATOM     74  H28 0Q4 d   1      57.197  16.197  28.565  0.00  0.00     0.037 H 
BRANCH  72  75
ATOM     75  CG  0Q4 d   1      55.084  16.166  29.031  0.00  0.00    -0.059 C 
ATOM     76  H29 0Q4 d   1      54.841  17.204  28.762  0.00  0.00     0.038 H 
BRANCH  75  77
ATOM     77  CD2 0Q4 d   1      54.232  15.785  30.214  0.00  0.00    -0.073 C 
ATOM     78  H33 0Q4 d   1      54.481  16.431  31.069  0.00  0.00     0.028 H 
ATOM     79  H34 0Q4 d   1      54.423  14.735  30.481  0.00  0.00     0.028 H 
ATOM     80  H35 0Q4 d   1      53.170  15.911  29.957  0.00  0.00     0.028 H 
ENDBRANCH  75  77
BRANCH  75  81
ATOM     81  CD1 0Q4 d   1      54.795  15.314  27.811  0.00  0.00    -0.073 C 
ATOM     82  H30 0Q4 d   1      53.726  15.384  27.559  0.00  0.00     0.028 H 
ATOM     83  H31 0Q4 d   1      55.053  14.267  28.026  0.00  0.00     0.028 H 
ATOM     84  H32 0Q4 d   1      55.396  15.673  26.962  0.00  0.00     0.028 H 
ENDBRANCH  75  81
ENDBRANCH  72  75
ENDBRANCH  70  72
BRANCH  70  85
ATOM     85  N   0Q4 d   1      56.313  18.518  29.717  0.00  0.00    -0.346 N 
ATOM     86  C   0Q4 d   1      55.594  19.409  30.393  0.00  0.00     0.241 C 
ATOM     87  O   0Q4 d   1      55.368  19.293  31.608  0.00  0.00    -0.271 OA
ATOM     88  H25 0Q4 d   1      56.525  18.682  28.754  0.00  0.00     0.163 HD
BRANCH  86  89
ATOM     89  CA  0Q4 d   1      55.058  20.615  29.584  0.00  0.00     0.092 C 
ATOM     90  H17 0Q4 d   1      55.595  20.721  28.630  0.00  0.00     0.088 H 
BRANCH  89  91
ATOM     91  CB  0Q4 d   1      55.169  21.920  30.395  0.00  0.00    -0.033 C 
ATOM     92  H18 0Q4 d   1      54.876  21.709  31.434  0.00  0.00     0.042 H 
BRANCH  91  93
ATOM     93  CG1 0Q4 d   1      56.601  22.420  30.394  0.00  0.00    -0.071 C 
ATOM     94  H19 0Q4 d   1      56.665  23.351  30.976  0.00  0.00     0.028 H 
ATOM     95  H20 0Q4 d   1      56.922  22.612  29.359  0.00  0.00     0.028 H 
ATOM     96  H21 0Q4 d   1      57.255  21.660  30.846  0.00  0.00     0.028 H 
ENDBRANCH  91  93
BRANCH  91  97
ATOM     97  CG2 0Q4 d   1      54.229  22.982  29.840  0.00  0.00    -0.071 C 
ATOM     98  H22 0Q4 d   1      53.198  22.600  29.849  0.00  0.00     0.028 H 
ATOM     99  H23 0Q4 d   1      54.520  23.226  28.808  0.00  0.00     0.028 H 
ATOM    100  H24 0Q4 d   1      54.290  23.887  30.462  0.00  0.00     0.028 H 
ENDBRANCH  91  97
ENDBRANCH  89  91
BRANCH  89 101
ATOM    101  N   0Q4 d   1      53.669  20.289  29.372  0.00  0.00    -0.346 N 
ATOM    102  C   0Q4 d   1      53.086  20.207  28.187  0.00  0.00     0.249 C 
ATOM    103  O   0Q4 d   1      53.666  20.407  27.131  0.00  0.00    -0.271 OA
ATOM    104  H16 0Q4 d   1      53.106  20.112  30.179  0.00  0.00     0.163 HD
BRANCH 102 105
ATOM    105  CA  0Q4 d   1      51.610  19.851  28.207  0.00  0.00     0.176 C 
ATOM    106  H4  0Q4 d   1      51.194  20.126  29.187  0.00  0.00     0.099 H 
BRANCH 105 107
ATOM    107  CB  0Q4 d   1      51.460  18.321  28.020  0.00  0.00    -0.029 C 
ATOM    108  H5  0Q4 d   1      52.218  17.832  28.649  0.00  0.00     0.036 H 
ATOM    109  H6  0Q4 d   1      51.659  18.093  26.962  0.00  0.00     0.036 H 
BRANCH 107 110
ATOM    110  CG  0Q4 d   1      50.088  17.710  28.380  0.00  0.00    -0.047 C 
ATOM    111  H7  0Q4 d   1      50.163  16.616  28.294  0.00  0.00     0.035 H 
ATOM    112  H8  0Q4 d   1      49.343  18.084  27.663  0.00  0.00     0.035 H 
BRANCH 110 113
ATOM    113  CD  0Q4 d   1      49.598  18.058  29.826  0.00  0.00     0.009 C 
ATOM    114  H9  0Q4 d   1      49.474  19.148  29.899  0.00  0.00     0.064 H 
ATOM    115  H10 0Q4 d   1      50.364  17.727  30.543  0.00  0.00     0.064 H 
BRANCH 113 116
ATOM    116  NE  0Q4 d   1      48.325  17.421  30.180  0.00  0.00    -0.227 N 
ATOM    117  CZ  0Q4 d   1      48.132  16.103  30.218  0.00  0.00     0.665 C 
ATOM    118  NH1 0Q4 d   1      49.117  15.268  29.935  0.00  0.00    -0.235 N 
ATOM    119  NH2 0Q4 d   1      46.939  15.614  30.503  0.00  0.00    -0.235 N 
ATOM    120  H12 0Q4 d   1      48.956  14.251  29.968  0.00  0.00     0.174 HD
ATOM    121  H13 0Q4 d   1      50.046  15.634  29.682  0.00  0.00     0.174 HD
ATOM    122  H14 0Q4 d   1      46.161  16.251  30.726  0.00  0.00     0.174 HD
ATOM    123  H15 0Q4 d   1      46.786  14.595  30.503  0.00  0.00     0.174 HD
ATOM    124  H11 0Q4 d   1      47.529  18.032  30.414  0.00  0.00     0.177 HD
ENDBRANCH 113 116
ENDBRANCH 110 113
ENDBRANCH 107 110
ENDBRANCH 105 107
BRANCH 105 125
ATOM    125  N   0Q4 d   1      50.869  20.610  27.157  0.00  0.00    -0.067 N 
ATOM    126  H1  0Q4 d   1      49.893  20.360  27.187  0.00  0.00     0.275 HD
ATOM    127  H2  0Q4 d   1      51.246  20.384  26.250  0.00  0.00     0.275 HD
ATOM    128  H3  0Q4 d   1      50.967  21.599  27.325  0.00  0.00     0.275 HD
ENDBRANCH 105 125
ENDBRANCH 102 105
ENDBRANCH  89 101
ENDBRANCH  86  89
ENDBRANCH  70  85
ENDBRANCH  67  70
ENDBRANCH   1  66
TORSDOF 35
