REMARK  5 active torsions:
REMARK  status: ('A' for Active; 'I' for Inactive)
REMARK    1  A    between atoms: N2_1  and  C4_2 
REMARK    2  A    between atoms: C4_2  and  C3_3 
REMARK    3  A    between atoms: C3_3  and  C2_4 
REMARK    4  A    between atoms: C2_4  and  C1_5 
REMARK    5  A    between atoms: C1_5  and  N1_6 
ROOT
ATOM      1  C3  PUT d   1     184.097   7.988  64.126  0.00  0.00    -0.041 C 
ATOM      2  H6  PUT d   1     184.661   8.785  63.620  0.00  0.00     0.035 H 
ATOM      3  H7  PUT d   1     183.282   8.433  64.715  0.00  0.00     0.035 H 
ENDROOT
BRANCH   1   4
ATOM      4  C4  PUT d   1     185.047   7.250  65.086  0.00  0.00     0.080 C 
ATOM      5  H4  PUT d   1     184.451   6.693  65.824  0.00  0.00     0.075 H 
ATOM      6  H5  PUT d   1     185.667   6.548  64.509  0.00  0.00     0.075 H 
BRANCH   4   7
ATOM      7  N2  PUT d   1     185.937   8.210  65.803  0.00  0.00    -0.079 N 
ATOM      8  H1  PUT d   1     186.548   7.702  66.424  0.00  0.00     0.274 HD
ATOM      9  H2  PUT d   1     185.375   8.854  66.337  0.00  0.00     0.274 HD
ATOM     10  H3  PUT d   1     186.489   8.721  65.132  0.00  0.00     0.274 HD
ENDBRANCH   4   7
ENDBRANCH   1   4
BRANCH   1  11
ATOM     11  C2  PUT d   1     183.490   7.081  63.070  0.00  0.00    -0.041 C 
ATOM     12  H8  PUT d   1     182.959   6.260  63.574  0.00  0.00     0.035 H 
ATOM     13  H9  PUT d   1     184.301   6.668  62.452  0.00  0.00     0.035 H 
BRANCH  11  14
ATOM     14  C1  PUT d   1     182.514   7.810  62.168  0.00  0.00     0.080 C 
ATOM     15  H10 PUT d   1     182.929   8.795  61.910  0.00  0.00     0.075 H 
ATOM     16  H11 PUT d   1     181.561   7.942  62.701  0.00  0.00     0.075 H 
BRANCH  14  17
ATOM     17  N1  PUT d   1     182.270   7.045  60.921  0.00  0.00    -0.079 N 
ATOM     18  H12 PUT d   1     181.619   7.549  60.339  0.00  0.00     0.274 HD
ATOM     19  H13 PUT d   1     181.885   6.142  61.151  0.00  0.00     0.274 HD
ATOM     20  H14 PUT d   1     183.139   6.924  60.425  0.00  0.00     0.274 HD
ENDBRANCH  14  17
ENDBRANCH  11  14
ENDBRANCH   1  11
TORSDOF 5
