REMARK  0 active torsions:
REMARK  status: ('A' for Active; 'I' for Inactive)
ROOT
ATOM      1  N1  HPA d   1      26.435  90.180  73.331  0.00  0.00    -0.316 N 
ATOM      2  C2  HPA d   1      25.447  89.252  73.265  0.00  0.00     0.069 A 
ATOM      3  N3  HPA d   1      24.176  89.542  73.422  0.00  0.00    -0.224 NA
ATOM      4  C4  HPA d   1      23.978  90.846  73.649  0.00  0.00     0.164 A 
ATOM      5  C5  HPA d   1      24.926  91.832  73.732  0.00  0.00     0.171 A 
ATOM      6  C6  HPA d   1      26.286  91.518  73.567  0.00  0.00     0.279 A 
ATOM      7  O6  HPA d   1      27.292  92.238  73.588  0.00  0.00    -0.265 OA
ATOM      8  N7  HPA d   1      24.293  93.024  73.972  0.00  0.00    -0.234 NA
ATOM      9  C8  HPA d   1      22.968  92.756  74.024  0.00  0.00     0.066 A 
ATOM     10  N9  HPA d   1      22.737  91.418  73.827  0.00  0.00    -0.333 N 
ATOM     11  H1  HPA d   1      27.369  89.851  73.193  0.00  0.00     0.170 HD
ATOM     12  H2  HPA d   1      25.722  88.216  73.072  0.00  0.00     0.143 H 
ATOM     13  H3  HPA d   1      22.192  93.500  74.198  0.00  0.00     0.143 H 
ATOM     14  H4  HPA d   1      21.825  90.940  73.815  0.00  0.00     0.168 HD
ENDROOT
TORSDOF 0
