REMARK  26 active torsions:
REMARK  status: ('A' for Active; 'I' for Inactive)
REMARK    1  A    between atoms: CB1_1  and  C1_2 
REMARK    2  A    between atoms: C1_2  and  N4_3 
REMARK    3  A    between atoms: C1_2  and  C2_4 
REMARK       I    between atoms: C2_4  and  N12_6 
REMARK    4  A    between atoms: N12_6  and  CA1_7 
REMARK    5  A    between atoms: CA1_7  and  CB3_8 
REMARK    6  A    between atoms: CA1_7  and  C15_9 
REMARK       I    between atoms: C15_9  and  N22_11 
REMARK    7  A    between atoms: N22_11  and  CA2_12 
REMARK    8  A    between atoms: CA2_12  and  CB2_13 
REMARK    9  A    between atoms: CA2_12  and  C31_20 
REMARK   10  A    between atoms: CB2_13  and  CG2_14 
REMARK   11  A    between atoms: C31_20  and  O32_21 
REMARK   12  A    between atoms: C31_20  and  C44_22 
REMARK   13  A    between atoms: C44_22  and  CA4_23 
REMARK   14  A    between atoms: CA4_23  and  C46_24 
REMARK       I    between atoms: C46_24  and  N52_26 
REMARK   15  A    between atoms: N52_26  and  CA5_27 
REMARK   16  A    between atoms: CA5_27  and  CB5_28 
REMARK   17  A    between atoms: CA5_27  and  C57_31 
REMARK   18  A    between atoms: CB5_28  and  CG6_29 
REMARK   19  A    between atoms: CB5_28  and  CG5_30 
REMARK       I    between atoms: C57_31  and  N68_33 
REMARK   20  A    between atoms: N68_33  and  CA6_34 
REMARK   21  A    between atoms: CA6_34  and  CB7_35 
REMARK   22  A    between atoms: CA6_34  and  C73_38 
REMARK   23  A    between atoms: CB7_35  and  CG8_36 
REMARK   24  A    between atoms: CB7_35  and  CG7_37 
REMARK   25  A    between atoms: C73_38  and  OT7_39 
REMARK   26  A    between atoms: OT7_39  and  C76_41 
ROOT
ATOM      1  C44 PSI d   1     -10.774  16.612   0.915  0.00  0.00    -0.031 C 
ATOM      2  H24 PSI d   1     -10.112  15.734   0.932  0.00  0.00     0.037 H 
ATOM      3  H25 PSI d   1     -11.244  16.698  -0.076  0.00  0.00     0.037 H 
ENDROOT
BRANCH   1   4
ATOM      4  C31 PSI d   1      -9.926  17.871   1.167  0.00  0.00     0.056 C 
ATOM      5  H22 PSI d   1      -9.539  17.844   2.196  0.00  0.00     0.086 H 
BRANCH   4   6
ATOM      6  CA2 PSI d   1      -8.663  17.822   0.218  0.00  0.00     0.041 C 
ATOM      7  H14 PSI d   1      -8.165  16.856   0.386  0.00  0.00     0.076 H 
BRANCH   6   8
ATOM      8  N22 PSI d   1      -8.982  17.902  -1.237  0.00  0.00    -0.352 N 
ATOM      9  C15 PSI d   1      -8.818  16.868  -2.081  0.00  0.00     0.240 C 
ATOM     10  O16 PSI d   1      -8.435  15.761  -1.729  0.00  0.00    -0.271 OA
ATOM     11  H13 PSI d   1      -9.334  18.764  -1.601  0.00  0.00     0.163 HD
BRANCH   9  12
ATOM     12  CA1 PSI d   1      -9.068  17.115  -3.573  0.00  0.00     0.086 C 
ATOM     13  H9  PSI d   1      -9.437  18.139  -3.730  0.00  0.00     0.086 H 
BRANCH  12  14
ATOM     14  N12 PSI d   1      -7.764  16.932  -4.232  0.00  0.00    -0.346 N 
ATOM     15  C2  PSI d   1      -7.284  17.785  -5.151  0.00  0.00     0.248 C 
ATOM     16  O3  PSI d   1      -7.878  18.795  -5.503  0.00  0.00    -0.271 OA
ATOM     17  H8  PSI d   1      -7.211  16.137  -3.984  0.00  0.00     0.163 HD
BRANCH  15  18
ATOM     18  C1  PSI d   1      -5.883  17.474  -5.680  0.00  0.00     0.172 C 
ATOM     19  H4  PSI d   1      -5.718  16.387  -5.644  0.00  0.00     0.098 H 
BRANCH  18  20
ATOM     20  CB1 PSI d   1      -4.832  18.179  -4.828  0.00  0.00    -0.042 C 
ATOM     21  H1  PSI d   1      -4.919  17.842  -3.785  0.00  0.00     0.030 H 
ATOM     22  H2  PSI d   1      -4.990  19.267  -4.876  0.00  0.00     0.030 H 
ATOM     23  H3  PSI d   1      -3.829  17.937  -5.209  0.00  0.00     0.030 H 
ENDBRANCH  18  20
BRANCH  18  24
ATOM     24  N4  PSI d   1      -5.741  17.938  -7.039  0.00  0.00    -0.067 N 
ATOM     25  H5  PSI d   1      -6.427  17.485  -7.622  0.00  0.00     0.275 HD
ATOM     26  H6  PSI d   1      -4.816  17.718  -7.375  0.00  0.00     0.275 HD
ATOM     27  H7  PSI d   1      -5.881  18.936  -7.070  0.00  0.00     0.275 HD
ENDBRANCH  18  24
ENDBRANCH  15  18
ENDBRANCH  12  14
BRANCH  12  28
ATOM     28  CB3 PSI d   1     -10.088  16.115  -4.141  0.00  0.00    -0.049 C 
ATOM     29  H10 PSI d   1     -11.059  16.259  -3.643  0.00  0.00     0.030 H 
ATOM     30  H11 PSI d   1      -9.733  15.089  -3.964  0.00  0.00     0.030 H 
ATOM     31  H12 PSI d   1     -10.202  16.282  -5.222  0.00  0.00     0.030 H 
ENDBRANCH  12  28
ENDBRANCH   9  12
ENDBRANCH   6   8
BRANCH   6  32
ATOM     32  CB2 PSI d   1      -7.686  18.939   0.623  0.00  0.00    -0.020 C 
ATOM     33  H15 PSI d   1      -7.557  18.907   1.715  0.00  0.00     0.043 H 
ATOM     34  H16 PSI d   1      -8.126  19.905   0.334  0.00  0.00     0.043 H 
BRANCH  32  35
ATOM     35  CG2 PSI d   1      -6.315  18.826  -0.024  0.00  0.00    -0.056 A 
ATOM     36  CD1 PSI d   1      -5.958  19.605  -1.137  0.00  0.00    -0.077 A 
ATOM     37  CE1 PSI d   1      -4.669  19.494  -1.682  0.00  0.00    -0.082 A 
ATOM     38  H17 PSI d   1      -6.676  20.290  -1.574  0.00  0.00     0.084 H 
ATOM     39  CZ3 PSI d   1      -3.729  18.621  -1.110  0.00  0.00    -0.083 A 
ATOM     40  H19 PSI d   1      -4.398  20.085  -2.549  0.00  0.00     0.083 H 
ATOM     41  CE2 PSI d   1      -4.086  17.837  -0.004  0.00  0.00    -0.082 A 
ATOM     42  H21 PSI d   1      -2.729  18.554  -1.523  0.00  0.00     0.083 H 
ATOM     43  CD2 PSI d   1      -5.368  17.953   0.546  0.00  0.00    -0.077 A 
ATOM     44  H20 PSI d   1      -3.372  17.143   0.424  0.00  0.00     0.083 H 
ATOM     45  H18 PSI d   1      -5.634  17.366   1.418  0.00  0.00     0.084 H 
ENDBRANCH  32  35
ENDBRANCH   6  32
ENDBRANCH   4   6
BRANCH   4  46
ATOM     46  O32 PSI d   1     -10.864  19.015   1.093  0.00  0.00    -0.393 OA
ATOM     47  H23 PSI d   1     -10.397  19.819   1.289  0.00  0.00     0.210 HD
ENDBRANCH   4  46
ENDBRANCH   1   4
BRANCH   1  48
ATOM     48  CA4 PSI d   1     -11.884  16.414   1.972  0.00  0.00     0.011 C 
ATOM     49  H26 PSI d   1     -12.660  15.760   1.547  0.00  0.00     0.047 H 
ATOM     50  H27 PSI d   1     -12.321  17.395   2.209  0.00  0.00     0.047 H 
BRANCH  48  51
ATOM     51  C46 PSI d   1     -11.370  15.781   3.271  0.00  0.00     0.218 C 
ATOM     52  O47 PSI d   1     -10.780  14.710   3.196  0.00  0.00    -0.274 OA
ATOM     53  N52 PSI d   1     -11.629  16.367   4.458  0.00  0.00    -0.347 N 
ATOM     54  H28 PSI d   1     -12.052  17.273   4.493  0.00  0.00     0.163 HD
BRANCH  53  55
ATOM     55  CA5 PSI d   1     -11.280  15.653   5.711  0.00  0.00     0.092 C 
ATOM     56  H29 PSI d   1     -10.665  14.780   5.446  0.00  0.00     0.088 H 
BRANCH  55  57
ATOM     57  CB5 PSI d   1     -10.432  16.519   6.669  0.00  0.00    -0.033 C 
ATOM     58  H30 PSI d   1     -11.041  17.374   6.997  0.00  0.00     0.042 H 
BRANCH  57  59
ATOM     59  CG6 PSI d   1      -9.968  15.726   7.908  0.00  0.00    -0.071 C 
ATOM     60  H31 PSI d   1      -9.370  16.380   8.559  0.00  0.00     0.028 H 
ATOM     61  H32 PSI d   1      -9.357  14.870   7.587  0.00  0.00     0.028 H 
ATOM     62  H33 PSI d   1     -10.847  15.363   8.461  0.00  0.00     0.028 H 
ENDBRANCH  57  59
BRANCH  57  63
ATOM     63  CG5 PSI d   1      -9.167  17.037   5.954  0.00  0.00    -0.071 C 
ATOM     64  H34 PSI d   1      -9.459  17.610   5.061  0.00  0.00     0.028 H 
ATOM     65  H35 PSI d   1      -8.540  16.184   5.654  0.00  0.00     0.028 H 
ATOM     66  H36 PSI d   1      -8.600  17.686   6.637  0.00  0.00     0.028 H 
ENDBRANCH  57  63
ENDBRANCH  55  57
BRANCH  55  67
ATOM     67  C57 PSI d   1     -12.596  15.131   6.328  0.00  0.00     0.241 C 
ATOM     68  O58 PSI d   1     -13.577  15.844   6.493  0.00  0.00    -0.271 OA
ATOM     69  N68 PSI d   1     -12.539  13.842   6.657  0.00  0.00    -0.349 N 
ATOM     70  H37 PSI d   1     -11.656  13.417   6.458  0.00  0.00     0.163 HD
BRANCH  69  71
ATOM     71  CA6 PSI d   1     -13.519  12.917   7.256  0.00  0.00     0.077 C 
ATOM     72  H38 PSI d   1     -14.322  13.512   7.716  0.00  0.00     0.082 H 
BRANCH  71  73
ATOM     73  CB7 PSI d   1     -14.168  12.052   6.121  0.00  0.00    -0.036 C 
ATOM     74  H39 PSI d   1     -13.369  11.459   5.653  0.00  0.00     0.042 H 
BRANCH  73  75
ATOM     75  CG8 PSI d   1     -15.279  11.090   6.638  0.00  0.00    -0.071 C 
ATOM     76  H40 PSI d   1     -15.689  10.516   5.794  0.00  0.00     0.028 H 
ATOM     77  H41 PSI d   1     -16.082  11.676   7.108  0.00  0.00     0.028 H 
ATOM     78  H42 PSI d   1     -14.850  10.398   7.377  0.00  0.00     0.028 H 
ENDBRANCH  73  75
BRANCH  73  79
ATOM     79  CG7 PSI d   1     -14.852  12.927   5.045  0.00  0.00    -0.071 C 
ATOM     80  H43 PSI d   1     -14.121  13.637   4.631  0.00  0.00     0.028 H 
ATOM     81  H44 PSI d   1     -15.686  13.482   5.499  0.00  0.00     0.028 H 
ATOM     82  H45 PSI d   1     -15.235  12.284   4.239  0.00  0.00     0.028 H 
ENDBRANCH  73  79
ENDBRANCH  71  73
BRANCH  71  83
ATOM     83  C73 PSI d   1     -12.829  12.077   8.419  0.00  0.00     0.279 C 
ATOM     84  OXT PSI d   1     -11.511  11.436   8.275  0.00  0.00    -0.189 OA
BRANCH  83  85
ATOM     85  OT7 PSI d   1     -13.000  12.664   9.710  0.00  0.00    -0.352 OA
BRANCH  85  86
ATOM     86  C76 PSI d   1     -13.056  11.697  10.774  0.00  0.00     0.008 C 
ATOM     87  H46 PSI d   1     -13.188  12.216  11.735  0.00  0.00     0.066 H 
ATOM     88  H47 PSI d   1     -12.120  11.120  10.795  0.00  0.00     0.066 H 
ATOM     89  H48 PSI d   1     -13.903  11.016  10.606  0.00  0.00     0.066 H 
ENDBRANCH  85  86
ENDBRANCH  83  85
ENDBRANCH  71  83
ENDBRANCH  69  71
ENDBRANCH  55  67
ENDBRANCH  53  55
ENDBRANCH  48  51
ENDBRANCH   1  48
TORSDOF 26
