REMARK  6 active torsions:
REMARK  status: ('A' for Active; 'I' for Inactive)
REMARK    1  A    between atoms: C5'_2  and  O5'_1 
REMARK    2  A    between atoms: C5'_2  and  C4'_3 
REMARK    3  A    between atoms: C3'_5  and  O3'_6 
REMARK    4  A    between atoms: C2'_7  and  O2'_8 
REMARK    5  A    between atoms: C1'_9  and  N9_10 
REMARK    6  A    between atoms: C6_14  and  N6_15 
ROOT
ATOM      1  C4' 1DA d   1       8.393  19.039  37.313  0.00  0.00     0.088 C 
ATOM      2  O4' 1DA d   1       7.228  19.713  37.809  0.00  0.00    -0.353 OA
ATOM      3  C3' 1DA d   1       7.863  17.888  36.454  0.00  0.00     0.091 C 
ATOM      4  C2' 1DA d   1       6.554  17.523  37.131  0.00  0.00     0.105 C 
ATOM      5  C1' 1DA d   1       6.142  18.785  37.889  0.00  0.00     0.139 C 
ATOM      6  H4  1DA d   1       8.976  18.629  38.151  0.00  0.00     0.090 H 
ATOM      7  H5  1DA d   1       7.672  18.246  35.432  0.00  0.00     0.091 H 
ATOM      8  H7  1DA d   1       5.785  17.140  36.444  0.00  0.00     0.093 H 
ATOM      9  H9  1DA d   1       5.991  18.530  38.948  0.00  0.00     0.122 H 
ENDROOT
BRANCH   5  10
ATOM     10  N9  1DA d   1       4.920  19.274  37.394  0.00  0.00    -0.294 N 
ATOM     11  C8  1DA d   1       4.543  19.389  36.108  0.00  0.00     0.070 A 
ATOM     12  N7  1DA d   1       3.280  19.829  36.006  0.00  0.00    -0.238 NA
ATOM     13  H10 1DA d   1       5.182  19.155  35.258  0.00  0.00     0.144 H 
ATOM     14  C5  1DA d   1       2.834  19.904  37.288  0.00  0.00     0.130 A 
ATOM     15  C6  1DA d   1       1.620  20.246  37.816  0.00  0.00     0.060 A 
ATOM     16  C4  1DA d   1       3.857  19.626  38.129  0.00  0.00     0.164 A 
ATOM     17  C1  1DA d   1       1.502  20.295  39.187  0.00  0.00    -0.038 A 
ATOM     18  C2  1DA d   1       2.586  20.004  40.005  0.00  0.00     0.007 A 
ATOM     19  H13 1DA d   1       0.551  20.564  39.633  0.00  0.00     0.089 H 
ATOM     20  N3  1DA d   1       3.749  19.675  39.465  0.00  0.00    -0.241 NA
ATOM     21  H14 1DA d   1       2.480  20.046  41.083  0.00  0.00     0.114 H 
BRANCH  15  22
ATOM     22  N6  1DA d   1       0.568  20.523  37.041  0.00  0.00    -0.397 N 
ATOM     23  H11 1DA d   1      -0.334  20.778  37.469  0.00  0.00     0.156 HD
ATOM     24  H12 1DA d   1       0.659  20.482  36.016  0.00  0.00     0.156 HD
ENDBRANCH  15  22
ENDBRANCH   5  10
BRANCH   4  25
ATOM     25  O2' 1DA d   1       6.929  16.611  38.151  0.00  0.00    -0.388 OA
ATOM     26  H8  1DA d   1       7.350  15.855  37.759  0.00  0.00     0.210 HD
ENDBRANCH   4  25
BRANCH   1  27
ATOM     27  C5' 1DA d   1       9.276  20.015  36.543  0.00  0.00     0.043 C 
ATOM     28  H2  1DA d   1       9.530  20.859  37.201  0.00  0.00     0.078 H 
ATOM     29  H3  1DA d   1      10.197  19.497  36.239  0.00  0.00     0.078 H 
BRANCH  27  30
ATOM     30  O5' 1DA d   1       8.622  20.519  35.375  0.00  0.00    -0.398 OA
ATOM     31  H1  1DA d   1       8.404  19.796  34.799  0.00  0.00     0.209 HD
ENDBRANCH  27  30
ENDBRANCH   1  27
BRANCH   3  32
ATOM     32  O3' 1DA d   1       8.756  16.771  36.372  0.00  0.00    -0.390 OA
ATOM     33  H6  1DA d   1       8.911  16.426  37.243  0.00  0.00     0.210 HD
ENDBRANCH   3  32
TORSDOF 6
