REMARK  15 active torsions:
REMARK  status: ('A' for Active; 'I' for Inactive)
REMARK    1  A    between atoms: C1_1  and  C2_2 
REMARK    2  A    between atoms: C2_2  and  C3_3 
REMARK    3  A    between atoms: C3_3  and  C4_4 
REMARK    4  A    between atoms: C4_4  and  C5_5 
REMARK    5  A    between atoms: C6_6  and  C7_7 
REMARK    6  A    between atoms: C7_7  and  C8_8 
REMARK    7  A    between atoms: C9_9  and  C10_10 
REMARK    8  A    between atoms: C10_10  and  C11_11 
REMARK    9  A    between atoms: C12_12  and  C13_13 
REMARK   10  A    between atoms: C13_13  and  C14_14 
REMARK   11  A    between atoms: C15_15  and  C16_16 
REMARK   12  A    between atoms: C16_16  and  C17_17 
REMARK   13  A    between atoms: C17_17  and  C18_18 
REMARK   14  A    between atoms: C18_18  and  C19_19 
REMARK   15  A    between atoms: C19_19  and  C20_20 
ROOT
ATOM      1  C11 ACD d   1     -51.868  72.130  -9.822  0.00  0.00    -0.103 C 
ATOM      2  C12 ACD d   1     -52.103  71.452 -11.018  0.00  0.00    -0.103 C 
ATOM      3  H15 ACD d   1     -52.583  72.879  -9.485  0.00  0.00     0.076 H 
ATOM      4  H16 ACD d   1     -52.997  71.683 -11.595  0.00  0.00     0.076 H 
ENDROOT
BRANCH   1   5
ATOM      5  C10 ACD d   1     -50.689  71.859  -9.016  0.00  0.00    -0.035 C 
ATOM      6  H13 ACD d   1     -50.789  70.857  -8.573  0.00  0.00     0.044 H 
ATOM      7  H14 ACD d   1     -49.804  71.885  -9.668  0.00  0.00     0.044 H 
BRANCH   5   8
ATOM      8  C9  ACD d   1     -50.505  72.826  -7.944  0.00  0.00    -0.103 C 
ATOM      9  C8  ACD d   1     -49.375  72.798  -7.134  0.00  0.00    -0.103 C 
ATOM     10  H11 ACD d   1     -49.264  73.534  -6.339  0.00  0.00     0.076 H 
ATOM     11  H12 ACD d   1     -51.266  73.586  -7.773  0.00  0.00     0.076 H 
BRANCH   9  12
ATOM     12  C7  ACD d   1     -48.343  71.800  -7.335  0.00  0.00    -0.035 C 
ATOM     13  H9  ACD d   1     -48.471  71.007  -6.584  0.00  0.00     0.044 H 
ATOM     14  H10 ACD d   1     -48.459  71.373  -8.342  0.00  0.00     0.044 H 
BRANCH  12  15
ATOM     15  C6  ACD d   1     -47.001  72.342  -7.213  0.00  0.00    -0.103 C 
ATOM     16  C5  ACD d   1     -46.031  71.683  -6.467  0.00  0.00    -0.106 C 
ATOM     17  H7  ACD d   1     -45.030  72.105  -6.386  0.00  0.00     0.076 H 
ATOM     18  H8  ACD d   1     -46.752  73.277  -7.713  0.00  0.00     0.076 H 
BRANCH  16  19
ATOM     19  C4  ACD d   1     -46.345  70.439  -5.798  0.00  0.00    -0.050 C 
ATOM     20  H5  ACD d   1     -46.226  70.584  -4.714  0.00  0.00     0.038 H 
ATOM     21  H6  ACD d   1     -47.390  70.176  -6.020  0.00  0.00     0.038 H 
BRANCH  19  22
ATOM     22  C3  ACD d   1     -45.454  69.290  -6.232  0.00  0.00    -0.053 C 
ATOM     23  H3  ACD d   1     -45.584  69.119  -7.311  0.00  0.00     0.034 H 
ATOM     24  H4  ACD d   1     -44.405  69.548  -6.026  0.00  0.00     0.034 H 
BRANCH  22  25
ATOM     25  C2  ACD d   1     -45.814  68.027  -5.480  0.00  0.00     0.016 C 
ATOM     26  H1  ACD d   1     -45.413  68.102  -4.459  0.00  0.00     0.049 H 
ATOM     27  H2  ACD d   1     -46.910  67.946  -5.438  0.00  0.00     0.049 H 
BRANCH  25  28
ATOM     28  C1  ACD d   1     -45.266  66.779  -6.119  0.00  0.00     0.172 C 
ATOM     29  O2  ACD d   1     -46.024  65.787  -6.208  0.00  0.00    -0.648 OA
ATOM     30  O1  ACD d   1     -44.087  66.764  -6.549  0.00  0.00    -0.648 OA
ENDBRANCH  25  28
ENDBRANCH  22  25
ENDBRANCH  19  22
ENDBRANCH  16  19
ENDBRANCH  12  15
ENDBRANCH   9  12
ENDBRANCH   5   8
ENDBRANCH   1   5
BRANCH   2  31
ATOM     31  C13 ACD d   1     -51.180  70.444 -11.509  0.00  0.00    -0.035 C 
ATOM     32  H17 ACD d   1     -50.766  69.898 -10.648  0.00  0.00     0.044 H 
ATOM     33  H18 ACD d   1     -50.365  70.948 -12.050  0.00  0.00     0.044 H 
BRANCH  31  34
ATOM     34  C14 ACD d   1     -51.811  69.486 -12.407  0.00  0.00    -0.103 C 
ATOM     35  C15 ACD d   1     -51.246  68.229 -12.623  0.00  0.00    -0.106 C 
ATOM     36  H20 ACD d   1     -51.735  67.526 -13.296  0.00  0.00     0.076 H 
ATOM     37  H19 ACD d   1     -52.736  69.755 -12.916  0.00  0.00     0.076 H 
BRANCH  35  38
ATOM     38  C16 ACD d   1     -50.013  67.849 -11.960  0.00  0.00    -0.050 C 
ATOM     39  H21 ACD d   1     -49.389  68.747 -11.842  0.00  0.00     0.038 H 
ATOM     40  H22 ACD d   1     -49.488  67.117 -12.591  0.00  0.00     0.038 H 
BRANCH  38  41
ATOM     41  C17 ACD d   1     -50.237  67.230 -10.585  0.00  0.00    -0.062 C 
ATOM     42  H23 ACD d   1     -50.799  66.291 -10.701  0.00  0.00     0.033 H 
ATOM     43  H24 ACD d   1     -50.817  67.930  -9.966  0.00  0.00     0.033 H 
BRANCH  41  44
ATOM     44  C18 ACD d   1     -48.916  66.936  -9.897  0.00  0.00    -0.065 C 
ATOM     45  H25 ACD d   1     -48.323  66.264 -10.534  0.00  0.00     0.033 H 
ATOM     46  H26 ACD d   1     -49.116  66.445  -8.933  0.00  0.00     0.033 H 
BRANCH  44  47
ATOM     47  C19 ACD d   1     -48.122  68.209  -9.648  0.00  0.00    -0.069 C 
ATOM     48  H27 ACD d   1     -48.625  68.801  -8.869  0.00  0.00     0.032 H 
ATOM     49  H28 ACD d   1     -48.075  68.792 -10.579  0.00  0.00     0.032 H 
BRANCH  47  50
ATOM     50  C20 ACD d   1     -46.720  67.886  -9.195  0.00  0.00    -0.077 C 
ATOM     51  H29 ACD d   1     -46.166  68.820  -9.022  0.00  0.00     0.027 H 
ATOM     52  H30 ACD d   1     -46.210  67.297  -9.971  0.00  0.00     0.027 H 
ATOM     53  H31 ACD d   1     -46.761  67.305  -8.262  0.00  0.00     0.027 H 
ENDBRANCH  47  50
ENDBRANCH  44  47
ENDBRANCH  41  44
ENDBRANCH  38  41
ENDBRANCH  35  38
ENDBRANCH  31  34
ENDBRANCH   2  31
TORSDOF 15
