REMARK  10 active torsions:
REMARK  status: ('A' for Active; 'I' for Inactive)
REMARK    1  A    between atoms: PB_1  and  O3A_8 
REMARK    2  A    between atoms: O3A_8  and  PA_5 
REMARK    3  A    between atoms: PA_5  and  O5'_9 
REMARK    4  A    between atoms: O5'_9  and  C5'_10 
REMARK    5  A    between atoms: C5'_10  and  C4'_11 
REMARK    6  A    between atoms: C3'_13  and  O3'_14 
REMARK    7  A    between atoms: O3'_14  and  P_15 
REMARK    8  A    between atoms: C2'_19  and  O2'_20 
REMARK    9  A    between atoms: C1'_21  and  N9_22 
REMARK   10  A    between atoms: C6_26  and  N6_27 
ROOT
ATOM      1  C4' PAP d   1      37.455  -6.578  19.762  0.00  0.00     0.090 C 
ATOM      2  O4' PAP d   1      36.807  -5.990  18.629  0.00  0.00    -0.353 OA
ATOM      3  C3' PAP d   1      38.789  -7.185  19.248  0.00  0.00     0.107 C 
ATOM      4  C2' PAP d   1      38.987  -6.400  17.957  0.00  0.00     0.106 C 
ATOM      5  C1' PAP d   1      37.518  -6.460  17.494  0.00  0.00     0.140 C 
ATOM      6  H3  PAP d   1      36.835  -7.367  20.212  0.00  0.00     0.090 H 
ATOM      7  H4  PAP d   1      39.619  -7.033  19.954  0.00  0.00     0.092 H 
ATOM      8  H5  PAP d   1      39.343  -5.372  18.122  0.00  0.00     0.093 H 
ATOM      9  H7  PAP d   1      37.250  -7.492  17.222  0.00  0.00     0.122 H 
ENDROOT
BRANCH   5  10
ATOM     10  N9  PAP d   1      37.123  -5.536  16.407  0.00  0.00    -0.294 N 
ATOM     11  C4  PAP d   1      37.497  -4.192  16.142  0.00  0.00     0.167 A 
ATOM     12  C5  PAP d   1      36.819  -3.850  14.977  0.00  0.00     0.149 A 
ATOM     13  N3  PAP d   1      38.330  -3.348  16.848  0.00  0.00    -0.222 NA
ATOM     14  N7  PAP d   1      36.038  -4.963  14.529  0.00  0.00    -0.236 NA
ATOM     15  C6  PAP d   1      36.992  -2.499  14.451  0.00  0.00     0.155 A 
ATOM     16  C8  PAP d   1      36.262  -5.900  15.402  0.00  0.00     0.071 A 
ATOM     17  H8  PAP d   1      35.806  -6.887  15.341  0.00  0.00     0.144 H 
ATOM     18  N1  PAP d   1      37.797  -1.657  15.151  0.00  0.00    -0.222 NA
ATOM     19  C2  PAP d   1      38.390  -2.130  16.257  0.00  0.00     0.091 A 
ATOM     20  H11 PAP d   1      39.027  -1.415  16.766  0.00  0.00     0.146 H 
BRANCH  15  21
ATOM     21  N6  PAP d   1      36.447  -2.101  13.285  0.00  0.00    -0.382 N 
ATOM     22  H9  PAP d   1      36.594  -1.138  12.950  0.00  0.00     0.157 HD
ATOM     23  H10 PAP d   1      35.883  -2.760  12.729  0.00  0.00     0.157 HD
ENDBRANCH  15  21
ENDBRANCH   5  10
BRANCH   4  24
ATOM     24  O2' PAP d   1      39.881  -7.097  17.061  0.00  0.00    -0.388 OA
ATOM     25  H6  PAP d   1      39.628  -8.011  17.011  0.00  0.00     0.210 HD
ENDBRANCH   4  24
BRANCH   1  26
ATOM     26  C5' PAP d   1      37.654  -5.460  20.743  0.00  0.00     0.058 C 
ATOM     27  H1  PAP d   1      38.389  -4.738  20.358  0.00  0.00     0.079 H 
ATOM     28  H2  PAP d   1      36.701  -4.946  20.937  0.00  0.00     0.079 H 
BRANCH  26  29
ATOM     29  O5' PAP d   1      38.135  -6.071  21.924  0.00  0.00    -0.287 OA
BRANCH  29  30
ATOM     30  PA  PAP d   1      38.898  -5.197  23.066  0.00  0.00     0.418 P 
ATOM     31  O2A PAP d   1      40.090  -4.548  22.456  0.00  0.00    -0.624 OA
ATOM     32  O1A PAP d   1      39.101  -6.102  24.236  0.00  0.00    -0.624 OA
BRANCH  30  33
ATOM     33  O3A PAP d   1      37.713  -4.079  23.616  0.00  0.00    -0.173 OA
BRANCH  33  34
ATOM     34  PB  PAP d   1      37.096  -2.627  23.146  0.00  0.00     0.431 P 
ATOM     35  O3B PAP d   1      37.790  -2.310  21.876  0.00  0.00    -0.616 OA
ATOM     36  O2B PAP d   1      37.470  -1.708  24.274  0.00  0.00    -0.616 OA
ATOM     37  O1B PAP d   1      35.645  -2.854  22.991  0.00  0.00    -0.616 OA
ENDBRANCH  33  34
ENDBRANCH  30  33
ENDBRANCH  29  30
ENDBRANCH  26  29
ENDBRANCH   1  26
BRANCH   3  38
ATOM     38  O3' PAP d   1      38.603  -8.605  18.982  0.00  0.00    -0.272 OA
BRANCH  38  39
ATOM     39  P   PAP d   1      39.267  -9.784  20.024  0.00  0.00     0.422 P 
ATOM     40  O3  PAP d   1      40.196  -9.056  20.941  0.00  0.00    -0.617 OA
ATOM     41  O2  PAP d   1      39.976 -10.686  19.081  0.00  0.00    -0.617 OA
ATOM     42  O1  PAP d   1      38.032 -10.345  20.626  0.00  0.00    -0.617 OA
ENDBRANCH  38  39
ENDBRANCH   3  38
TORSDOF 10
