REMARK  9 active torsions:
REMARK  status: ('A' for Active; 'I' for Inactive)
REMARK    1  A    between atoms: PB_1  and  O3A_8 
REMARK    2  A    between atoms: O3A_8  and  PA_5 
REMARK    3  A    between atoms: PA_5  and  O5'_9 
REMARK    4  A    between atoms: O5'_9  and  C5'_10 
REMARK    5  A    between atoms: C5'_10  and  C4'_11 
REMARK    6  A    between atoms: C3'_13  and  O3'_14 
REMARK    7  A    between atoms: C2'_15  and  O2'_16 
REMARK    8  A    between atoms: O2'_16  and  P2'_17 
REMARK    9  A    between atoms: C1'_21  and  N9_22 
ROOT
ATOM      1  C4' ATR d   1      37.768  -6.304  19.848  0.00  0.00     0.089 C 
ATOM      2  O4' ATR d   1      36.874  -5.722  18.930  0.00  0.00    -0.353 OA
ATOM      3  C3' ATR d   1      38.946  -7.041  19.057  0.00  0.00     0.092 C 
ATOM      4  C2' ATR d   1      38.108  -7.472  17.868  0.00  0.00     0.121 C 
ATOM      5  C1' ATR d   1      36.947  -6.480  17.756  0.00  0.00     0.140 C 
ATOM      6  H3  ATR d   1      37.299  -7.032  20.526  0.00  0.00     0.090 H 
ATOM      7  H4  ATR d   1      39.756  -6.344  18.796  0.00  0.00     0.091 H 
ATOM      8  H6  ATR d   1      38.707  -7.532  16.947  0.00  0.00     0.095 H 
ATOM      9  H7  ATR d   1      36.032  -7.090  17.729  0.00  0.00     0.123 H 
ENDROOT
BRANCH   5  10
ATOM     10  N9  ATR d   1      36.905  -5.648  16.467  0.00  0.00    -0.294 N 
ATOM     11  C4  ATR d   1      37.354  -4.343  16.162  0.00  0.00     0.167 A 
ATOM     12  C5  ATR d   1      36.796  -4.054  14.909  0.00  0.00     0.149 A 
ATOM     13  N3  ATR d   1      38.125  -3.494  16.933  0.00  0.00    -0.222 NA
ATOM     14  N7  ATR d   1      36.017  -5.159  14.405  0.00  0.00    -0.236 NA
ATOM     15  C6  ATR d   1      37.043  -2.740  14.385  0.00  0.00     0.155 A 
ATOM     16  C8  ATR d   1      36.134  -6.034  15.355  0.00  0.00     0.071 A 
ATOM     17  H8  ATR d   1      35.662  -7.013  15.295  0.00  0.00     0.144 H 
ATOM     18  N1  ATR d   1      37.794  -1.890  15.179  0.00  0.00    -0.222 NA
ATOM     19  N6  ATR d   1      36.628  -2.386  13.143  0.00  0.00    -0.382 N 
ATOM     20  C2  ATR d   1      38.267  -2.318  16.346  0.00  0.00     0.091 A 
ATOM     21  H11 ATR d   1      38.857  -1.595  16.898  0.00  0.00     0.146 H 
ATOM     22  H9  ATR d   1      36.816  -1.438  12.788  0.00  0.00     0.157 HD
ATOM     23  H10 ATR d   1      36.124  -3.066  12.555  0.00  0.00     0.157 HD
ENDBRANCH   5  10
BRANCH   4  24
ATOM     24  O2' ATR d   1      37.476  -8.698  18.180  0.00  0.00    -0.270 OA
BRANCH  24  25
ATOM     25  P2' ATR d   1      36.704  -9.460  16.942  0.00  0.00     0.422 P 
ATOM     26  O3P ATR d   1      36.362 -10.597  17.850  0.00  0.00    -0.617 OA
ATOM     27  O2P ATR d   1      37.779  -9.688  15.918  0.00  0.00    -0.617 OA
ATOM     28  O1P ATR d   1      35.579  -8.594  16.496  0.00  0.00    -0.617 OA
ENDBRANCH  24  25
ENDBRANCH   4  24
BRANCH   1  29
ATOM     29  C5' ATR d   1      38.008  -5.048  20.509  0.00  0.00     0.058 C 
ATOM     30  H1  ATR d   1      37.961  -4.242  19.762  0.00  0.00     0.079 H 
ATOM     31  H2  ATR d   1      37.225  -4.893  21.266  0.00  0.00     0.079 H 
BRANCH  29  32
ATOM     32  O5' ATR d   1      39.291  -5.001  21.157  0.00  0.00    -0.287 OA
BRANCH  32  33
ATOM     33  PA  ATR d   1      38.965  -5.325  22.760  0.00  0.00     0.418 P 
ATOM     34  O2A ATR d   1      40.197  -4.969  23.613  0.00  0.00    -0.624 OA
ATOM     35  O1A ATR d   1      38.398  -6.729  22.747  0.00  0.00    -0.624 OA
BRANCH  33  36
ATOM     36  O3A ATR d   1      37.564  -4.325  22.985  0.00  0.00    -0.173 OA
BRANCH  36  37
ATOM     37  PB  ATR d   1      37.241  -2.786  23.066  0.00  0.00     0.431 P 
ATOM     38  O3B ATR d   1      37.813  -2.183  21.857  0.00  0.00    -0.616 OA
ATOM     39  O2B ATR d   1      35.775  -2.898  23.126  0.00  0.00    -0.616 OA
ATOM     40  O1B ATR d   1      37.837  -2.284  24.299  0.00  0.00    -0.616 OA
ENDBRANCH  36  37
ENDBRANCH  33  36
ENDBRANCH  32  33
ENDBRANCH  29  32
ENDBRANCH   1  29
BRANCH   3  41
ATOM     41  O3' ATR d   1      39.537  -8.285  19.694  0.00  0.00    -0.390 OA
ATOM     42  H5  ATR d   1      38.835  -8.858  19.979  0.00  0.00     0.210 HD
ENDBRANCH   3  41
TORSDOF 9
