REMARK  4 active torsions:
REMARK  status: ('A' for Active; 'I' for Inactive)
REMARK    1  A    between atoms: C1_1  and  C2_2 
REMARK    2  A    between atoms: C2_2  and  C1'_3 
REMARK    3  A    between atoms: C3'_5  and  O3'_6 
REMARK    4  A    between atoms: C4'_7  and  O4'_8 
ROOT
ATOM      1  C1' DHY d   1      12.416  35.997  34.898  0.00  0.00    -0.045 A 
ATOM      2  C2' DHY d   1      12.364  36.685  33.694  0.00  0.00    -0.042 A 
ATOM      3  C3' DHY d   1      11.337  36.478  32.809  0.00  0.00     0.099 A 
ATOM      4  C4' DHY d   1      10.346  35.551  33.118  0.00  0.00     0.098 A 
ATOM      5  C5' DHY d   1      10.372  34.850  34.307  0.00  0.00    -0.048 A 
ATOM      6  C6' DHY d   1      11.424  35.056  35.200  0.00  0.00    -0.074 A 
ATOM      7  H3  DHY d   1      13.146  37.395  33.450  0.00  0.00     0.088 H 
ATOM      8  H6  DHY d   1       9.582  34.146  34.545  0.00  0.00     0.087 H 
ATOM      9  H7  DHY d   1      11.473  34.490  36.123  0.00  0.00     0.084 H 
ENDROOT
BRANCH   1  10
ATOM     10  C2  DHY d   1      13.592  36.321  35.770  0.00  0.00     0.040 C 
ATOM     11  H1  DHY d   1      13.483  35.737  36.696  0.00  0.00     0.056 H 
ATOM     12  H2  DHY d   1      14.496  35.995  35.234  0.00  0.00     0.056 H 
BRANCH  10  13
ATOM     13  C1  DHY d   1      13.806  37.784  36.177  0.00  0.00     0.176 C 
ATOM     14  O2  DHY d   1      13.269  38.789  35.708  0.00  0.00    -0.648 OA
ATOM     15  O1  DHY d   1      14.445  38.011  37.197  0.00  0.00    -0.648 OA
ENDBRANCH  10  13
ENDBRANCH   1  10
BRANCH   3  16
ATOM     16  O3' DHY d   1      11.082  37.060  31.579  0.00  0.00    -0.358 OA
ATOM     17  H4  DHY d   1      11.066  36.387  30.909  0.00  0.00     0.217 HD
ENDBRANCH   3  16
BRANCH   4  18
ATOM     18  O4' DHY d   1       9.435  35.455  32.085  0.00  0.00    -0.358 OA
ATOM     19  H5  DHY d   1       9.674  36.063  31.396  0.00  0.00     0.217 HD
ENDBRANCH   4  18
TORSDOF 4
