REMARK  3 active torsions:
REMARK  status: ('A' for Active; 'I' for Inactive)
REMARK    1  A    between atoms: C1_1  and  C2_2 
REMARK    2  A    between atoms: C2_2  and  C1'_3 
REMARK    3  A    between atoms: C3'_5  and  N3'_6 
ROOT
ATOM      1  C1' MNP d   1      12.670  35.908  35.237  0.00  0.00    -0.046 A 
ATOM      2  C2' MNP d   1      12.428  36.461  34.003  0.00  0.00    -0.044 A 
ATOM      3  C3' MNP d   1      11.259  36.071  33.405  0.00  0.00     0.103 A 
ATOM      4  C4' MNP d   1      10.314  35.187  33.896  0.00  0.00    -0.051 A 
ATOM      5  C5' MNP d   1      10.590  34.632  35.109  0.00  0.00    -0.080 A 
ATOM      6  C6' MNP d   1      11.754  35.015  35.791  0.00  0.00    -0.076 A 
ATOM      7  H3  MNP d   1      13.114  37.157  33.535  0.00  0.00     0.088 H 
ATOM      8  H4  MNP d   1       9.409  34.951  33.348  0.00  0.00     0.087 H 
ATOM      9  H5  MNP d   1       9.917  33.902  35.543  0.00  0.00     0.083 H 
ATOM     10  H6  MNP d   1      11.947  34.605  36.776  0.00  0.00     0.084 H 
ENDROOT
BRANCH   1  11
ATOM     11  C2  MNP d   1      13.949  36.324  35.879  0.00  0.00     0.040 C 
ATOM     12  H1  MNP d   1      14.120  35.667  36.744  0.00  0.00     0.056 H 
ATOM     13  H2  MNP d   1      14.755  36.181  35.145  0.00  0.00     0.056 H 
BRANCH  11  14
ATOM     14  C1  MNP d   1      14.016  37.768  36.370  0.00  0.00     0.176 C 
ATOM     15  O2  MNP d   1      13.532  38.781  35.929  0.00  0.00    -0.648 OA
ATOM     16  O1  MNP d   1      14.584  37.940  37.432  0.00  0.00    -0.648 OA
ENDBRANCH  11  14
ENDBRANCH   1  11
BRANCH   3  17
ATOM     17  N3' MNP d   1      10.948  36.544  32.119  0.00  0.00    -0.116 N 
ATOM     18  O4' MNP d   1      11.646  37.431  31.312  0.00  0.00    -0.532 OA
ATOM     19  O3' MNP d   1       9.715  35.900  31.861  0.00  0.00    -0.532 OA
ENDBRANCH   3  17
TORSDOF 3
