REMARK  1 active torsions:
REMARK  status: ('A' for Active; 'I' for Inactive)
REMARK    1  A    between atoms: C1_1  and  O1_7 
ROOT
ATOM      1  C1  IPH d   1      10.012  35.433  32.635  0.00  0.00     0.065 A 
ATOM      2  C2  IPH d   1      10.550  36.484  31.896  0.00  0.00    -0.051 A 
ATOM      3  C3  IPH d   1      11.640  37.094  32.487  0.00  0.00    -0.080 A 
ATOM      4  C4  IPH d   1      12.126  36.714  33.723  0.00  0.00    -0.083 A 
ATOM      5  C5  IPH d   1      11.535  35.669  34.406  0.00  0.00    -0.080 A 
ATOM      6  C6  IPH d   1      10.442  35.013  33.900  0.00  0.00    -0.051 A 
ATOM      7  H1  IPH d   1      10.148  36.797  30.939  0.00  0.00     0.087 H 
ATOM      8  H2  IPH d   1      12.133  37.903  31.960  0.00  0.00     0.083 H 
ATOM      9  H3  IPH d   1      12.971  37.236  34.157  0.00  0.00     0.083 H 
ATOM     10  H4  IPH d   1      11.944  35.361  35.362  0.00  0.00     0.083 H 
ATOM     11  H5  IPH d   1       9.943  34.220  34.445  0.00  0.00     0.087 H 
ENDROOT
BRANCH   1  12
ATOM     12  O1  IPH d   1       8.955  34.745  32.078  0.00  0.00    -0.361 OA
ATOM     13  H6  IPH d   1       8.752  35.114  31.227  0.00  0.00     0.217 HD
ENDBRANCH   1  12
TORSDOF 1
