REMARK  7 active torsions:
REMARK  status: ('A' for Active; 'I' for Inactive)
REMARK    1  A    between atoms: N1_1  and  C7_8 
REMARK    2  A    between atoms: C4_4  and  O19_5 
REMARK    3  A    between atoms: C4_4  and  C20_19 
REMARK    4  A    between atoms: C7_8  and  C8_9 
REMARK    5  A    between atoms: C8_9  and  C9_10 
REMARK    6  A    between atoms: C9_10  and  C10_11 
REMARK    7  A    between atoms: C10_11  and  C12_12 
ROOT
ATOM      1  C7  THK d   1      64.299  38.708  -1.096  0.00  0.00     0.084 C 
ATOM      2  H11 THK d   1      64.930  39.591  -0.919  0.00  0.00     0.076 H 
ATOM      3  H12 THK d   1      63.419  38.999  -1.688  0.00  0.00     0.076 H 
ENDROOT
BRANCH   1   4
ATOM      4  N1  THK d   1      63.840  38.186   0.208  0.00  0.00    -0.071 N 
ATOM      5  C2  THK d   1      64.966  37.932   1.128  0.00  0.00     0.086 C 
ATOM      6  C3  THK d   1      64.487  37.593   2.545  0.00  0.00    -0.009 C 
ATOM      7  H2  THK d   1      65.598  38.831   1.173  0.00  0.00     0.076 H 
ATOM      8  H3  THK d   1      65.556  37.088   0.742  0.00  0.00     0.076 H 
ATOM      9  C4  THK d   1      63.475  38.619   3.090  0.00  0.00     0.088 C 
ATOM     10  H4  THK d   1      65.359  37.568   3.215  0.00  0.00     0.040 H 
ATOM     11  H5  THK d   1      64.010  36.602   2.528  0.00  0.00     0.040 H 
ATOM     12  C5  THK d   1      62.298  38.690   2.102  0.00  0.00    -0.009 C 
ATOM     13  C6  THK d   1      62.786  39.091   0.707  0.00  0.00     0.086 C 
ATOM     14  H7  THK d   1      61.572  39.435   2.458  0.00  0.00     0.040 H 
ATOM     15  H8  THK d   1      61.814  37.704   2.046  0.00  0.00     0.040 H 
ATOM     16  H9  THK d   1      61.934  39.062   0.011  0.00  0.00     0.076 H 
ATOM     17  H10 THK d   1      63.188  40.114   0.752  0.00  0.00     0.076 H 
ATOM     18  H1  THK d   1      63.405  37.291   0.045  0.00  0.00     0.279 HD
BRANCH   9  19
ATOM     19  O19 THK d   1      64.094  39.902   3.101  0.00  0.00    -0.385 OA
ATOM     20  H6  THK d   1      64.350  40.136   2.217  0.00  0.00     0.211 HD
ENDBRANCH   9  19
BRANCH   9  21
ATOM     21  C20 THK d   1      63.119  38.348   4.449  0.00  0.00    -0.024 A 
ATOM     22  C21 THK d   1      64.134  38.128   5.400  0.00  0.00    -0.072 A 
ATOM     23  C22 THK d   1      63.832  37.768   6.715  0.00  0.00    -0.061 A 
ATOM     24  H21 THK d   1      65.171  38.240   5.105  0.00  0.00     0.084 H 
ATOM     25  C23 THK d   1      62.501  37.639   7.113  0.00  0.00     0.034 A 
ATOM     26  H22 THK d   1      64.631  37.589   7.426  0.00  0.00     0.086 H 
ATOM     27 CL6  THK d   1      62.144  37.096   8.736  0.00  0.00    -0.084 Cl
ATOM     28  C24 THK d   1      61.475  37.899   6.189  0.00  0.00    -0.061 A 
ATOM     29  C25 THK d   1      61.779  38.266   4.868  0.00  0.00    -0.072 A 
ATOM     30  H23 THK d   1      60.440  37.816   6.499  0.00  0.00     0.086 H 
ATOM     31  H24 THK d   1      60.979  38.486   4.170  0.00  0.00     0.084 H 
ENDBRANCH   9  21
ENDBRANCH   1   4
BRANCH   1  32
ATOM     32  C8  THK d   1      65.108  37.680  -1.895  0.00  0.00    -0.040 C 
ATOM     33  H13 THK d   1      64.446  37.143  -2.590  0.00  0.00     0.035 H 
ATOM     34  H14 THK d   1      65.579  36.961  -1.209  0.00  0.00     0.035 H 
BRANCH  32  35
ATOM     35  C9  THK d   1      66.191  38.435  -2.684  0.00  0.00    -0.035 C 
ATOM     36  H15 THK d   1      67.116  38.447  -2.089  0.00  0.00     0.037 H 
ATOM     37  H16 THK d   1      65.849  39.467  -2.851  0.00  0.00     0.037 H 
BRANCH  35  38
ATOM     38  C10 THK d   1      66.492  37.788  -4.051  0.00  0.00     0.083 C 
ATOM     39  S51 THK d   1      66.976  36.057  -3.765  0.00  0.00    -0.142 SA
ATOM     40  C52 THK d   1      68.399  36.000  -4.896  0.00  0.00    -0.013 C 
ATOM     41  C55 THK d   1      68.851  37.362  -5.430  0.00  0.00    -0.013 C 
ATOM     42  H25 THK d   1      68.128  35.369  -5.755  0.00  0.00     0.050 H 
ATOM     43  H26 THK d   1      69.245  35.545  -4.359  0.00  0.00     0.050 H 
ATOM     44  S58 THK d   1      67.879  38.738  -4.784  0.00  0.00    -0.142 SA
ATOM     45  H27 THK d   1      68.761  37.355  -6.526  0.00  0.00     0.050 H 
ATOM     46  H28 THK d   1      69.903  37.516  -5.149  0.00  0.00     0.050 H 
BRANCH  38  47
ATOM     47  C12 THK d   1      65.355  37.884  -4.910  0.00  0.00    -0.029 A 
ATOM     48  C13 THK d   1      64.966  39.133  -5.424  0.00  0.00    -0.072 A 
ATOM     49  C14 THK d   1      63.788  39.278  -6.163  0.00  0.00    -0.045 A 
ATOM     50  H17 THK d   1      65.591  40.000  -5.244  0.00  0.00     0.084 H 
ATOM     51  C15 THK d   1      62.984  38.165  -6.409  0.00  0.00     0.116 A 
ATOM     52  H18 THK d   1      63.501  40.252  -6.543  0.00  0.00     0.088 H 
ATOM     53  F18 THK d   1      61.800  38.304  -7.075  0.00  0.00    -0.206 F 
ATOM     54  C16 THK d   1      63.386  36.911  -5.941  0.00  0.00    -0.045 A 
ATOM     55  C17 THK d   1      64.567  36.762  -5.205  0.00  0.00    -0.072 A 
ATOM     56  H19 THK d   1      62.774  36.041  -6.151  0.00  0.00     0.088 H 
ATOM     57  H20 THK d   1      64.873  35.780  -4.863  0.00  0.00     0.084 H 
ENDBRANCH  38  47
ENDBRANCH  35  38
ENDBRANCH  32  35
ENDBRANCH   1  32
TORSDOF 7
