REMARK  3 active torsions:
REMARK  status: ('A' for Active; 'I' for Inactive)
REMARK    1  A    between atoms: C1_1  and  C2_2 
REMARK    2  A    between atoms: C2_2  and  C1'_3 
REMARK    3  A    between atoms: C4'_6  and  N4'_7 
ROOT
ATOM      1  C1' AAN d   1      12.842  36.086  34.954  0.00  0.00    -0.048 A 
ATOM      2  C2' AAN d   1      13.021  36.671  33.717  0.00  0.00    -0.074 A 
ATOM      3  C3' AAN d   1      11.973  36.526  32.823  0.00  0.00    -0.051 A 
ATOM      4  C4' AAN d   1      10.899  35.731  33.113  0.00  0.00     0.102 A 
ATOM      5  C5' AAN d   1      10.721  35.052  34.314  0.00  0.00    -0.051 A 
ATOM      6  C6' AAN d   1      11.742  35.289  35.232  0.00  0.00    -0.074 A 
ATOM      7  H3  AAN d   1      13.926  37.211  33.461  0.00  0.00     0.084 H 
ATOM      8  H4  AAN d   1      12.005  37.053  31.876  0.00  0.00     0.087 H 
ATOM      9  H5  AAN d   1       9.875  34.405  34.515  0.00  0.00     0.087 H 
ATOM     10  H6  AAN d   1      11.673  34.828  36.211  0.00  0.00     0.084 H 
ENDROOT
BRANCH   1  11
ATOM     11  C2  AAN d   1      13.872  36.316  36.035  0.00  0.00     0.039 C 
ATOM     12  H1  AAN d   1      13.582  35.743  36.928  0.00  0.00     0.056 H 
ATOM     13  H2  AAN d   1      14.849  35.963  35.674  0.00  0.00     0.056 H 
BRANCH  11  14
ATOM     14  C1  AAN d   1      13.992  37.804  36.418  0.00  0.00     0.176 C 
ATOM     15  O2  AAN d   1      13.504  38.761  35.806  0.00  0.00    -0.648 OA
ATOM     16  O1  AAN d   1      14.601  38.141  37.432  0.00  0.00    -0.648 OA
ENDBRANCH  11  14
ENDBRANCH   1  11
BRANCH   4  17
ATOM     17  N4' AAN d   1      10.147  35.550  32.348  0.00  0.00    -0.116 N 
ATOM     18  O4' AAN d   1       9.025  34.728  32.616  0.00  0.00    -0.532 OA
ATOM     19  O3' AAN d   1      10.489  36.274  31.176  0.00  0.00    -0.532 OA
ENDBRANCH   4  17
TORSDOF 3
