REMARK  4 active torsions:
REMARK  status: ('A' for Active; 'I' for Inactive)
REMARK    1  A    between atoms: C1_1  and  C2_2 
REMARK    2  A    between atoms: C2_2  and  C1'_3 
REMARK    3  A    between atoms: C3'_5  and  O3'_6 
REMARK    4  A    between atoms: C6'_9  and  O6'_10 
ROOT
ATOM      1  C1' OMD d   1      11.982  36.020  34.763  0.00  0.00    -0.012 A 
ATOM      2  C2' OMD d   1      12.072  36.851  33.651  0.00  0.00    -0.042 A 
ATOM      3  C3' OMD d   1      11.110  36.758  32.673  0.00  0.00     0.066 A 
ATOM      4  C4' OMD d   1      10.038  35.873  32.731  0.00  0.00    -0.048 A 
ATOM      5  C5' OMD d   1       9.951  35.062  33.831  0.00  0.00    -0.048 A 
ATOM      6  C6' OMD d   1      10.920  35.127  34.811  0.00  0.00     0.072 A 
ATOM      7  H3  OMD d   1      12.887  37.560  33.557  0.00  0.00     0.088 H 
ATOM      8  H5  OMD d   1       9.301  35.827  31.937  0.00  0.00     0.087 H 
ATOM      9  H6  OMD d   1       9.122  34.370  33.932  0.00  0.00     0.087 H 
ENDROOT
BRANCH   1  10
ATOM     10  C2  OMD d   1      13.018  36.108  35.857  0.00  0.00     0.042 C 
ATOM     11  H1  OMD d   1      12.560  35.753  36.792  0.00  0.00     0.056 H 
ATOM     12  H2  OMD d   1      13.858  35.452  35.587  0.00  0.00     0.056 H 
BRANCH  10  13
ATOM     13  C1  OMD d   1      13.572  37.520  36.101  0.00  0.00     0.177 C 
ATOM     14  O2  OMD d   1      13.142  38.503  35.493  0.00  0.00    -0.648 OA
ATOM     15  O1  OMD d   1      14.434  37.703  36.952  0.00  0.00    -0.648 OA
ENDBRANCH  10  13
ENDBRANCH   1  10
BRANCH   6  16
ATOM     16  O6' OMD d   1      10.766  34.425  35.634  0.00  0.00    -0.360 OA
ATOM     17  H7  OMD d   1      11.466  34.524  36.268  0.00  0.00     0.217 HD
ENDBRANCH   6  16
BRANCH   3  18
ATOM     18  O3' OMD d   1      11.065  37.508  31.521  0.00  0.00    -0.361 OA
ATOM     19  H4  OMD d   1      10.256  38.005  31.500  0.00  0.00     0.217 HD
ENDBRANCH   3  18
TORSDOF 4
