REMARK  2 active torsions:
REMARK  status: ('A' for Active; 'I' for Inactive)
REMARK    1  A    between atoms: C2_2  and  C6_6 
REMARK    2  A    between atoms: C6_6  and  C7_7 
ROOT
ATOM      1  S1  SPA d   1      10.757  34.924  34.344  0.00  0.00    -0.106 SA
ATOM      2  C2  SPA d   1      11.860  36.159  33.853  0.00  0.00    -0.008 A 
ATOM      3  C3  SPA d   1      11.474  36.761  32.662  0.00  0.00    -0.069 A 
ATOM      4  C4  SPA d   1      10.300  36.176  32.138  0.00  0.00    -0.076 A 
ATOM      5  C5  SPA d   1       9.789  35.223  32.952  0.00  0.00    -0.045 A 
ATOM      6  H1  SPA d   1      12.011  37.583  32.190  0.00  0.00     0.085 H 
ATOM      7  H2  SPA d   1       9.855  36.460  31.185  0.00  0.00     0.084 H 
ATOM      8  H3  SPA d   1       8.858  34.697  32.747  0.00  0.00     0.095 H 
ENDROOT
BRANCH   2   9
ATOM      9  C6  SPA d   1      13.085  36.522  34.644  0.00  0.00     0.045 C 
ATOM     10  H4  SPA d   1      13.931  36.719  33.969  0.00  0.00     0.057 H 
ATOM     11  H5  SPA d   1      13.349  35.708  35.335  0.00  0.00     0.057 H 
BRANCH   9  12
ATOM     12  C7  SPA d   1      12.714  37.814  35.442  0.00  0.00     0.177 C 
ATOM     13  O2  SPA d   1      13.508  37.787  36.506  0.00  0.00    -0.648 OA
ATOM     14  O1  SPA d   1      12.065  38.763  35.085  0.00  0.00    -0.648 OA
ENDBRANCH   9  12
ENDBRANCH   2   9
TORSDOF 2
