REMARK  12 active torsions:
REMARK  status: ('A' for Active; 'I' for Inactive)
REMARK    1  A    between atoms: N01_1  and  C08_8 
REMARK    2  A    between atoms: N03_3  and  C23_23 
REMARK    3  A    between atoms: C04_4  and  C41_41 
REMARK    4  A    between atoms: C05_5  and  O30_30 
REMARK    5  A    between atoms: C06_6  and  O31_31 
REMARK    6  A    between atoms: C07_7  and  C32_32 
REMARK    7  A    between atoms: C08_8  and  C09_9 
REMARK    8  A    between atoms: C41_41  and  O16_16 
REMARK    9  A    between atoms: O16_16  and  C17_17 
REMARK   10  A    between atoms: C23_23  and  C24_24 
REMARK   11  A    between atoms: C32_32  and  O33_33 
REMARK   12  A    between atoms: O33_33  and  C34_34 
ROOT
ATOM      1  N01 NMB d   1      11.288  23.491   5.863  0.00  0.00    -0.281 N 
ATOM      2  S02 NMB d   1      11.752  21.994   6.409  0.00  0.00     0.320 S 
ATOM      3  N03 NMB d   1      13.339  22.051   6.143  0.00  0.00    -0.281 N 
ATOM      4  C04 NMB d   1      13.718  21.882   4.715  0.00  0.00     0.072 C 
ATOM      5  C05 NMB d   1      13.866  23.222   4.019  0.00  0.00     0.084 C 
ATOM      6  C06 NMB d   1      12.964  24.314   4.550  0.00  0.00     0.084 C 
ATOM      7  C07 NMB d   1      11.470  24.031   4.534  0.00  0.00     0.072 C 
ATOM      8  O15 NMB d   1      11.195  20.919   5.621  0.00  0.00    -0.182 OA
ATOM      9  O40 NMB d   1      11.563  21.966   7.821  0.00  0.00    -0.182 OA
ATOM     10  H1  NMB d   1      12.892  21.348   4.222  0.00  0.00     0.081 H 
ATOM     11  H2  NMB d   1      13.647  23.074   2.951  0.00  0.00     0.090 H 
ATOM     12  H3  NMB d   1      13.233  24.467   5.606  0.00  0.00     0.090 H 
ATOM     13  H4  NMB d   1      10.956  25.000   4.457  0.00  0.00     0.081 H 
ENDROOT
BRANCH   4  14
ATOM     14  C41 NMB d   1      14.980  21.017   4.548  0.00  0.00     0.048 C 
ATOM     15  H33 NMB d   1      15.207  20.515   5.500  0.00  0.00     0.078 H 
ATOM     16  H34 NMB d   1      15.826  21.658   4.260  0.00  0.00     0.078 H 
BRANCH  14  17
ATOM     17  O16 NMB d   1      14.762  20.021   3.521  0.00  0.00    -0.349 OA
BRANCH  17  18
ATOM     18  C17 NMB d   1      15.758  19.150   3.211  0.00  0.00     0.068 A 
ATOM     19  C22 NMB d   1      15.866  18.632   1.912  0.00  0.00    -0.051 A 
ATOM     20  C21 NMB d   1      16.880  17.726   1.585  0.00  0.00    -0.080 A 
ATOM     21  H16 NMB d   1      15.155  18.938   1.153  0.00  0.00     0.087 H 
ATOM     22  C20 NMB d   1      17.804  17.334   2.569  0.00  0.00    -0.083 A 
ATOM     23  H15 NMB d   1      16.953  17.329   0.579  0.00  0.00     0.083 H 
ATOM     24  C19 NMB d   1      17.711  17.848   3.882  0.00  0.00    -0.080 A 
ATOM     25  H14 NMB d   1      18.593  16.633   2.319  0.00  0.00     0.083 H 
ATOM     26  C18 NMB d   1      16.685  18.752   4.198  0.00  0.00    -0.051 A 
ATOM     27  H13 NMB d   1      18.426  17.547   4.639  0.00  0.00     0.083 H 
ATOM     28  H12 NMB d   1      16.604  19.146   5.205  0.00  0.00     0.087 H 
ENDBRANCH  17  18
ENDBRANCH  14  17
ENDBRANCH   4  14
BRANCH   3  29
ATOM     29  C23 NMB d   1      14.199  22.696   7.160  0.00  0.00     0.031 C 
ATOM     30  H17 NMB d   1      13.530  23.160   7.900  0.00  0.00     0.072 H 
ATOM     31  H18 NMB d   1      14.775  23.479   6.645  0.00  0.00     0.072 H 
BRANCH  29  32
ATOM     32  C24 NMB d   1      15.185  21.856   7.925  0.00  0.00    -0.040 A 
ATOM     33  C29 NMB d   1      16.558  21.938   7.631  0.00  0.00    -0.075 A 
ATOM     34  C28 NMB d   1      17.495  21.147   8.336  0.00  0.00    -0.082 A 
ATOM     35  H23 NMB d   1      16.901  22.614   6.856  0.00  0.00     0.084 H 
ATOM     36  C27 NMB d   1      17.061  20.260   9.346  0.00  0.00    -0.083 A 
ATOM     37  H22 NMB d   1      18.550  21.222   8.100  0.00  0.00     0.083 H 
ATOM     38  C26 NMB d   1      15.687  20.170   9.651  0.00  0.00    -0.082 A 
ATOM     39  H21 NMB d   1      17.780  19.652   9.883  0.00  0.00     0.083 H 
ATOM     40  C25 NMB d   1      14.748  20.969   8.940  0.00  0.00    -0.075 A 
ATOM     41  H20 NMB d   1      15.347  19.493  10.426  0.00  0.00     0.083 H 
ATOM     42  H19 NMB d   1      13.692  20.899   9.176  0.00  0.00     0.084 H 
ENDBRANCH  29  32
ENDBRANCH   3  29
BRANCH   5  43
ATOM     43  O30 NMB d   1      15.185  23.696   4.171  0.00  0.00    -0.391 OA
ATOM     44  H24 NMB d   1      15.271  24.535   3.733  0.00  0.00     0.210 HD
ENDBRANCH   5  43
BRANCH   6  45
ATOM     45  O31 NMB d   1      13.282  25.492   3.848  0.00  0.00    -0.391 OA
ATOM     46  H25 NMB d   1      14.195  25.710   3.995  0.00  0.00     0.210 HD
ENDBRANCH   6  45
BRANCH   1  47
ATOM     47  C08 NMB d   1      10.097  23.950   6.436  0.00  0.00     0.031 C 
ATOM     48  H5  NMB d   1       9.772  23.102   7.057  0.00  0.00     0.072 H 
ATOM     49  H6  NMB d   1       9.424  24.051   5.572  0.00  0.00     0.072 H 
BRANCH  47  50
ATOM     50  C09 NMB d   1       9.759  25.135   7.273  0.00  0.00    -0.040 A 
ATOM     51  C14 NMB d   1      10.716  25.613   8.206  0.00  0.00    -0.075 A 
ATOM     52  C13 NMB d   1      10.431  26.739   9.009  0.00  0.00    -0.082 A 
ATOM     53  H11 NMB d   1      11.672  25.110   8.303  0.00  0.00     0.084 H 
ATOM     54  C12 NMB d   1       9.185  27.378   8.869  0.00  0.00    -0.083 A 
ATOM     55  H10 NMB d   1      11.161  27.105   9.722  0.00  0.00     0.083 H 
ATOM     56  C11 NMB d   1       8.230  26.897   7.929  0.00  0.00    -0.082 A 
ATOM     57  H9  NMB d   1       8.951  28.242   9.481  0.00  0.00     0.083 H 
ATOM     58  C10 NMB d   1       8.526  25.784   7.141  0.00  0.00    -0.075 A 
ATOM     59  H8  NMB d   1       7.273  27.395   7.825  0.00  0.00     0.083 H 
ATOM     60  H7  NMB d   1       7.798  25.421   6.424  0.00  0.00     0.084 H 
ENDBRANCH  47  50
ENDBRANCH   1  47
BRANCH   7  61
ATOM     61  C32 NMB d   1      10.812  23.139   3.466  0.00  0.00     0.048 C 
ATOM     62  H26 NMB d   1      11.152  22.098   3.571  0.00  0.00     0.078 H 
ATOM     63  H27 NMB d   1      11.053  23.504   2.457  0.00  0.00     0.078 H 
BRANCH  61  64
ATOM     64  O33 NMB d   1       9.388  23.235   3.713  0.00  0.00    -0.349 OA
BRANCH  64  65
ATOM     65  C34 NMB d   1       8.638  24.096   2.999  0.00  0.00     0.068 A 
ATOM     66  C39 NMB d   1       7.299  23.816   2.745  0.00  0.00    -0.051 A 
ATOM     67  C38 NMB d   1       6.507  24.722   2.007  0.00  0.00    -0.080 A 
ATOM     68  H32 NMB d   1       6.861  22.896   3.116  0.00  0.00     0.087 H 
ATOM     69  C37 NMB d   1       7.065  25.914   1.516  0.00  0.00    -0.083 A 
ATOM     70  H31 NMB d   1       5.463  24.497   1.818  0.00  0.00     0.083 H 
ATOM     71  C36 NMB d   1       8.412  26.203   1.767  0.00  0.00    -0.080 A 
ATOM     72  H30 NMB d   1       6.456  26.606   0.946  0.00  0.00     0.083 H 
ATOM     73  C35 NMB d   1       9.186  25.297   2.506  0.00  0.00    -0.051 A 
ATOM     74  H29 NMB d   1       8.853  27.120   1.393  0.00  0.00     0.083 H 
ATOM     75  H28 NMB d   1      10.227  25.525   2.702  0.00  0.00     0.087 H 
ENDBRANCH  64  65
ENDBRANCH  61  64
ENDBRANCH   7  61
TORSDOF 12
