REMARK  12 active torsions:
REMARK  status: ('A' for Active; 'I' for Inactive)
REMARK    1  A    between atoms: N01_1  and  C08_8 
REMARK    2  A    between atoms: N03_3  and  C16_16 
REMARK    3  A    between atoms: C04_4  and  C23_23 
REMARK    4  A    between atoms: C05_5  and  O31_31 
REMARK    5  A    between atoms: C06_6  and  O32_32 
REMARK    6  A    between atoms: C07_7  and  C33_33 
REMARK    7  A    between atoms: C08_8  and  C09_9 
REMARK    8  A    between atoms: C16_16  and  C17_17 
REMARK    9  A    between atoms: C23_23  and  O24_24 
REMARK   10  A    between atoms: O24_24  and  C25_25 
REMARK   11  A    between atoms: C33_33  and  O34_34 
REMARK   12  A    between atoms: O34_34  and  C35_35 
ROOT
ATOM      1  N01 AH1 d   1      11.741  23.343   5.989  0.00  0.00    -0.320 N 
ATOM      2  C02 AH1 d   1      12.265  22.028   6.051  0.00  0.00     0.322 C 
ATOM      3  N03 AH1 d   1      13.507  21.739   5.638  0.00  0.00    -0.320 N 
ATOM      4  C04 AH1 d   1      14.652  22.663   5.760  0.00  0.00     0.065 C 
ATOM      5  C05 AH1 d   1      14.574  23.829   4.674  0.00  0.00     0.084 C 
ATOM      6  C06 AH1 d   1      13.431  24.851   4.942  0.00  0.00     0.084 C 
ATOM      7  C07 AH1 d   1      11.994  24.268   4.839  0.00  0.00     0.065 C 
ATOM      8  O15 AH1 d   1      11.549  21.091   6.503  0.00  0.00    -0.247 OA
ATOM      9  H1  AH1 d   1      15.591  22.104   5.634  0.00  0.00     0.080 H 
ATOM     10  H2  AH1 d   1      14.444  23.386   3.675  0.00  0.00     0.090 H 
ATOM     11  H3  AH1 d   1      13.566  25.276   5.947  0.00  0.00     0.090 H 
ATOM     12  H4  AH1 d   1      11.265  25.092   4.857  0.00  0.00     0.080 H 
ENDROOT
BRANCH   4  13
ATOM     13  C23 AH1 d   1      14.603  23.293   7.116  0.00  0.00     0.047 C 
ATOM     14  H19 AH1 d   1      13.630  23.800   7.188  0.00  0.00     0.078 H 
ATOM     15  H20 AH1 d   1      15.409  24.041   7.140  0.00  0.00     0.078 H 
BRANCH  13  16
ATOM     16  O24 AH1 d   1      14.744  22.495   8.337  0.00  0.00    -0.349 OA
BRANCH  16  17
ATOM     17  C25 AH1 d   1      15.782  21.774   8.660  0.00  0.00     0.068 A 
ATOM     18  C30 AH1 d   1      17.084  22.167   8.209  0.00  0.00    -0.051 A 
ATOM     19  C29 AH1 d   1      18.226  21.418   8.555  0.00  0.00    -0.080 A 
ATOM     20  H25 AH1 d   1      17.192  23.053   7.593  0.00  0.00     0.087 H 
ATOM     21  C28 AH1 d   1      18.069  20.270   9.368  0.00  0.00    -0.083 A 
ATOM     22  H24 AH1 d   1      19.208  21.716   8.205  0.00  0.00     0.083 H 
ATOM     23  C27 AH1 d   1      16.778  19.855   9.822  0.00  0.00    -0.080 A 
ATOM     24  H23 AH1 d   1      18.943  19.695   9.652  0.00  0.00     0.083 H 
ATOM     25  C26 AH1 d   1      15.625  20.603   9.466  0.00  0.00    -0.051 A 
ATOM     26  H22 AH1 d   1      16.680  18.969  10.438  0.00  0.00     0.083 H 
ATOM     27  H21 AH1 d   1      14.642  20.292   9.800  0.00  0.00     0.087 H 
ENDBRANCH  16  17
ENDBRANCH  13  16
ENDBRANCH   4  13
BRANCH   3  28
ATOM     28  C16 AH1 d   1      13.925  20.389   5.492  0.00  0.00     0.024 C 
ATOM     29  H12 AH1 d   1      13.008  19.790   5.394  0.00  0.00     0.071 H 
ATOM     30  H13 AH1 d   1      14.440  20.122   6.426  0.00  0.00     0.071 H 
BRANCH  28  31
ATOM     31  C17 AH1 d   1      14.841  19.956   4.360  0.00  0.00    -0.040 A 
ATOM     32  C22 AH1 d   1      14.399  20.099   3.000  0.00  0.00    -0.075 A 
ATOM     33  C21 AH1 d   1      15.222  19.650   1.938  0.00  0.00    -0.082 A 
ATOM     34  H18 AH1 d   1      13.437  20.550   2.787  0.00  0.00     0.084 H 
ATOM     35  C20 AH1 d   1      16.459  19.059   2.217  0.00  0.00    -0.083 A 
ATOM     36  H17 AH1 d   1      14.894  19.764   0.911  0.00  0.00     0.083 H 
ATOM     37  C19 AH1 d   1      16.890  18.931   3.539  0.00  0.00    -0.082 A 
ATOM     38  H16 AH1 d   1      17.083  18.700   1.407  0.00  0.00     0.083 H 
ATOM     39  C18 AH1 d   1      16.112  19.365   4.620  0.00  0.00    -0.075 A 
ATOM     40  H15 AH1 d   1      17.857  18.482   3.735  0.00  0.00     0.083 H 
ATOM     41  H14 AH1 d   1      16.470  19.253   5.637  0.00  0.00     0.084 H 
ENDBRANCH  28  31
ENDBRANCH   3  28
BRANCH   5  42
ATOM     42  O31 AH1 d   1      15.746  24.539   4.742  0.00  0.00    -0.391 OA
ATOM     43  H26 AH1 d   1      15.726  25.242   4.104  0.00  0.00     0.210 HD
ENDBRANCH   5  42
BRANCH   6  44
ATOM     44  O32 AH1 d   1      13.550  25.840   3.984  0.00  0.00    -0.391 OA
ATOM     45  H27 AH1 d   1      14.401  26.255   4.063  0.00  0.00     0.210 HD
ENDBRANCH   6  44
BRANCH   1  46
ATOM     46  C08 AH1 d   1      10.453  23.612   6.669  0.00  0.00     0.024 C 
ATOM     47  H5  AH1 d   1      10.337  22.865   7.468  0.00  0.00     0.071 H 
ATOM     48  H6  AH1 d   1       9.652  23.483   5.927  0.00  0.00     0.071 H 
BRANCH  46  49
ATOM     49  C09 AH1 d   1      10.285  24.954   7.281  0.00  0.00    -0.040 A 
ATOM     50  C14 AH1 d   1      11.227  25.436   8.130  0.00  0.00    -0.075 A 
ATOM     51  C13 AH1 d   1      11.100  26.732   8.696  0.00  0.00    -0.082 A 
ATOM     52  H11 AH1 d   1      12.087  24.825   8.379  0.00  0.00     0.084 H 
ATOM     53  C12 AH1 d   1      10.011  27.526   8.396  0.00  0.00    -0.083 A 
ATOM     54  H10 AH1 d   1      11.865  27.101   9.370  0.00  0.00     0.083 H 
ATOM     55  C11 AH1 d   1       9.039  27.011   7.522  0.00  0.00    -0.082 A 
ATOM     56  H9  AH1 d   1       9.909  28.517   8.822  0.00  0.00     0.083 H 
ATOM     57  C10 AH1 d   1       9.180  25.737   6.968  0.00  0.00    -0.075 A 
ATOM     58  H8  AH1 d   1       8.170  27.610   7.275  0.00  0.00     0.083 H 
ATOM     59  H7  AH1 d   1       8.424  25.357   6.290  0.00  0.00     0.084 H 
ENDBRANCH  46  49
ENDBRANCH   1  46
BRANCH   7  60
ATOM     60  C33 AH1 d   1      11.832  23.452   3.515  0.00  0.00     0.047 C 
ATOM     61  H28 AH1 d   1      12.361  22.497   3.651  0.00  0.00     0.078 H 
ATOM     62  H29 AH1 d   1      12.316  24.029   2.713  0.00  0.00     0.078 H 
BRANCH  60  63
ATOM     63  O34 AH1 d   1      10.461  23.135   3.063  0.00  0.00    -0.349 OA
BRANCH  63  64
ATOM     64  C35 AH1 d   1       9.524  24.083   2.747  0.00  0.00     0.068 A 
ATOM     65  C40 AH1 d   1       8.171  23.826   2.927  0.00  0.00    -0.051 A 
ATOM     66  C39 AH1 d   1       7.175  24.809   2.588  0.00  0.00    -0.080 A 
ATOM     67  H34 AH1 d   1       7.859  22.869   3.330  0.00  0.00     0.087 H 
ATOM     68  C38 AH1 d   1       7.565  26.060   2.052  0.00  0.00    -0.083 A 
ATOM     69  H33 AH1 d   1       6.125  24.591   2.744  0.00  0.00     0.083 H 
ATOM     70  C37 AH1 d   1       8.945  26.310   1.880  0.00  0.00    -0.080 A 
ATOM     71  H32 AH1 d   1       6.826  26.805   1.781  0.00  0.00     0.083 H 
ATOM     72  C36 AH1 d   1       9.909  25.327   2.231  0.00  0.00    -0.051 A 
ATOM     73  H31 AH1 d   1       9.272  27.262   1.476  0.00  0.00     0.083 H 
ATOM     74  H30 AH1 d   1      10.963  25.544   2.097  0.00  0.00     0.087 H 
ENDBRANCH  63  64
ENDBRANCH  60  63
ENDBRANCH   7  60
TORSDOF 12
