REMARK  3 active torsions:
REMARK  status: ('A' for Active; 'I' for Inactive)
REMARK    1  A    between atoms: P_1  and  O1P_5 
REMARK    2  A    between atoms: O1P_5  and  C2_6 
REMARK    3  A    between atoms: C2_6  and  C1_7 
ROOT
ATOM      1  C2  PGA d   1       9.167  -2.415  16.289  0.00  0.00     0.112 C 
ATOM      2  H1  PGA d   1       9.521  -3.396  16.640  0.00  0.00     0.092 H 
ATOM      3  H2  PGA d   1       9.917  -1.647  16.529  0.00  0.00     0.092 H 
ENDROOT
BRANCH   1   4
ATOM      4  O1P PGA d   1       7.931  -2.097  16.886  0.00  0.00    -0.272 OA
BRANCH   4   5
ATOM      5  P   PGA d   1       8.094  -1.735  18.446  0.00  0.00     0.422 P 
ATOM      6  O2P PGA d   1       8.942  -0.509  18.723  0.00  0.00    -0.617 OA
ATOM      7  O3P PGA d   1       8.469  -3.108  18.908  0.00  0.00    -0.617 OA
ATOM      8  O4P PGA d   1       6.541  -1.381  18.575  0.00  0.00    -0.617 OA
ENDBRANCH   4   5
ENDBRANCH   1   4
BRANCH   1   9
ATOM      9  C1  PGA d   1       8.907  -2.451  14.791  0.00  0.00     0.198 C 
ATOM     10  O1  PGA d   1       9.892  -2.135  13.999  0.00  0.00    -0.646 OA
ATOM     11  O2  PGA d   1       7.838  -2.815  14.318  0.00  0.00    -0.646 OA
ENDBRANCH   1   9
TORSDOF 3
