REMARK  25 active torsions:
REMARK  status: ('A' for Active; 'I' for Inactive)
REMARK    1  A    between atoms: CA_1  and  CB_2 
REMARK    2  A    between atoms: C_5  and  CA_1 
REMARK    3  A    between atoms: CB_2  and  CG1_3 
REMARK    4  A    between atoms: CB_2  and  CG2_4 
REMARK       I    between atoms: N_7  and  C_5 
REMARK    5  A    between atoms: CA_8  and  N_7 
REMARK    6  A    between atoms: CA_8  and  CB_11 
REMARK    7  A    between atoms: C_9  and  CA_8 
REMARK       I    between atoms: N_14  and  C_9 
REMARK    8  A    between atoms: CB_11  and  CG2_13 
REMARK    9  A    between atoms: CB_11  and  CG1_12 
REMARK   10  A    between atoms: CA_15  and  N_14 
REMARK   11  A    between atoms: CA_15  and  CB_18 
REMARK   12  A    between atoms: C_16  and  CA_15 
REMARK       I    between atoms: N_21  and  C_16 
REMARK   13  A    between atoms: CB_18  and  CG2_20 
REMARK   14  A    between atoms: CB_18  and  CG1_19 
REMARK   15  A    between atoms: CA_22  and  N_21 
REMARK   16  A    between atoms: CA_22  and  CB_23 
REMARK   17  A    between atoms: CH_27  and  CA_22 
REMARK   18  A    between atoms: CB_23  and  CG_24 
REMARK   19  A    between atoms: CG_24  and  CD1_25 
REMARK   20  A    between atoms: CG_24  and  CD2_26 
REMARK   21  A    between atoms: CH_27  and  OH_28 
REMARK   22  A    between atoms: CM_29  and  CH_27 
REMARK   23  A    between atoms: CH_27  and  OH1_32 
REMARK   24  A    between atoms: C_30  and  CM_29 
REMARK       I    between atoms: C_30  and  N_35 
REMARK   25  A    between atoms: N_35  and  CH3_36 
ROOT
ATOM      1  CA  VAL d   1      19.971   8.840  21.849  0.00  0.00     0.092 C 
ATOM      2  H20 VAL d   1      19.504   9.632  21.246  0.00  0.00     0.088 H 
ENDROOT
BRANCH   1   3
ATOM      3  N   VAL d   1      19.933   7.529  21.086  0.00  0.00    -0.346 N 
ATOM      4  C   VAL d   1      19.078   7.387  20.105  0.00  0.00     0.241 C 
ATOM      5  O   VAL d   1      18.236   8.186  19.666  0.00  0.00    -0.271 OA
ATOM      6  H19 VAL d   1      20.553   6.783  21.329  0.00  0.00     0.163 HD
BRANCH   4   7
ATOM      7  CA  VAL d   1      19.174   6.002  19.466  0.00  0.00     0.092 C 
ATOM      8  H11 VAL d   1      19.235   5.255  20.271  0.00  0.00     0.088 H 
BRANCH   7   9
ATOM      9  N   VAL d   1      18.000   5.703  18.594  0.00  0.00    -0.347 N 
ATOM     10  C   IVA d   1      17.130   4.803  18.966  0.00  0.00     0.218 C 
ATOM     11  O   IVA d   1      17.160   4.162  20.051  0.00  0.00    -0.274 OA
ATOM     12  H10 VAL d   1      17.880   6.190  17.729  0.00  0.00     0.163 HD
BRANCH  10  13
ATOM     13  CA  IVA d   1      16.019   4.553  17.934  0.00  0.00     0.012 C 
ATOM     14  H1  IVA d   1      15.726   5.513  17.483  0.00  0.00     0.047 H 
ATOM     15  H2  IVA d   1      16.401   3.881  17.151  0.00  0.00     0.047 H 
BRANCH  13  16
ATOM     16  CB  IVA d   1      14.799   3.916  18.582  0.00  0.00    -0.053 C 
ATOM     17  H3  IVA d   1      15.090   2.974  19.069  0.00  0.00     0.039 H 
BRANCH  16  18
ATOM     18  CG1 IVA d   1      14.321   4.918  19.641  0.00  0.00    -0.073 C 
ATOM     19  H4  IVA d   1      13.434   4.516  20.152  0.00  0.00     0.028 H 
ATOM     20  H5  IVA d   1      14.064   5.871  19.155  0.00  0.00     0.028 H 
ATOM     21  H6  IVA d   1      15.123   5.085  20.375  0.00  0.00     0.028 H 
ENDBRANCH  16  18
BRANCH  16  22
ATOM     22  CG2 IVA d   1      13.719   3.618  17.574  0.00  0.00    -0.073 C 
ATOM     23  H7  IVA d   1      14.097   2.898  16.833  0.00  0.00     0.028 H 
ATOM     24  H8  IVA d   1      13.426   4.548  17.065  0.00  0.00     0.028 H 
ATOM     25  H9  IVA d   1      12.846   3.190  18.088  0.00  0.00     0.028 H 
ENDBRANCH  16  22
ENDBRANCH  13  16
ENDBRANCH  10  13
ENDBRANCH   7   9
BRANCH   7  26
ATOM     26  CB  VAL d   1      20.405   5.871  18.545  0.00  0.00    -0.033 C 
ATOM     27  H12 VAL d   1      21.300   6.007  19.169  0.00  0.00     0.042 H 
BRANCH  26  28
ATOM     28  CG2 VAL d   1      20.394   6.966  17.488  0.00  0.00    -0.071 C 
ATOM     29  H16 VAL d   1      20.316   7.948  17.978  0.00  0.00     0.028 H 
ATOM     30  H17 VAL d   1      19.534   6.821  16.818  0.00  0.00     0.028 H 
ATOM     31  H18 VAL d   1      21.325   6.921  16.904  0.00  0.00     0.028 H 
ENDBRANCH  26  28
BRANCH  26  32
ATOM     32  CG1 VAL d   1      20.514   4.498  17.872  0.00  0.00    -0.071 C 
ATOM     33  H13 VAL d   1      21.409   4.473  17.233  0.00  0.00     0.028 H 
ATOM     34  H14 VAL d   1      19.619   4.319  17.257  0.00  0.00     0.028 H 
ATOM     35  H15 VAL d   1      20.592   3.717  18.643  0.00  0.00     0.028 H 
ENDBRANCH  26  32
ENDBRANCH   7  26
ENDBRANCH   4   7
ENDBRANCH   1   3
BRANCH   1  36
ATOM     36  CB  VAL d   1      19.219   8.739  23.169  0.00  0.00    -0.033 C 
ATOM     37  H21 VAL d   1      19.788   8.052  23.813  0.00  0.00     0.042 H 
BRANCH  36  38
ATOM     38  CG2 VAL d   1      17.809   8.240  23.119  0.00  0.00    -0.071 C 
ATOM     39  H25 VAL d   1      17.789   7.243  22.655  0.00  0.00     0.028 H 
ATOM     40  H26 VAL d   1      17.196   8.933  22.525  0.00  0.00     0.028 H 
ATOM     41  H27 VAL d   1      17.406   8.177  24.140  0.00  0.00     0.028 H 
ENDBRANCH  36  38
BRANCH  36  42
ATOM     42  CG1 VAL d   1      19.183  10.155  23.836  0.00  0.00    -0.071 C 
ATOM     43  H22 VAL d   1      18.642  10.096  24.792  0.00  0.00     0.028 H 
ATOM     44  H23 VAL d   1      18.671  10.862  23.167  0.00  0.00     0.028 H 
ATOM     45  H24 VAL d   1      20.211  10.501  24.017  0.00  0.00     0.028 H 
ENDBRANCH  36  42
ENDBRANCH   1  36
BRANCH   1  46
ATOM     46  C   VAL d   1      21.475   9.163  22.048  0.00  0.00     0.241 C 
ATOM     47  O   VAL d   1      22.028   8.527  22.938  0.00  0.00    -0.271 OA
ATOM     48  N   DFO d   1      22.006  10.066  21.212  0.00  0.00    -0.349 N 
ATOM     49  H28 DFO d   1      21.434  10.521  20.530  0.00  0.00     0.163 HD
BRANCH  48  50
ATOM     50  CA  DFO d   1      23.439  10.380  21.309  0.00  0.00     0.073 C 
ATOM     51  H29 DFO d   1      23.895   9.835  22.148  0.00  0.00     0.081 H 
BRANCH  50  52
ATOM     52  CB  DFO d   1      24.062   9.919  19.965  0.00  0.00    -0.038 C 
ATOM     53  H30 DFO d   1      25.152  10.040  20.048  0.00  0.00     0.036 H 
ATOM     54  H31 DFO d   1      23.678  10.585  19.178  0.00  0.00     0.036 H 
BRANCH  52  55
ATOM     55  CG  DFO d   1      23.796   8.495  19.525  0.00  0.00    -0.059 C 
ATOM     56  H32 DFO d   1      22.708   8.337  19.497  0.00  0.00     0.038 H 
BRANCH  55  57
ATOM     57  CD1 DFO d   1      24.387   8.228  18.150  0.00  0.00    -0.073 C 
ATOM     58  H33 DFO d   1      24.179   7.188  17.857  0.00  0.00     0.028 H 
ATOM     59  H34 DFO d   1      25.475   8.389  18.181  0.00  0.00     0.028 H 
ATOM     60  H35 DFO d   1      23.935   8.913  17.417  0.00  0.00     0.028 H 
ENDBRANCH  55  57
BRANCH  55  61
ATOM     61  CD2 DFO d   1      24.446   7.454  20.483  0.00  0.00    -0.073 C 
ATOM     62  H36 DFO d   1      24.055   7.598  21.501  0.00  0.00     0.028 H 
ATOM     63  H37 DFO d   1      25.538   7.591  20.487  0.00  0.00     0.028 H 
ATOM     64  H38 DFO d   1      24.205   6.438  20.138  0.00  0.00     0.028 H 
ENDBRANCH  55  61
ENDBRANCH  52  55
ENDBRANCH  50  52
BRANCH  50  65
ATOM     65  CH  DFO d   1      23.638  11.888  21.511  0.00  0.00     0.258 C 
BRANCH  65  66
ATOM     66  OH  DFO d   1      22.891  12.611  20.476  0.00  0.00    -0.359 OA
ATOM     67  H39 DFO d   1      23.043  13.544  20.571  0.00  0.00     0.213 HD
ENDBRANCH  65  66
BRANCH  65  68
ATOM     68  CM  DFO d   1      23.228  12.482  22.893  0.00  0.00     0.379 C 
ATOM     69  F1  DFO d   1      22.075  11.982  23.242  0.00  0.00    -0.189 F 
ATOM     70  F2  DFO d   1      23.105  13.810  22.838  0.00  0.00    -0.189 F 
BRANCH  68  71
ATOM     71  C   DFO d   1      24.317  12.108  23.970  0.00  0.00     0.295 C 
ATOM     72  O   DFO d   1      24.307  11.000  24.535  0.00  0.00    -0.267 OA
ATOM     73  N   NME d   1      25.193  13.057  24.175  0.00  0.00    -0.360 N 
ATOM     74  H41 NME d   1      25.099  13.914  23.668  0.00  0.00     0.162 HD
BRANCH  73  75
ATOM     75  CH3 NME d   1      26.323  12.917  25.130  0.00  0.00    -0.018 C 
ATOM     76  H42 NME d   1      26.920  13.841  25.130  0.00  0.00     0.056 H 
ATOM     77  H43 NME d   1      26.957  12.071  24.827  0.00  0.00     0.056 H 
ATOM     78  H44 NME d   1      25.929  12.736  26.141  0.00  0.00     0.056 H 
ENDBRANCH  73  75
ENDBRANCH  68  71
ENDBRANCH  65  68
BRANCH  65  79
ATOM     79  OH1 DFO d   1      25.019  12.123  21.417  0.00  0.00    -0.359 OA
ATOM     80  H40 DFO d   1      25.331  11.835  20.567  0.00  0.00     0.213 HD
ENDBRANCH  65  79
ENDBRANCH  50  65
ENDBRANCH  48  50
ENDBRANCH   1  46
TORSDOF 25
