REMARK  13 active torsions:
REMARK  status: ('A' for Active; 'I' for Inactive)
REMARK    1  A    between atoms: C1_1  and  C2_3 
REMARK       I    between atoms: C1_1  and  N_10 
REMARK    2  A    between atoms: C2_3  and  C3_6 
REMARK    3  A    between atoms: C2_3  and  CH_4 
REMARK    4  A    between atoms: CH_4  and  S_5 
REMARK    5  A    between atoms: C3_6  and  C4_7 
REMARK    6  A    between atoms: C4_7  and  C5_9 
REMARK    7  A    between atoms: C4_7  and  CM_8 
REMARK    8  A    between atoms: N_10  and  CA_11 
REMARK    9  A    between atoms: CA_11  and  C_12 
REMARK   10  A    between atoms: CA_11  and  CB_14 
REMARK   11  A    between atoms: CB_14  and  CG_15 
REMARK   12  A    between atoms: CZ_20  and  OH_21 
REMARK   13  A    between atoms: OH_21  and  C_23 
ROOT
ATOM      1  C1  SLE d   1      -2.897  23.689  47.603  0.00  0.00     0.223 C 
ATOM      2  O1  SLE d   1      -2.120  24.384  48.273  0.00  0.00    -0.273 OA
ATOM      3  N   SLE d   1      -3.781  24.202  46.759  0.00  0.00    -0.346 N 
ATOM      4  H14 SLE d   1      -4.393  23.578  46.272  0.00  0.00     0.163 HD
ENDROOT
BRANCH   3   5
ATOM      5  CA  SLE d   1      -3.903  25.628  46.508  0.00  0.00     0.100 C 
ATOM      6  H15 SLE d   1      -4.065  26.136  47.470  0.00  0.00     0.090 H 
BRANCH   5   7
ATOM      7  C   SLE d   1      -5.129  25.899  45.622  0.00  0.00     0.197 C 
ATOM      8  OXT SLE d   1      -5.614  24.933  45.003  0.00  0.00    -0.646 OA
ATOM      9  O   SLE d   1      -5.656  27.022  45.604  0.00  0.00    -0.646 OA
ENDBRANCH   5   7
BRANCH   5  10
ATOM     10  CB  SLE d   1      -2.598  26.175  45.903  0.00  0.00    -0.013 C 
ATOM     11  H16 SLE d   1      -1.826  26.140  46.686  0.00  0.00     0.043 H 
ATOM     12  H17 SLE d   1      -2.777  27.220  45.612  0.00  0.00     0.043 H 
BRANCH  10  13
ATOM     13  CG  SLE d   1      -2.056  25.446  44.690  0.00  0.00    -0.056 A 
ATOM     14  CD2 SLE d   1      -0.926  25.920  44.022  0.00  0.00    -0.074 A 
ATOM     15  CE2 SLE d   1      -0.447  25.292  42.896  0.00  0.00    -0.050 A 
ATOM     16  H19 SLE d   1      -0.416  26.800  44.398  0.00  0.00     0.084 H 
ATOM     17  CZ  SLE d   1      -1.094  24.160  42.418  0.00  0.00     0.068 A 
ATOM     18  H21 SLE d   1       0.428  25.677  42.386  0.00  0.00     0.087 H 
ATOM     19  CE1 SLE d   1      -2.212  23.672  43.065  0.00  0.00    -0.050 A 
ATOM     20  CD1 SLE d   1      -2.683  24.312  44.191  0.00  0.00    -0.074 A 
ATOM     21  H20 SLE d   1      -2.717  22.790  42.689  0.00  0.00     0.087 H 
ATOM     22  H18 SLE d   1      -3.559  23.923  44.697  0.00  0.00     0.084 H 
BRANCH  17  23
ATOM     23  OH  SLE d   1      -0.640  23.497  41.291  0.00  0.00    -0.356 OA
BRANCH  23  24
ATOM     24  C   SLE d   1      -1.170  23.288  39.981  0.00  0.00     0.010 C 
ATOM     25  H22 SLE d   1      -0.461  22.690  39.390  0.00  0.00     0.066 H 
ATOM     26  H23 SLE d   1      -1.329  24.260  39.490  0.00  0.00     0.066 H 
ATOM     27  H24 SLE d   1      -2.128  22.753  40.054  0.00  0.00     0.066 H 
ENDBRANCH  23  24
ENDBRANCH  17  23
ENDBRANCH  10  13
ENDBRANCH   5  10
ENDBRANCH   3   5
BRANCH   1  28
ATOM     28  C2  SLE d   1      -2.954  22.157  47.744  0.00  0.00     0.032 C 
ATOM     29  H1  SLE d   1      -3.429  21.740  46.844  0.00  0.00     0.055 H 
BRANCH  28  30
ATOM     30  C3  SLE d   1      -3.788  21.784  48.978  0.00  0.00    -0.050 C 
ATOM     31  H5  SLE d   1      -3.157  21.955  49.863  0.00  0.00     0.034 H 
ATOM     32  H6  SLE d   1      -4.027  20.713  48.899  0.00  0.00     0.034 H 
BRANCH  30  33
ATOM     33  C4  SLE d   1      -5.115  22.533  49.211  0.00  0.00    -0.060 C 
ATOM     34  H7  SLE d   1      -4.909  23.613  49.200  0.00  0.00     0.038 H 
BRANCH  33  35
ATOM     35  C5  SLE d   1      -6.126  22.229  48.099  0.00  0.00    -0.073 C 
ATOM     36  H11 SLE d   1      -5.693  22.503  47.125  0.00  0.00     0.028 H 
ATOM     37  H12 SLE d   1      -7.044  22.811  48.269  0.00  0.00     0.028 H 
ATOM     38  H13 SLE d   1      -6.366  21.155  48.105  0.00  0.00     0.028 H 
ENDBRANCH  33  35
BRANCH  33  39
ATOM     39  CM  SLE d   1      -5.687  22.163  50.584  0.00  0.00    -0.073 C 
ATOM     40  H8  SLE d   1      -6.633  22.701  50.744  0.00  0.00     0.028 H 
ATOM     41  H9  SLE d   1      -4.969  22.444  51.368  0.00  0.00     0.028 H 
ATOM     42  H10 SLE d   1      -5.870  21.079  50.625  0.00  0.00     0.028 H 
ENDBRANCH  33  39
ENDBRANCH  30  33
ENDBRANCH  28  30
BRANCH  28  43
ATOM     43  CH  SLE d   1      -1.561  21.541  47.897  0.00  0.00    -0.014 C 
ATOM     44  H2  SLE d   1      -1.681  20.525  48.302  0.00  0.00     0.049 H 
ATOM     45  H3  SLE d   1      -0.993  22.156  48.611  0.00  0.00     0.049 H 
BRANCH  43  46
ATOM     46  S   SLE d   1      -0.594  21.425  46.361  0.00  0.00    -0.181 SA
ATOM     47  H4  SLE d   1       0.302  21.009  46.560  0.00  0.00     0.101 HD
ENDBRANCH  43  46
ENDBRANCH  28  43
ENDBRANCH   1  28
TORSDOF 13
