REMARK  9 active torsions:
REMARK  status: ('A' for Active; 'I' for Inactive)
REMARK    1  A    between atoms: O3A_8  and  PB_1 
REMARK    2  A    between atoms: PA_5  and  O3A_8 
REMARK    3  A    between atoms: PA_5  and  O5'_9 
REMARK    4  A    between atoms: O5'_9  and  C5'_10 
REMARK    5  A    between atoms: C5'_10  and  C4'_11 
REMARK    6  A    between atoms: C3'_13  and  O3'_14 
REMARK    7  A    between atoms: C2'_15  and  O2'_16 
REMARK    8  A    between atoms: C1'_17  and  N9_18 
REMARK    9  A    between atoms: C6_22  and  N6_23 
ROOT
ATOM      1  C4' ADP d   1      19.364  34.552  17.421  0.00  0.00     0.089 C 
ATOM      2  O4' ADP d   1      20.581  35.119  16.973  0.00  0.00    -0.353 OA
ATOM      3  C3' ADP d   1      18.478  35.797  17.797  0.00  0.00     0.091 C 
ATOM      4  C2' ADP d   1      19.140  36.921  17.033  0.00  0.00     0.105 C 
ATOM      5  C1' ADP d   1      20.593  36.498  17.224  0.00  0.00     0.139 C 
ATOM      6  H3  ADP d   1      19.487  33.918  18.312  0.00  0.00     0.090 H 
ATOM      7  H4  ADP d   1      17.420  35.681  17.521  0.00  0.00     0.091 H 
ATOM      8  H6  ADP d   1      18.835  36.962  15.977  0.00  0.00     0.093 H 
ATOM      9  H8  ADP d   1      20.922  36.704  18.253  0.00  0.00     0.122 H 
ENDROOT
BRANCH   5  10
ATOM     10  N9  ADP d   1      21.493  37.188  16.280  0.00  0.00    -0.294 N 
ATOM     11  C8  ADP d   1      21.536  37.310  14.910  0.00  0.00     0.071 A 
ATOM     12  N7  ADP d   1      22.427  38.173  14.475  0.00  0.00    -0.236 NA
ATOM     13  H9  ADP d   1      20.888  36.741  14.244  0.00  0.00     0.144 H 
ATOM     14  C5  ADP d   1      23.007  38.632  15.666  0.00  0.00     0.149 A 
ATOM     15  C6  ADP d   1      24.014  39.552  15.895  0.00  0.00     0.155 A 
ATOM     16  C4  ADP d   1      22.454  38.033  16.739  0.00  0.00     0.167 A 
ATOM     17  N1  ADP d   1      24.381  39.786  17.173  0.00  0.00    -0.222 NA
ATOM     18  C2  ADP d   1      23.764  39.125  18.131  0.00  0.00     0.091 A 
ATOM     19  N3  ADP d   1      22.792  38.229  18.042  0.00  0.00    -0.222 NA
ATOM     20  H12 ADP d   1      24.100  39.346  19.138  0.00  0.00     0.146 H 
BRANCH  15  21
ATOM     21  N6  ADP d   1      24.530  40.199  14.854  0.00  0.00    -0.382 N 
ATOM     22  H10 ADP d   1      25.281  40.889  14.997  0.00  0.00     0.157 HD
ATOM     23  H11 ADP d   1      24.179  40.010  13.904  0.00  0.00     0.157 HD
ENDBRANCH  15  21
ENDBRANCH   5  10
BRANCH   4  24
ATOM     24  O2' ADP d   1      18.906  38.185  17.683  0.00  0.00    -0.388 OA
ATOM     25  H7  ADP d   1      17.971  38.350  17.725  0.00  0.00     0.210 HD
ENDBRANCH   4  24
BRANCH   1  26
ATOM     26  C5' ADP d   1      18.998  33.694  16.238  0.00  0.00     0.058 C 
ATOM     27  H1  ADP d   1      17.933  33.427  16.299  0.00  0.00     0.079 H 
ATOM     28  H2  ADP d   1      19.183  34.257  15.311  0.00  0.00     0.079 H 
BRANCH  26  29
ATOM     29  O5' ADP d   1      19.763  32.530  16.229  0.00  0.00    -0.287 OA
BRANCH  29  30
ATOM     30  PA  ADP d   1      19.522  31.460  15.138  0.00  0.00     0.418 P 
ATOM     31  O1A ADP d   1      20.516  30.358  15.203  0.00  0.00    -0.624 OA
ATOM     32  O2A ADP d   1      19.300  32.162  13.845  0.00  0.00    -0.624 OA
BRANCH  30  33
ATOM     33  O3A ADP d   1      18.151  30.909  15.828  0.00  0.00    -0.173 OA
BRANCH  33  34
ATOM     34  PB  ADP d   1      17.664  29.516  16.465  0.00  0.00     0.431 P 
ATOM     35  O1B ADP d   1      17.304  29.912  17.852  0.00  0.00    -0.616 OA
ATOM     36  O2B ADP d   1      18.736  28.520  16.405  0.00  0.00    -0.616 OA
ATOM     37  O3B ADP d   1      16.494  29.123  15.661  0.00  0.00    -0.616 OA
ENDBRANCH  33  34
ENDBRANCH  30  33
ENDBRANCH  29  30
ENDBRANCH  26  29
ENDBRANCH   1  26
BRANCH   3  38
ATOM     38  O3' ADP d   1      18.637  35.942  19.199  0.00  0.00    -0.390 OA
ATOM     39  H5  ADP d   1      18.124  36.683  19.500  0.00  0.00     0.210 HD
ENDBRANCH   3  38
TORSDOF 9
