REMARK  7 active torsions:
REMARK  status: ('A' for Active; 'I' for Inactive)
REMARK    1  A    between atoms: C1_1  and  O1_10 
REMARK    2  A    between atoms: C2_2  and  N2_9 
REMARK    3  A    between atoms: C3_3  and  O3_11 
REMARK    4  A    between atoms: C4_4  and  O4_12 
REMARK    5  A    between atoms: C5_5  and  C6_6 
REMARK    6  A    between atoms: C6_6  and  O6_14 
REMARK       I    between atoms: N2_9  and  C7_7 
REMARK    7  A    between atoms: C7_7  and  C8_8 
ROOT
ATOM      1  C1  A2G d   1      17.155  -1.241  36.364  0.00  0.00     0.151 C 
ATOM      2  C2  A2G d   1      16.090  -0.637  35.439  0.00  0.00     0.086 C 
ATOM      3  C3  A2G d   1      14.713  -1.245  35.722  0.00  0.00     0.086 C 
ATOM      4  C4  A2G d   1      14.801  -2.767  35.670  0.00  0.00     0.089 C 
ATOM      5  C5  A2G d   1      15.873  -3.235  36.645  0.00  0.00     0.089 C 
ATOM      6  O5  A2G d   1      17.148  -2.669  36.279  0.00  0.00    -0.349 OA
ATOM      7  H1  A2G d   1      18.145  -0.861  36.071  0.00  0.00     0.132 H 
ATOM      8  H2  A2G d   1      16.365  -0.841  34.394  0.00  0.00     0.084 H 
ATOM      9  H3  A2G d   1      14.381  -0.937  36.724  0.00  0.00     0.090 H 
ATOM     10  H4  A2G d   1      13.831  -3.202  35.952  0.00  0.00     0.091 H 
ATOM     11  H5  A2G d   1      15.597  -2.898  37.655  0.00  0.00     0.090 H 
ENDROOT
BRANCH   2  12
ATOM     12  N2  A2G d   1      16.030   0.796  35.650  0.00  0.00    -0.349 N 
ATOM     13  C7  A2G d   1      16.187   1.633  34.630  0.00  0.00     0.214 C 
ATOM     14  O7  A2G d   1      16.388   1.256  33.476  0.00  0.00    -0.274 OA
ATOM     15  H11 A2G d   1      15.870   1.157  36.569  0.00  0.00     0.163 HD
BRANCH  13  16
ATOM     16  C8  A2G d   1      16.110   3.120  34.942  0.00  0.00    -0.003 C 
ATOM     17  H8  A2G d   1      16.256   3.697  34.017  0.00  0.00     0.040 H 
ATOM     18  H9  A2G d   1      16.895   3.384  35.666  0.00  0.00     0.040 H 
ATOM     19  H10 A2G d   1      15.124   3.354  35.369  0.00  0.00     0.040 H 
ENDBRANCH  13  16
ENDBRANCH   2  12
BRANCH   1  20
ATOM     20  O1  A2G d   1      16.890  -0.887  37.675  0.00  0.00    -0.369 OA
ATOM     21  H12 A2G d   1      17.559  -1.252  38.242  0.00  0.00     0.212 HD
ENDBRANCH   1  20
BRANCH   3  22
ATOM     22  O3  A2G d   1      13.774  -0.782  34.756  0.00  0.00    -0.391 OA
ATOM     23  H13 A2G d   1      12.922  -1.162  34.936  0.00  0.00     0.210 HD
ENDBRANCH   3  22
BRANCH   4  24
ATOM     24  O4  A2G d   1      15.141  -3.181  34.355  0.00  0.00    -0.390 OA
ATOM     25  H14 A2G d   1      14.474  -2.882  33.748  0.00  0.00     0.210 HD
ENDBRANCH   4  24
BRANCH   5  26
ATOM     26  C6  A2G d   1      16.038  -4.742  36.655  0.00  0.00     0.043 C 
ATOM     27  H6  A2G d   1      16.529  -5.057  35.722  0.00  0.00     0.078 H 
ATOM     28  H7  A2G d   1      15.046  -5.213  36.725  0.00  0.00     0.078 H 
BRANCH  26  29
ATOM     29  O6  A2G d   1      16.828  -5.156  37.759  0.00  0.00    -0.398 OA
ATOM     30  H15 A2G d   1      16.918  -6.102  37.745  0.00  0.00     0.209 HD
ENDBRANCH  26  29
ENDBRANCH   5  26
TORSDOF 7
