REMARK  4 active torsions:
REMARK  status: ('A' for Active; 'I' for Inactive)
REMARK    1  A    between atoms: C1_1  and  S1_12 
REMARK    2  A    between atoms: N4_8  and  C2_2 
REMARK    3  A    between atoms: C3_3  and  C4_4 
REMARK       I    between atoms: C3_3  and  N4_8 
REMARK    4  A    between atoms: S1_12  and  N1_5 
ROOT
ATOM      1  C1  AZM d   1      34.763  17.193 -17.938  0.00  0.00     0.237 A 
ATOM      2  C2  AZM d   1      34.437  16.448 -20.145  0.00  0.00     0.197 A 
ATOM      3  N2  AZM d   1      35.066  17.627 -20.043  0.00  0.00    -0.122 NA
ATOM      4  N3  AZM d   1      35.188  18.071 -18.767  0.00  0.00    -0.126 NA
ATOM      5  S2  AZM d   1      34.048  15.811 -18.609  0.00  0.00    -0.015 SA
ENDROOT
BRANCH   2   6
ATOM      6  N4  AZM d   1      33.759  15.835 -21.214  0.00  0.00    -0.305 N 
ATOM      7  C3  AZM d   1      32.939  14.771 -20.994  0.00  0.00     0.219 C 
ATOM      8  O3  AZM d   1      32.582  14.429 -19.863  0.00  0.00    -0.274 OA
ATOM      9  H6  AZM d   1      33.880  16.184 -22.143  0.00  0.00     0.171 HD
BRANCH   7  10
ATOM     10  C4  AZM d   1      32.451  14.002 -22.139  0.00  0.00    -0.002 C 
ATOM     11  H1  AZM d   1      31.806  13.185 -21.784  0.00  0.00     0.040 H 
ATOM     12  H2  AZM d   1      33.306  13.582 -22.690  0.00  0.00     0.040 H 
ATOM     13  H3  AZM d   1      31.874  14.661 -22.805  0.00  0.00     0.040 H 
ENDBRANCH   7  10
ENDBRANCH   2   6
BRANCH   1  14
ATOM     14  S1  AZM d   1      34.954  17.373 -16.193  0.00  0.00     0.282 S 
ATOM     15  O1  AZM d   1      34.672  16.010 -15.723  0.00  0.00    -0.199 OA
ATOM     16  O2  AZM d   1      34.171  18.417 -15.693  0.00  0.00    -0.199 OA
BRANCH  14  17
ATOM     17  N1  AZM d   1      36.491  17.630 -15.961  0.00  0.00    -0.323 N 
ATOM     18  H4  AZM d   1      36.841  17.764 -15.034  0.00  0.00     0.169 HD
ATOM     19  H5  AZM d   1      37.116  17.659 -16.741  0.00  0.00     0.169 HD
ENDBRANCH  14  17
ENDBRANCH   1  14
TORSDOF 4
