REMARK  18 active torsions:
REMARK  status: ('A' for Active; 'I' for Inactive)
REMARK    1  A    between atoms: CA_2  and  N_1 
REMARK    2  A    between atoms: C_3  and  CA_2 
REMARK    3  A    between atoms: CA_2  and  CB_5 
REMARK       I    between atoms: N_10  and  C_3 
REMARK    4  A    between atoms: CB_5  and  CG_6 
REMARK    5  A    between atoms: CG_6  and  CD_7 
REMARK    6  A    between atoms: CD_7  and  CE_8 
REMARK    7  A    between atoms: CE_8  and  NZ_9 
REMARK    8  A    between atoms: CA_11  and  N_10 
REMARK    9  A    between atoms: C_12  and  CA_11 
REMARK   10  A    between atoms: CA_11  and  CB_14 
REMARK       I    between atoms: C_12  and  N_16 
REMARK   11  A    between atoms: CB_14  and  SG_15 
REMARK   12  A    between atoms: N_16  and  CA_17 
REMARK   13  A    between atoms: CA_17  and  C_18 
REMARK   14  A    between atoms: CA_17  and  CB_20 
REMARK   15  A    between atoms: CB_20  and  CG_21 
REMARK   16  A    between atoms: CG_21  and  CD_22 
REMARK   17  A    between atoms: CD_22  and  CE_23 
REMARK   18  A    between atoms: CE_23  and  NZ_24 
ROOT
ATOM      1  CA  CYS d   1       3.958  20.479  16.121  0.00  0.00     0.097 C 
ATOM      2  H17 CYS d   1       3.831  19.984  17.095  0.00  0.00     0.088 H 
ENDROOT
BRANCH   1   3
ATOM      3  C   CYS d   1       2.643  20.363  15.369  0.00  0.00     0.242 C 
ATOM      4  O   CYS d   1       2.579  20.710  14.185  0.00  0.00    -0.271 OA
ATOM      5  N   LYS d   1       1.578  20.020  16.100  0.00  0.00    -0.345 N 
ATOM      6  H21 LYS d   1       1.683  19.837  17.077  0.00  0.00     0.163 HD
BRANCH   5   7
ATOM      7  CA  LYS d   1       0.273  19.913  15.483  0.00  0.00     0.096 C 
ATOM      8  H22 LYS d   1       0.387  20.330  14.472  0.00  0.00     0.089 H 
BRANCH   7   9
ATOM      9  C   LYS d   1      -0.759  20.779  16.246  0.00  0.00     0.196 C 
ATOM     10  OE  LYS d   1      -0.518  21.243  17.338  0.00  0.00    -0.646 OA
ATOM     11  O   LYS d   1      -1.775  21.119  15.623  0.00  0.00    -0.646 OA
ENDBRANCH   7   9
BRANCH   7  12
ATOM     12  CB  LYS d   1      -0.350  18.530  15.310  0.00  0.00    -0.037 C 
ATOM     13  H23 LYS d   1      -0.860  18.226  16.236  0.00  0.00     0.036 H 
ATOM     14  H24 LYS d   1       0.428  17.793  15.061  0.00  0.00     0.036 H 
BRANCH  12  15
ATOM     15  CG  LYS d   1      -1.371  18.638  14.152  0.00  0.00    -0.061 C 
ATOM     16  H25 LYS d   1      -0.854  19.038  13.267  0.00  0.00     0.033 H 
ATOM     17  H26 LYS d   1      -2.170  19.331  14.455  0.00  0.00     0.033 H 
BRANCH  15  18
ATOM     18  CD  LYS d   1      -1.994  17.324  13.785  0.00  0.00    -0.043 C 
ATOM     19  H27 LYS d   1      -2.714  17.054  14.571  0.00  0.00     0.035 H 
ATOM     20  H28 LYS d   1      -1.197  16.567  13.742  0.00  0.00     0.035 H 
BRANCH  18  21
ATOM     21  CE  LYS d   1      -2.731  17.320  12.439  0.00  0.00     0.080 C 
ATOM     22  H29 LYS d   1      -3.261  16.364  12.316  0.00  0.00     0.075 H 
ATOM     23  H30 LYS d   1      -2.003  17.443  11.624  0.00  0.00     0.075 H 
BRANCH  21  24
ATOM     24  NZ  LYS d   1      -3.712  18.437  12.397  0.00  0.00    -0.079 N 
ATOM     25  H31 LYS d   1      -4.192  18.429  11.511  0.00  0.00     0.274 HD
ATOM     26  H32 LYS d   1      -3.228  19.314  12.509  0.00  0.00     0.274 HD
ATOM     27  H33 LYS d   1      -4.381  18.325  13.143  0.00  0.00     0.274 HD
ENDBRANCH  21  24
ENDBRANCH  18  21
ENDBRANCH  15  18
ENDBRANCH  12  15
ENDBRANCH   7  12
ENDBRANCH   5   7
ENDBRANCH   1   3
BRANCH   1  28
ATOM     28  CB  CYS d   1       4.221  21.974  16.374  0.00  0.00     0.001 C 
ATOM     29  H18 CYS d   1       3.309  22.443  16.773  0.00  0.00     0.052 H 
ATOM     30  H19 CYS d   1       4.500  22.461  15.428  0.00  0.00     0.052 H 
BRANCH  28  31
ATOM     31  SG  CYS d   1       5.611  22.172  17.607  0.00  0.00    -0.180 SA
ATOM     32  H20 CYS d   1       5.778  23.153  17.768  0.00  0.00     0.101 HD
ENDBRANCH  28  31
ENDBRANCH   1  28
BRANCH   1  33
ATOM     33  N   CYS d   1       5.080  19.829  15.461  0.00  0.00    -0.345 N 
ATOM     34  C   LYS d   1       5.215  18.543  15.321  0.00  0.00     0.249 C 
ATOM     35  O   LYS d   1       4.428  17.743  15.827  0.00  0.00    -0.271 OA
ATOM     36  H16 CYS d   1       5.800  20.414  15.088  0.00  0.00     0.163 HD
BRANCH  34  37
ATOM     37  CA  LYS d   1       6.478  18.008  14.652  0.00  0.00     0.176 C 
ATOM     38  H4  LYS d   1       7.294  18.732  14.793  0.00  0.00     0.099 H 
BRANCH  37  39
ATOM     39  CB  LYS d   1       6.209  17.853  13.146  0.00  0.00    -0.030 C 
ATOM     40  H5  LYS d   1       7.164  17.607  12.659  0.00  0.00     0.036 H 
ATOM     41  H6  LYS d   1       5.845  18.820  12.770  0.00  0.00     0.036 H 
BRANCH  39  42
ATOM     42  CG  LYS d   1       5.190  16.782  12.741  0.00  0.00    -0.061 C 
ATOM     43  H7  LYS d   1       4.208  17.042  13.164  0.00  0.00     0.033 H 
ATOM     44  H8  LYS d   1       5.515  15.809  13.138  0.00  0.00     0.033 H 
BRANCH  42  45
ATOM     45  CD  LYS d   1       5.066  16.683  11.198  0.00  0.00    -0.043 C 
ATOM     46  H9  LYS d   1       4.766  17.660  10.791  0.00  0.00     0.035 H 
ATOM     47  H10 LYS d   1       4.308  15.929  10.939  0.00  0.00     0.035 H 
BRANCH  45  48
ATOM     48  CE  LYS d   1       6.439  16.268  10.592  0.00  0.00     0.080 C 
ATOM     49  H11 LYS d   1       7.252  16.870  11.025  0.00  0.00     0.075 H 
ATOM     50  H12 LYS d   1       6.434  16.391   9.499  0.00  0.00     0.075 H 
BRANCH  48  51
ATOM     51  NZ  LYS d   1       6.598  14.813  10.963  0.00  0.00    -0.079 N 
ATOM     52  H13 LYS d   1       7.473  14.468  10.602  0.00  0.00     0.274 HD
ATOM     53  H14 LYS d   1       5.838  14.281  10.568  0.00  0.00     0.274 HD
ATOM     54  H15 LYS d   1       6.588  14.719  11.967  0.00  0.00     0.274 HD
ENDBRANCH  48  51
ENDBRANCH  45  48
ENDBRANCH  42  45
ENDBRANCH  39  42
ENDBRANCH  37  39
BRANCH  37  55
ATOM     55  N   LYS d   1       6.884  16.699  15.285  0.00  0.00    -0.067 N 
ATOM     56  H1  LYS d   1       7.718  16.354  14.837  0.00  0.00     0.275 HD
ATOM     57  H2  LYS d   1       6.141  16.027  15.174  0.00  0.00     0.275 HD
ATOM     58  H3  LYS d   1       7.064  16.842  16.266  0.00  0.00     0.275 HD
ENDBRANCH  37  55
ENDBRANCH  34  37
ENDBRANCH   1  33
TORSDOF 18
