REMARK  18 active torsions:
REMARK  status: ('A' for Active; 'I' for Inactive)
REMARK    1  A    between atoms: CA_2  and  N_1 
REMARK    2  A    between atoms: CA_2  and  CB_5 
REMARK    3  A    between atoms: C_3  and  CA_2 
REMARK       I    between atoms: N_10  and  C_3 
REMARK    4  A    between atoms: CB_5  and  CG_6 
REMARK    5  A    between atoms: CG_6  and  CD_7 
REMARK    6  A    between atoms: CD_7  and  CE_8 
REMARK    7  A    between atoms: CE_8  and  NZ_9 
REMARK    8  A    between atoms: CA_11  and  N_10 
REMARK    9  A    between atoms: C_12  and  CA_11 
REMARK   10  A    between atoms: CA_11  and  CB_14 
REMARK       I    between atoms: C_12  and  N_25 
REMARK   11  A    between atoms: CB_14  and  CG1_15 
REMARK   12  A    between atoms: N_25  and  CA_26 
REMARK   13  A    between atoms: CA_26  and  CB_29 
REMARK   14  A    between atoms: CA_26  and  C_27 
REMARK   15  A    between atoms: CB_29  and  CG_30 
REMARK   16  A    between atoms: CG_30  and  CD_31 
REMARK   17  A    between atoms: CD_31  and  CE_32 
REMARK   18  A    between atoms: CE_32  and  NZ_33 
ROOT
ATOM      1  CA  ALN d   1       3.782  20.215  16.327  0.00  0.00     0.093 C 
ATOM      2  H17 ALN d   1       3.624  19.545  17.185  0.00  0.00     0.088 H 
ENDROOT
BRANCH   1   3
ATOM      3  N   ALN d   1       4.998  19.785  15.618  0.00  0.00    -0.346 N 
ATOM      4  C   LYS d   1       5.170  18.474  15.412  0.00  0.00     0.249 C 
ATOM      5  O   LYS d   1       4.467  17.580  15.865  0.00  0.00    -0.271 OA
ATOM      6  H16 ALN d   1       5.673  20.451  15.301  0.00  0.00     0.163 HD
BRANCH   4   7
ATOM      7  CA  LYS d   1       6.436  18.020  14.683  0.00  0.00     0.176 C 
ATOM      8  H4  LYS d   1       7.211  18.776  14.875  0.00  0.00     0.099 H 
BRANCH   7   9
ATOM      9  N   LYS d   1       6.909  16.730  15.253  0.00  0.00    -0.067 N 
ATOM     10  H1  LYS d   1       7.743  16.435  14.770  0.00  0.00     0.275 HD
ATOM     11  H2  LYS d   1       6.191  16.031  15.143  0.00  0.00     0.275 HD
ATOM     12  H3  LYS d   1       7.113  16.850  16.233  0.00  0.00     0.275 HD
ENDBRANCH   7   9
BRANCH   7  13
ATOM     13  CB  LYS d   1       6.272  17.924  13.161  0.00  0.00    -0.030 C 
ATOM     14  H5  LYS d   1       7.268  17.777  12.718  0.00  0.00     0.036 H 
ATOM     15  H6  LYS d   1       5.848  18.873  12.802  0.00  0.00     0.036 H 
BRANCH  13  16
ATOM     16  CG  LYS d   1       5.373  16.796  12.686  0.00  0.00    -0.061 C 
ATOM     17  H7  LYS d   1       4.354  16.976  13.058  0.00  0.00     0.033 H 
ATOM     18  H8  LYS d   1       5.750  15.847  13.094  0.00  0.00     0.033 H 
BRANCH  16  19
ATOM     19  CD  LYS d   1       5.329  16.692  11.158  0.00  0.00    -0.043 C 
ATOM     20  H9  LYS d   1       5.205  17.700  10.735  0.00  0.00     0.035 H 
ATOM     21  H10 LYS d   1       4.474  16.064  10.867  0.00  0.00     0.035 H 
BRANCH  19  22
ATOM     22  CE  LYS d   1       6.616  16.071  10.596  0.00  0.00     0.080 C 
ATOM     23  H11 LYS d   1       7.489  16.604  11.001  0.00  0.00     0.075 H 
ATOM     24  H12 LYS d   1       6.614  16.151   9.499  0.00  0.00     0.075 H 
BRANCH  22  25
ATOM     25  NZ  LYS d   1       6.684  14.627  10.992  0.00  0.00    -0.079 N 
ATOM     26  H13 LYS d   1       7.528  14.217  10.624  0.00  0.00     0.274 HD
ATOM     27  H14 LYS d   1       5.884  14.139  10.621  0.00  0.00     0.274 HD
ATOM     28  H15 LYS d   1       6.686  14.554  11.997  0.00  0.00     0.274 HD
ENDBRANCH  22  25
ENDBRANCH  19  22
ENDBRANCH  16  19
ENDBRANCH  13  16
ENDBRANCH   7  13
ENDBRANCH   4   7
ENDBRANCH   1   3
BRANCH   1  29
ATOM     29  C   ALN d   1       2.559  20.149  15.414  0.00  0.00     0.241 C 
ATOM     30  O   ALN d   1       2.590  20.407  14.200  0.00  0.00    -0.271 OA
ATOM     31  N   LYS d   1       1.409  19.792  15.999  0.00  0.00    -0.345 N 
ATOM     32  H27 LYS d   1       1.407  19.539  16.966  0.00  0.00     0.163 HD
BRANCH  31  33
ATOM     33  CA  LYS d   1       0.173  19.767  15.256  0.00  0.00     0.096 C 
ATOM     34  H28 LYS d   1       0.338  20.174  14.248  0.00  0.00     0.089 H 
BRANCH  33  35
ATOM     35  CB  LYS d   1      -0.414  18.343  15.181  0.00  0.00    -0.037 C 
ATOM     36  H29 LYS d   1      -0.956  18.119  16.112  0.00  0.00     0.036 H 
ATOM     37  H30 LYS d   1       0.400  17.616  15.046  0.00  0.00     0.036 H 
BRANCH  35  38
ATOM     38  CG  LYS d   1      -1.379  18.259  13.993  0.00  0.00    -0.061 C 
ATOM     39  H31 LYS d   1      -0.818  18.354  13.052  0.00  0.00     0.033 H 
ATOM     40  H32 LYS d   1      -2.121  19.068  14.060  0.00  0.00     0.033 H 
BRANCH  38  41
ATOM     41  CD  LYS d   1      -2.079  16.922  14.035  0.00  0.00    -0.043 C 
ATOM     42  H33 LYS d   1      -2.247  16.629  15.082  0.00  0.00     0.035 H 
ATOM     43  H34 LYS d   1      -1.454  16.165  13.538  0.00  0.00     0.035 H 
BRANCH  41  44
ATOM     44  CE  LYS d   1      -3.424  17.027  13.312  0.00  0.00     0.080 C 
ATOM     45  H35 LYS d   1      -3.870  18.017  13.486  0.00  0.00     0.075 H 
ATOM     46  H36 LYS d   1      -4.110  16.247  13.674  0.00  0.00     0.075 H 
BRANCH  44  47
ATOM     47  NZ  LYS d   1      -3.152  16.836  11.860  0.00  0.00    -0.079 N 
ATOM     48  H37 LYS d   1      -4.016  16.898  11.345  0.00  0.00     0.274 HD
ATOM     49  H38 LYS d   1      -2.737  15.929  11.712  0.00  0.00     0.274 HD
ATOM     50  H39 LYS d   1      -2.518  17.551  11.540  0.00  0.00     0.274 HD
ENDBRANCH  44  47
ENDBRANCH  41  44
ENDBRANCH  38  41
ENDBRANCH  35  38
ENDBRANCH  33  35
BRANCH  33  51
ATOM     51  C   LYS d   1      -0.896  20.573  16.014  0.00  0.00     0.196 C 
ATOM     52  O   LYS d   1      -1.860  20.946  15.339  0.00  0.00    -0.646 OA
ATOM     53  OXT LYS d   1      -0.818  20.736  17.239  0.00  0.00    -0.646 OA
ENDBRANCH  33  51
ENDBRANCH  31  33
ENDBRANCH   1  29
BRANCH   1  54
ATOM     54  CB  ALN d   1       3.924  21.666  16.842  0.00  0.00    -0.013 C 
ATOM     55  H18 ALN d   1       2.999  21.955  17.363  0.00  0.00     0.043 H 
ATOM     56  H19 ALN d   1       4.088  22.337  15.986  0.00  0.00     0.043 H 
BRANCH  54  57
ATOM     57  CG1 ALN d   1       5.097  21.790  17.804  0.00  0.00    -0.045 A 
ATOM     58  CD1 ALN d   1       6.173  22.554  17.329  0.00  0.00    -0.076 A 
ATOM     59  CE1 ALN d   1       7.311  22.706  18.117  0.00  0.00    -0.082 A 
ATOM     60  H20 ALN d   1       6.119  23.024  16.354  0.00  0.00     0.084 H 
ATOM     61  CZ1 ALN d   1       7.367  22.127  19.367  0.00  0.00    -0.072 A 
ATOM     62  H21 ALN d   1       8.153  23.280  17.747  0.00  0.00     0.083 H 
ATOM     63  CE2 ALN d   1       6.295  21.325  19.934  0.00  0.00    -0.025 A 
ATOM     64  H22 ALN d   1       8.261  22.278  19.961  0.00  0.00     0.084 H 
ATOM     65  CD2 ALN d   1       5.175  21.214  19.080  0.00  0.00    -0.020 A 
ATOM     66  CZ2 ALN d   1       6.323  20.688  21.187  0.00  0.00    -0.072 A 
ATOM     67  CG2 ALN d   1       4.115  20.451  19.569  0.00  0.00    -0.072 A 
ATOM     68  CD3 ALN d   1       4.096  19.832  20.752  0.00  0.00    -0.082 A 
ATOM     69  H23 ALN d   1       3.238  20.353  18.939  0.00  0.00     0.084 H 
ATOM     70  CE3 ALN d   1       5.237  19.918  21.577  0.00  0.00    -0.082 A 
ATOM     71  H24 ALN d   1       3.223  19.275  21.072  0.00  0.00     0.083 H 
ATOM     72  H25 ALN d   1       5.265  19.381  22.518  0.00  0.00     0.083 H 
ATOM     73  H26 ALN d   1       7.182  20.797  21.840  0.00  0.00     0.084 H 
ENDBRANCH  54  57
ENDBRANCH   1  54
TORSDOF 18
