REMARK  19 active torsions:
REMARK  status: ('A' for Active; 'I' for Inactive)
REMARK    1  A    between atoms: CA_2  and  N_1 
REMARK    2  A    between atoms: C_3  and  CA_2 
REMARK    3  A    between atoms: CA_2  and  CB_5 
REMARK       I    between atoms: N_10  and  C_3 
REMARK    4  A    between atoms: CB_5  and  CG_6 
REMARK    5  A    between atoms: CG_6  and  CD_7 
REMARK    6  A    between atoms: CD_7  and  CE_8 
REMARK    7  A    between atoms: CE_8  and  NZ_9 
REMARK    8  A    between atoms: N_10  and  CA_11 
REMARK    9  A    between atoms: CA_11  and  CB_14 
REMARK   10  A    between atoms: CA_11  and  C_12 
REMARK       I    between atoms: C_12  and  N_22 
REMARK   11  A    between atoms: CB_14  and  CG_15 
REMARK   12  A    between atoms: CG_15  and  CD_16 
REMARK   13  A    between atoms: N_22  and  CA_23 
REMARK   14  A    between atoms: CA_23  and  C_24 
REMARK   15  A    between atoms: CA_23  and  CB_26 
REMARK   16  A    between atoms: CB_26  and  CG_27 
REMARK   17  A    between atoms: CG_27  and  CD_28 
REMARK   18  A    between atoms: CD_28  and  CE_29 
REMARK   19  A    between atoms: CE_29  and  NZ_30 
ROOT
ATOM      1  CA  HPE d   1       4.065  20.646  16.205  0.00  0.00     0.089 C 
ATOM      2  H17 HPE d   1       3.872  20.003  17.077  0.00  0.00     0.087 H 
ENDROOT
BRANCH   1   3
ATOM      3  N   HPE d   1       5.227  20.107  15.512  0.00  0.00    -0.346 N 
ATOM      4  C   LYS d   1       5.431  18.795  15.431  0.00  0.00     0.248 C 
ATOM      5  O   LYS d   1       4.668  17.956  15.905  0.00  0.00    -0.271 OA
ATOM      6  H16 HPE d   1       5.882  20.733  15.090  0.00  0.00     0.163 HD
BRANCH   4   7
ATOM      7  CA  LYS d   1       6.692  18.323  14.730  0.00  0.00     0.176 C 
ATOM      8  H4  LYS d   1       7.484  19.065  14.910  0.00  0.00     0.099 H 
BRANCH   7   9
ATOM      9  CB  LYS d   1       6.471  18.237  13.223  0.00  0.00    -0.030 C 
ATOM     10  H5  LYS d   1       7.453  18.143  12.737  0.00  0.00     0.036 H 
ATOM     11  H6  LYS d   1       5.986  19.168  12.893  0.00  0.00     0.036 H 
BRANCH   9  12
ATOM     12  CG  LYS d   1       5.592  17.048  12.769  0.00  0.00    -0.061 C 
ATOM     13  H7  LYS d   1       4.578  17.163  13.180  0.00  0.00     0.033 H 
ATOM     14  H8  LYS d   1       6.031  16.107  13.132  0.00  0.00     0.033 H 
BRANCH  12  15
ATOM     15  CD  LYS d   1       5.524  17.024  11.235  0.00  0.00    -0.043 C 
ATOM     16  H9  LYS d   1       5.421  18.054  10.863  0.00  0.00     0.035 H 
ATOM     17  H10 LYS d   1       4.651  16.432  10.922  0.00  0.00     0.035 H 
BRANCH  15  18
ATOM     18  CE  LYS d   1       6.794  16.399  10.640  0.00  0.00     0.080 C 
ATOM     19  H11 LYS d   1       7.688  16.881  11.063  0.00  0.00     0.075 H 
ATOM     20  H12 LYS d   1       6.797  16.515   9.546  0.00  0.00     0.075 H 
BRANCH  18  21
ATOM     21  NZ  LYS d   1       6.770  14.929  11.009  0.00  0.00    -0.079 N 
ATOM     22  H13 LYS d   1       7.590  14.476  10.637  0.00  0.00     0.274 HD
ATOM     23  H14 LYS d   1       5.944  14.499  10.623  0.00  0.00     0.274 HD
ATOM     24  H15 LYS d   1       6.760  14.835  12.012  0.00  0.00     0.274 HD
ENDBRANCH  18  21
ENDBRANCH  15  18
ENDBRANCH  12  15
ENDBRANCH   9  12
ENDBRANCH   7   9
BRANCH   7  25
ATOM     25  N   LYS d   1       7.143  17.009  15.323  0.00  0.00    -0.067 N 
ATOM     26  H1  LYS d   1       7.980  16.699  14.855  0.00  0.00     0.275 HD
ATOM     27  H2  LYS d   1       6.417  16.320  15.204  0.00  0.00     0.275 HD
ATOM     28  H3  LYS d   1       7.333  17.131  16.305  0.00  0.00     0.275 HD
ENDBRANCH   7  25
ENDBRANCH   4   7
ENDBRANCH   1   3
BRANCH   1  29
ATOM     29  CB  HPE d   1       4.377  22.085  16.699  0.00  0.00    -0.034 C 
ATOM     30  H18 HPE d   1       3.480  22.507  17.175  0.00  0.00     0.037 H 
ATOM     31  H19 HPE d   1       4.663  22.709  15.839  0.00  0.00     0.037 H 
BRANCH  29  32
ATOM     32  CG  HPE d   1       5.532  22.067  17.720  0.00  0.00    -0.039 C 
ATOM     33  H20 HPE d   1       6.423  21.655  17.224  0.00  0.00     0.040 H 
ATOM     34  H21 HPE d   1       5.242  21.413  18.556  0.00  0.00     0.040 H 
BRANCH  32  35
ATOM     35  CD  HPE d   1       5.886  23.416  18.279  0.00  0.00    -0.058 A 
ATOM     36  CE2 HPE d   1       5.385  23.752  19.520  0.00  0.00    -0.077 A 
ATOM     37  CZ2 HPE d   1       5.698  24.993  20.061  0.00  0.00    -0.082 A 
ATOM     38  H23 HPE d   1       4.756  23.058  20.065  0.00  0.00     0.084 H 
ATOM     39  CH  HPE d   1       6.517  25.906  19.409  0.00  0.00    -0.083 A 
ATOM     40  H25 HPE d   1       5.287  25.259  21.029  0.00  0.00     0.083 H 
ATOM     41  CZ1 HPE d   1       7.025  25.546  18.162  0.00  0.00    -0.082 A 
ATOM     42  H26 HPE d   1       6.753  26.866  19.855  0.00  0.00     0.083 H 
ATOM     43  CE1 HPE d   1       6.717  24.309  17.627  0.00  0.00    -0.077 A 
ATOM     44  H24 HPE d   1       7.659  26.233  17.614  0.00  0.00     0.083 H 
ATOM     45  H22 HPE d   1       7.139  24.031  16.668  0.00  0.00     0.084 H 
ENDBRANCH  32  35
ENDBRANCH  29  32
ENDBRANCH   1  29
BRANCH   1  46
ATOM     46  C   HPE d   1       2.784  20.702  15.373  0.00  0.00     0.241 C 
ATOM     47  O   HPE d   1       2.806  21.092  14.215  0.00  0.00    -0.271 OA
ATOM     48  N   LYS d   1       1.676  20.306  16.000  0.00  0.00    -0.345 N 
ATOM     49  H27 LYS d   1       1.736  19.968  16.939  0.00  0.00     0.163 HD
BRANCH  48  50
ATOM     50  CA  LYS d   1       0.382  20.357  15.341  0.00  0.00     0.096 C 
ATOM     51  H28 LYS d   1       0.519  20.773  14.332  0.00  0.00     0.089 H 
BRANCH  50  52
ATOM     52  C   LYS d   1      -0.582  21.257  16.121  0.00  0.00     0.196 C 
ATOM     53  OXT LYS d   1      -0.317  21.593  17.294  0.00  0.00    -0.646 OA
ATOM     54  O   LYS d   1      -1.562  21.699  15.489  0.00  0.00    -0.646 OA
ENDBRANCH  50  52
BRANCH  50  55
ATOM     55  CB  LYS d   1      -0.223  18.946  15.217  0.00  0.00    -0.037 C 
ATOM     56  H29 LYS d   1      -0.698  18.674  16.171  0.00  0.00     0.036 H 
ATOM     57  H30 LYS d   1       0.580  18.229  14.989  0.00  0.00     0.036 H 
BRANCH  55  58
ATOM     58  CG  LYS d   1      -1.269  18.893  14.106  0.00  0.00    -0.061 C 
ATOM     59  H31 LYS d   1      -0.759  18.971  13.135  0.00  0.00     0.033 H 
ATOM     60  H32 LYS d   1      -1.958  19.742  14.227  0.00  0.00     0.033 H 
BRANCH  58  61
ATOM     61  CD  LYS d   1      -2.076  17.596  14.136  0.00  0.00    -0.043 C 
ATOM     62  H33 LYS d   1      -2.794  17.629  14.969  0.00  0.00     0.035 H 
ATOM     63  H34 LYS d   1      -1.395  16.743  14.273  0.00  0.00     0.035 H 
BRANCH  61  64
ATOM     64  CE  LYS d   1      -2.837  17.439  12.806  0.00  0.00     0.080 C 
ATOM     65  H35 LYS d   1      -3.555  16.610  12.886  0.00  0.00     0.075 H 
ATOM     66  H36 LYS d   1      -2.125  17.231  11.994  0.00  0.00     0.075 H 
BRANCH  64  67
ATOM     67  NZ  LYS d   1      -3.567  18.711  12.522  0.00  0.00    -0.079 N 
ATOM     68  H37 LYS d   1      -4.070  18.623  11.653  0.00  0.00     0.274 HD
ATOM     69  H38 LYS d   1      -2.906  19.469  12.452  0.00  0.00     0.274 HD
ATOM     70  H39 LYS d   1      -4.217  18.899  13.269  0.00  0.00     0.274 HD
ENDBRANCH  64  67
ENDBRANCH  61  64
ENDBRANCH  58  61
ENDBRANCH  55  58
ENDBRANCH  50  55
ENDBRANCH  48  50
ENDBRANCH   1  46
TORSDOF 19
