REMARK  20 active torsions:
REMARK  status: ('A' for Active; 'I' for Inactive)
REMARK    1  A    between atoms: CA_2  and  N_1 
REMARK    2  A    between atoms: C_3  and  CA_2 
REMARK    3  A    between atoms: CA_2  and  CB_5 
REMARK       I    between atoms: N_10  and  C_3 
REMARK    4  A    between atoms: CB_5  and  CG_6 
REMARK    5  A    between atoms: CG_6  and  CD_7 
REMARK    6  A    between atoms: CD_7  and  CE_8 
REMARK    7  A    between atoms: CE_8  and  NZ_9 
REMARK    8  A    between atoms: CA_11  and  N_10 
REMARK    9  A    between atoms: C_12  and  CA_11 
REMARK   10  A    between atoms: CA_11  and  CB_14 
REMARK       I    between atoms: C_12  and  N_18 
REMARK   11  A    between atoms: CB_14  and  CG_15 
REMARK   12  A    between atoms: CG_15  and  SD_16 
REMARK   13  A    between atoms: SD_16  and  CE_17 
REMARK   14  A    between atoms: N_18  and  CA_19 
REMARK   15  A    between atoms: CA_19  and  C_20 
REMARK   16  A    between atoms: CA_19  and  CB_22 
REMARK   17  A    between atoms: CB_22  and  CG_23 
REMARK   18  A    between atoms: CG_23  and  CD_24 
REMARK   19  A    between atoms: CD_24  and  CE_25 
REMARK   20  A    between atoms: CE_25  and  NZ_26 
ROOT
ATOM      1  CA  MET d   1       3.923  20.292  16.083  0.00  0.00     0.090 C 
ATOM      2  H17 MET d   1       3.815  19.881  17.098  0.00  0.00     0.087 H 
ENDROOT
BRANCH   1   3
ATOM      3  C   MET d   1       2.628  20.138  15.315  0.00  0.00     0.241 C 
ATOM      4  O   MET d   1       2.597  20.397  14.111  0.00  0.00    -0.271 OA
ATOM      5  N   LYS d   1       1.554  19.794  16.047  0.00  0.00    -0.345 N 
ATOM      6  H25 LYS d   1       1.653  19.603  17.024  0.00  0.00     0.163 HD
BRANCH   5   7
ATOM      7  CA  LYS d   1       0.244  19.700  15.412  0.00  0.00     0.096 C 
ATOM      8  H26 LYS d   1       0.343  20.091  14.388  0.00  0.00     0.089 H 
BRANCH   7   9
ATOM      9  C   LYS d   1      -0.789  20.549  16.170  0.00  0.00     0.196 C 
ATOM     10  OXT LYS d   1      -0.549  20.931  17.319  0.00  0.00    -0.646 OA
ATOM     11  O   LYS d   1      -1.778  20.922  15.478  0.00  0.00    -0.646 OA
ENDBRANCH   7   9
BRANCH   7  12
ATOM     12  CB  LYS d   1      -0.306  18.271  15.328  0.00  0.00    -0.037 C 
ATOM     13  H27 LYS d   1      -0.777  17.974  16.277  0.00  0.00     0.036 H 
ATOM     14  H28 LYS d   1       0.492  17.557  15.076  0.00  0.00     0.036 H 
BRANCH  12  15
ATOM     15  CG  LYS d   1      -1.358  18.355  14.187  0.00  0.00    -0.061 C 
ATOM     16  H29 LYS d   1      -0.842  18.574  13.241  0.00  0.00     0.033 H 
ATOM     17  H30 LYS d   1      -2.067  19.165  14.414  0.00  0.00     0.033 H 
BRANCH  15  18
ATOM     18  CD  LYS d   1      -2.119  17.069  14.040  0.00  0.00    -0.043 C 
ATOM     19  H31 LYS d   1      -2.449  16.727  15.032  0.00  0.00     0.035 H 
ATOM     20  H32 LYS d   1      -1.464  16.309  13.589  0.00  0.00     0.035 H 
BRANCH  18  21
ATOM     21  CE  LYS d   1      -3.341  17.278  13.145  0.00  0.00     0.080 C 
ATOM     22  H33 LYS d   1      -3.699  18.316  13.217  0.00  0.00     0.075 H 
ATOM     23  H34 LYS d   1      -4.150  16.590  13.430  0.00  0.00     0.075 H 
BRANCH  21  24
ATOM     24  NZ  LYS d   1      -2.864  16.982  11.755  0.00  0.00    -0.079 N 
ATOM     25  H35 LYS d   1      -3.626  17.101  11.106  0.00  0.00     0.274 HD
ATOM     26  H36 LYS d   1      -2.529  16.032  11.710  0.00  0.00     0.274 HD
ATOM     27  H37 LYS d   1      -2.116  17.614  11.515  0.00  0.00     0.274 HD
ENDBRANCH  21  24
ENDBRANCH  18  21
ENDBRANCH  15  18
ENDBRANCH  12  15
ENDBRANCH   7  12
ENDBRANCH   5   7
ENDBRANCH   1   3
BRANCH   1  28
ATOM     28  CB  MET d   1       4.240  21.812  16.117  0.00  0.00    -0.030 C 
ATOM     29  H18 MET d   1       3.365  22.358  16.500  0.00  0.00     0.037 H 
ATOM     30  H19 MET d   1       4.471  22.159  15.099  0.00  0.00     0.037 H 
BRANCH  28  31
ATOM     31  CG  MET d   1       5.451  22.078  17.035  0.00  0.00    -0.021 C 
ATOM     32  H20 MET d   1       5.750  23.133  16.949  0.00  0.00     0.049 H 
ATOM     33  H21 MET d   1       6.289  21.433  16.731  0.00  0.00     0.049 H 
BRANCH  31  34
ATOM     34  SD  MET d   1       5.008  21.718  18.750  0.00  0.00    -0.173 SA
BRANCH  34  35
ATOM     35  CE  MET d   1       5.597  23.186  19.580  0.00  0.00    -0.035 C 
ATOM     36  H22 MET d   1       5.390  23.106  20.657  0.00  0.00     0.041 H 
ATOM     37  H23 MET d   1       5.083  24.069  19.173  0.00  0.00     0.041 H 
ATOM     38  H24 MET d   1       6.681  23.287  19.421  0.00  0.00     0.041 H 
ENDBRANCH  34  35
ENDBRANCH  31  34
ENDBRANCH  28  31
ENDBRANCH   1  28
BRANCH   1  39
ATOM     39  N   MET d   1       5.054  19.650  15.389  0.00  0.00    -0.346 N 
ATOM     40  C   LYS d   1       5.203  18.333  15.339  0.00  0.00     0.248 C 
ATOM     41  O   LYS d   1       4.463  17.530  15.927  0.00  0.00    -0.271 OA
ATOM     42  H16 MET d   1       5.734  20.229  14.939  0.00  0.00     0.163 HD
BRANCH  40  43
ATOM     43  CA  LYS d   1       6.431  17.837  14.595  0.00  0.00     0.176 C 
ATOM     44  H4  LYS d   1       7.213  18.598  14.732  0.00  0.00     0.099 H 
BRANCH  43  45
ATOM     45  CB  LYS d   1       6.209  17.712  13.077  0.00  0.00    -0.030 C 
ATOM     46  H5  LYS d   1       7.179  17.477  12.615  0.00  0.00     0.036 H 
ATOM     47  H6  LYS d   1       5.854  18.686  12.710  0.00  0.00     0.036 H 
BRANCH  45  48
ATOM     48  CG  LYS d   1       5.215  16.657  12.624  0.00  0.00    -0.061 C 
ATOM     49  H7  LYS d   1       4.210  16.939  12.971  0.00  0.00     0.033 H 
ATOM     50  H8  LYS d   1       5.496  15.688  13.063  0.00  0.00     0.033 H 
BRANCH  48  51
ATOM     51  CD  LYS d   1       5.197  16.526  11.086  0.00  0.00    -0.043 C 
ATOM     52  H9  LYS d   1       5.135  17.537  10.657  0.00  0.00     0.035 H 
ATOM     53  H10 LYS d   1       4.303  15.952  10.802  0.00  0.00     0.035 H 
BRANCH  51  54
ATOM     54  CE  LYS d   1       6.414  15.833  10.491  0.00  0.00     0.080 C 
ATOM     55  H11 LYS d   1       7.305  16.424  10.750  0.00  0.00     0.075 H 
ATOM     56  H12 LYS d   1       6.294  15.810   9.398  0.00  0.00     0.075 H 
BRANCH  54  57
ATOM     57  NZ  LYS d   1       6.632  14.433  10.963  0.00  0.00    -0.079 N 
ATOM     58  H13 LYS d   1       7.454  14.053  10.521  0.00  0.00     0.274 HD
ATOM     59  H14 LYS d   1       5.831  13.869  10.724  0.00  0.00     0.274 HD
ATOM     60  H15 LYS d   1       6.757  14.431  11.963  0.00  0.00     0.274 HD
ENDBRANCH  54  57
ENDBRANCH  51  54
ENDBRANCH  48  51
ENDBRANCH  45  48
ENDBRANCH  43  45
BRANCH  43  61
ATOM     61  N   LYS d   1       6.947  16.565  15.209  0.00  0.00    -0.067 N 
ATOM     62  H1  LYS d   1       7.760  16.253  14.702  0.00  0.00     0.275 HD
ATOM     63  H2  LYS d   1       6.231  15.856  15.165  0.00  0.00     0.275 HD
ATOM     64  H3  LYS d   1       7.195  16.733  16.171  0.00  0.00     0.275 HD
ENDBRANCH  43  61
ENDBRANCH  40  43
ENDBRANCH   1  39
TORSDOF 20
