REMARK  11 active torsions:
REMARK  status: ('A' for Active; 'I' for Inactive)
REMARK    1  A    between atoms: O3B_8  and  PG_1 
REMARK    2  A    between atoms: PB_5  and  O3B_8 
REMARK    3  A    between atoms: O3A_12  and  PB_5 
REMARK    4  A    between atoms: PA_9  and  O3A_12 
REMARK    5  A    between atoms: PA_9  and  O5_13 
REMARK    6  A    between atoms: O5_13  and  C5_14 
REMARK    7  A    between atoms: C5_14  and  C4_15 
REMARK    8  A    between atoms: C3_17  and  O3_18 
REMARK    9  A    between atoms: C2_19  and  O2_20 
REMARK   10  A    between atoms: C1_21  and  N9_22 
REMARK   11  A    between atoms: C6_26  and  N6_27 
ROOT
ATOM      1  C4  ATP d   1       0.147  24.224   9.353  0.00  0.00     0.089 C 
ATOM      2  O4  ATP d   1       0.267  25.324   8.443  0.00  0.00    -0.353 OA
ATOM      3  C3  ATP d   1       1.002  24.581  10.574  0.00  0.00     0.091 C 
ATOM      4  C2  ATP d   1       1.157  26.137  10.454  0.00  0.00     0.105 C 
ATOM      5  C1  ATP d   1       1.104  26.330   8.923  0.00  0.00     0.139 C 
ATOM      6  H3  ATP d   1       0.516  23.298   8.888  0.00  0.00     0.090 H 
ATOM      7  H4  ATP d   1       0.539  24.273  11.523  0.00  0.00     0.091 H 
ATOM      8  H6  ATP d   1       0.408  26.718  11.012  0.00  0.00     0.093 H 
ATOM      9  H8  ATP d   1       2.114  26.258   8.493  0.00  0.00     0.122 H 
ENDROOT
BRANCH   1  10
ATOM     10  C5  ATP d   1      -1.323  24.047   9.756  0.00  0.00     0.058 C 
ATOM     11  H1  ATP d   1      -1.988  24.154   8.886  0.00  0.00     0.079 H 
ATOM     12  H2  ATP d   1      -1.489  23.067  10.226  0.00  0.00     0.079 H 
BRANCH  10  13
ATOM     13  O5  ATP d   1      -1.528  25.116  10.700  0.00  0.00    -0.287 OA
BRANCH  13  14
ATOM     14  PA  ATP d   1      -2.808  25.087  11.645  0.00  0.00     0.417 P 
ATOM     15  O1A ATP d   1      -3.918  24.413  10.871  0.00  0.00    -0.624 OA
ATOM     16  O2A ATP d   1      -3.073  26.408  12.152  0.00  0.00    -0.624 OA
BRANCH  14  17
ATOM     17  O3A ATP d   1      -2.494  23.945  12.771  0.00  0.00    -0.180 OA
BRANCH  17  18
ATOM     18  PB  ATP d   1      -1.539  24.124  14.051  0.00  0.00     0.428 P 
ATOM     19  O1B ATP d   1      -1.019  25.507  14.007  0.00  0.00    -0.624 OA
ATOM     20  O2B ATP d   1      -0.564  23.045  14.136  0.00  0.00    -0.624 OA
BRANCH  18  21
ATOM     21  O3B ATP d   1      -2.713  23.985  15.119  0.00  0.00    -0.173 OA
BRANCH  21  22
ATOM     22  PG  ATP d   1      -3.904  24.971  15.435  0.00  0.00     0.431 P 
ATOM     23  O1G ATP d   1      -4.443  24.771  16.773  0.00  0.00    -0.616 OA
ATOM     24  O2G ATP d   1      -3.510  26.367  15.111  0.00  0.00    -0.616 OA
ATOM     25  O3G ATP d   1      -5.021  24.580  14.486  0.00  0.00    -0.616 OA
ENDBRANCH  21  22
ENDBRANCH  18  21
ENDBRANCH  17  18
ENDBRANCH  14  17
ENDBRANCH  13  14
ENDBRANCH  10  13
ENDBRANCH   1  10
BRANCH   3  26
ATOM     26  O3  ATP d   1       2.298  23.979  10.395  0.00  0.00    -0.390 OA
ATOM     27  H5  ATP d   1       2.848  24.186  11.141  0.00  0.00     0.210 HD
ENDBRANCH   3  26
BRANCH   5  28
ATOM     28  N9  ATP d   1       0.481  27.594   8.542  0.00  0.00    -0.294 N 
ATOM     29  C8  ATP d   1      -0.528  28.141   9.258  0.00  0.00     0.071 A 
ATOM     30  N7  ATP d   1      -0.708  29.377   9.057  0.00  0.00    -0.236 NA
ATOM     31  H9  ATP d   1      -1.137  27.564   9.952  0.00  0.00     0.144 H 
ATOM     32  C5  ATP d   1       0.200  29.740   8.175  0.00  0.00     0.149 A 
ATOM     33  C6  ATP d   1       0.435  30.983   7.580  0.00  0.00     0.155 A 
ATOM     34  C4  ATP d   1       0.963  28.657   7.804  0.00  0.00     0.167 A 
ATOM     35  N1  ATP d   1       1.453  31.003   6.691  0.00  0.00    -0.222 NA
ATOM     36  C2  ATP d   1       2.120  29.859   6.398  0.00  0.00     0.091 A 
ATOM     37  N3  ATP d   1       1.978  28.672   6.931  0.00  0.00    -0.222 NA
ATOM     38  H12 ATP d   1       2.870  29.938   5.619  0.00  0.00     0.146 H 
BRANCH  33  39
ATOM     39  N6  ATP d   1      -0.195  32.128   7.775  0.00  0.00    -0.382 N 
ATOM     40  H10 ATP d   1       0.095  32.970   7.257  0.00  0.00     0.157 HD
ATOM     41  H11 ATP d   1      -0.976  32.179   8.445  0.00  0.00     0.157 HD
ENDBRANCH  33  39
ENDBRANCH   5  28
BRANCH   4  42
ATOM     42  O2  ATP d   1       2.524  26.414  10.854  0.00  0.00    -0.388 OA
ATOM     43  H7  ATP d   1       3.121  25.957  10.274  0.00  0.00     0.210 HD
ENDBRANCH   4  42
TORSDOF 11
