REMARK  18 active torsions:
REMARK  status: ('A' for Active; 'I' for Inactive)
REMARK    1  A    between atoms: CA_2  and  N_1 
REMARK    2  A    between atoms: C_3  and  CA_2 
REMARK    3  A    between atoms: CA_2  and  CB_5 
REMARK       I    between atoms: N_10  and  C_3 
REMARK    4  A    between atoms: CB_5  and  CG_6 
REMARK    5  A    between atoms: CG_6  and  CD_7 
REMARK    6  A    between atoms: CD_7  and  CE_8 
REMARK    7  A    between atoms: CE_8  and  NZ_9 
REMARK    8  A    between atoms: CA_11  and  N_10 
REMARK    9  A    between atoms: C_12  and  CA_11 
REMARK   10  A    between atoms: CA_11  and  CB_14 
REMARK       I    between atoms: C_12  and  N_20 
REMARK   11  A    between atoms: CB_14  and  CG_15 
REMARK   12  A    between atoms: N_20  and  CA_21 
REMARK   13  A    between atoms: CA_21  and  C_22 
REMARK   14  A    between atoms: CA_21  and  CB_24 
REMARK   15  A    between atoms: CB_24  and  CG_25 
REMARK   16  A    between atoms: CG_25  and  CD_26 
REMARK   17  A    between atoms: CD_26  and  CE_27 
REMARK   18  A    between atoms: CE_27  and  NZ_28 
ROOT
ATOM      1  CA  HIS d   1       3.806  20.252  16.297  0.00  0.00     0.094 C 
ATOM      2  H17 HIS d   1       3.646  19.653  17.206  0.00  0.00     0.088 H 
ENDROOT
BRANCH   1   3
ATOM      3  C   HIS d   1       2.557  20.193  15.423  0.00  0.00     0.241 C 
ATOM      4  O   HIS d   1       2.630  20.519  14.237  0.00  0.00    -0.271 OA
ATOM      5  N   LYS d   1       1.420  19.827  16.057  0.00  0.00    -0.345 N 
ATOM      6  H23 LYS d   1       1.435  19.551  17.018  0.00  0.00     0.163 HD
BRANCH   5   7
ATOM      7  CA  LYS d   1       0.164  19.844  15.301  0.00  0.00     0.096 C 
ATOM      8  H24 LYS d   1       0.372  20.235  14.294  0.00  0.00     0.089 H 
BRANCH   7   9
ATOM      9  C   LYS d   1      -0.852  20.763  16.008  0.00  0.00     0.196 C 
ATOM     10  OXT LYS d   1      -0.673  21.122  17.181  0.00  0.00    -0.646 OA
ATOM     11  O   LYS d   1      -1.833  21.152  15.354  0.00  0.00    -0.646 OA
ENDBRANCH   7   9
BRANCH   7  12
ATOM     12  CB  LYS d   1      -0.478  18.458  15.166  0.00  0.00    -0.037 C 
ATOM     13  H25 LYS d   1      -0.904  18.164  16.136  0.00  0.00     0.036 H 
ATOM     14  H26 LYS d   1       0.293  17.732  14.869  0.00  0.00     0.036 H 
BRANCH  12  15
ATOM     15  CG  LYS d   1      -1.592  18.464  14.111  0.00  0.00    -0.061 C 
ATOM     16  H27 LYS d   1      -1.149  18.467  13.104  0.00  0.00     0.033 H 
ATOM     17  H28 LYS d   1      -2.218  19.359  14.239  0.00  0.00     0.033 H 
BRANCH  15  18
ATOM     18  CD  LYS d   1      -2.443  17.212  14.293  0.00  0.00    -0.043 C 
ATOM     19  H29 LYS d   1      -2.751  17.139  15.346  0.00  0.00     0.035 H 
ATOM     20  H30 LYS d   1      -1.844  16.330  14.024  0.00  0.00     0.035 H 
BRANCH  18  21
ATOM     21  CE  LYS d   1      -3.667  17.253  13.428  0.00  0.00     0.080 C 
ATOM     22  H31 LYS d   1      -4.334  18.041  13.807  0.00  0.00     0.075 H 
ATOM     23  H32 LYS d   1      -4.174  16.279  13.497  0.00  0.00     0.075 H 
BRANCH  21  24
ATOM     24  NZ  LYS d   1      -3.378  17.531  11.998  0.00  0.00    -0.079 N 
ATOM     25  H33 LYS d   1      -4.241  17.544  11.477  0.00  0.00     0.274 HD
ATOM     26  H34 LYS d   1      -2.775  16.811  11.631  0.00  0.00     0.274 HD
ATOM     27  H35 LYS d   1      -2.922  18.426  11.915  0.00  0.00     0.274 HD
ENDBRANCH  21  24
ENDBRANCH  18  21
ENDBRANCH  15  18
ENDBRANCH  12  15
ENDBRANCH   7  12
ENDBRANCH   5   7
ENDBRANCH   1   3
BRANCH   1  28
ATOM     28  CB  HIS d   1       3.992  21.746  16.674  0.00  0.00     0.002 C 
ATOM     29  H18 HIS d   1       3.024  22.168  16.982  0.00  0.00     0.046 H 
ATOM     30  H19 HIS d   1       4.372  22.298  15.802  0.00  0.00     0.046 H 
BRANCH  28  31
ATOM     31  CG  HIS d   1       4.977  21.869  17.813  0.00  0.00     0.030 A 
ATOM     32  CD2 HIS d   1       6.194  22.458  17.774  0.00  0.00     0.025 A 
ATOM     33  NE2 HIS d   1       6.756  22.322  19.034  0.00  0.00    -0.254 NA
ATOM     34  H21 HIS d   1       6.648  22.948  16.913  0.00  0.00     0.117 H 
ATOM     35  CE1 HIS d   1       5.891  21.647  19.790  0.00  0.00     0.063 A 
ATOM     36  ND1 HIS d   1       4.814  21.360  19.071  0.00  0.00    -0.353 N 
ATOM     37  H22 HIS d   1       6.044  21.374  20.833  0.00  0.00     0.143 H 
ATOM     38  H20 HIS d   1       3.991  20.839  19.405  0.00  0.00     0.166 HD
ENDBRANCH  28  31
ENDBRANCH   1  28
BRANCH   1  39
ATOM     39  N   HIS d   1       5.007  19.744  15.604  0.00  0.00    -0.346 N 
ATOM     40  C   LYS d   1       5.148  18.430  15.447  0.00  0.00     0.249 C 
ATOM     41  O   LYS d   1       4.332  17.591  15.851  0.00  0.00    -0.271 OA
ATOM     42  H16 HIS d   1       5.701  20.376  15.259  0.00  0.00     0.163 HD
BRANCH  40  43
ATOM     43  CA  LYS d   1       6.413  17.944  14.750  0.00  0.00     0.176 C 
ATOM     44  H4  LYS d   1       7.195  18.690  14.954  0.00  0.00     0.099 H 
BRANCH  43  45
ATOM     45  CB  LYS d   1       6.220  17.906  13.223  0.00  0.00    -0.030 C 
ATOM     46  H5  LYS d   1       7.203  17.759  12.751  0.00  0.00     0.036 H 
ATOM     47  H6  LYS d   1       5.799  18.870  12.901  0.00  0.00     0.036 H 
BRANCH  45  48
ATOM     48  CG  LYS d   1       5.286  16.789  12.753  0.00  0.00    -0.061 C 
ATOM     49  H7  LYS d   1       4.266  16.996  13.108  0.00  0.00     0.033 H 
ATOM     50  H8  LYS d   1       5.631  15.830  13.167  0.00  0.00     0.033 H 
BRANCH  48  51
ATOM     51  CD  LYS d   1       5.280  16.704  11.217  0.00  0.00    -0.043 C 
ATOM     52  H9  LYS d   1       5.155  17.717  10.806  0.00  0.00     0.035 H 
ATOM     53  H10 LYS d   1       4.436  16.073  10.900  0.00  0.00     0.035 H 
BRANCH  51  54
ATOM     54  CE  LYS d   1       6.593  16.098  10.661  0.00  0.00     0.080 C 
ATOM     55  H11 LYS d   1       7.455  16.580  11.146  0.00  0.00     0.075 H 
ATOM     56  H12 LYS d   1       6.644  16.263   9.575  0.00  0.00     0.075 H 
BRANCH  54  57
ATOM     57  NZ  LYS d   1       6.616  14.615  10.948  0.00  0.00    -0.079 N 
ATOM     58  H13 LYS d   1       7.469  14.216  10.588  0.00  0.00     0.274 HD
ATOM     59  H14 LYS d   1       5.825  14.175  10.504  0.00  0.00     0.274 HD
ATOM     60  H15 LYS d   1       6.569  14.465  11.944  0.00  0.00     0.274 HD
ENDBRANCH  54  57
ENDBRANCH  51  54
ENDBRANCH  48  51
ENDBRANCH  45  48
ENDBRANCH  43  45
BRANCH  43  61
ATOM     61  N   LYS d   1       6.914  16.645  15.296  0.00  0.00    -0.067 N 
ATOM     62  H1  LYS d   1       7.748  16.372  14.801  0.00  0.00     0.275 HD
ATOM     63  H2  LYS d   1       6.207  15.936  15.179  0.00  0.00     0.275 HD
ATOM     64  H3  LYS d   1       7.124  16.751  16.276  0.00  0.00     0.275 HD
ENDBRANCH  43  61
ENDBRANCH  40  43
ENDBRANCH   1  39
TORSDOF 18
