REMARK  20 active torsions:
REMARK  status: ('A' for Active; 'I' for Inactive)
REMARK    1  A    between atoms: CA_2  and  N_1 
REMARK    2  A    between atoms: C_3  and  CA_2 
REMARK    3  A    between atoms: CA_2  and  CB_5 
REMARK       I    between atoms: N_10  and  C_3 
REMARK    4  A    between atoms: CB_5  and  CG_6 
REMARK    5  A    between atoms: CG_6  and  CD_7 
REMARK    6  A    between atoms: CD_7  and  CE_8 
REMARK    7  A    between atoms: CE_8  and  NZ_9 
REMARK    8  A    between atoms: CA_11  and  N_10 
REMARK    9  A    between atoms: C_12  and  CA_11 
REMARK   10  A    between atoms: CA_11  and  CB_14 
REMARK       I    between atoms: C_12  and  N_18 
REMARK   11  A    between atoms: CB_14  and  CG1_15 
REMARK   12  A    between atoms: CB_14  and  CG2_16 
REMARK   13  A    between atoms: CG1_15  and  CD1_17 
REMARK   14  A    between atoms: N_18  and  CA_19 
REMARK   15  A    between atoms: CA_19  and  C_20 
REMARK   16  A    between atoms: CA_19  and  CB_22 
REMARK   17  A    between atoms: CB_22  and  CG_23 
REMARK   18  A    between atoms: CG_23  and  CD_24 
REMARK   19  A    between atoms: CD_24  and  CE_25 
REMARK   20  A    between atoms: CE_25  and  NZ_26 
ROOT
ATOM      1  CA  ILE d   1       3.987  20.505  16.149  0.00  0.00     0.092 C 
ATOM      2  H17 ILE d   1       3.792  19.881  17.034  0.00  0.00     0.088 H 
ENDROOT
BRANCH   1   3
ATOM      3  C   ILE d   1       2.700  20.513  15.308  0.00  0.00     0.241 C 
ATOM      4  O   ILE d   1       2.666  20.904  14.151  0.00  0.00    -0.271 OA
ATOM      5  N   LYS d   1       1.620  20.018  15.974  0.00  0.00    -0.345 N 
ATOM      6  H27 LYS d   1       1.740  19.669  16.903  0.00  0.00     0.163 HD
BRANCH   5   7
ATOM      7  CA  LYS d   1       0.314  19.984  15.377  0.00  0.00     0.096 C 
ATOM      8  H28 LYS d   1       0.386  20.432  14.375  0.00  0.00     0.089 H 
BRANCH   7   9
ATOM      9  C   LYS d   1      -0.677  20.803  16.253  0.00  0.00     0.196 C 
ATOM     10  OXT LYS d   1      -0.528  20.938  17.469  0.00  0.00    -0.646 OA
ATOM     11  O   LYS d   1      -1.574  21.382  15.657  0.00  0.00    -0.646 OA
ENDBRANCH   7   9
BRANCH   7  12
ATOM     12  CB  LYS d   1      -0.303  18.592  15.249  0.00  0.00    -0.037 C 
ATOM     13  H29 LYS d   1      -0.729  18.279  16.214  0.00  0.00     0.036 H 
ATOM     14  H30 LYS d   1       0.463  17.868  14.934  0.00  0.00     0.036 H 
BRANCH  12  15
ATOM     15  CG  LYS d   1      -1.427  18.679  14.174  0.00  0.00    -0.061 C 
ATOM     16  H31 LYS d   1      -0.981  18.845  13.182  0.00  0.00     0.033 H 
ATOM     17  H32 LYS d   1      -2.107  19.510  14.414  0.00  0.00     0.033 H 
BRANCH  15  18
ATOM     18  CD  LYS d   1      -2.202  17.358  14.179  0.00  0.00    -0.043 C 
ATOM     19  H33 LYS d   1      -2.876  17.322  15.048  0.00  0.00     0.035 H 
ATOM     20  H34 LYS d   1      -1.500  16.512  14.224  0.00  0.00     0.035 H 
BRANCH  18  21
ATOM     21  CE  LYS d   1      -3.030  17.291  12.862  0.00  0.00     0.080 C 
ATOM     22  H35 LYS d   1      -3.811  16.522  12.956  0.00  0.00     0.075 H 
ATOM     23  H36 LYS d   1      -2.366  17.038  12.022  0.00  0.00     0.075 H 
BRANCH  21  24
ATOM     24  NZ  LYS d   1      -3.665  18.622  12.616  0.00  0.00    -0.079 N 
ATOM     25  H37 LYS d   1      -4.203  18.585  11.764  0.00  0.00     0.274 HD
ATOM     26  H38 LYS d   1      -2.948  19.326  12.531  0.00  0.00     0.274 HD
ATOM     27  H39 LYS d   1      -4.272  18.852  13.387  0.00  0.00     0.274 HD
ENDBRANCH  21  24
ENDBRANCH  18  21
ENDBRANCH  15  18
ENDBRANCH  12  15
ENDBRANCH   7  12
ENDBRANCH   5   7
ENDBRANCH   1   3
BRANCH   1  28
ATOM     28  CB  ILE d   1       4.247  21.915  16.654  0.00  0.00    -0.030 C 
ATOM     29  H18 ILE d   1       4.523  22.565  15.811  0.00  0.00     0.043 H 
BRANCH  28  30
ATOM     30  CG1 ILE d   1       5.406  21.822  17.698  0.00  0.00    -0.063 C 
ATOM     31  H19 ILE d   1       6.221  21.212  17.280  0.00  0.00     0.033 H 
ATOM     32  H20 ILE d   1       5.028  21.349  18.616  0.00  0.00     0.033 H 
BRANCH  30  33
ATOM     33  CD1 ILE d   1       5.939  23.206  18.032  0.00  0.00    -0.076 C 
ATOM     34  H24 ILE d   1       6.753  23.118  18.767  0.00  0.00     0.027 H 
ATOM     35  H25 ILE d   1       5.129  23.819  18.453  0.00  0.00     0.027 H 
ATOM     36  H26 ILE d   1       6.321  23.682  17.117  0.00  0.00     0.027 H 
ENDBRANCH  30  33
ENDBRANCH  28  30
BRANCH  28  37
ATOM     37  CG2 ILE d   1       3.041  22.523  17.416  0.00  0.00    -0.071 C 
ATOM     38  H21 ILE d   1       2.184  22.616  16.732  0.00  0.00     0.028 H 
ATOM     39  H22 ILE d   1       3.313  23.517  17.800  0.00  0.00     0.028 H 
ATOM     40  H23 ILE d   1       2.770  21.867  18.256  0.00  0.00     0.028 H 
ENDBRANCH  28  37
ENDBRANCH   1  28
BRANCH   1  41
ATOM     41  N   ILE d   1       5.117  19.887  15.463  0.00  0.00    -0.346 N 
ATOM     42  C   LYS d   1       5.313  18.605  15.393  0.00  0.00     0.249 C 
ATOM     43  O   LYS d   1       4.605  17.820  16.022  0.00  0.00    -0.271 OA
ATOM     44  H16 ILE d   1       5.782  20.488  15.019  0.00  0.00     0.163 HD
BRANCH  42  45
ATOM     45  CA  LYS d   1       6.583  18.080  14.691  0.00  0.00     0.176 C 
ATOM     46  H4  LYS d   1       7.390  18.810  14.853  0.00  0.00     0.099 H 
BRANCH  45  47
ATOM     47  CB  LYS d   1       6.351  17.964  13.191  0.00  0.00    -0.030 C 
ATOM     48  H5  LYS d   1       7.310  17.679  12.734  0.00  0.00     0.036 H 
ATOM     49  H6  LYS d   1       6.054  18.960  12.829  0.00  0.00     0.036 H 
BRANCH  47  50
ATOM     50  CG  LYS d   1       5.309  16.979  12.698  0.00  0.00    -0.061 C 
ATOM     51  H7  LYS d   1       4.323  17.337  13.029  0.00  0.00     0.033 H 
ATOM     52  H8  LYS d   1       5.520  16.004  13.162  0.00  0.00     0.033 H 
BRANCH  50  53
ATOM     53  CD  LYS d   1       5.250  16.776  11.199  0.00  0.00    -0.043 C 
ATOM     54  H9  LYS d   1       5.056  17.749  10.723  0.00  0.00     0.035 H 
ATOM     55  H10 LYS d   1       4.423  16.086  10.973  0.00  0.00     0.035 H 
BRANCH  53  56
ATOM     56  CE  LYS d   1       6.556  16.189  10.603  0.00  0.00     0.080 C 
ATOM     57  H11 LYS d   1       7.427  16.693  11.048  0.00  0.00     0.075 H 
ATOM     58  H12 LYS d   1       6.565  16.335   9.513  0.00  0.00     0.075 H 
BRANCH  56  59
ATOM     59  NZ  LYS d   1       6.603  14.704  10.923  0.00  0.00    -0.079 N 
ATOM     60  H13 LYS d   1       7.447  14.305  10.543  0.00  0.00     0.274 HD
ATOM     61  H14 LYS d   1       5.802  14.247  10.516  0.00  0.00     0.274 HD
ATOM     62  H15 LYS d   1       6.591  14.575  11.923  0.00  0.00     0.274 HD
ENDBRANCH  56  59
ENDBRANCH  53  56
ENDBRANCH  50  53
ENDBRANCH  47  50
ENDBRANCH  45  47
BRANCH  45  63
ATOM     63  N   LYS d   1       7.019  16.767  15.290  0.00  0.00    -0.067 N 
ATOM     64  H1  LYS d   1       7.848  16.442  14.819  0.00  0.00     0.275 HD
ATOM     65  H2  LYS d   1       6.283  16.087  15.182  0.00  0.00     0.275 HD
ATOM     66  H3  LYS d   1       7.218  16.894  16.270  0.00  0.00     0.275 HD
ENDBRANCH  45  63
ENDBRANCH  42  45
ENDBRANCH   1  41
TORSDOF 20
