REMARK  18 active torsions:
REMARK  status: ('A' for Active; 'I' for Inactive)
REMARK    1  A    between atoms: CA_2  and  N_1 
REMARK    2  A    between atoms: C_3  and  CA_2 
REMARK    3  A    between atoms: CA_2  and  CB_5 
REMARK       I    between atoms: N_10  and  C_3 
REMARK    4  A    between atoms: CB_5  and  CG_6 
REMARK    5  A    between atoms: CG_6  and  CD_7 
REMARK    6  A    between atoms: CD_7  and  CE_8 
REMARK    7  A    between atoms: CE_8  and  NZ_9 
REMARK    8  A    between atoms: CA_11  and  N_10 
REMARK    9  A    between atoms: CA_11  and  CB_14 
REMARK   10  A    between atoms: C_12  and  CA_11 
REMARK       I    between atoms: C_12  and  N_21 
REMARK   11  A    between atoms: CB_14  and  CG_15 
REMARK   12  A    between atoms: N_21  and  CA_22 
REMARK   13  A    between atoms: CA_22  and  C_23 
REMARK   14  A    between atoms: CA_22  and  CB_25 
REMARK   15  A    between atoms: CB_25  and  CG_26 
REMARK   16  A    between atoms: CG_26  and  CD_27 
REMARK   17  A    between atoms: CD_27  and  CE_28 
REMARK   18  A    between atoms: CE_28  and  NZ_29 
ROOT
ATOM      1  CA  ALC d   1       4.068  20.470  16.099  0.00  0.00     0.089 C 
ATOM      2  H17 ALC d   1       3.887  19.925  17.037  0.00  0.00     0.087 H 
ENDROOT
BRANCH   1   3
ATOM      3  N   ALC d   1       5.202  19.841  15.462  0.00  0.00    -0.346 N 
ATOM      4  C   LYS d   1       5.396  18.529  15.382  0.00  0.00     0.248 C 
ATOM      5  O   LYS d   1       4.607  17.736  15.899  0.00  0.00    -0.271 OA
ATOM      6  H16 ALC d   1       5.892  20.437  15.051  0.00  0.00     0.163 HD
BRANCH   4   7
ATOM      7  CA  LYS d   1       6.631  17.984  14.677  0.00  0.00     0.176 C 
ATOM      8  H4  LYS d   1       7.467  18.669  14.883  0.00  0.00     0.099 H 
BRANCH   7   9
ATOM      9  CB  LYS d   1       6.440  17.917  13.144  0.00  0.00    -0.030 C 
ATOM     10  H5  LYS d   1       7.399  17.631  12.687  0.00  0.00     0.036 H 
ATOM     11  H6  LYS d   1       6.147  18.915  12.787  0.00  0.00     0.036 H 
BRANCH   9  12
ATOM     12  CG  LYS d   1       5.372  16.910  12.697  0.00  0.00    -0.061 C 
ATOM     13  H7  LYS d   1       4.388  17.258  13.045  0.00  0.00     0.033 H 
ATOM     14  H8  LYS d   1       5.596  15.932  13.148  0.00  0.00     0.033 H 
BRANCH  12  15
ATOM     15  CD  LYS d   1       5.331  16.755  11.178  0.00  0.00    -0.043 C 
ATOM     16  H9  LYS d   1       5.099  17.735  10.735  0.00  0.00     0.035 H 
ATOM     17  H10 LYS d   1       4.536  16.039  10.923  0.00  0.00     0.035 H 
BRANCH  15  18
ATOM     18  CE  LYS d   1       6.642  16.253  10.579  0.00  0.00     0.080 C 
ATOM     19  H11 LYS d   1       7.488  16.783  11.041  0.00  0.00     0.075 H 
ATOM     20  H12 LYS d   1       6.646  16.431   9.493  0.00  0.00     0.075 H 
BRANCH  18  21
ATOM     21  NZ  LYS d   1       6.758  14.773  10.853  0.00  0.00    -0.079 N 
ATOM     22  H13 LYS d   1       7.620  14.426  10.463  0.00  0.00     0.274 HD
ATOM     23  H14 LYS d   1       5.980  14.291  10.431  0.00  0.00     0.274 HD
ATOM     24  H15 LYS d   1       6.751  14.614  11.848  0.00  0.00     0.274 HD
ENDBRANCH  18  21
ENDBRANCH  15  18
ENDBRANCH  12  15
ENDBRANCH   9  12
ENDBRANCH   7   9
BRANCH   7  25
ATOM     25  N   LYS d   1       6.991  16.624  15.224  0.00  0.00    -0.067 N 
ATOM     26  H1  LYS d   1       7.809  16.276  14.749  0.00  0.00     0.275 HD
ATOM     27  H2  LYS d   1       6.222  15.989  15.078  0.00  0.00     0.275 HD
ATOM     28  H3  LYS d   1       7.182  16.699  16.211  0.00  0.00     0.275 HD
ENDBRANCH   7  25
ENDBRANCH   4   7
ENDBRANCH   1   3
BRANCH   1  29
ATOM     29  CB  ALC d   1       4.350  21.947  16.448  0.00  0.00    -0.035 C 
ATOM     30  H18 ALC d   1       3.392  22.476  16.561  0.00  0.00     0.037 H 
ATOM     31  H19 ALC d   1       4.926  22.403  15.630  0.00  0.00     0.037 H 
BRANCH  29  32
ATOM     32  CG  ALC d   1       5.173  22.082  17.793  0.00  0.00    -0.052 C 
ATOM     33  CD1 ALC d   1       6.674  21.928  17.416  0.00  0.00    -0.062 C 
ATOM     34  CE1 ALC d   1       7.579  22.144  18.620  0.00  0.00    -0.065 C 
ATOM     35  H29 ALC d   1       6.926  22.669  16.643  0.00  0.00     0.033 H 
ATOM     36  H30 ALC d   1       6.841  20.915  17.021  0.00  0.00     0.033 H 
ATOM     37  CZ  ALC d   1       7.361  23.533  19.253  0.00  0.00    -0.065 C 
ATOM     38  H27 ALC d   1       7.363  21.371  19.372  0.00  0.00     0.033 H 
ATOM     39  H28 ALC d   1       8.627  22.059  18.298  0.00  0.00     0.033 H 
ATOM     40  CE2 ALC d   1       5.877  23.819  19.539  0.00  0.00    -0.065 C 
ATOM     41  H25 ALC d   1       7.919  23.582  20.200  0.00  0.00     0.033 H 
ATOM     42  H26 ALC d   1       7.742  24.300  18.563  0.00  0.00     0.033 H 
ATOM     43  CD2 ALC d   1       4.984  23.530  18.320  0.00  0.00    -0.062 C 
ATOM     44  H23 ALC d   1       5.549  23.186  20.376  0.00  0.00     0.033 H 
ATOM     45  H24 ALC d   1       5.767  24.878  19.815  0.00  0.00     0.033 H 
ATOM     46  H21 ALC d   1       3.932  23.668  18.609  0.00  0.00     0.033 H 
ATOM     47  H22 ALC d   1       5.239  24.237  17.517  0.00  0.00     0.033 H 
ATOM     48  H20 ALC d   1       4.860  21.336  18.538  0.00  0.00     0.040 H 
ENDBRANCH  29  32
ENDBRANCH   1  29
BRANCH   1  49
ATOM     49  C   ALC d   1       2.773  20.426  15.279  0.00  0.00     0.241 C 
ATOM     50  O   ALC d   1       2.695  20.749  14.080  0.00  0.00    -0.271 OA
ATOM     51  N   LYS d   1       1.684  20.010  15.944  0.00  0.00    -0.345 N 
ATOM     52  H31 LYS d   1       1.780  19.725  16.898  0.00  0.00     0.163 HD
BRANCH  51  53
ATOM     53  CA  LYS d   1       0.389  19.960  15.334  0.00  0.00     0.096 C 
ATOM     54  H32 LYS d   1       0.481  20.332  14.303  0.00  0.00     0.089 H 
BRANCH  53  55
ATOM     55  C   LYS d   1      -0.599  20.856  16.118  0.00  0.00     0.196 C 
ATOM     56  OXT LYS d   1      -0.365  21.209  17.269  0.00  0.00    -0.646 OA
ATOM     57  O   LYS d   1      -1.608  21.262  15.526  0.00  0.00    -0.646 OA
ENDBRANCH  53  55
BRANCH  53  58
ATOM     58  CB  LYS d   1      -0.214  18.538  15.296  0.00  0.00    -0.037 C 
ATOM     59  H33 LYS d   1      -0.744  18.321  16.235  0.00  0.00     0.036 H 
ATOM     60  H34 LYS d   1       0.577  17.790  15.140  0.00  0.00     0.036 H 
BRANCH  58  61
ATOM     61  CG  LYS d   1      -1.206  18.535  14.101  0.00  0.00    -0.061 C 
ATOM     62  H35 LYS d   1      -0.659  18.370  13.161  0.00  0.00     0.033 H 
ATOM     63  H36 LYS d   1      -1.736  19.498  14.052  0.00  0.00     0.033 H 
BRANCH  61  64
ATOM     64  CD  LYS d   1      -2.192  17.418  14.323  0.00  0.00    -0.043 C 
ATOM     65  H37 LYS d   1      -3.008  17.814  14.945  0.00  0.00     0.035 H 
ATOM     66  H38 LYS d   1      -1.670  16.618  14.869  0.00  0.00     0.035 H 
BRANCH  64  67
ATOM     67  CE  LYS d   1      -2.813  16.801  13.095  0.00  0.00     0.080 C 
ATOM     68  H39 LYS d   1      -3.757  16.332  13.409  0.00  0.00     0.075 H 
ATOM     69  H40 LYS d   1      -2.120  16.026  12.735  0.00  0.00     0.075 H 
BRANCH  67  70
ATOM     70  NZ  LYS d   1      -3.118  17.670  11.960  0.00  0.00    -0.079 N 
ATOM     71  H41 LYS d   1      -3.526  17.123  11.218  0.00  0.00     0.274 HD
ATOM     72  H42 LYS d   1      -2.269  18.103  11.631  0.00  0.00     0.274 HD
ATOM     73  H43 LYS d   1      -3.769  18.383  12.248  0.00  0.00     0.274 HD
ENDBRANCH  67  70
ENDBRANCH  64  67
ENDBRANCH  61  64
ENDBRANCH  58  61
ENDBRANCH  53  58
ENDBRANCH  51  53
ENDBRANCH   1  49
TORSDOF 18
