REMARK  18 active torsions:
REMARK  status: ('A' for Active; 'I' for Inactive)
REMARK    1  A    between atoms: CA_2  and  N_1 
REMARK    2  A    between atoms: CA_2  and  CB_5 
REMARK    3  A    between atoms: C_3  and  CA_2 
REMARK       I    between atoms: N_10  and  C_3 
REMARK    4  A    between atoms: CB_5  and  CG_6 
REMARK    5  A    between atoms: CG_6  and  CD_7 
REMARK    6  A    between atoms: CD_7  and  CE_8 
REMARK    7  A    between atoms: CE_8  and  NZ_9 
REMARK    8  A    between atoms: CA_11  and  N_10 
REMARK    9  A    between atoms: CA_11  and  CB_14 
REMARK   10  A    between atoms: C_12  and  CA_11 
REMARK       I    between atoms: C_12  and  N_21 
REMARK   11  A    between atoms: CB_14  and  CG_15 
REMARK   12  A    between atoms: N_21  and  CA_22 
REMARK   13  A    between atoms: CA_22  and  CB_25 
REMARK   14  A    between atoms: CA_22  and  C_23 
REMARK   15  A    between atoms: CB_25  and  CG_26 
REMARK   16  A    between atoms: CG_26  and  CD_27 
REMARK   17  A    between atoms: CD_27  and  CE_28 
REMARK   18  A    between atoms: CE_28  and  NZ_29 
ROOT
ATOM      1  CA  PHE d   1       4.071  20.397  16.125  0.00  0.00     0.093 C 
ATOM      2  H17 PHE d   1       3.921  19.901  17.095  0.00  0.00     0.088 H 
ENDROOT
BRANCH   1   3
ATOM      3  N   PHE d   1       5.200  19.780  15.466  0.00  0.00    -0.346 N 
ATOM      4  C   LYS d   1       5.327  18.465  15.350  0.00  0.00     0.249 C 
ATOM      5  O   LYS d   1       4.476  17.687  15.846  0.00  0.00    -0.271 OA
ATOM      6  H16 PHE d   1       5.913  20.367  15.083  0.00  0.00     0.163 HD
BRANCH   4   7
ATOM      7  CA  LYS d   1       6.576  17.938  14.639  0.00  0.00     0.176 C 
ATOM      8  H4  LYS d   1       7.407  18.628  14.848  0.00  0.00     0.099 H 
BRANCH   7   9
ATOM      9  N   LYS d   1       6.956  16.579  15.148  0.00  0.00    -0.067 N 
ATOM     10  H1  LYS d   1       7.779  16.257  14.664  0.00  0.00     0.275 HD
ATOM     11  H2  LYS d   1       6.198  15.935  14.986  0.00  0.00     0.275 HD
ATOM     12  H3  LYS d   1       7.146  16.631  16.136  0.00  0.00     0.275 HD
ENDBRANCH   7   9
BRANCH   7  13
ATOM     13  CB  LYS d   1       6.352  17.897  13.125  0.00  0.00    -0.030 C 
ATOM     14  H5  LYS d   1       7.335  17.782  12.645  0.00  0.00     0.036 H 
ATOM     15  H6  LYS d   1       5.909  18.859  12.827  0.00  0.00     0.036 H 
BRANCH  13  16
ATOM     16  CG  LYS d   1       5.456  16.799  12.603  0.00  0.00    -0.061 C 
ATOM     17  H7  LYS d   1       4.468  16.901  13.076  0.00  0.00     0.033 H 
ATOM     18  H8  LYS d   1       5.896  15.829  12.879  0.00  0.00     0.033 H 
BRANCH  16  19
ATOM     19  CD  LYS d   1       5.273  16.833  11.098  0.00  0.00    -0.043 C 
ATOM     20  H9  LYS d   1       5.115  17.878  10.794  0.00  0.00     0.035 H 
ATOM     21  H10 LYS d   1       4.382  16.240  10.846  0.00  0.00     0.035 H 
BRANCH  19  22
ATOM     22  CE  LYS d   1       6.456  16.278  10.305  0.00  0.00     0.080 C 
ATOM     23  H11 LYS d   1       7.346  16.899  10.484  0.00  0.00     0.075 H 
ATOM     24  H12 LYS d   1       6.217  16.281   9.231  0.00  0.00     0.075 H 
BRANCH  22  25
ATOM     25  NZ  LYS d   1       6.721  14.868  10.762  0.00  0.00    -0.079 N 
ATOM     26  H13 LYS d   1       7.500  14.489  10.247  0.00  0.00     0.274 HD
ATOM     27  H14 LYS d   1       5.903  14.303  10.599  0.00  0.00     0.274 HD
ATOM     28  H15 LYS d   1       6.938  14.869  11.746  0.00  0.00     0.274 HD
ENDBRANCH  22  25
ENDBRANCH  19  22
ENDBRANCH  16  19
ENDBRANCH  13  16
ENDBRANCH   7  13
ENDBRANCH   4   7
ENDBRANCH   1   3
BRANCH   1  29
ATOM     29  CB  PHE d   1       4.379  21.890  16.353  0.00  0.00    -0.014 C 
ATOM     30  H18 PHE d   1       3.465  22.387  16.710  0.00  0.00     0.043 H 
ATOM     31  H19 PHE d   1       4.688  22.335  15.396  0.00  0.00     0.043 H 
BRANCH  29  32
ATOM     32  CG  PHE d   1       5.487  22.117  17.376  0.00  0.00    -0.056 A 
ATOM     33  CD1 PHE d   1       6.816  21.990  17.001  0.00  0.00    -0.077 A 
ATOM     34  CE1 PHE d   1       7.809  22.202  17.927  0.00  0.00    -0.082 A 
ATOM     35  H20 PHE d   1       7.071  21.724  15.981  0.00  0.00     0.084 H 
ATOM     36  CZ  PHE d   1       7.521  22.519  19.248  0.00  0.00    -0.083 A 
ATOM     37  H22 PHE d   1       8.845  22.120  17.618  0.00  0.00     0.083 H 
ATOM     38  CE2 PHE d   1       6.184  22.635  19.600  0.00  0.00    -0.082 A 
ATOM     39  H24 PHE d   1       8.310  22.670  19.976  0.00  0.00     0.083 H 
ATOM     40  CD2 PHE d   1       5.173  22.434  18.665  0.00  0.00    -0.077 A 
ATOM     41  H23 PHE d   1       5.922  22.887  20.621  0.00  0.00     0.083 H 
ATOM     42  H21 PHE d   1       4.135  22.529  18.961  0.00  0.00     0.084 H 
ENDBRANCH  29  32
ENDBRANCH   1  29
BRANCH   1  43
ATOM     43  C   PHE d   1       2.763  20.296  15.313  0.00  0.00     0.241 C 
ATOM     44  O   PHE d   1       2.788  20.602  14.115  0.00  0.00    -0.271 OA
ATOM     45  N   LYS d   1       1.654  19.913  15.956  0.00  0.00    -0.345 N 
ATOM     46  H25 LYS d   1       1.709  19.651  16.919  0.00  0.00     0.163 HD
BRANCH  45  47
ATOM     47  CA  LYS d   1       0.381  19.873  15.281  0.00  0.00     0.096 C 
ATOM     48  H26 LYS d   1       0.492  20.334  14.288  0.00  0.00     0.089 H 
BRANCH  47  49
ATOM     49  CB  LYS d   1      -0.124  18.418  15.122  0.00  0.00    -0.037 C 
ATOM     50  H27 LYS d   1      -0.611  18.094  16.053  0.00  0.00     0.036 H 
ATOM     51  H28 LYS d   1       0.727  17.756  14.904  0.00  0.00     0.036 H 
BRANCH  49  52
ATOM     52  CG  LYS d   1      -1.129  18.354  13.971  0.00  0.00    -0.061 C 
ATOM     53  H29 LYS d   1      -0.597  18.051  13.057  0.00  0.00     0.033 H 
ATOM     54  H30 LYS d   1      -1.564  19.354  13.828  0.00  0.00     0.033 H 
BRANCH  52  55
ATOM     55  CD  LYS d   1      -2.249  17.373  14.225  0.00  0.00    -0.043 C 
ATOM     56  H31 LYS d   1      -2.725  17.625  15.184  0.00  0.00     0.035 H 
ATOM     57  H32 LYS d   1      -1.822  16.361  14.282  0.00  0.00     0.035 H 
BRANCH  55  58
ATOM     58  CE  LYS d   1      -3.324  17.391  13.123  0.00  0.00     0.080 C 
ATOM     59  H33 LYS d   1      -3.718  18.412  13.011  0.00  0.00     0.075 H 
ATOM     60  H34 LYS d   1      -4.143  16.710  13.398  0.00  0.00     0.075 H 
BRANCH  58  61
ATOM     61  NZ  LYS d   1      -2.719  16.948  11.838  0.00  0.00    -0.079 N 
ATOM     62  H35 LYS d   1      -3.421  16.959  11.115  0.00  0.00     0.274 HD
ATOM     63  H36 LYS d   1      -2.358  16.013  11.941  0.00  0.00     0.274 HD
ATOM     64  H37 LYS d   1      -1.968  17.572  11.587  0.00  0.00     0.274 HD
ENDBRANCH  58  61
ENDBRANCH  55  58
ENDBRANCH  52  55
ENDBRANCH  49  52
ENDBRANCH  47  49
BRANCH  47  65
ATOM     65  C   LYS d   1      -0.688  20.634  16.088  0.00  0.00     0.196 C 
ATOM     66  O   LYS d   1      -1.785  20.846  15.525  0.00  0.00    -0.646 OA
ATOM     67  O1  LYS d   1      -0.467  21.026  17.265  0.00  0.00    -0.646 OA
ENDBRANCH  47  65
ENDBRANCH  45  47
ENDBRANCH   1  43
TORSDOF 18
