REMARK  15 active torsions:
REMARK  status: ('A' for Active; 'I' for Inactive)
REMARK    1  A    between atoms: CA_2  and  N_1 
REMARK    2  A    between atoms: CA_2  and  CB_5 
REMARK    3  A    between atoms: C_3  and  CA_2 
REMARK       I    between atoms: N_10  and  C_3 
REMARK    4  A    between atoms: CB_5  and  CG_6 
REMARK    5  A    between atoms: CG_6  and  CD_7 
REMARK    6  A    between atoms: CD_7  and  CE_8 
REMARK    7  A    between atoms: CE_8  and  NZ_9 
REMARK    8  A    between atoms: C_12  and  CA_11 
REMARK       I    between atoms: C_12  and  N_17 
REMARK    9  A    between atoms: N_17  and  CA_18 
REMARK   10  A    between atoms: CA_18  and  CB_21 
REMARK   11  A    between atoms: CA_18  and  C_19 
REMARK   12  A    between atoms: CB_21  and  CG_22 
REMARK   13  A    between atoms: CG_22  and  CD_23 
REMARK   14  A    between atoms: CD_23  and  CE_24 
REMARK   15  A    between atoms: CE_24  and  NZ_25 
ROOT
ATOM      1  C   LYS d   1       5.083  18.157  15.420  0.00  0.00     0.251 C 
ATOM      2  O   LYS d   1       4.145  17.381  15.658  0.00  0.00    -0.271 OA
ATOM      3  N   PRO d   1       4.970  19.416  15.820  0.00  0.00    -0.337 N 
ATOM      4  CA  PRO d   1       3.736  19.922  16.428  0.00  0.00     0.091 C 
ATOM      5  CB  PRO d   1       4.077  21.396  16.723  0.00  0.00    -0.036 C 
ATOM      6  CG  PRO d   1       5.580  21.340  16.893  0.00  0.00    -0.048 C 
ATOM      7  CD  PRO d   1       6.019  20.454  15.725  0.00  0.00    -0.001 C 
ATOM      8  H16 PRO d   1       3.500  19.370  17.350  0.00  0.00     0.087 H 
ATOM      9  H17 PRO d   1       3.583  21.745  17.642  0.00  0.00     0.036 H 
ATOM     10  H18 PRO d   1       3.793  22.048  15.884  0.00  0.00     0.036 H 
ATOM     11  H19 PRO d   1       6.025  22.343  16.819  0.00  0.00     0.035 H 
ATOM     12  H20 PRO d   1       5.853  20.888  17.858  0.00  0.00     0.035 H 
ATOM     13  H21 PRO d   1       5.985  20.989  14.765  0.00  0.00     0.064 H 
ATOM     14  H22 PRO d   1       7.026  20.039  15.877  0.00  0.00     0.064 H 
ENDROOT
BRANCH   4  15
ATOM     15  C   PRO d   1       2.547  19.863  15.481  0.00  0.00     0.241 C 
ATOM     16  O   PRO d   1       2.626  20.143  14.266  0.00  0.00    -0.271 OA
ATOM     17  N   LYS d   1       1.376  19.538  16.032  0.00  0.00    -0.345 N 
ATOM     18  H23 LYS d   1       1.358  19.332  17.010  0.00  0.00     0.163 HD
BRANCH  17  19
ATOM     19  CA  LYS d   1       0.136  19.466  15.303  0.00  0.00     0.096 C 
ATOM     20  H24 LYS d   1       0.300  19.884  14.299  0.00  0.00     0.089 H 
BRANCH  19  21
ATOM     21  CB  LYS d   1      -0.403  18.034  15.164  0.00  0.00    -0.037 C 
ATOM     22  H25 LYS d   1      -0.866  17.714  16.109  0.00  0.00     0.036 H 
ATOM     23  H26 LYS d   1       0.417  17.348  14.907  0.00  0.00     0.036 H 
BRANCH  21  24
ATOM     24  CG  LYS d   1      -1.462  18.040  14.031  0.00  0.00    -0.061 C 
ATOM     25  H27 LYS d   1      -0.970  18.174  13.056  0.00  0.00     0.033 H 
ATOM     26  H28 LYS d   1      -2.183  18.855  14.193  0.00  0.00     0.033 H 
BRANCH  24  27
ATOM     27  CD  LYS d   1      -2.174  16.698  14.075  0.00  0.00    -0.043 C 
ATOM     28  H29 LYS d   1      -2.407  16.438  15.118  0.00  0.00     0.035 H 
ATOM     29  H30 LYS d   1      -1.526  15.923  13.640  0.00  0.00     0.035 H 
BRANCH  27  30
ATOM     30  CE  LYS d   1      -3.474  16.795  13.267  0.00  0.00     0.080 C 
ATOM     31  H31 LYS d   1      -3.990  17.742  13.486  0.00  0.00     0.075 H 
ATOM     32  H32 LYS d   1      -4.137  15.951  13.509  0.00  0.00     0.075 H 
BRANCH  30  33
ATOM     33  NZ  LYS d   1      -3.076  16.744  11.838  0.00  0.00    -0.079 N 
ATOM     34  H33 LYS d   1      -3.898  16.805  11.258  0.00  0.00     0.274 HD
ATOM     35  H34 LYS d   1      -2.598  15.876  11.653  0.00  0.00     0.274 HD
ATOM     36  H35 LYS d   1      -2.462  17.517  11.632  0.00  0.00     0.274 HD
ENDBRANCH  30  33
ENDBRANCH  27  30
ENDBRANCH  24  27
ENDBRANCH  21  24
ENDBRANCH  19  21
BRANCH  19  37
ATOM     37  C   LYS d   1      -0.946  20.284  16.033  0.00  0.00     0.196 C 
ATOM     38  O   LYS d   1      -1.904  20.680  15.366  0.00  0.00    -0.646 OA
ATOM     39  OXT LYS d   1      -0.761  20.636  17.211  0.00  0.00    -0.646 OA
ENDBRANCH  19  37
ENDBRANCH  17  19
ENDBRANCH   4  15
BRANCH   1  40
ATOM     40  CA  LYS d   1       6.314  17.728  14.660  0.00  0.00     0.176 C 
ATOM     41  H4  LYS d   1       7.111  18.467  14.833  0.00  0.00     0.099 H 
BRANCH  40  42
ATOM     42  N   LYS d   1       6.766  16.387  15.139  0.00  0.00    -0.067 N 
ATOM     43  H1  LYS d   1       7.588  16.107  14.627  0.00  0.00     0.275 HD
ATOM     44  H2  LYS d   1       6.032  15.712  14.991  0.00  0.00     0.275 HD
ATOM     45  H3  LYS d   1       6.983  16.437  16.122  0.00  0.00     0.275 HD
ENDBRANCH  40  42
BRANCH  40  46
ATOM     46  CB  LYS d   1       6.039  17.623  13.128  0.00  0.00    -0.030 C 
ATOM     47  H5  LYS d   1       7.001  17.446  12.625  0.00  0.00     0.036 H 
ATOM     48  H6  LYS d   1       5.622  18.585  12.795  0.00  0.00     0.036 H 
BRANCH  46  49
ATOM     49  CG  LYS d   1       5.077  16.523  12.691  0.00  0.00    -0.061 C 
ATOM     50  H7  LYS d   1       4.077  16.749  13.089  0.00  0.00     0.033 H 
ATOM     51  H8  LYS d   1       5.427  15.564  13.100  0.00  0.00     0.033 H 
BRANCH  49  52
ATOM     52  CD  LYS d   1       4.985  16.404  11.150  0.00  0.00    -0.043 C 
ATOM     53  H9  LYS d   1       4.886  17.414  10.725  0.00  0.00     0.035 H 
ATOM     54  H10 LYS d   1       4.094  15.810  10.896  0.00  0.00     0.035 H 
BRANCH  52  55
ATOM     55  CE  LYS d   1       6.205  15.736  10.534  0.00  0.00     0.080 C 
ATOM     56  H11 LYS d   1       7.101  16.300  10.830  0.00  0.00     0.075 H 
ATOM     57  H12 LYS d   1       6.102  15.759   9.439  0.00  0.00     0.075 H 
BRANCH  55  58
ATOM     58  NZ  LYS d   1       6.372  14.308  10.970  0.00  0.00    -0.079 N 
ATOM     59  H13 LYS d   1       7.192  13.917  10.533  0.00  0.00     0.274 HD
ATOM     60  H14 LYS d   1       5.560  13.776  10.697  0.00  0.00     0.274 HD
ATOM     61  H15 LYS d   1       6.476  14.273  11.972  0.00  0.00     0.274 HD
ENDBRANCH  55  58
ENDBRANCH  52  55
ENDBRANCH  49  52
ENDBRANCH  46  49
ENDBRANCH  40  46
ENDBRANCH   1  40
TORSDOF 15
