REMARK  19 active torsions:
REMARK  status: ('A' for Active; 'I' for Inactive)
REMARK    1  A    between atoms: CA_2  and  N_1 
REMARK    2  A    between atoms: C_3  and  CA_2 
REMARK    3  A    between atoms: CA_2  and  CB_5 
REMARK       I    between atoms: N_10  and  C_3 
REMARK    4  A    between atoms: CB_5  and  CG_6 
REMARK    5  A    between atoms: CG_6  and  CD_7 
REMARK    6  A    between atoms: CD_7  and  CE_8 
REMARK    7  A    between atoms: CE_8  and  NZ_9 
REMARK    8  A    between atoms: CA_11  and  N_10 
REMARK    9  A    between atoms: CA_11  and  CB_14 
REMARK   10  A    between atoms: C_12  and  CA_11 
REMARK       I    between atoms: C_12  and  N_17 
REMARK   11  A    between atoms: CB_14  and  CG_15 
REMARK   12  A    between atoms: CG_15  and  ND_16 
REMARK   13  A    between atoms: N_17  and  CA_18 
REMARK   14  A    between atoms: CA_18  and  C_19 
REMARK   15  A    between atoms: CA_18  and  CB_21 
REMARK   16  A    between atoms: CB_21  and  CG_22 
REMARK   17  A    between atoms: CG_22  and  CD_23 
REMARK   18  A    between atoms: CD_23  and  CE_24 
REMARK   19  A    between atoms: CE_24  and  NZ_25 
ROOT
ATOM      1  CA  DAB d   1       3.913  20.238  16.167  0.00  0.00     0.091 C 
ATOM      2  H17 DAB d   1       3.767  19.709  17.120  0.00  0.00     0.087 H 
ENDROOT
BRANCH   1   3
ATOM      3  N   DAB d   1       5.023  19.617  15.440  0.00  0.00    -0.346 N 
ATOM      4  C   LYS d   1       5.189  18.295  15.386  0.00  0.00     0.248 C 
ATOM      5  O   LYS d   1       4.407  17.501  15.932  0.00  0.00    -0.271 OA
ATOM      6  H16 DAB d   1       5.679  20.205  14.968  0.00  0.00     0.163 HD
BRANCH   4   7
ATOM      7  CA  LYS d   1       6.410  17.798  14.626  0.00  0.00     0.176 C 
ATOM      8  H4  LYS d   1       7.203  18.546  14.771  0.00  0.00     0.099 H 
BRANCH   7   9
ATOM      9  CB  LYS d   1       6.191  17.698  13.130  0.00  0.00    -0.030 C 
ATOM     10  H5  LYS d   1       7.163  17.476  12.666  0.00  0.00     0.036 H 
ATOM     11  H6  LYS d   1       5.833  18.677  12.780  0.00  0.00     0.036 H 
BRANCH   9  12
ATOM     12  CG  LYS d   1       5.198  16.644  12.647  0.00  0.00    -0.061 C 
ATOM     13  H7  LYS d   1       4.189  16.927  12.981  0.00  0.00     0.033 H 
ATOM     14  H8  LYS d   1       5.470  15.672  13.085  0.00  0.00     0.033 H 
BRANCH  12  15
ATOM     15  CD  LYS d   1       5.197  16.516  11.120  0.00  0.00    -0.043 C 
ATOM     16  H9  LYS d   1       5.094  17.521  10.685  0.00  0.00     0.035 H 
ATOM     17  H10 LYS d   1       4.338  15.897  10.821  0.00  0.00     0.035 H 
BRANCH  15  18
ATOM     18  CE  LYS d   1       6.483  15.871  10.566  0.00  0.00     0.080 C 
ATOM     19  H11 LYS d   1       7.354  16.404  10.975  0.00  0.00     0.075 H 
ATOM     20  H12 LYS d   1       6.482  15.957   9.469  0.00  0.00     0.075 H 
BRANCH  18  21
ATOM     21  NZ  LYS d   1       6.580  14.415  10.942  0.00  0.00    -0.079 N 
ATOM     22  H13 LYS d   1       7.430  14.027  10.565  0.00  0.00     0.274 HD
ATOM     23  H14 LYS d   1       5.788  13.918  10.567  0.00  0.00     0.274 HD
ATOM     24  H15 LYS d   1       6.587  14.327  11.946  0.00  0.00     0.274 HD
ENDBRANCH  18  21
ENDBRANCH  15  18
ENDBRANCH  12  15
ENDBRANCH   9  12
ENDBRANCH   7   9
BRANCH   7  25
ATOM     25  N   LYS d   1       6.904  16.506  15.241  0.00  0.00    -0.067 N 
ATOM     26  H1  LYS d   1       7.713  16.180  14.735  0.00  0.00     0.275 HD
ATOM     27  H2  LYS d   1       6.176  15.811  15.193  0.00  0.00     0.275 HD
ATOM     28  H3  LYS d   1       7.153  16.666  16.204  0.00  0.00     0.275 HD
ENDBRANCH   7  25
ENDBRANCH   4   7
ENDBRANCH   1   3
BRANCH   1  29
ATOM     29  CB  DAB d   1       4.246  21.725  16.419  0.00  0.00    -0.016 C 
ATOM     30  H18 DAB d   1       3.350  22.265  16.760  0.00  0.00     0.039 H 
ATOM     31  H19 DAB d   1       4.627  22.192  15.499  0.00  0.00     0.039 H 
BRANCH  29  32
ATOM     32  CG  DAB d   1       5.328  21.739  17.514  0.00  0.00     0.082 C 
ATOM     33  H20 DAB d   1       5.869  22.693  17.432  0.00  0.00     0.075 H 
ATOM     34  H21 DAB d   1       6.018  20.908  17.307  0.00  0.00     0.075 H 
BRANCH  32  35
ATOM     35  ND  DAB d   1       4.895  21.609  18.856  0.00  0.00    -0.079 N 
ATOM     36  H22 DAB d   1       5.694  21.633  19.471  0.00  0.00     0.274 HD
ATOM     37  H23 DAB d   1       4.410  20.733  18.969  0.00  0.00     0.274 HD
ATOM     38  H24 DAB d   1       4.273  22.369  19.084  0.00  0.00     0.274 HD
ENDBRANCH  32  35
ENDBRANCH  29  32
ENDBRANCH   1  29
BRANCH   1  39
ATOM     39  C   DAB d   1       2.618  20.237  15.378  0.00  0.00     0.241 C 
ATOM     40  O   DAB d   1       2.614  20.486  14.180  0.00  0.00    -0.271 OA
ATOM     41  N   LYS d   1       1.527  19.883  16.072  0.00  0.00    -0.345 N 
ATOM     42  H25 LYS d   1       1.597  19.643  17.040  0.00  0.00     0.163 HD
BRANCH  41  43
ATOM     43  CA  LYS d   1       0.252  19.854  15.402  0.00  0.00     0.096 C 
ATOM     44  H26 LYS d   1       0.377  20.275  14.393  0.00  0.00     0.089 H 
BRANCH  43  45
ATOM     45  C   LYS d   1      -0.750  20.701  16.205  0.00  0.00     0.196 C 
ATOM     46  OXT LYS d   1      -0.567  21.009  17.387  0.00  0.00    -0.646 OA
ATOM     47  O   LYS d   1      -1.766  21.020  15.572  0.00  0.00    -0.646 OA
ENDBRANCH  43  45
BRANCH  43  48
ATOM     48  CB  LYS d   1      -0.356  18.442  15.285  0.00  0.00    -0.037 C 
ATOM     49  H27 LYS d   1      -0.916  18.199  16.200  0.00  0.00     0.036 H 
ATOM     50  H28 LYS d   1       0.444  17.701  15.137  0.00  0.00     0.036 H 
BRANCH  48  51
ATOM     51  CG  LYS d   1      -1.305  18.436  14.074  0.00  0.00    -0.061 C 
ATOM     52  H29 LYS d   1      -0.714  18.402  13.147  0.00  0.00     0.033 H 
ATOM     53  H30 LYS d   1      -1.918  19.349  14.085  0.00  0.00     0.033 H 
BRANCH  51  54
ATOM     54  CD  LYS d   1      -2.208  17.224  14.140  0.00  0.00    -0.043 C 
ATOM     55  H31 LYS d   1      -3.122  17.498  14.688  0.00  0.00     0.035 H 
ATOM     56  H32 LYS d   1      -1.681  16.425  14.682  0.00  0.00     0.035 H 
BRANCH  54  57
ATOM     57  CE  LYS d   1      -2.600  16.705  12.788  0.00  0.00     0.080 C 
ATOM     58  H33 LYS d   1      -2.959  15.674  12.919  0.00  0.00     0.075 H 
ATOM     59  H34 LYS d   1      -1.698  16.702  12.159  0.00  0.00     0.075 H 
BRANCH  57  60
ATOM     60  NZ  LYS d   1      -3.624  17.437  12.080  0.00  0.00    -0.079 N 
ATOM     61  H35 LYS d   1      -3.799  16.995  11.191  0.00  0.00     0.274 HD
ATOM     62  H36 LYS d   1      -3.316  18.385  11.929  0.00  0.00     0.274 HD
ATOM     63  H37 LYS d   1      -4.471  17.442  12.626  0.00  0.00     0.274 HD
ENDBRANCH  57  60
ENDBRANCH  54  57
ENDBRANCH  51  54
ENDBRANCH  48  51
ENDBRANCH  43  48
ENDBRANCH  41  43
ENDBRANCH   1  39
TORSDOF 19
