REMARK  18 active torsions:
REMARK  status: ('A' for Active; 'I' for Inactive)
REMARK    1  A    between atoms: CA_2  and  N_1 
REMARK    2  A    between atoms: CA_2  and  CB_5 
REMARK    3  A    between atoms: C_3  and  CA_2 
REMARK       I    between atoms: N_10  and  C_3 
REMARK    4  A    between atoms: CB_5  and  CG_6 
REMARK    5  A    between atoms: CG_6  and  CD_7 
REMARK    6  A    between atoms: CD_7  and  CE_8 
REMARK    7  A    between atoms: CE_8  and  NZ_9 
REMARK    8  A    between atoms: CA_11  and  N_10 
REMARK    9  A    between atoms: CA_11  and  CB_14 
REMARK   10  A    between atoms: C_12  and  CA_11 
REMARK       I    between atoms: C_12  and  N_18 
REMARK   11  A    between atoms: CB_14  and  CG_15 
REMARK   12  A    between atoms: N_18  and  CA_19 
REMARK   13  A    between atoms: CA_19  and  CB_22 
REMARK   14  A    between atoms: CA_19  and  C_20 
REMARK   15  A    between atoms: CB_22  and  CG_23 
REMARK   16  A    between atoms: CG_23  and  CD_24 
REMARK   17  A    between atoms: CD_24  and  CE_25 
REMARK   18  A    between atoms: CE_25  and  NZ_26 
ROOT
ATOM      1  CA  ASP d   1       3.777  20.058  16.151  0.00  0.00     0.098 C 
ATOM      2  H17 ASP d   1       3.642  19.478  17.076  0.00  0.00     0.088 H 
ENDROOT
BRANCH   1   3
ATOM      3  N   ASP d   1       4.930  19.519  15.401  0.00  0.00    -0.345 N 
ATOM      4  C   LYS d   1       5.123  18.217  15.317  0.00  0.00     0.249 C 
ATOM      5  O   LYS d   1       4.341  17.390  15.806  0.00  0.00    -0.271 OA
ATOM      6  H16 ASP d   1       5.568  20.146  14.954  0.00  0.00     0.163 HD
BRANCH   4   7
ATOM      7  CA  LYS d   1       6.360  17.753  14.561  0.00  0.00     0.176 C 
ATOM      8  H4  LYS d   1       7.144  18.511  14.704  0.00  0.00     0.099 H 
BRANCH   7   9
ATOM      9  N   LYS d   1       6.843  16.461  15.151  0.00  0.00    -0.067 N 
ATOM     10  H1  LYS d   1       7.662  16.150  14.653  0.00  0.00     0.275 HD
ATOM     11  H2  LYS d   1       6.118  15.765  15.074  0.00  0.00     0.275 HD
ATOM     12  H3  LYS d   1       7.073  16.600  16.122  0.00  0.00     0.275 HD
ENDBRANCH   7   9
BRANCH   7  13
ATOM     13  CB  LYS d   1       6.129  17.609  13.043  0.00  0.00    -0.030 C 
ATOM     14  H5  LYS d   1       7.101  17.406  12.570  0.00  0.00     0.036 H 
ATOM     15  H6  LYS d   1       5.731  18.564  12.669  0.00  0.00     0.036 H 
BRANCH  13  16
ATOM     16  CG  LYS d   1       5.165  16.503  12.628  0.00  0.00    -0.061 C 
ATOM     17  H7  LYS d   1       4.168  16.720  13.038  0.00  0.00     0.033 H 
ATOM     18  H8  LYS d   1       5.524  15.542  13.026  0.00  0.00     0.033 H 
BRANCH  16  19
ATOM     19  CD  LYS d   1       5.072  16.412  11.080  0.00  0.00    -0.043 C 
ATOM     20  H9  LYS d   1       4.959  17.425  10.666  0.00  0.00     0.035 H 
ATOM     21  H10 LYS d   1       4.197  15.804  10.807  0.00  0.00     0.035 H 
BRANCH  19  22
ATOM     22  CE  LYS d   1       6.336  15.766  10.492  0.00  0.00     0.080 C 
ATOM     23  H11 LYS d   1       7.211  16.344  10.824  0.00  0.00     0.075 H 
ATOM     24  H12 LYS d   1       6.269  15.800   9.395  0.00  0.00     0.075 H 
BRANCH  22  25
ATOM     25  NZ  LYS d   1       6.517  14.353  10.910  0.00  0.00    -0.079 N 
ATOM     26  H13 LYS d   1       7.359  13.985  10.495  0.00  0.00     0.274 HD
ATOM     27  H14 LYS d   1       5.726  13.808  10.605  0.00  0.00     0.274 HD
ATOM     28  H15 LYS d   1       6.590  14.306  11.914  0.00  0.00     0.274 HD
ENDBRANCH  22  25
ENDBRANCH  19  22
ENDBRANCH  16  19
ENDBRANCH  13  16
ENDBRANCH   7  13
ENDBRANCH   4   7
ENDBRANCH   1   3
BRANCH   1  29
ATOM     29  CB  ASP d   1       4.051  21.535  16.489  0.00  0.00     0.043 C 
ATOM     30  H18 ASP d   1       3.100  22.036  16.722  0.00  0.00     0.052 H 
ATOM     31  H19 ASP d   1       4.521  22.024  15.623  0.00  0.00     0.052 H 
BRANCH  29  32
ATOM     32  CG  ASP d   1       4.983  21.640  17.693  0.00  0.00     0.175 C 
ATOM     33  OD2 ASP d   1       6.080  22.167  17.494  0.00  0.00    -0.648 OA
ATOM     34  OD1 ASP d   1       4.723  21.178  18.807  0.00  0.00    -0.648 OA
ENDBRANCH  29  32
ENDBRANCH   1  29
BRANCH   1  35
ATOM     35  C   ASP d   1       2.503  20.003  15.329  0.00  0.00     0.241 C 
ATOM     36  O   ASP d   1       2.507  20.276  14.135  0.00  0.00    -0.271 OA
ATOM     37  N   LYS d   1       1.398  19.584  15.974  0.00  0.00    -0.345 N 
ATOM     38  H20 LYS d   1       1.460  19.291  16.928  0.00  0.00     0.163 HD
BRANCH  37  39
ATOM     39  CA  LYS d   1       0.123  19.556  15.296  0.00  0.00     0.096 C 
ATOM     40  H21 LYS d   1       0.247  19.977  14.287  0.00  0.00     0.089 H 
BRANCH  39  41
ATOM     41  CB  LYS d   1      -0.406  18.122  15.189  0.00  0.00    -0.037 C 
ATOM     42  H22 LYS d   1      -0.883  17.817  16.132  0.00  0.00     0.036 H 
ATOM     43  H23 LYS d   1       0.413  17.427  14.950  0.00  0.00     0.036 H 
BRANCH  41  44
ATOM     44  CG  LYS d   1      -1.453  18.147  14.033  0.00  0.00    -0.061 C 
ATOM     45  H24 LYS d   1      -0.950  18.321  13.070  0.00  0.00     0.033 H 
ATOM     46  H25 LYS d   1      -2.193  18.942  14.209  0.00  0.00     0.033 H 
BRANCH  44  47
ATOM     47  CD  LYS d   1      -2.131  16.798  14.029  0.00  0.00    -0.043 C 
ATOM     48  H26 LYS d   1      -2.390  16.521  15.062  0.00  0.00     0.035 H 
ATOM     49  H27 LYS d   1      -1.442  16.049  13.611  0.00  0.00     0.035 H 
BRANCH  47  50
ATOM     50  CE  LYS d   1      -3.412  16.834  13.180  0.00  0.00     0.080 C 
ATOM     51  H28 LYS d   1      -3.906  17.812  13.277  0.00  0.00     0.075 H 
ATOM     52  H29 LYS d   1      -4.103  16.040  13.499  0.00  0.00     0.075 H 
BRANCH  50  53
ATOM     53  NZ  LYS d   1      -2.985  16.610  11.773  0.00  0.00    -0.079 N 
ATOM     54  H30 LYS d   1      -3.793  16.624  11.170  0.00  0.00     0.274 HD
ATOM     55  H31 LYS d   1      -2.527  15.715  11.699  0.00  0.00     0.274 HD
ATOM     56  H32 LYS d   1      -2.346  17.339  11.496  0.00  0.00     0.274 HD
ENDBRANCH  50  53
ENDBRANCH  47  50
ENDBRANCH  44  47
ENDBRANCH  41  44
ENDBRANCH  39  41
BRANCH  39  57
ATOM     57  C   LYS d   1      -0.915  20.379  16.071  0.00  0.00     0.196 C 
ATOM     58  O   LYS d   1      -1.888  20.781  15.389  0.00  0.00    -0.646 OA
ATOM     59  OXT LYS d   1      -0.691  20.759  17.237  0.00  0.00    -0.646 OA
ENDBRANCH  39  57
ENDBRANCH  37  39
ENDBRANCH   1  35
TORSDOF 18
