REMARK  18 active torsions:
REMARK  status: ('A' for Active; 'I' for Inactive)
REMARK    1  A    between atoms: CA_2  and  N_1 
REMARK    2  A    between atoms: CA_2  and  CB_5 
REMARK    3  A    between atoms: C_3  and  CA_2 
REMARK       I    between atoms: N_10  and  C_3 
REMARK    4  A    between atoms: CB_5  and  CG_6 
REMARK    5  A    between atoms: CG_6  and  CD_7 
REMARK    6  A    between atoms: CD_7  and  CE_8 
REMARK    7  A    between atoms: CE_8  and  NZ_9 
REMARK    8  A    between atoms: CA_11  and  N_10 
REMARK    9  A    between atoms: CA_11  and  CB_14 
REMARK   10  A    between atoms: C_12  and  CA_11 
REMARK       I    between atoms: C_12  and  N_16 
REMARK   11  A    between atoms: CB_14  and  OG_15 
REMARK   12  A    between atoms: N_16  and  CA_17 
REMARK   13  A    between atoms: CA_17  and  CB_20 
REMARK   14  A    between atoms: CA_17  and  C_18 
REMARK   15  A    between atoms: CB_20  and  CG_21 
REMARK   16  A    between atoms: CG_21  and  CD_22 
REMARK   17  A    between atoms: CD_22  and  CE_23 
REMARK   18  A    between atoms: CE_23  and  NZ_24 
ROOT
ATOM      1  CA  SER d   1       3.949  20.209  16.190  0.00  0.00     0.109 C 
ATOM      2  H17 SER d   1       3.848  19.685  17.152  0.00  0.00     0.090 H 
ENDROOT
BRANCH   1   3
ATOM      3  N   SER d   1       5.003  19.578  15.400  0.00  0.00    -0.344 N 
ATOM      4  C   LYS d   1       5.174  18.268  15.343  0.00  0.00     0.249 C 
ATOM      5  O   LYS d   1       4.415  17.475  15.888  0.00  0.00    -0.271 OA
ATOM      6  H16 SER d   1       5.624  20.163  14.878  0.00  0.00     0.163 HD
BRANCH   4   7
ATOM      7  CA  LYS d   1       6.390  17.790  14.577  0.00  0.00     0.176 C 
ATOM      8  H4  LYS d   1       7.188  18.531  14.734  0.00  0.00     0.099 H 
BRANCH   7   9
ATOM      9  N   LYS d   1       6.891  16.479  15.095  0.00  0.00    -0.067 N 
ATOM     10  H1  LYS d   1       7.698  16.194  14.563  0.00  0.00     0.275 HD
ATOM     11  H2  LYS d   1       6.167  15.784  15.006  0.00  0.00     0.275 HD
ATOM     12  H3  LYS d   1       7.146  16.576  16.065  0.00  0.00     0.275 HD
ENDBRANCH   7   9
BRANCH   7  13
ATOM     13  CB  LYS d   1       6.112  17.726  13.064  0.00  0.00    -0.030 C 
ATOM     14  H5  LYS d   1       7.071  17.637  12.532  0.00  0.00     0.036 H 
ATOM     15  H6  LYS d   1       5.607  18.654  12.758  0.00  0.00     0.036 H 
BRANCH  13  16
ATOM     16  CG  LYS d   1       5.232  16.544  12.686  0.00  0.00    -0.061 C 
ATOM     17  H7  LYS d   1       4.230  16.679  13.119  0.00  0.00     0.033 H 
ATOM     18  H8  LYS d   1       5.677  15.616  13.074  0.00  0.00     0.033 H 
BRANCH  16  19
ATOM     19  CD  LYS d   1       5.121  16.458  11.148  0.00  0.00    -0.043 C 
ATOM     20  H9  LYS d   1       4.957  17.467  10.741  0.00  0.00     0.035 H 
ATOM     21  H10 LYS d   1       4.271  15.813  10.883  0.00  0.00     0.035 H 
BRANCH  19  22
ATOM     22  CE  LYS d   1       6.395  15.878  10.546  0.00  0.00     0.080 C 
ATOM     23  H11 LYS d   1       7.261  16.430  10.941  0.00  0.00     0.075 H 
ATOM     24  H12 LYS d   1       6.357  15.990   9.452  0.00  0.00     0.075 H 
BRANCH  22  25
ATOM     25  NZ  LYS d   1       6.549  14.423  10.882  0.00  0.00    -0.079 N 
ATOM     26  H13 LYS d   1       7.399  14.071  10.470  0.00  0.00     0.274 HD
ATOM     27  H14 LYS d   1       5.762  13.909  10.519  0.00  0.00     0.274 HD
ATOM     28  H15 LYS d   1       6.590  14.312  11.883  0.00  0.00     0.274 HD
ENDBRANCH  22  25
ENDBRANCH  19  22
ENDBRANCH  16  19
ENDBRANCH  13  16
ENDBRANCH   7  13
ENDBRANCH   4   7
ENDBRANCH   1   3
BRANCH   1  29
ATOM     29  CB  SER d   1       4.421  21.654  16.412  0.00  0.00     0.044 C 
ATOM     30  H18 SER d   1       4.126  22.270  15.550  0.00  0.00     0.077 H 
ATOM     31  H19 SER d   1       5.516  21.668  16.515  0.00  0.00     0.077 H 
BRANCH  29  32
ATOM     32  OG  SER d   1       3.830  22.184  17.595  0.00  0.00    -0.398 OA
ATOM     33  H20 SER d   1       4.128  23.077  17.724  0.00  0.00     0.209 HD
ENDBRANCH  29  32
ENDBRANCH   1  29
BRANCH   1  34
ATOM     34  C   SER d   1       2.602  20.231  15.505  0.00  0.00     0.243 C 
ATOM     35  O   SER d   1       2.543  20.558  14.323  0.00  0.00    -0.271 OA
ATOM     36  N   LYS d   1       1.495  19.933  16.236  0.00  0.00    -0.345 N 
ATOM     37  H21 LYS d   1       1.544  19.767  17.221  0.00  0.00     0.163 HD
BRANCH  36  38
ATOM     38  CA  LYS d   1       0.236  19.869  15.511  0.00  0.00     0.096 C 
ATOM     39  H22 LYS d   1       0.400  20.317  14.520  0.00  0.00     0.089 H 
BRANCH  38  40
ATOM     40  CB  LYS d   1      -0.300  18.442  15.317  0.00  0.00    -0.037 C 
ATOM     41  H23 LYS d   1      -0.759  18.087  16.252  0.00  0.00     0.036 H 
ATOM     42  H24 LYS d   1       0.525  17.771  15.036  0.00  0.00     0.036 H 
BRANCH  40  43
ATOM     43  CG  LYS d   1      -1.369  18.467  14.182  0.00  0.00    -0.061 C 
ATOM     44  H25 LYS d   1      -0.890  18.807  13.252  0.00  0.00     0.033 H 
ATOM     45  H26 LYS d   1      -2.166  19.171  14.463  0.00  0.00     0.033 H 
BRANCH  43  46
ATOM     46  CD  LYS d   1      -1.981  17.115  13.943  0.00  0.00    -0.043 C 
ATOM     47  H27 LYS d   1      -2.538  16.827  14.847  0.00  0.00     0.035 H 
ATOM     48  H28 LYS d   1      -1.167  16.396  13.770  0.00  0.00     0.035 H 
BRANCH  46  49
ATOM     49  CE  LYS d   1      -2.939  17.047  12.750  0.00  0.00     0.080 C 
ATOM     50  H29 LYS d   1      -3.641  16.213  12.896  0.00  0.00     0.075 H 
ATOM     51  H30 LYS d   1      -2.360  16.883  11.829  0.00  0.00     0.075 H 
BRANCH  49  52
ATOM     52  NZ  LYS d   1      -3.703  18.315  12.629  0.00  0.00    -0.079 N 
ATOM     53  H31 LYS d   1      -4.329  18.256  11.841  0.00  0.00     0.274 HD
ATOM     54  H32 LYS d   1      -3.063  19.081  12.493  0.00  0.00     0.274 HD
ATOM     55  H33 LYS d   1      -4.236  18.468  13.471  0.00  0.00     0.274 HD
ENDBRANCH  49  52
ENDBRANCH  46  49
ENDBRANCH  43  46
ENDBRANCH  40  43
ENDBRANCH  38  40
BRANCH  38  56
ATOM     56  C   LYS d   1      -0.868  20.660  16.244  0.00  0.00     0.196 C 
ATOM     57  O   LYS d   1      -0.750  20.924  17.439  0.00  0.00    -0.646 OA
ATOM     58  OXT LYS d   1      -1.802  21.020  15.508  0.00  0.00    -0.646 OA
ENDBRANCH  38  56
ENDBRANCH  36  38
ENDBRANCH   1  34
TORSDOF 18
