REMARK  19 active torsions:
REMARK  status: ('A' for Active; 'I' for Inactive)
REMARK    1  A    between atoms: CA_2  and  N_1 
REMARK    2  A    between atoms: CA_2  and  CB_5 
REMARK    3  A    between atoms: C_3  and  CA_2 
REMARK       I    between atoms: N_10  and  C_3 
REMARK    4  A    between atoms: CB_5  and  CG_6 
REMARK    5  A    between atoms: CG_6  and  CD_7 
REMARK    6  A    between atoms: CD_7  and  CE_8 
REMARK    7  A    between atoms: CE_8  and  NZ_9 
REMARK    8  A    between atoms: CA_11  and  N_10 
REMARK    9  A    between atoms: CA_11  and  CB_14 
REMARK   10  A    between atoms: C_12  and  CA_11 
REMARK       I    between atoms: C_12  and  N_17 
REMARK   11  A    between atoms: CB_14  and  CG2_16 
REMARK   12  A    between atoms: CB_14  and  OG1_15 
REMARK   13  A    between atoms: N_17  and  CA_18 
REMARK   14  A    between atoms: CA_18  and  CB_21 
REMARK   15  A    between atoms: CA_18  and  C_19 
REMARK   16  A    between atoms: CB_21  and  CG_22 
REMARK   17  A    between atoms: CG_22  and  CD_23 
REMARK   18  A    between atoms: CD_23  and  CE_24 
REMARK   19  A    between atoms: CE_24  and  NZ_25 
ROOT
ATOM      1  CA  THR d   1       9.911  35.983  10.820  0.00  0.00     0.113 C 
ATOM      2  H17 THR d   1      10.214  35.349   9.974  0.00  0.00     0.091 H 
ENDROOT
BRANCH   1   3
ATOM      3  N   THR d   1       9.224  35.125  11.748  0.00  0.00    -0.344 N 
ATOM      4  C   LYS d   1       9.622  33.857  11.936  0.00  0.00     0.249 C 
ATOM      5  O   LYS d   1      10.687  33.383  11.441  0.00  0.00    -0.271 OA
ATOM      6  H16 THR d   1       8.440  35.478  12.259  0.00  0.00     0.163 HD
BRANCH   4   7
ATOM      7  CA  LYS d   1       8.654  33.099  12.865  0.00  0.00     0.176 C 
ATOM      8  H4  LYS d   1       7.659  33.533  12.685  0.00  0.00     0.099 H 
BRANCH   7   9
ATOM      9  N   LYS d   1       8.546  31.643  12.570  0.00  0.00    -0.067 N 
ATOM     10  H1  LYS d   1       7.899  31.217  13.215  0.00  0.00     0.275 HD
ATOM     11  H2  LYS d   1       9.452  31.212  12.669  0.00  0.00     0.275 HD
ATOM     12  H3  LYS d   1       8.214  31.515  11.627  0.00  0.00     0.275 HD
ENDBRANCH   7   9
BRANCH   7  13
ATOM     13  CB  LYS d   1       8.970  33.303  14.383  0.00  0.00    -0.030 C 
ATOM     14  H5  LYS d   1       8.185  32.810  14.976  0.00  0.00     0.036 H 
ATOM     15  H6  LYS d   1       8.972  34.381  14.601  0.00  0.00     0.036 H 
BRANCH  13  16
ATOM     16  CG  LYS d   1      10.321  32.722  14.782  0.00  0.00    -0.061 C 
ATOM     17  H7  LYS d   1      11.098  33.259  14.218  0.00  0.00     0.033 H 
ATOM     18  H8  LYS d   1      10.328  31.660  14.495  0.00  0.00     0.033 H 
BRANCH  16  19
ATOM     19  CD  LYS d   1      10.679  32.808  16.270  0.00  0.00    -0.043 C 
ATOM     20  H9  LYS d   1      10.539  33.846  16.606  0.00  0.00     0.035 H 
ATOM     21  H10 LYS d   1      11.733  32.521  16.395  0.00  0.00     0.035 H 
BRANCH  19  22
ATOM     22  CE  LYS d   1       9.827  31.903  17.130  0.00  0.00     0.080 C 
ATOM     23  H11 LYS d   1       8.772  32.021  16.841  0.00  0.00     0.075 H 
ATOM     24  H12 LYS d   1       9.952  32.188  18.185  0.00  0.00     0.075 H 
BRANCH  22  25
ATOM     25  NZ  LYS d   1      10.228  30.453  16.958  0.00  0.00    -0.079 N 
ATOM     26  H13 LYS d   1       9.646  29.872  17.541  0.00  0.00     0.274 HD
ATOM     27  H14 LYS d   1      11.193  30.337  17.225  0.00  0.00     0.274 HD
ATOM     28  H15 LYS d   1      10.112  30.184  15.993  0.00  0.00     0.274 HD
ENDBRANCH  22  25
ENDBRANCH  19  22
ENDBRANCH  16  19
ENDBRANCH  13  16
ENDBRANCH   7  13
ENDBRANCH   4   7
ENDBRANCH   1   3
BRANCH   1  29
ATOM     29  CB  THR d   1       9.078  37.137  10.250  0.00  0.00     0.060 C 
ATOM     30  H18 THR d   1       9.756  37.805   9.699  0.00  0.00     0.086 H 
BRANCH  29  31
ATOM     31  CG2 THR d   1       7.972  36.675   9.302  0.00  0.00    -0.050 C 
ATOM     32  H20 THR d   1       7.417  37.550   8.932  0.00  0.00     0.031 H 
ATOM     33  H21 THR d   1       7.285  36.005   9.839  0.00  0.00     0.031 H 
ATOM     34  H22 THR d   1       8.418  36.138   8.452  0.00  0.00     0.031 H 
ENDBRANCH  29  31
BRANCH  29  35
ATOM     35  OG1 THR d   1       8.452  37.870  11.303  0.00  0.00    -0.393 OA
ATOM     36  H19 THR d   1       9.114  38.173  11.913  0.00  0.00     0.210 HD
ENDBRANCH  29  35
ENDBRANCH   1  29
BRANCH   1  37
ATOM     37  C   THR d   1      11.175  36.586  11.436  0.00  0.00     0.243 C 
ATOM     38  O   THR d   1      11.084  37.132  12.503  0.00  0.00    -0.271 OA
ATOM     39  N   LYS d   1      12.276  36.567  10.721  0.00  0.00    -0.345 N 
ATOM     40  H23 LYS d   1      12.277  36.066   9.855  0.00  0.00     0.163 HD
BRANCH  39  41
ATOM     41  CA  LYS d   1      13.483  37.239  11.134  0.00  0.00     0.096 C 
ATOM     42  H24 LYS d   1      13.301  37.697  12.117  0.00  0.00     0.089 H 
BRANCH  41  43
ATOM     43  CB  LYS d   1      14.704  36.308  11.236  0.00  0.00    -0.037 C 
ATOM     44  H25 LYS d   1      15.261  36.327  10.288  0.00  0.00     0.036 H 
ATOM     45  H26 LYS d   1      14.368  35.281  11.444  0.00  0.00     0.036 H 
BRANCH  43  46
ATOM     46  CG  LYS d   1      15.624  36.799  12.391  0.00  0.00    -0.061 C 
ATOM     47  H27 LYS d   1      15.111  36.691  13.358  0.00  0.00     0.033 H 
ATOM     48  H28 LYS d   1      15.899  37.853  12.237  0.00  0.00     0.033 H 
BRANCH  46  49
ATOM     49  CD  LYS d   1      16.868  35.917  12.351  0.00  0.00    -0.043 C 
ATOM     50  H29 LYS d   1      17.439  36.166  11.445  0.00  0.00     0.035 H 
ATOM     51  H30 LYS d   1      16.546  34.866  12.304  0.00  0.00     0.035 H 
BRANCH  49  52
ATOM     52  CE  LYS d   1      17.800  36.086  13.576  0.00  0.00     0.080 C 
ATOM     53  H31 LYS d   1      18.810  35.736  13.318  0.00  0.00     0.075 H 
ATOM     54  H32 LYS d   1      17.410  35.493  14.416  0.00  0.00     0.075 H 
BRANCH  52  55
ATOM     55  NZ  LYS d   1      17.860  37.535  13.973  0.00  0.00    -0.079 N 
ATOM     56  H33 LYS d   1      18.468  37.640  14.770  0.00  0.00     0.274 HD
ATOM     57  H34 LYS d   1      16.935  37.857  14.211  0.00  0.00     0.274 HD
ATOM     58  H35 LYS d   1      18.218  38.080  13.204  0.00  0.00     0.274 HD
ENDBRANCH  52  55
ENDBRANCH  49  52
ENDBRANCH  46  49
ENDBRANCH  43  46
ENDBRANCH  41  43
BRANCH  41  59
ATOM     59  C   LYS d   1      13.851  38.312  10.136  0.00  0.00     0.196 C 
ATOM     60  O   LYS d   1      14.642  39.203  10.488  0.00  0.00    -0.646 OA
ATOM     61  OXT LYS d   1      13.551  38.266   8.965  0.00  0.00    -0.646 OA
ENDBRANCH  41  59
ENDBRANCH  39  41
ENDBRANCH   1  37
TORSDOF 19
