REMARK  10 active torsions:
REMARK  status: ('A' for Active; 'I' for Inactive)
REMARK    1  A    between atoms: C1_1  and  O1_2 
REMARK    2  A    between atoms: O1_2  and  P1_13 
REMARK    3  A    between atoms: C2_3  and  O2_4 
REMARK    4  A    between atoms: C3_5  and  O3_6 
REMARK    5  A    between atoms: O3_6  and  P3_17 
REMARK    6  A    between atoms: C4_7  and  O4_8 
REMARK    7  A    between atoms: O4_8  and  P4_21 
REMARK    8  A    between atoms: C5_9  and  O5_10 
REMARK    9  A    between atoms: O5_10  and  P5_25 
REMARK   10  A    between atoms: C6_11  and  O6_12 
ROOT
ATOM      1  C1  4IP d   1      -1.979   4.550  38.731  0.00  0.00     0.106 C 
ATOM      2  C2  4IP d   1      -0.850   5.425  39.184  0.00  0.00     0.091 C 
ATOM      3  C3  4IP d   1       0.324   4.869  38.473  0.00  0.00     0.106 C 
ATOM      4  C4  4IP d   1       0.182   5.017  36.923  0.00  0.00     0.107 C 
ATOM      5  C5  4IP d   1      -0.905   4.136  36.476  0.00  0.00     0.106 C 
ATOM      6  C6  4IP d   1      -2.186   4.500  37.210  0.00  0.00     0.091 C 
ATOM      7  H1  4IP d   1      -1.612   3.544  38.983  0.00  0.00     0.092 H 
ATOM      8  H2  4IP d   1      -0.716   5.316  40.270  0.00  0.00     0.091 H 
ATOM      9  H4  4IP d   1       0.355   3.789  38.682  0.00  0.00     0.092 H 
ATOM     10  H5  4IP d   1      -0.002   6.064  36.640  0.00  0.00     0.092 H 
ATOM     11  H6  4IP d   1      -0.646   3.083  36.662  0.00  0.00     0.092 H 
ATOM     12  H7  4IP d   1      -2.599   5.449  36.837  0.00  0.00     0.091 H 
ENDROOT
BRANCH   1  13
ATOM     13  O1  4IP d   1      -3.305   4.620  39.446  0.00  0.00    -0.272 OA
BRANCH  13  14
ATOM     14  P1  4IP d   1      -3.813   3.627  40.670  0.00  0.00     0.422 P 
ATOM     15  OP3 4IP d   1      -4.012   2.448  39.766  0.00  0.00    -0.617 OA
ATOM     16  OP2 4IP d   1      -2.698   3.460  41.639  0.00  0.00    -0.617 OA
ATOM     17  OP1 4IP d   1      -4.981   4.224  41.323  0.00  0.00    -0.617 OA
ENDBRANCH  13  14
ENDBRANCH   1  13
BRANCH   6  18
ATOM     18  O6  4IP d   1      -3.042   3.427  36.993  0.00  0.00    -0.390 OA
ATOM     19  H8  4IP d   1      -3.189   3.324  36.060  0.00  0.00     0.210 HD
ENDBRANCH   6  18
BRANCH   2  20
ATOM     20  O2  4IP d   1      -1.042   6.838  38.899  0.00  0.00    -0.390 OA
ATOM     21  H3  4IP d   1      -1.802   7.155  39.372  0.00  0.00     0.210 HD
ENDBRANCH   2  20
BRANCH   5  22
ATOM     22  O5  4IP d   1      -1.112   4.372  35.038  0.00  0.00    -0.272 OA
BRANCH  22  23
ATOM     23  P5  4IP d   1      -0.722   3.462  33.751  0.00  0.00     0.422 P 
ATOM     24  OP9 4IP d   1      -1.984   3.466  33.063  0.00  0.00    -0.617 OA
ATOM     25  OP8 4IP d   1      -0.356   2.159  34.235  0.00  0.00    -0.617 OA
ATOM     26  OP7 4IP d   1       0.314   4.297  33.141  0.00  0.00    -0.617 OA
ENDBRANCH  22  23
ENDBRANCH   5  22
BRANCH   3  27
ATOM     27  O3  4IP d   1       1.501   5.420  39.004  0.00  0.00    -0.272 OA
BRANCH  27  28
ATOM     28  P3  4IP d   1       2.605   4.551  39.638  0.00  0.00     0.422 P 
ATOM     29  O12 4IP d   1       3.090   3.748  38.560  0.00  0.00    -0.617 OA
ATOM     30  O11 4IP d   1       1.806   3.786  40.573  0.00  0.00    -0.617 OA
ATOM     31  O10 4IP d   1       3.463   5.573  40.073  0.00  0.00    -0.617 OA
ENDBRANCH  27  28
ENDBRANCH   3  27
BRANCH   4  32
ATOM     32  O4  4IP d   1       1.361   4.513  36.319  0.00  0.00    -0.272 OA
BRANCH  32  33
ATOM     33  P4  4IP d   1       2.381   5.322  35.553  0.00  0.00     0.422 P 
ATOM     34  OP6 4IP d   1       2.282   4.779  34.229  0.00  0.00    -0.617 OA
ATOM     35  OP5 4IP d   1       3.658   5.040  36.254  0.00  0.00    -0.617 OA
ATOM     36  OP4 4IP d   1       1.891   6.714  35.678  0.00  0.00    -0.617 OA
ENDBRANCH  32  33
ENDBRANCH   4  32
TORSDOF 10
