REMARK  19 active torsions:
REMARK  status: ('A' for Active; 'I' for Inactive)
REMARK    1  A    between atoms: CA_2  and  N_1 
REMARK    2  A    between atoms: CA_2  and  CB_5 
REMARK    3  A    between atoms: C_3  and  CA_2 
REMARK       I    between atoms: N_10  and  C_3 
REMARK    4  A    between atoms: CB_5  and  CG_6 
REMARK    5  A    between atoms: CG_6  and  CD_7 
REMARK    6  A    between atoms: CD_7  and  CE_8 
REMARK    7  A    between atoms: CE_8  and  NZ_9 
REMARK    8  A    between atoms: CA_11  and  N_10 
REMARK    9  A    between atoms: CA_11  and  CB_14 
REMARK   10  A    between atoms: C_12  and  CA_11 
REMARK       I    between atoms: C_12  and  N_22 
REMARK   11  A    between atoms: CB_14  and  CG_15 
REMARK   12  A    between atoms: CZ_20  and  OH_21 
REMARK   13  A    between atoms: N_22  and  CA_23 
REMARK   14  A    between atoms: CA_23  and  CB_26 
REMARK   15  A    between atoms: CA_23  and  C_24 
REMARK   16  A    between atoms: CB_26  and  CG_27 
REMARK   17  A    between atoms: CG_27  and  CD_28 
REMARK   18  A    between atoms: CD_28  and  CE_29 
REMARK   19  A    between atoms: CE_29  and  NZ_30 
ROOT
ATOM      1  CA  TYR d   1       3.845  20.703  16.362  0.00  0.00     0.093 C 
ATOM      2  H17 TYR d   1       3.667  20.141  17.291  0.00  0.00     0.088 H 
ENDROOT
BRANCH   1   3
ATOM      3  N   TYR d   1       5.034  20.119  15.724  0.00  0.00    -0.346 N 
ATOM      4  C   LYS d   1       5.209  18.823  15.577  0.00  0.00     0.249 C 
ATOM      5  O   LYS d   1       4.354  17.969  15.928  0.00  0.00    -0.271 OA
ATOM      6  H16 TYR d   1       5.744  20.736  15.385  0.00  0.00     0.163 HD
BRANCH   4   7
ATOM      7  CA  LYS d   1       6.476  18.374  14.869  0.00  0.00     0.176 C 
ATOM      8  H4  LYS d   1       7.274  19.099  15.088  0.00  0.00     0.099 H 
BRANCH   7   9
ATOM      9  N   LYS d   1       6.915  17.038  15.393  0.00  0.00    -0.067 N 
ATOM     10  H1  LYS d   1       7.755  16.750  14.917  0.00  0.00     0.275 HD
ATOM     11  H2  LYS d   1       6.188  16.358  15.232  0.00  0.00     0.275 HD
ATOM     12  H3  LYS d   1       7.096  17.108  16.382  0.00  0.00     0.275 HD
ENDBRANCH   7   9
BRANCH   7  13
ATOM     13  CB  LYS d   1       6.238  18.374  13.336  0.00  0.00    -0.030 C 
ATOM     14  H5  LYS d   1       7.213  18.250  12.842  0.00  0.00     0.036 H 
ATOM     15  H6  LYS d   1       5.809  19.348  13.060  0.00  0.00     0.036 H 
BRANCH  13  16
ATOM     16  CG  LYS d   1       5.313  17.294  12.819  0.00  0.00    -0.061 C 
ATOM     17  H7  LYS d   1       4.303  17.493  13.208  0.00  0.00     0.033 H 
ATOM     18  H8  LYS d   1       5.669  16.326  13.202  0.00  0.00     0.033 H 
BRANCH  16  19
ATOM     19  CD  LYS d   1       5.226  17.199  11.301  0.00  0.00    -0.043 C 
ATOM     20  H9  LYS d   1       5.045  18.207  10.900  0.00  0.00     0.035 H 
ATOM     21  H10 LYS d   1       4.380  16.545  11.042  0.00  0.00     0.035 H 
BRANCH  19  22
ATOM     22  CE  LYS d   1       6.495  16.635  10.640  0.00  0.00     0.080 C 
ATOM     23  H11 LYS d   1       7.370  17.225  10.951  0.00  0.00     0.075 H 
ATOM     24  H12 LYS d   1       6.394  16.677   9.545  0.00  0.00     0.075 H 
BRANCH  22  25
ATOM     25  NZ  LYS d   1       6.661  15.216  11.078  0.00  0.00    -0.079 N 
ATOM     26  H13 LYS d   1       7.489  14.828  10.654  0.00  0.00     0.274 HD
ATOM     27  H14 LYS d   1       5.856  14.680  10.794  0.00  0.00     0.274 HD
ATOM     28  H15 LYS d   1       6.750  15.182  12.082  0.00  0.00     0.274 HD
ENDBRANCH  22  25
ENDBRANCH  19  22
ENDBRANCH  16  19
ENDBRANCH  13  16
ENDBRANCH   7  13
ENDBRANCH   4   7
ENDBRANCH   1   3
BRANCH   1  29
ATOM     29  CB  TYR d   1       4.034  22.209  16.722  0.00  0.00    -0.014 C 
ATOM     30  H18 TYR d   1       3.104  22.593  17.167  0.00  0.00     0.043 H 
ATOM     31  H19 TYR d   1       4.262  22.773  15.806  0.00  0.00     0.043 H 
BRANCH  29  32
ATOM     32  CG  TYR d   1       5.169  22.388  17.711  0.00  0.00    -0.056 A 
ATOM     33  CD1 TYR d   1       5.000  22.206  19.065  0.00  0.00    -0.074 A 
ATOM     34  CE1 TYR d   1       6.024  22.347  19.987  0.00  0.00    -0.051 A 
ATOM     35  H20 TYR d   1       4.014  21.939  19.428  0.00  0.00     0.084 H 
ATOM     36  CZ  TYR d   1       7.243  22.703  19.510  0.00  0.00     0.065 A 
ATOM     37  H22 TYR d   1       5.858  22.180  21.045  0.00  0.00     0.087 H 
ATOM     38  CE2 TYR d   1       7.455  22.909  18.156  0.00  0.00    -0.051 A 
ATOM     39  CD2 TYR d   1       6.431  22.748  17.257  0.00  0.00    -0.074 A 
ATOM     40  H23 TYR d   1       8.438  23.200  17.804  0.00  0.00     0.087 H 
ATOM     41  H21 TYR d   1       6.606  22.901  16.198  0.00  0.00     0.084 H 
BRANCH  36  42
ATOM     42  OH  TYR d   1       8.320  22.854  20.343  0.00  0.00    -0.361 OA
ATOM     43  H24 TYR d   1       8.052  22.688  21.239  0.00  0.00     0.217 HD
ENDBRANCH  36  42
ENDBRANCH  29  32
ENDBRANCH   1  29
BRANCH   1  44
ATOM     44  C   TYR d   1       2.590  20.622  15.504  0.00  0.00     0.241 C 
ATOM     45  O   TYR d   1       2.584  20.911  14.297  0.00  0.00    -0.271 OA
ATOM     46  N   LYS d   1       1.482  20.283  16.164  0.00  0.00    -0.345 N 
ATOM     47  H25 LYS d   1       1.531  20.098  17.145  0.00  0.00     0.163 HD
BRANCH  46  48
ATOM     48  CA  LYS d   1       0.210  20.179  15.482  0.00  0.00     0.096 C 
ATOM     49  H26 LYS d   1       0.354  20.560  14.460  0.00  0.00     0.089 H 
BRANCH  48  50
ATOM     50  CB  LYS d   1      -0.339  18.755  15.373  0.00  0.00    -0.037 C 
ATOM     51  H27 LYS d   1      -0.845  18.465  16.306  0.00  0.00     0.036 H 
ATOM     52  H28 LYS d   1       0.473  18.044  15.160  0.00  0.00     0.036 H 
BRANCH  50  53
ATOM     53  CG  LYS d   1      -1.362  18.794  14.182  0.00  0.00    -0.061 C 
ATOM     54  H29 LYS d   1      -0.813  18.967  13.245  0.00  0.00     0.033 H 
ATOM     55  H30 LYS d   1      -2.072  19.618  14.348  0.00  0.00     0.033 H 
BRANCH  53  56
ATOM     56  CD  LYS d   1      -2.130  17.501  14.068  0.00  0.00    -0.043 C 
ATOM     57  H31 LYS d   1      -2.476  17.196  15.067  0.00  0.00     0.035 H 
ATOM     58  H32 LYS d   1      -1.470  16.724  13.655  0.00  0.00     0.035 H 
BRANCH  56  59
ATOM     59  CE  LYS d   1      -3.353  17.677  13.138  0.00  0.00     0.080 C 
ATOM     60  H33 LYS d   1      -3.723  18.712  13.180  0.00  0.00     0.075 H 
ATOM     61  H34 LYS d   1      -4.159  16.987  13.427  0.00  0.00     0.075 H 
BRANCH  59  62
ATOM     62  NZ  LYS d   1      -2.858  17.357  11.777  0.00  0.00    -0.079 N 
ATOM     63  H35 LYS d   1      -3.611  17.453  11.114  0.00  0.00     0.274 HD
ATOM     64  H36 LYS d   1      -2.513  16.410  11.759  0.00  0.00     0.274 HD
ATOM     65  H37 LYS d   1      -2.113  17.991  11.533  0.00  0.00     0.274 HD
ENDBRANCH  59  62
ENDBRANCH  56  59
ENDBRANCH  53  56
ENDBRANCH  50  53
ENDBRANCH  48  50
BRANCH  48  66
ATOM     66  C   LYS d   1      -0.845  21.056  16.190  0.00  0.00     0.196 C 
ATOM     67  O   LYS d   1      -1.814  21.404  15.508  0.00  0.00    -0.646 OA
ATOM     68  OXT LYS d   1      -0.694  21.415  17.360  0.00  0.00    -0.646 OA
ENDBRANCH  48  66
ENDBRANCH  46  48
ENDBRANCH   1  44
TORSDOF 19
