REMARK  18 active torsions:
REMARK  status: ('A' for Active; 'I' for Inactive)
REMARK    1  A    between atoms: CA_2  and  N_1 
REMARK    2  A    between atoms: C_3  and  CA_2 
REMARK    3  A    between atoms: CA_2  and  CB_5 
REMARK       I    between atoms: N_10  and  C_3 
REMARK    4  A    between atoms: CB_5  and  CG_6 
REMARK    5  A    between atoms: CG_6  and  CD_7 
REMARK    6  A    between atoms: CD_7  and  CE_8 
REMARK    7  A    between atoms: CE_8  and  NZ_9 
REMARK    8  A    between atoms: CA_11  and  N_10 
REMARK    9  A    between atoms: CA_11  and  CB_14 
REMARK   10  A    between atoms: C_12  and  CA_11 
REMARK       I    between atoms: C_12  and  N_16 
REMARK   11  A    between atoms: CB_14  and  NG_15 
REMARK   12  A    between atoms: N_16  and  CA_17 
REMARK   13  A    between atoms: CA_17  and  C_18 
REMARK   14  A    between atoms: CA_17  and  CB_20 
REMARK   15  A    between atoms: CB_20  and  CG_21 
REMARK   16  A    between atoms: CG_21  and  CD_22 
REMARK   17  A    between atoms: CD_22  and  CE_23 
REMARK   18  A    between atoms: CE_23  and  NZ_24 
ROOT
ATOM      1  CA  DPP d   1       3.973  20.281  16.140  0.00  0.00     0.112 C 
ATOM      2  H17 DPP d   1       3.857  19.773  17.109  0.00  0.00     0.090 H 
ENDROOT
BRANCH   1   3
ATOM      3  N   DPP d   1       5.029  19.606  15.407  0.00  0.00    -0.344 N 
ATOM      4  C   LYS d   1       5.180  18.303  15.335  0.00  0.00     0.249 C 
ATOM      5  O   LYS d   1       4.396  17.528  15.872  0.00  0.00    -0.271 OA
ATOM      6  H16 DPP d   1       5.691  20.176  14.920  0.00  0.00     0.163 HD
BRANCH   4   7
ATOM      7  CA  LYS d   1       6.399  17.775  14.586  0.00  0.00     0.176 C 
ATOM      8  H4  LYS d   1       7.216  18.493  14.748  0.00  0.00     0.099 H 
BRANCH   7   9
ATOM      9  CB  LYS d   1       6.150  17.701  13.069  0.00  0.00    -0.030 C 
ATOM     10  H5  LYS d   1       7.112  17.493  12.579  0.00  0.00     0.036 H 
ATOM     11  H6  LYS d   1       5.775  18.681  12.740  0.00  0.00     0.036 H 
BRANCH   9  12
ATOM     12  CG  LYS d   1       5.160  16.648  12.615  0.00  0.00    -0.061 C 
ATOM     13  H7  LYS d   1       4.169  16.898  13.022  0.00  0.00     0.033 H 
ATOM     14  H8  LYS d   1       5.481  15.671  13.007  0.00  0.00     0.033 H 
BRANCH  12  15
ATOM     15  CD  LYS d   1       5.052  16.552  11.084  0.00  0.00    -0.043 C 
ATOM     16  H9  LYS d   1       4.876  17.558  10.676  0.00  0.00     0.035 H 
ATOM     17  H10 LYS d   1       4.205  15.899  10.827  0.00  0.00     0.035 H 
BRANCH  15  18
ATOM     18  CE  LYS d   1       6.327  15.979  10.457  0.00  0.00     0.080 C 
ATOM     19  H11 LYS d   1       7.191  16.569  10.797  0.00  0.00     0.075 H 
ATOM     20  H12 LYS d   1       6.248  16.043   9.362  0.00  0.00     0.075 H 
BRANCH  18  21
ATOM     21  NZ  LYS d   1       6.530  14.542  10.851  0.00  0.00    -0.079 N 
ATOM     22  H13 LYS d   1       7.374  14.193  10.425  0.00  0.00     0.274 HD
ATOM     23  H14 LYS d   1       5.744  13.994  10.538  0.00  0.00     0.274 HD
ATOM     24  H15 LYS d   1       6.608  14.476  11.854  0.00  0.00     0.274 HD
ENDBRANCH  18  21
ENDBRANCH  15  18
ENDBRANCH  12  15
ENDBRANCH   9  12
ENDBRANCH   7   9
BRANCH   7  25
ATOM     25  N   LYS d   1       6.851  16.459  15.127  0.00  0.00    -0.067 N 
ATOM     26  H1  LYS d   1       7.656  16.142  14.610  0.00  0.00     0.275 HD
ATOM     27  H2  LYS d   1       6.107  15.785  15.037  0.00  0.00     0.275 HD
ATOM     28  H3  LYS d   1       7.096  16.562  16.099  0.00  0.00     0.275 HD
ENDBRANCH   7  25
ENDBRANCH   4   7
ENDBRANCH   1   3
BRANCH   1  29
ATOM     29  CB  DPP d   1       4.334  21.765  16.379  0.00  0.00     0.106 C 
ATOM     30  H18 DPP d   1       3.435  22.347  16.629  0.00  0.00     0.079 H 
ATOM     31  H19 DPP d   1       4.814  22.196  15.488  0.00  0.00     0.079 H 
BRANCH  29  32
ATOM     32  NG  DPP d   1       5.270  21.745  17.512  0.00  0.00    -0.077 N 
ATOM     33  H20 DPP d   1       5.554  22.687  17.730  0.00  0.00     0.274 HD
ATOM     34  H21 DPP d   1       6.081  21.198  17.268  0.00  0.00     0.274 HD
ATOM     35  H22 DPP d   1       4.817  21.337  18.315  0.00  0.00     0.274 HD
ENDBRANCH  29  32
ENDBRANCH   1  29
BRANCH   1  36
ATOM     36  C   DPP d   1       2.638  20.279  15.427  0.00  0.00     0.242 C 
ATOM     37  O   DPP d   1       2.622  20.568  14.223  0.00  0.00    -0.271 OA
ATOM     38  N   LYS d   1       1.558  19.913  16.128  0.00  0.00    -0.345 N 
ATOM     39  H23 LYS d   1       1.631  19.680  17.098  0.00  0.00     0.163 HD
BRANCH  38  40
ATOM     40  CA  LYS d   1       0.277  19.862  15.445  0.00  0.00     0.096 C 
ATOM     41  H24 LYS d   1       0.422  20.306  14.449  0.00  0.00     0.089 H 
BRANCH  40  42
ATOM     42  C   LYS d   1      -0.806  20.672  16.185  0.00  0.00     0.196 C 
ATOM     43  OXT LYS d   1      -0.643  20.974  17.366  0.00  0.00    -0.646 OA
ATOM     44  O   LYS d   1      -1.774  21.027  15.493  0.00  0.00    -0.646 OA
ENDBRANCH  40  42
BRANCH  40  45
ATOM     45  CB  LYS d   1      -0.261  18.432  15.257  0.00  0.00    -0.037 C 
ATOM     46  H25 LYS d   1      -0.715  18.082  16.196  0.00  0.00     0.036 H 
ATOM     47  H26 LYS d   1       0.565  17.761  14.977  0.00  0.00     0.036 H 
BRANCH  45  48
ATOM     48  CG  LYS d   1      -1.326  18.439  14.137  0.00  0.00    -0.061 C 
ATOM     49  H27 LYS d   1      -0.874  18.890  13.241  0.00  0.00     0.033 H 
ATOM     50  H28 LYS d   1      -2.169  19.060  14.474  0.00  0.00     0.033 H 
BRANCH  48  51
ATOM     51  CD  LYS d   1      -1.860  17.108  13.759  0.00  0.00    -0.043 C 
ATOM     52  H29 LYS d   1      -2.288  16.657  14.666  0.00  0.00     0.035 H 
ATOM     53  H30 LYS d   1      -1.010  16.500  13.414  0.00  0.00     0.035 H 
BRANCH  51  54
ATOM     54  CE  LYS d   1      -2.932  17.049  12.673  0.00  0.00     0.080 C 
ATOM     55  H31 LYS d   1      -3.651  16.251  12.912  0.00  0.00     0.075 H 
ATOM     56  H32 LYS d   1      -2.458  16.838  11.703  0.00  0.00     0.075 H 
BRANCH  54  57
ATOM     57  NZ  LYS d   1      -3.649  18.357  12.601  0.00  0.00    -0.079 N 
ATOM     58  H33 LYS d   1      -4.355  18.314  11.883  0.00  0.00     0.274 HD
ATOM     59  H34 LYS d   1      -2.992  19.089  12.382  0.00  0.00     0.274 HD
ATOM     60  H35 LYS d   1      -4.084  18.551  13.489  0.00  0.00     0.274 HD
ENDBRANCH  54  57
ENDBRANCH  51  54
ENDBRANCH  48  51
ENDBRANCH  45  48
ENDBRANCH  40  45
ENDBRANCH  38  40
ENDBRANCH   1  36
TORSDOF 18
