REMARK  18 active torsions:
REMARK  status: ('A' for Active; 'I' for Inactive)
REMARK    1  A    between atoms: C6_6  and  C9_9 
REMARK    2  A    between atoms: C9_9  and  C10_10 
REMARK       I    between atoms: C10_10  and  N12_12 
REMARK    3  A    between atoms: C14_14  and  C24_24 
REMARK    4  A    between atoms: C24_24  and  C26_26 
REMARK    5  A    between atoms: C24_24  and  O25_25 
REMARK    6  A    between atoms: C26_26  and  N27_27 
REMARK    7  A    between atoms: C28_28  and  C29_29 
REMARK       I    between atoms: C29_29  and  N34_34 
REMARK    8  A    between atoms: N34_34  and  C35_35 
REMARK    9  A    between atoms: C35_35  and  C38_38 
REMARK   10  A    between atoms: C35_35  and  C36_36 
REMARK       I    between atoms: C36_36  and  N42_42 
REMARK   11  A    between atoms: C38_38  and  C40_40 
REMARK   12  A    between atoms: C38_38  and  C39_39 
REMARK   13  A    between atoms: C39_39  and  C41_41 
REMARK   14  A    between atoms: N42_42  and  C43_43 
REMARK   15  A    between atoms: C43_43  and  C46_46 
REMARK   16  A    between atoms: C43_43  and  C44_44 
REMARK       I    between atoms: C44_44  and  N49_49 
REMARK   17  A    between atoms: C46_46  and  C48_48 
REMARK   18  A    between atoms: C46_46  and  C47_47 
ROOT
ATOM      1  N27 PRO d   1       3.516  -2.544  15.448  0.00  0.00    -0.056 N 
ATOM      2  C28 PRO d   1       4.208  -3.399  16.412  0.00  0.00     0.180 C 
ATOM      3  C31 PRO d   1       3.160  -4.458  16.716  0.00  0.00    -0.028 C 
ATOM      4  C32 PRO d   1       2.542  -4.666  15.372  0.00  0.00    -0.040 C 
ATOM      5  C33 PRO d   1       2.367  -3.247  14.851  0.00  0.00     0.085 C 
ATOM      6  H25 PRO d   1       4.146  -2.684  14.674  0.00  0.00     0.281 HD
ATOM      7  H26 PRO d   1       4.441  -2.814  17.314  0.00  0.00     0.100 H 
ATOM      8  H27 PRO d   1       2.421  -4.094  17.445  0.00  0.00     0.036 H 
ATOM      9  H28 PRO d   1       3.622  -5.383  17.093  0.00  0.00     0.036 H 
ATOM     10  H29 PRO d   1       1.572  -5.178  15.458  0.00  0.00     0.035 H 
ATOM     11  H30 PRO d   1       3.207  -5.248  14.717  0.00  0.00     0.035 H 
ATOM     12  H31 PRO d   1       2.411  -3.219  13.752  0.00  0.00     0.076 H 
ATOM     13  H32 PRO d   1       1.415  -2.813  15.191  0.00  0.00     0.076 H 
ENDROOT
BRANCH   1  14
ATOM     14  C26 RTY d   1       3.699  -1.090  15.487  0.00  0.00     0.110 C 
ATOM     15  H23 RTY d   1       3.283  -0.658  14.565  0.00  0.00     0.080 H 
ATOM     16  H24 RTY d   1       3.156  -0.690  16.356  0.00  0.00     0.080 H 
BRANCH  14  17
ATOM     17  C24 RTY d   1       5.154  -0.686  15.597  0.00  0.00     0.078 C 
ATOM     18  H21 RTY d   1       5.739  -1.510  16.031  0.00  0.00     0.088 H 
BRANCH  17  19
ATOM     19  C14 RTY d   1       5.686  -0.361  14.198  0.00  0.00     0.042 C 
ATOM     20  N13 RTY d   1       4.849   0.691  13.592  0.00  0.00    -0.352 N 
ATOM     21  C7  ASN d   1       4.041   0.462  12.556  0.00  0.00     0.241 C 
ATOM     22  H11 RTY d   1       4.889   1.614  13.974  0.00  0.00     0.163 HD
ATOM     23  C6  ASN d   1       3.265   1.668  12.045  0.00  0.00     0.097 C 
ATOM     24  O8  ASN d   1       3.957  -0.628  11.992  0.00  0.00    -0.271 OA
ATOM     25  N5  ASN d   1       3.935   2.139  10.818  0.00  0.00    -0.347 N 
ATOM     26  H6  ASN d   1       3.298   2.464  12.804  0.00  0.00     0.088 H 
ATOM     27  C2  RTY d   1       4.157   3.430  10.590  0.00  0.00     0.218 C 
ATOM     28  H5  ASN d   1       4.231   1.468  10.138  0.00  0.00     0.163 HD
ATOM     29  C4  RTY d   1       4.897   3.781   9.314  0.00  0.00     0.011 C 
ATOM     30  O3  RTY d   1       3.796   4.313  11.374  0.00  0.00    -0.274 OA
ATOM     31  C1  RTY d   1       6.098   4.680   9.603  0.00  0.00    -0.037 C 
ATOM     32  H3  RTY d   1       5.249   2.855   8.836  0.00  0.00     0.047 H 
ATOM     33  H4  RTY d   1       4.210   4.306   8.634  0.00  0.00     0.047 H 
ATOM     34  C23 RTY d   1       7.446   4.162   9.012  0.00  0.00     0.026 C 
ATOM     35  H1  RTY d   1       5.895   5.674   9.177  0.00  0.00     0.036 H 
ATOM     36  H2  RTY d   1       6.210   4.764  10.694  0.00  0.00     0.036 H 
ATOM     37  O22 RTY d   1       7.686   2.786   9.298  0.00  0.00    -0.351 OA
ATOM     38  H19 RTY d   1       8.267   4.757   9.438  0.00  0.00     0.075 H 
ATOM     39  H20 RTY d   1       7.424   4.295   7.920  0.00  0.00     0.075 H 
ATOM     40  C21 RTY d   1       7.708   2.220  10.575  0.00  0.00     0.068 C 
ATOM     41  C18 RTY d   1       7.607   2.955  11.755  0.00  0.00    -0.050 C 
ATOM     42  C20 RTY d   1       7.734   0.831  10.638  0.00  0.00    -0.050 C 
ATOM     43  C17 RTY d   1       7.499   2.291  12.985  0.00  0.00    -0.074 C 
ATOM     44  H16 RTY d   1       7.612   4.038  11.722  0.00  0.00     0.087 H 
ATOM     45  C16 RTY d   1       7.494   0.896  13.055  0.00  0.00    -0.056 C 
ATOM     46  H15 RTY d   1       7.418   2.870  13.898  0.00  0.00     0.084 H 
ATOM     47  C15 RTY d   1       7.113   0.192  14.326  0.00  0.00    -0.020 C 
ATOM     48  C19 RTY d   1       7.630   0.179  11.864  0.00  0.00    -0.074 C 
ATOM     49  H13 RTY d   1       7.812  -0.637  14.509  0.00  0.00     0.043 H 
ATOM     50  H14 RTY d   1       7.157   0.902  15.165  0.00  0.00     0.043 H 
ATOM     51  H17 RTY d   1       7.655  -0.904  11.895  0.00  0.00     0.084 H 
ATOM     52  H18 RTY d   1       7.836   0.252   9.727  0.00  0.00     0.087 H 
ATOM     53  H12 RTY d   1       5.679  -1.265  13.571  0.00  0.00     0.077 H 
BRANCH  23  54
ATOM     54  C9  ASN d   1       1.804   1.325  11.771  0.00  0.00     0.036 C 
ATOM     55  H7  ASN d   1       1.329   1.012  12.712  0.00  0.00     0.051 H 
ATOM     56  H8  ASN d   1       1.762   0.499  11.046  0.00  0.00     0.051 H 
BRANCH  54  57
ATOM     57  C10 ASN d   1       1.045   2.507  11.210  0.00  0.00     0.217 C 
ATOM     58  N12 ASN d   1       0.894   2.541   9.893  0.00  0.00    -0.370 N 
ATOM     59  H9  ASN d   1       0.401   3.299   9.466  0.00  0.00     0.159 HD
ATOM     60  H10 ASN d   1       1.273   1.809   9.327  0.00  0.00     0.159 HD
ATOM     61  O11 ASN d   1       0.660   3.416  11.945  0.00  0.00    -0.274 OA
ENDBRANCH  54  57
ENDBRANCH  23  54
ENDBRANCH  17  19
BRANCH  17  62
ATOM     62  O25 RTY d   1       5.248   0.469  16.445  0.00  0.00    -0.392 OA
ATOM     63  H22 RTY d   1       6.158   0.731  16.521  0.00  0.00     0.210 HD
ENDBRANCH  17  62
ENDBRANCH  14  17
ENDBRANCH   1  14
BRANCH   2  64
ATOM     64  C29 PRO d   1       5.501  -4.060  15.938  0.00  0.00     0.249 C 
ATOM     65  N34 ILE d   1       6.267  -4.523  16.915  0.00  0.00    -0.346 N 
ATOM     66  H33 ILE d   1       5.985  -4.358  17.860  0.00  0.00     0.163 HD
ATOM     67  O30 PRO d   1       5.813  -4.112  14.746  0.00  0.00    -0.271 OA
BRANCH  65  68
ATOM     68  C35 ILE d   1       7.505  -5.263  16.677  0.00  0.00     0.092 C 
ATOM     69  H34 ILE d   1       7.560  -5.623  15.639  0.00  0.00     0.088 H 
BRANCH  68  70
ATOM     70  C38 ILE d   1       8.783  -4.456  17.016  0.00  0.00    -0.030 C 
ATOM     71  H35 ILE d   1       8.694  -4.064  18.040  0.00  0.00     0.043 H 
BRANCH  70  72
ATOM     72  C40 ILE d   1      10.008  -5.364  16.934  0.00  0.00    -0.071 C 
ATOM     73  H38 ILE d   1       9.886  -6.208  17.628  0.00  0.00     0.028 H 
ATOM     74  H39 ILE d   1      10.907  -4.792  17.207  0.00  0.00     0.028 H 
ATOM     75  H40 ILE d   1      10.114  -5.745  15.908  0.00  0.00     0.028 H 
ENDBRANCH  70  72
BRANCH  70  76
ATOM     76  C39 ILE d   1       8.955  -3.282  16.050  0.00  0.00    -0.063 C 
ATOM     77  H36 ILE d   1       9.828  -2.694  16.369  0.00  0.00     0.033 H 
ATOM     78  H37 ILE d   1       8.053  -2.655  16.101  0.00  0.00     0.033 H 
BRANCH  76  79
ATOM     79  C41 ILE d   1       9.160  -3.698  14.632  0.00  0.00    -0.076 C 
ATOM     80  H41 ILE d   1       9.275  -2.804  14.001  0.00  0.00     0.027 H 
ATOM     81  H42 ILE d   1       8.290  -4.278  14.291  0.00  0.00     0.027 H 
ATOM     82  H43 ILE d   1      10.066  -4.318  14.559  0.00  0.00     0.027 H 
ENDBRANCH  76  79
ENDBRANCH  70  76
ENDBRANCH  68  70
BRANCH  68  83
ATOM     83  C36 ILE d   1       7.357  -6.401  17.669  0.00  0.00     0.241 C 
ATOM     84  N42 VAL d   1       7.085  -7.593  17.152  0.00  0.00    -0.346 N 
ATOM     85  H44 VAL d   1       6.990  -7.685  16.161  0.00  0.00     0.163 HD
ATOM     86  O37 ILE d   1       7.365  -6.176  18.880  0.00  0.00    -0.271 OA
BRANCH  84  87
ATOM     87  C43 VAL d   1       6.920  -8.779  18.002  0.00  0.00     0.092 C 
ATOM     88  H45 VAL d   1       6.987  -8.454  19.051  0.00  0.00     0.088 H 
BRANCH  87  89
ATOM     89  C46 VAL d   1       5.528  -9.450  17.797  0.00  0.00    -0.033 C 
ATOM     90  H46 VAL d   1       5.415 -10.245  18.549  0.00  0.00     0.042 H 
BRANCH  89  91
ATOM     91  C48 VAL d   1       5.418 -10.087  16.413  0.00  0.00    -0.071 C 
ATOM     92  H50 VAL d   1       6.228 -10.819  16.281  0.00  0.00     0.028 H 
ATOM     93  H51 VAL d   1       5.501  -9.306  15.642  0.00  0.00     0.028 H 
ATOM     94  H52 VAL d   1       4.446 -10.594  16.319  0.00  0.00     0.028 H 
ENDBRANCH  89  91
BRANCH  89  95
ATOM     95  C47 VAL d   1       4.417  -8.430  18.007  0.00  0.00    -0.071 C 
ATOM     96  H47 VAL d   1       3.441  -8.915  17.860  0.00  0.00     0.028 H 
ATOM     97  H48 VAL d   1       4.531  -7.609  17.284  0.00  0.00     0.028 H 
ATOM     98  H49 VAL d   1       4.476  -8.029  19.029  0.00  0.00     0.028 H 
ENDBRANCH  89  95
ENDBRANCH  87  89
BRANCH  87  99
ATOM     99  C44 VAL d   1       8.043  -9.786  17.743  0.00  0.00     0.238 C 
ATOM    100  N49 NH2 d   1       8.630 -10.317  18.816  0.00  0.00    -0.368 N 
ATOM    101  H53 NH2 d   1       9.370 -10.981  18.704  0.00  0.00     0.159 HD
ATOM    102  H54 NH2 d   1       8.331 -10.052  19.733  0.00  0.00     0.159 HD
ATOM    103  O45 VAL d   1       8.394 -10.063  16.590  0.00  0.00    -0.271 OA
ENDBRANCH  87  99
ENDBRANCH  84  87
ENDBRANCH  68  83
ENDBRANCH  65  68
ENDBRANCH   2  64
TORSDOF 18
