REMARK  18 active torsions:
REMARK  status: ('A' for Active; 'I' for Inactive)
REMARK    1  A    between atoms: N6_6  and  C7_7 
REMARK    2  A    between atoms: C7_7  and  C11_11 
REMARK    3  A    between atoms: C7_7  and  C8_8 
REMARK    4  A    between atoms: C8_8  and  C10_10 
REMARK    5  A    between atoms: C8_8  and  C9_9 
REMARK       I    between atoms: C11_11  and  N13_13 
REMARK    6  A    between atoms: N13_13  and  C14_14 
REMARK    7  A    between atoms: C14_14  and  C22_22 
REMARK    8  A    between atoms: C14_14  and  C15_15 
REMARK    9  A    between atoms: C15_15  and  C16_16 
REMARK   10  A    between atoms: C21_21  and  O25_25 
REMARK   11  A    between atoms: C22_22  and  O24_24 
REMARK   12  A    between atoms: C22_22  and  C23_23 
REMARK   13  A    between atoms: C23_23  and  N26_26 
REMARK   14  A    between atoms: N26_26  and  C27_27 
REMARK   15  A    between atoms: C40_40  and  C43_43 
REMARK   16  A    between atoms: C43_43  and  C45_45 
REMARK   17  A    between atoms: C43_43  and  C44_44 
REMARK   18  A    between atoms: C44_44  and  C46_46 
ROOT
ATOM      1  C23 PI5 d   1       4.985  -0.289  15.106  0.00  0.00     0.108 C 
ATOM      2  H24 PI5 d   1       5.051  -1.193  14.483  0.00  0.00     0.079 H 
ATOM      3  H25 PI5 d   1       4.048   0.242  14.883  0.00  0.00     0.079 H 
ENDROOT
BRANCH   1   4
ATOM      4  C22 PI5 d   1       6.173   0.620  14.824  0.00  0.00     0.078 C 
ATOM      5  H23 PI5 d   1       6.093   1.522  15.448  0.00  0.00     0.088 H 
BRANCH   4   6
ATOM      6  C14 PI5 d   1       6.209   1.025  13.362  0.00  0.00     0.042 C 
ATOM      7  H16 PI5 d   1       6.289   0.114  12.751  0.00  0.00     0.077 H 
BRANCH   6   8
ATOM      8  N13 PI5 d   1       4.993   1.739  12.965  0.00  0.00    -0.352 N 
ATOM      9  C11 PI5 d   1       4.108   1.214  12.123  0.00  0.00     0.241 C 
ATOM     10  O12 PI5 d   1       4.251   0.103  11.590  0.00  0.00    -0.271 OA
ATOM     11  H15 PI5 d   1       4.823   2.651  13.339  0.00  0.00     0.163 HD
BRANCH   9  12
ATOM     12  C7  PI5 d   1       2.904   2.093  11.806  0.00  0.00     0.094 C 
ATOM     13  H7  PI5 d   1       2.732   2.788  12.641  0.00  0.00     0.088 H 
BRANCH  12  14
ATOM     14  N6  PI5 d   1       3.229   2.845  10.595  0.00  0.00    -0.338 N 
ATOM     15  C2  PI5 d   1       3.359   2.366   9.193  0.00  0.00    -0.001 C 
ATOM     16  C1  PI5 d   1       3.951   3.591   8.449  0.00  0.00    -0.042 C 
ATOM     17  H3  PI5 d   1       4.038   1.503   9.133  0.00  0.00     0.064 H 
ATOM     18  H4  PI5 d   1       2.378   2.090   8.779  0.00  0.00     0.064 H 
ATOM     19  C5  PI5 d   1       3.850   4.804   9.347  0.00  0.00     0.011 C 
ATOM     20  H1  PI5 d   1       5.006   3.400   8.204  0.00  0.00     0.036 H 
ATOM     21  H2  PI5 d   1       3.385   3.769   7.522  0.00  0.00     0.036 H 
ATOM     22  C3  PI5 d   1       3.531   4.151  10.659  0.00  0.00     0.220 C 
ATOM     23  H5  PI5 d   1       3.045   5.481   9.025  0.00  0.00     0.047 H 
ATOM     24  H6  PI5 d   1       4.800   5.357   9.390  0.00  0.00     0.047 H 
ATOM     25  O4  PI5 d   1       3.545   4.772  11.727  0.00  0.00    -0.273 OA
ENDBRANCH  12  14
BRANCH  12  26
ATOM     26  C8  PI5 d   1       1.614   1.264  11.573  0.00  0.00    -0.033 C 
ATOM     27  H8  PI5 d   1       1.778   0.577  10.730  0.00  0.00     0.042 H 
BRANCH  26  28
ATOM     28  C10 PI5 d   1       0.456   2.186  11.248  0.00  0.00    -0.071 C 
ATOM     29  H12 PI5 d   1       0.697   2.774  10.350  0.00  0.00     0.028 H 
ATOM     30  H13 PI5 d   1       0.279   2.865  12.095  0.00  0.00     0.028 H 
ATOM     31  H14 PI5 d   1      -0.448   1.588  11.063  0.00  0.00     0.028 H 
ENDBRANCH  26  28
BRANCH  26  32
ATOM     32  C9  PI5 d   1       1.272   0.458  12.812  0.00  0.00    -0.071 C 
ATOM     33  H9  PI5 d   1       0.356  -0.123  12.630  0.00  0.00     0.028 H 
ATOM     34  H10 PI5 d   1       1.111   1.140  13.660  0.00  0.00     0.028 H 
ATOM     35  H11 PI5 d   1       2.101  -0.227  13.044  0.00  0.00     0.028 H 
ENDBRANCH  26  32
ENDBRANCH  12  26
ENDBRANCH   9  12
ENDBRANCH   6   8
BRANCH   6  36
ATOM     36  C15 PI5 d   1       7.437   1.897  13.106  0.00  0.00    -0.020 C 
ATOM     37  H17 PI5 d   1       8.332   1.336  13.412  0.00  0.00     0.043 H 
ATOM     38  H18 PI5 d   1       7.349   2.809  13.715  0.00  0.00     0.043 H 
BRANCH  36  39
ATOM     39  C16 PI5 d   1       7.597   2.299  11.670  0.00  0.00    -0.056 A 
ATOM     40  C18 PI5 d   1       7.514   3.636  11.290  0.00  0.00    -0.074 A 
ATOM     41  C20 PI5 d   1       7.633   4.009   9.964  0.00  0.00    -0.051 A 
ATOM     42  H20 PI5 d   1       7.354   4.396  12.046  0.00  0.00     0.084 H 
ATOM     43  C21 PI5 d   1       7.838   3.036   9.001  0.00  0.00     0.065 A 
ATOM     44  H22 PI5 d   1       7.566   5.053   9.681  0.00  0.00     0.087 H 
ATOM     45  C19 PI5 d   1       7.927   1.703   9.354  0.00  0.00    -0.051 A 
ATOM     46  C17 PI5 d   1       7.807   1.343  10.684  0.00  0.00    -0.074 A 
ATOM     47  H21 PI5 d   1       8.089   0.946   8.595  0.00  0.00     0.087 H 
ATOM     48  H19 PI5 d   1       7.878   0.298  10.962  0.00  0.00     0.084 H 
BRANCH  43  49
ATOM     49  O25 PI5 d   1       7.946   3.390   7.675  0.00  0.00    -0.361 OA
ATOM     50  H27 PI5 d   1       7.255   2.967   7.178  0.00  0.00     0.217 HD
ENDBRANCH  43  49
ENDBRANCH  36  39
ENDBRANCH   6  36
ENDBRANCH   4   6
BRANCH   4  51
ATOM     51  O24 PI5 d   1       7.384  -0.073  15.137  0.00  0.00    -0.392 OA
ATOM     52  H26 PI5 d   1       7.456  -0.846  14.589  0.00  0.00     0.210 HD
ENDBRANCH   4  51
ENDBRANCH   1   4
BRANCH   1  53
ATOM     53  N26 PI5 d   1       5.022  -0.658  16.524  0.00  0.00    -0.060 N 
ATOM     54  H28 PI5 d   1       4.302  -0.138  17.001  0.00  0.00     0.278 HD
ATOM     55  H29 PI5 d   1       5.924  -0.397  16.891  0.00  0.00     0.278 HD
BRANCH  53  56
ATOM     56  C27 PI5 d   1       4.809  -2.109  16.808  0.00  0.00     0.181 C 
ATOM     57  C37 PI5 d   1       5.834  -3.104  16.261  0.00  0.00     0.249 C 
ATOM     58  N39 PI5 d   1       6.399  -3.897  17.167  0.00  0.00    -0.346 N 
ATOM     59  O38 PI5 d   1       6.091  -3.164  15.056  0.00  0.00    -0.271 OA
ATOM     60  C40 PI5 d   1       7.389  -4.931  16.830  0.00  0.00     0.092 C 
ATOM     61  H39 PI5 d   1       6.138  -3.784  18.126  0.00  0.00     0.163 HD
ATOM     62  C41 PI5 d   1       7.069  -6.010  17.867  0.00  0.00     0.240 C 
ATOM     63  H40 PI5 d   1       7.259  -5.290  15.799  0.00  0.00     0.088 H 
ATOM     64  N47 PI5 d   1       6.590  -7.161  17.402  0.00  0.00    -0.359 N 
ATOM     65  O42 PI5 d   1       7.213  -5.779  19.076  0.00  0.00    -0.271 OA
ATOM     66  C48 PI5 d   1       6.267  -8.247  18.315  0.00  0.00    -0.003 C 
ATOM     67  H50 PI5 d   1       6.451  -7.280  16.419  0.00  0.00     0.162 HD
ATOM     68  C49 PI5 d   1       5.268  -9.271  17.781  0.00  0.00    -0.030 C 
ATOM     69  H51 PI5 d   1       7.200  -8.777  18.557  0.00  0.00     0.064 H 
ATOM     70  H52 PI5 d   1       5.846  -7.807  19.231  0.00  0.00     0.064 H 
ATOM     71  C36 PI5 d   1       3.818  -8.846  17.992  0.00  0.00     0.028 C 
ATOM     72  H53 PI5 d   1       5.442  -9.403  16.703  0.00  0.00     0.038 H 
ATOM     73  H54 PI5 d   1       5.433 -10.227  18.299  0.00  0.00     0.038 H 
ATOM     74  O35 PI5 d   1       3.299  -8.190  16.851  0.00  0.00    -0.351 OA
ATOM     75  H37 PI5 d   1       3.210  -9.739  18.198  0.00  0.00     0.075 H 
ATOM     76  H38 PI5 d   1       3.768  -8.162  18.852  0.00  0.00     0.075 H 
ATOM     77  C34 PI5 d   1       3.255  -6.820  16.762  0.00  0.00     0.068 A 
ATOM     78  C31 PI5 d   1       3.209  -6.039  17.903  0.00  0.00    -0.050 A 
ATOM     79  C33 PI5 d   1       3.287  -6.238  15.509  0.00  0.00    -0.050 A 
ATOM     80  C30 PI5 d   1       3.209  -4.663  17.779  0.00  0.00    -0.074 A 
ATOM     81  H34 PI5 d   1       3.173  -6.501  18.883  0.00  0.00     0.087 H 
ATOM     82  C29 PI5 d   1       3.256  -4.052  16.524  0.00  0.00    -0.056 A 
ATOM     83  H33 PI5 d   1       3.172  -4.047  18.671  0.00  0.00     0.084 H 
ATOM     84  C28 PI5 d   1       3.407  -2.561  16.399  0.00  0.00    -0.006 C 
ATOM     85  C32 PI5 d   1       3.285  -4.864  15.395  0.00  0.00    -0.074 A 
ATOM     86  H31 PI5 d   1       3.227  -2.269  15.354  0.00  0.00     0.043 H 
ATOM     87  H32 PI5 d   1       2.668  -2.070  17.049  0.00  0.00     0.043 H 
ATOM     88  H35 PI5 d   1       3.306  -4.410  14.411  0.00  0.00     0.084 H 
ATOM     89  H36 PI5 d   1       3.313  -6.858  14.620  0.00  0.00     0.087 H 
ATOM     90  H30 PI5 d   1       4.866  -2.198  17.903  0.00  0.00     0.100 H 
BRANCH  60  91
ATOM     91  C43 PI5 d   1       8.856  -4.457  17.051  0.00  0.00    -0.030 C 
ATOM     92  H41 PI5 d   1       8.953  -4.084  18.081  0.00  0.00     0.043 H 
BRANCH  91  93
ATOM     93  C45 PI5 d   1       9.825  -5.617  16.852  0.00  0.00    -0.071 C 
ATOM     94  H44 PI5 d   1       9.570  -6.431  17.547  0.00  0.00     0.028 H 
ATOM     95  H45 PI5 d   1      10.852  -5.275  17.049  0.00  0.00     0.028 H 
ATOM     96  H46 PI5 d   1       9.752  -5.982  15.817  0.00  0.00     0.028 H 
ENDBRANCH  91  93
BRANCH  91  97
ATOM     97  C44 PI5 d   1       9.216  -3.331  16.084  0.00  0.00    -0.063 C 
ATOM     98  H42 PI5 d   1      10.087  -2.795  16.489  0.00  0.00     0.033 H 
ATOM     99  H43 PI5 d   1       8.359  -2.644  16.021  0.00  0.00     0.033 H 
BRANCH  97 100
ATOM    100  C46 PI5 d   1       9.552  -3.793  14.695  0.00  0.00    -0.076 C 
ATOM    101  H47 PI5 d   1       9.797  -2.923  14.069  0.00  0.00     0.027 H 
ATOM    102  H48 PI5 d   1       8.688  -4.322  14.266  0.00  0.00     0.027 H 
ATOM    103  H49 PI5 d   1      10.416  -4.473  14.733  0.00  0.00     0.027 H 
ENDBRANCH  97 100
ENDBRANCH  91  97
ENDBRANCH  60  91
ENDBRANCH  53  56
ENDBRANCH   1  53
TORSDOF 18
