REMARK  11 active torsions:
REMARK  status: ('A' for Active; 'I' for Inactive)
REMARK    1  A    between atoms: C6_6  and  C9_9 
REMARK    2  A    between atoms: C9_9  and  C10_10 
REMARK       I    between atoms: C10_10  and  N12_12 
REMARK    3  A    between atoms: C14_14  and  C24_24 
REMARK    4  A    between atoms: C24_24  and  C26_26 
REMARK    5  A    between atoms: C24_24  and  O25_25 
REMARK    6  A    between atoms: C26_26  and  N27_27 
REMARK    7  A    between atoms: C28_28  and  C33_33 
REMARK       I    between atoms: C33_33  and  N39_39 
REMARK    8  A    between atoms: N39_39  and  C35_35 
REMARK    9  A    between atoms: C35_35  and  C38_38 
REMARK   10  A    between atoms: C35_35  and  C37_37 
REMARK   11  A    between atoms: C35_35  and  C36_36 
ROOT
ATOM      1  C1  PI4 d   1       6.116   2.819   8.807  0.00  0.00    -0.037 C 
ATOM      2  C2  PI4 d   1       4.243   3.231  10.445  0.00  0.00     0.218 C 
ATOM      3  O3  PI4 d   1       4.171   4.137  11.275  0.00  0.00    -0.274 OA
ATOM      4  C4  PI4 d   1       4.789   3.497   9.056  0.00  0.00     0.011 C 
ATOM      5  N5  PI4 d   1       3.877   1.979  10.705  0.00  0.00    -0.347 N 
ATOM      6  C6  PI4 d   1       3.311   1.588  12.006  0.00  0.00     0.097 C 
ATOM      7  C7  PI4 d   1       3.967   0.364  12.635  0.00  0.00     0.241 C 
ATOM      8  O8  PI4 d   1       3.931  -0.732  12.075  0.00  0.00    -0.271 OA
ATOM      9  N13 PI4 d   1       4.556   0.559  13.810  0.00  0.00    -0.352 N 
ATOM     10  C14 PI4 d   1       5.219  -0.533  14.534  0.00  0.00     0.042 C 
ATOM     11  C15 PI4 d   1       6.735  -0.320  14.535  0.00  0.00    -0.020 C 
ATOM     12  C16 PI4 d   1       7.210   0.441  13.329  0.00  0.00    -0.056 A 
ATOM     13  C17 PI4 d   1       7.333   1.823  13.377  0.00  0.00    -0.074 A 
ATOM     14  C18 PI4 d   1       7.676   2.546  12.263  0.00  0.00    -0.050 A 
ATOM     15  C19 PI4 d   1       7.464  -0.206  12.120  0.00  0.00    -0.074 A 
ATOM     16  C20 PI4 d   1       7.811   0.516  10.990  0.00  0.00    -0.050 A 
ATOM     17  C21 PI4 d   1       7.915   1.895  11.074  0.00  0.00     0.068 A 
ATOM     18  O22 PI4 d   1       8.222   2.651   9.971  0.00  0.00    -0.351 OA
ATOM     19  C23 PI4 d   1       7.242   3.562   9.512  0.00  0.00     0.026 C 
ATOM     20  H1  PI4 d   1       6.071   1.788   9.187  0.00  0.00     0.036 H 
ATOM     21  H2  PI4 d   1       6.316   2.803   7.725  0.00  0.00     0.036 H 
ATOM     22  H3  PI4 d   1       4.062   3.129   8.317  0.00  0.00     0.047 H 
ATOM     23  H4  PI4 d   1       4.920   4.582   8.932  0.00  0.00     0.047 H 
ATOM     24  H5  PI4 d   1       3.990   1.283   9.996  0.00  0.00     0.163 HD
ATOM     25  H6  PI4 d   1       3.451   2.433  12.696  0.00  0.00     0.088 H 
ATOM     26  H11 PI4 d   1       4.548   1.474  14.212  0.00  0.00     0.163 HD
ATOM     27  H12 PI4 d   1       4.997  -1.482  14.024  0.00  0.00     0.077 H 
ATOM     28  H13 PI4 d   1       7.229  -1.303  14.549  0.00  0.00     0.043 H 
ATOM     29  H14 PI4 d   1       7.012   0.243  15.439  0.00  0.00     0.043 H 
ATOM     30  H15 PI4 d   1       7.155   2.341  14.313  0.00  0.00     0.084 H 
ATOM     31  H16 PI4 d   1       7.758   3.625  12.319  0.00  0.00     0.087 H 
ATOM     32  H17 PI4 d   1       7.389  -1.286  12.064  0.00  0.00     0.084 H 
ATOM     33  H18 PI4 d   1       7.999   0.008  10.051  0.00  0.00     0.087 H 
ATOM     34  H19 PI4 d   1       6.831   4.114  10.370  0.00  0.00     0.075 H 
ATOM     35  H20 PI4 d   1       7.706   4.269   8.809  0.00  0.00     0.075 H 
ENDROOT
BRANCH  10  36
ATOM     36  C24 PI4 d   1       4.685  -0.612  15.976  0.00  0.00     0.078 C 
ATOM     37  H21 PI4 d   1       3.586  -0.636  15.939  0.00  0.00     0.088 H 
BRANCH  36  38
ATOM     38  C26 PI4 d   1       5.172  -1.871  16.673  0.00  0.00     0.110 C 
ATOM     39  H23 PI4 d   1       4.999  -1.784  17.756  0.00  0.00     0.080 H 
ATOM     40  H24 PI4 d   1       6.247  -2.006  16.483  0.00  0.00     0.080 H 
BRANCH  38  41
ATOM     41  N27 PI4 d   1       4.423  -3.034  16.141  0.00  0.00    -0.056 N 
ATOM     42  C32 PI4 d   1       3.058  -3.080  16.761  0.00  0.00     0.085 C 
ATOM     43  C31 PI4 d   1       2.251  -4.280  16.288  0.00  0.00    -0.042 C 
ATOM     44  H33 PI4 d   1       2.516  -2.161  16.493  0.00  0.00     0.076 H 
ATOM     45  H34 PI4 d   1       3.167  -3.135  17.854  0.00  0.00     0.076 H 
ATOM     46  C30 PI4 d   1       2.992  -5.579  16.563  0.00  0.00    -0.061 C 
ATOM     47  H31 PI4 d   1       1.287  -4.297  16.818  0.00  0.00     0.035 H 
ATOM     48  H32 PI4 d   1       2.073  -4.190  15.206  0.00  0.00     0.035 H 
ATOM     49  C29 PI4 d   1       4.411  -5.503  16.016  0.00  0.00    -0.030 C 
ATOM     50  H29 PI4 d   1       3.030  -5.752  17.649  0.00  0.00     0.033 H 
ATOM     51  H30 PI4 d   1       2.460  -6.410  16.078  0.00  0.00     0.033 H 
ATOM     52  C28 PI4 d   1       5.185  -4.266  16.487  0.00  0.00     0.179 C 
ATOM     53  H27 PI4 d   1       4.958  -6.400  16.342  0.00  0.00     0.036 H 
ATOM     54  H28 PI4 d   1       4.360  -5.484  14.917  0.00  0.00     0.036 H 
ATOM     55  H26 PI4 d   1       5.306  -4.316  17.579  0.00  0.00     0.100 H 
ATOM     56  H25 PI4 d   1       4.335  -2.957  15.140  0.00  0.00     0.281 HD
BRANCH  52  57
ATOM     57  C33 PI4 d   1       6.568  -4.231  15.839  0.00  0.00     0.249 C 
ATOM     58  N39 PI4 d   1       7.563  -4.780  16.541  0.00  0.00    -0.351 N 
ATOM     59  H44 PI4 d   1       7.343  -5.169  17.436  0.00  0.00     0.163 HD
ATOM     60  O34 PI4 d   1       6.720  -3.711  14.732  0.00  0.00    -0.271 OA
BRANCH  58  61
ATOM     61  C35 PI4 d   1       8.962  -4.851  16.086  0.00  0.00     0.022 C 
BRANCH  61  62
ATOM     62  C38 PI4 d   1       9.093  -5.866  14.956  0.00  0.00    -0.054 C 
ATOM     63  H41 PI4 d   1      10.141  -5.911  14.624  0.00  0.00     0.030 H 
ATOM     64  H42 PI4 d   1       8.454  -5.562  14.114  0.00  0.00     0.030 H 
ATOM     65  H43 PI4 d   1       8.779  -6.857  15.315  0.00  0.00     0.030 H 
ENDBRANCH  61  62
BRANCH  61  66
ATOM     66  C37 PI4 d   1       9.850  -5.302  17.242  0.00  0.00    -0.054 C 
ATOM     67  H38 PI4 d   1      10.895  -5.355  16.902  0.00  0.00     0.030 H 
ATOM     68  H39 PI4 d   1       9.526  -6.295  17.588  0.00  0.00     0.030 H 
ATOM     69  H40 PI4 d   1       9.769  -4.581  18.069  0.00  0.00     0.030 H 
ENDBRANCH  61  66
BRANCH  61  70
ATOM     70  C36 PI4 d   1       9.441  -3.485  15.608  0.00  0.00    -0.054 C 
ATOM     71  H35 PI4 d   1      10.486  -3.559  15.273  0.00  0.00     0.030 H 
ATOM     72  H36 PI4 d   1       9.371  -2.762  16.434  0.00  0.00     0.030 H 
ATOM     73  H37 PI4 d   1       8.811  -3.148  14.772  0.00  0.00     0.030 H 
ENDBRANCH  61  70
ENDBRANCH  58  61
ENDBRANCH  52  57
ENDBRANCH  38  41
ENDBRANCH  36  38
BRANCH  36  74
ATOM     74  O25 PI4 d   1       5.095   0.541  16.717  0.00  0.00    -0.392 OA
ATOM     75  H22 PI4 d   1       4.725   0.502  17.591  0.00  0.00     0.210 HD
ENDBRANCH  36  74
ENDBRANCH  10  36
BRANCH   6  76
ATOM     76  C9  PI4 d   1       1.814   1.324  11.855  0.00  0.00     0.036 C 
ATOM     77  H7  PI4 d   1       1.394   1.097  12.846  0.00  0.00     0.051 H 
ATOM     78  H8  PI4 d   1       1.673   0.459  11.190  0.00  0.00     0.051 H 
BRANCH  76  79
ATOM     79  C10 PI4 d   1       1.077   2.502  11.277  0.00  0.00     0.217 C 
ATOM     80  N12 PI4 d   1       1.098   2.621   9.953  0.00  0.00    -0.370 N 
ATOM     81  H9  PI4 d   1       0.626   3.384   9.512  0.00  0.00     0.159 HD
ATOM     82  H10 PI4 d   1       1.586   1.947   9.398  0.00  0.00     0.159 HD
ATOM     83  O11 PI4 d   1       0.512   3.311  12.006  0.00  0.00    -0.274 OA
ENDBRANCH  76  79
ENDBRANCH   6  76
TORSDOF 11
