REMARK  6 active torsions:
REMARK  status: ('A' for Active; 'I' for Inactive)
REMARK    1  A    between atoms: O5'_1  and  C5'_2 
REMARK    2  A    between atoms: C5'_2  and  C4'_3 
REMARK    3  A    between atoms: C3'_5  and  O3'_6 
REMARK    4  A    between atoms: C2'_7  and  O2'_8 
REMARK    5  A    between atoms: C1'_9  and  C9_10 
REMARK    6  A    between atoms: C2_18  and  N2_17 
ROOT
ATOM      1  C4' IMG d   1     -65.023  88.898  96.361  0.00  0.00     0.149 C 
ATOM      2  N4' IMG d   1     -66.087  88.744  95.366  0.00  0.00    -0.055 N 
ATOM      3  C3' IMG d   1     -63.713  88.806  95.510  0.00  0.00     0.092 C 
ATOM      4  C2' IMG d   1     -64.121  89.351  94.098  0.00  0.00     0.094 C 
ATOM      5  C1' IMG d   1     -65.664  89.291  94.080  0.00  0.00     0.158 C 
ATOM      6  H4  IMG d   1     -65.026  88.101  97.120  0.00  0.00     0.091 H 
ATOM      7  H5  IMG d   1     -66.910  89.234  95.681  0.00  0.00     0.278 HD
ATOM      8  H6  IMG d   1     -66.300  87.765  95.257  0.00  0.00     0.278 HD
ATOM      9  H7  IMG d   1     -62.934  89.437  95.964  0.00  0.00     0.090 H 
ATOM     10  H9  IMG d   1     -63.769  90.386  93.972  0.00  0.00     0.090 H 
ATOM     11  H11 IMG d   1     -65.986  88.626  93.265  0.00  0.00     0.096 H 
ENDROOT
BRANCH   5  12
ATOM     12  C9  IMG d   1     -66.369  90.742  93.876  0.00  0.00     0.022 A 
ATOM     13  C8  IMG d   1     -67.647  91.032  94.155  0.00  0.00    -0.012 A 
ATOM     14  N7  IMG d   1     -67.901  92.414  93.843  0.00  0.00    -0.359 N 
ATOM     15  H12 IMG d   1     -68.379  90.332  94.555  0.00  0.00     0.112 H 
ATOM     16  C5  IMG d   1     -66.663  92.903  93.371  0.00  0.00     0.131 A 
ATOM     17  H13 IMG d   1     -68.787  92.930  93.942  0.00  0.00     0.165 HD
ATOM     18  C6  IMG d   1     -66.387  94.271  92.902  0.00  0.00     0.288 A 
ATOM     19  C4  IMG d   1     -65.733  91.940  93.361  0.00  0.00     0.118 A 
ATOM     20  O6  IMG d   1     -67.128  95.267  92.889  0.00  0.00    -0.265 OA
ATOM     21  N1  IMG d   1     -65.070  94.336  92.508  0.00  0.00    -0.153 N 
ATOM     22  C2  IMG d   1     -64.139  93.300  92.520  0.00  0.00     0.701 A 
ATOM     23  H14 IMG d   1     -64.746  95.223  92.177  0.00  0.00     0.187 HD
ATOM     24  N3  IMG d   1     -64.469  92.093  92.949  0.00  0.00    -0.062 NA
BRANCH  22  25
ATOM     25  N2  IMG d   1     -62.904  93.518  91.937  0.00  0.00    -0.233 N 
ATOM     26  H15 IMG d   1     -62.197  92.769  91.932  0.00  0.00     0.174 HD
ATOM     27  H16 IMG d   1     -62.691  94.430  91.508  0.00  0.00     0.174 HD
ENDBRANCH  22  25
ENDBRANCH   5  12
BRANCH   4  28
ATOM     28  O2' IMG d   1     -63.597  88.538  93.040  0.00  0.00    -0.390 OA
ATOM     29  H10 IMG d   1     -63.932  87.653  93.126  0.00  0.00     0.210 HD
ENDBRANCH   4  28
BRANCH   1  30
ATOM     30  C5' IMG d   1     -65.386  90.255  97.023  0.00  0.00     0.046 C 
ATOM     31  H2  IMG d   1     -64.650  90.440  97.820  0.00  0.00     0.077 H 
ATOM     32  H3  IMG d   1     -65.293  91.033  96.251  0.00  0.00     0.077 H 
BRANCH  30  33
ATOM     33  O5' IMG d   1     -66.690  90.381  97.605  0.00  0.00    -0.399 OA
ATOM     34  H1  IMG d   1     -66.794  89.731  98.290  0.00  0.00     0.209 HD
ENDBRANCH  30  33
ENDBRANCH   1  30
BRANCH   3  35
ATOM     35  O3' IMG d   1     -63.189  87.458  95.344  0.00  0.00    -0.391 OA
ATOM     36  H8  IMG d   1     -62.990  87.090  96.197  0.00  0.00     0.210 HD
ENDBRANCH   3  35
TORSDOF 6
