REMARK  5 active torsions:
REMARK  status: ('A' for Active; 'I' for Inactive)
REMARK    1  A    between atoms: C5'_2  and  O5'_1 
REMARK    2  A    between atoms: C5'_2  and  C4'_3 
REMARK    3  A    between atoms: C3'_5  and  O3'_6 
REMARK    4  A    between atoms: C2'_7  and  O2'_8 
REMARK    5  A    between atoms: C1'_9  and  C9_10 
ROOT
ATOM      1  C4' IMH d   1      20.221  88.713  75.698  0.00  0.00     0.149 C 
ATOM      2  N4' IMH d   1      20.068  89.702  74.626  0.00  0.00    -0.055 N 
ATOM      3  C3' IMH d   1      20.189  87.353  74.951  0.00  0.00     0.092 C 
ATOM      4  C2' IMH d   1      20.701  87.680  73.491  0.00  0.00     0.094 C 
ATOM      5  C1' IMH d   1      20.618  89.215  73.368  0.00  0.00     0.158 C 
ATOM      6  H4  IMH d   1      19.391  88.747  76.419  0.00  0.00     0.091 H 
ATOM      7  H5  IMH d   1      20.550  90.547  74.889  0.00  0.00     0.278 HD
ATOM      8  H6  IMH d   1      19.088  89.900  74.500  0.00  0.00     0.278 HD
ATOM      9  H7  IMH d   1      20.863  86.640  75.449  0.00  0.00     0.090 H 
ATOM     10  H9  IMH d   1      21.741  87.341  73.378  0.00  0.00     0.090 H 
ATOM     11  H11 IMH d   1      19.943  89.468  72.537  0.00  0.00     0.096 H 
ENDROOT
BRANCH   5  12
ATOM     12  C9  IMH d   1      22.050  89.952  73.112  0.00  0.00     0.022 A 
ATOM     13  C4  IMH d   1      23.278  89.313  72.716  0.00  0.00     0.100 A 
ATOM     14  C5  IMH d   1      24.205  90.285  72.646  0.00  0.00     0.130 A 
ATOM     15  N3  IMH d   1      23.491  87.997  72.459  0.00  0.00    -0.241 NA
ATOM     16  N7  IMH d   1      23.662  91.548  72.946  0.00  0.00    -0.359 N 
ATOM     17  C6  IMH d   1      25.600  90.006  72.264  0.00  0.00     0.275 A 
ATOM     18  C8  IMH d   1      22.284  91.271  73.243  0.00  0.00    -0.012 A 
ATOM     19  H13 IMH d   1      24.141  92.460  72.951  0.00  0.00     0.165 HD
ATOM     20  H12 IMH d   1      21.542  92.015  73.530  0.00  0.00     0.112 H 
ATOM     21  N1  IMH d   1      25.742  88.625  72.015  0.00  0.00    -0.316 N 
ATOM     22  O6  IMH d   1      26.552  90.796  72.207  0.00  0.00    -0.266 OA
ATOM     23  C2  IMH d   1      24.718  87.648  72.105  0.00  0.00     0.067 A 
ATOM     24  H14 IMH d   1      26.651  88.304  71.750  0.00  0.00     0.170 HD
ATOM     25  H15 IMH d   1      24.942  86.606  71.882  0.00  0.00     0.143 H 
ENDBRANCH   5  12
BRANCH   4  26
ATOM     26  O2' IMH d   1      19.895  87.071  72.458  0.00  0.00    -0.390 OA
ATOM     27  H10 IMH d   1      18.992  87.349  72.557  0.00  0.00     0.210 HD
ENDBRANCH   4  26
BRANCH   1  28
ATOM     28  C5' IMH d   1      21.538  89.154  76.412  0.00  0.00     0.046 C 
ATOM     29  H2  IMH d   1      21.547  88.685  77.407  0.00  0.00     0.077 H 
ATOM     30  H3  IMH d   1      22.380  88.770  75.818  0.00  0.00     0.077 H 
BRANCH  28  31
ATOM     31  O5' IMH d   1      21.748  90.564  76.598  0.00  0.00    -0.399 OA
ATOM     32  H1  IMH d   1      21.043  90.921  77.125  0.00  0.00     0.209 HD
ENDBRANCH  28  31
ENDBRANCH   1  28
BRANCH   3  33
ATOM     33  O3' IMH d   1      18.859  86.764  74.862  0.00  0.00    -0.391 OA
ATOM     34  H8  IMH d   1      18.543  86.564  75.735  0.00  0.00     0.210 HD
ENDBRANCH   3  33
TORSDOF 5
