REMARK  6 active torsions:
REMARK  status: ('A' for Active; 'I' for Inactive)
REMARK    1  A    between atoms: N1_14  and  C1_1 
REMARK    2  A    between atoms: C4_7  and  S_10 
REMARK    3  A    between atoms: S_10  and  N2_23 
REMARK    4  A    between atoms: C11_11  and  C16_19 
REMARK    5  A    between atoms: N2_23  and  C8_24 
REMARK    6  A    between atoms: C8_24  and  C9_25 
ROOT
ATOM      1  C7  IN7 d   1      18.007   9.230  15.615  0.00  0.00    -0.043 C 
ATOM      2  C11 IN7 d   1      18.583  10.551  16.106  0.00  0.00    -0.026 C 
ATOM      3  C13 IN7 d   1      18.630  10.878  17.589  0.00  0.00    -0.043 C 
ATOM      4  C15 IN7 d   1      17.454  10.317  18.362  0.00  0.00    -0.004 C 
ATOM      5  N1  IN7 d   1      16.967   8.994  17.917  0.00  0.00    -0.381 N 
ATOM      6  C18 IN7 d   1      16.852   8.725  16.473  0.00  0.00    -0.004 C 
ATOM      7  H3  IN7 d   1      18.806   8.475  15.624  0.00  0.00     0.036 H 
ATOM      8  H4  IN7 d   1      17.644   9.367  14.586  0.00  0.00     0.036 H 
ATOM      9  H7  IN7 d   1      17.623  11.072  15.975  0.00  0.00     0.047 H 
ATOM     10  H8  IN7 d   1      19.556  10.460  18.010  0.00  0.00     0.036 H 
ATOM     11  H9  IN7 d   1      18.635  11.972  17.706  0.00  0.00     0.036 H 
ATOM     12  H10 IN7 d   1      17.754  10.230  19.417  0.00  0.00     0.064 H 
ATOM     13  H11 IN7 d   1      16.621  11.030  18.275  0.00  0.00     0.064 H 
ATOM     14  H12 IN7 d   1      15.929   9.202  16.112  0.00  0.00     0.064 H 
ATOM     15  H13 IN7 d   1      16.780   7.636  16.336  0.00  0.00     0.064 H 
ENDROOT
BRANCH   5  16
ATOM     16  C1  IN7 d   1      16.437   8.111  18.835  0.00  0.00     0.030 A 
ATOM     17  C6  IN7 d   1      15.904   6.860  18.439  0.00  0.00    -0.056 A 
ATOM     18  C5  IN7 d   1      15.399   5.967  19.406  0.00  0.00    -0.058 A 
ATOM     19  H5  IN7 d   1      15.884   6.588  17.390  0.00  0.00     0.087 H 
ATOM     20  C4  IN7 d   1      15.457   6.339  20.764  0.00  0.00     0.079 A 
ATOM     21  H6  IN7 d   1      14.975   5.014  19.111  0.00  0.00     0.086 H 
ATOM     22  C3  IN7 d   1      15.900   7.609  21.162  0.00  0.00    -0.058 A 
ATOM     23  C2  IN7 d   1      16.408   8.484  20.198  0.00  0.00    -0.056 A 
ATOM     24  H2  IN7 d   1      15.849   7.908  22.203  0.00  0.00     0.086 H 
ATOM     25  H1  IN7 d   1      16.783   9.456  20.498  0.00  0.00     0.087 H 
BRANCH  20  26
ATOM     26  S   IN7 d   1      15.020   5.220  22.064  0.00  0.00     0.259 S 
ATOM     27  O2  IN7 d   1      15.064   3.873  21.582  0.00  0.00    -0.201 OA
ATOM     28  O1  IN7 d   1      15.768   5.602  23.211  0.00  0.00    -0.201 OA
BRANCH  26  29
ATOM     29  N2  IN7 d   1      13.427   5.473  22.658  0.00  0.00    -0.305 N 
ATOM     30  H19 IN7 d   1      13.318   5.942  23.534  0.00  0.00     0.172 HD
BRANCH  29  31
ATOM     31  C8  IN7 d   1      12.239   5.045  21.960  0.00  0.00     0.083 C 
ATOM     32  H20 IN7 d   1      11.435   4.855  22.686  0.00  0.00     0.081 H 
ATOM     33  H21 IN7 d   1      12.454   4.122  21.401  0.00  0.00     0.081 H 
BRANCH  31  34
ATOM     34  C9  IN7 d   1      11.814   6.106  21.018  0.00  0.00     0.191 C 
ATOM     35  O3  IN7 d   1      11.828   7.358  21.489  0.00  0.00    -0.647 OA
ATOM     36  O4  IN7 d   1      11.515   5.816  19.915  0.00  0.00    -0.647 OA
ENDBRANCH  31  34
ENDBRANCH  29  31
ENDBRANCH  26  29
ENDBRANCH  20  26
ENDBRANCH   5  16
BRANCH   2  37
ATOM     37  C16 IN7 d   1      19.270  11.432  15.151  0.00  0.00    -0.054 A 
ATOM     38  C17 IN7 d   1      18.677  11.729  13.901  0.00  0.00    -0.076 A 
ATOM     39  C19 IN7 d   1      19.387  12.512  12.965  0.00  0.00    -0.082 A 
ATOM     40  H17 IN7 d   1      17.686  11.358  13.664  0.00  0.00     0.084 H 
ATOM     41  C10 IN7 d   1      20.667  13.004  13.298  0.00  0.00    -0.083 A 
ATOM     42  H18 IN7 d   1      18.952  12.734  11.997  0.00  0.00     0.083 H 
ATOM     43  C12 IN7 d   1      21.251  12.738  14.549  0.00  0.00    -0.082 A 
ATOM     44  H14 IN7 d   1      21.211  13.600  12.574  0.00  0.00     0.083 H 
ATOM     45  C14 IN7 d   1      20.546  11.945  15.480  0.00  0.00    -0.076 A 
ATOM     46  H15 IN7 d   1      22.229  13.136  14.795  0.00  0.00     0.083 H 
ATOM     47  H16 IN7 d   1      20.983  11.729  16.448  0.00  0.00     0.084 H 
ENDBRANCH   2  37
TORSDOF 6
