REMARK  20 active torsions:
REMARK  status: ('A' for Active; 'I' for Inactive)
REMARK    1  A    between atoms: CA_2  and  N_1 
REMARK    2  A    between atoms: CA_2  and  CB_5 
REMARK    3  A    between atoms: C_3  and  CA_2 
REMARK       I    between atoms: N_10  and  C_3 
REMARK    4  A    between atoms: CB_5  and  CG_6 
REMARK    5  A    between atoms: CG_6  and  CD_7 
REMARK    6  A    between atoms: CD_7  and  CE_8 
REMARK    7  A    between atoms: CE_8  and  NZ_9 
REMARK    8  A    between atoms: CA_11  and  N_10 
REMARK    9  A    between atoms: CA_11  and  CB_14 
REMARK   10  A    between atoms: C_12  and  CA_11 
REMARK       I    between atoms: C_12  and  N_18 
REMARK   11  A    between atoms: CB_14  and  CG_15 
REMARK   12  A    between atoms: CG_15  and  CD1_16 
REMARK   13  A    between atoms: CG_15  and  CD2_17 
REMARK   14  A    between atoms: N_18  and  CA_19 
REMARK   15  A    between atoms: CA_19  and  CB_22 
REMARK   16  A    between atoms: CA_19  and  C_20 
REMARK   17  A    between atoms: CB_22  and  CG_23 
REMARK   18  A    between atoms: CG_23  and  CD_24 
REMARK   19  A    between atoms: CD_24  and  CE_25 
REMARK   20  A    between atoms: CE_25  and  NZ_26 
ROOT
ATOM      1  CA  LEU d   1       3.900  20.155  16.069  0.00  0.00     0.089 C 
ATOM      2  H17 LEU d   1       3.756  19.573  16.991  0.00  0.00     0.087 H 
ENDROOT
BRANCH   1   3
ATOM      3  N   LEU d   1       5.001  19.567  15.304  0.00  0.00    -0.346 N 
ATOM      4  C   LYS d   1       5.233  18.258  15.317  0.00  0.00     0.248 C 
ATOM      5  O   LYS d   1       4.501  17.454  15.881  0.00  0.00    -0.271 OA
ATOM      6  H16 LEU d   1       5.591  20.163  14.760  0.00  0.00     0.163 HD
BRANCH   4   7
ATOM      7  CA  LYS d   1       6.459  17.792  14.561  0.00  0.00     0.176 C 
ATOM      8  H4  LYS d   1       7.236  18.552  14.732  0.00  0.00     0.099 H 
BRANCH   7   9
ATOM      9  N   LYS d   1       6.968  16.518  15.137  0.00  0.00    -0.067 N 
ATOM     10  H1  LYS d   1       7.783  16.220  14.625  0.00  0.00     0.275 HD
ATOM     11  H2  LYS d   1       6.253  15.810  15.072  0.00  0.00     0.275 HD
ATOM     12  H3  LYS d   1       7.213  16.661  16.104  0.00  0.00     0.275 HD
ENDBRANCH   7   9
BRANCH   7  13
ATOM     13  CB  LYS d   1       6.274  17.708  13.031  0.00  0.00    -0.030 C 
ATOM     14  H5  LYS d   1       7.260  17.573  12.561  0.00  0.00     0.036 H 
ATOM     15  H6  LYS d   1       5.824  18.647  12.676  0.00  0.00     0.036 H 
BRANCH  13  16
ATOM     16  CG  LYS d   1       5.366  16.537  12.622  0.00  0.00    -0.061 C 
ATOM     17  H7  LYS d   1       4.367  16.680  13.060  0.00  0.00     0.033 H 
ATOM     18  H8  LYS d   1       5.797  15.595  12.992  0.00  0.00     0.033 H 
BRANCH  16  19
ATOM     19  CD  LYS d   1       5.246  16.474  11.095  0.00  0.00    -0.043 C 
ATOM     20  H9  LYS d   1       5.090  17.489  10.702  0.00  0.00     0.035 H 
ATOM     21  H10 LYS d   1       4.389  15.840  10.825  0.00  0.00     0.035 H 
BRANCH  19  22
ATOM     22  CE  LYS d   1       6.524  15.885  10.480  0.00  0.00     0.080 C 
ATOM     23  H11 LYS d   1       7.393  16.469  10.816  0.00  0.00     0.075 H 
ATOM     24  H12 LYS d   1       6.455  15.928   9.383  0.00  0.00     0.075 H 
BRANCH  22  25
ATOM     25  NZ  LYS d   1       6.686  14.466  10.910  0.00  0.00    -0.079 N 
ATOM     26  H13 LYS d   1       7.526  14.085  10.503  0.00  0.00     0.274 HD
ATOM     27  H14 LYS d   1       5.891  13.929  10.602  0.00  0.00     0.274 HD
ATOM     28  H15 LYS d   1       6.751  14.425  11.915  0.00  0.00     0.274 HD
ENDBRANCH  22  25
ENDBRANCH  19  22
ENDBRANCH  16  19
ENDBRANCH  13  16
ENDBRANCH   7  13
ENDBRANCH   4   7
ENDBRANCH   1   3
BRANCH   1  29
ATOM     29  CB  LEU d   1       4.286  21.605  16.432  0.00  0.00    -0.035 C 
ATOM     30  H18 LEU d   1       3.373  22.173  16.665  0.00  0.00     0.037 H 
ATOM     31  H19 LEU d   1       4.796  22.067  15.574  0.00  0.00     0.037 H 
BRANCH  29  32
ATOM     32  CG  LEU d   1       5.231  21.638  17.661  0.00  0.00    -0.059 C 
ATOM     33  H20 LEU d   1       4.935  20.837  18.354  0.00  0.00     0.038 H 
BRANCH  32  34
ATOM     34  CD1 LEU d   1       6.662  21.385  17.212  0.00  0.00    -0.073 C 
ATOM     35  H21 LEU d   1       7.330  21.409  18.086  0.00  0.00     0.028 H 
ATOM     36  H22 LEU d   1       6.965  22.164  16.497  0.00  0.00     0.028 H 
ATOM     37  H23 LEU d   1       6.726  20.399  16.729  0.00  0.00     0.028 H 
ENDBRANCH  32  34
BRANCH  32  38
ATOM     38  CD2 LEU d   1       5.114  22.961  18.383  0.00  0.00    -0.073 C 
ATOM     39  H24 LEU d   1       4.071  23.117  18.695  0.00  0.00     0.028 H 
ATOM     40  H25 LEU d   1       5.421  23.775  17.709  0.00  0.00     0.028 H 
ATOM     41  H26 LEU d   1       5.765  22.954  19.270  0.00  0.00     0.028 H 
ENDBRANCH  32  38
ENDBRANCH  29  32
ENDBRANCH   1  29
BRANCH   1  42
ATOM     42  C   LEU d   1       2.598  20.154  15.288  0.00  0.00     0.241 C 
ATOM     43  O   LEU d   1       2.555  20.452  14.102  0.00  0.00    -0.271 OA
ATOM     44  N   LYS d   1       1.510  19.725  15.938  0.00  0.00    -0.345 N 
ATOM     45  H27 LYS d   1       1.576  19.415  16.886  0.00  0.00     0.163 HD
BRANCH  44  46
ATOM     46  CA  LYS d   1       0.226  19.715  15.246  0.00  0.00     0.096 C 
ATOM     47  H28 LYS d   1       0.360  20.097  14.223  0.00  0.00     0.089 H 
BRANCH  46  48
ATOM     48  CB  LYS d   1      -0.384  18.305  15.197  0.00  0.00    -0.037 C 
ATOM     49  H29 LYS d   1      -0.865  18.076  16.159  0.00  0.00     0.036 H 
ATOM     50  H30 LYS d   1       0.407  17.567  14.998  0.00  0.00     0.036 H 
BRANCH  48  51
ATOM     51  CG  LYS d   1      -1.430  18.258  14.072  0.00  0.00    -0.061 C 
ATOM     52  H31 LYS d   1      -0.926  18.395  13.104  0.00  0.00     0.033 H 
ATOM     53  H32 LYS d   1      -2.160  19.067  14.223  0.00  0.00     0.033 H 
BRANCH  51  54
ATOM     54  CD  LYS d   1      -2.152  16.930  14.072  0.00  0.00    -0.043 C 
ATOM     55  H33 LYS d   1      -2.455  16.686  15.101  0.00  0.00     0.035 H 
ATOM     56  H34 LYS d   1      -1.473  16.151  13.695  0.00  0.00     0.035 H 
BRANCH  54  57
ATOM     57  CE  LYS d   1      -3.397  16.982  13.182  0.00  0.00     0.080 C 
ATOM     58  H35 LYS d   1      -3.900  17.954  13.294  0.00  0.00     0.075 H 
ATOM     59  H36 LYS d   1      -4.092  16.175  13.458  0.00  0.00     0.075 H 
BRANCH  57  60
ATOM     60  NZ  LYS d   1      -2.939  16.803  11.777  0.00  0.00    -0.079 N 
ATOM     61  H37 LYS d   1      -3.734  16.832  11.158  0.00  0.00     0.274 HD
ATOM     62  H38 LYS d   1      -2.474  15.913  11.686  0.00  0.00     0.274 HD
ATOM     63  H39 LYS d   1      -2.299  17.543  11.536  0.00  0.00     0.274 HD
ENDBRANCH  57  60
ENDBRANCH  54  57
ENDBRANCH  51  54
ENDBRANCH  48  51
ENDBRANCH  46  48
BRANCH  46  64
ATOM     64  C   LYS d   1      -0.757  20.601  16.022  0.00  0.00     0.196 C 
ATOM     65  O   LYS d   1      -1.767  20.934  15.374  0.00  0.00    -0.646 OA
ATOM     66  OXT LYS d   1      -0.494  20.934  17.197  0.00  0.00    -0.646 OA
ENDBRANCH  46  64
ENDBRANCH  44  46
ENDBRANCH   1  42
TORSDOF 20
