REMARK WARNING: 32 MAX_TORS EXCEEDED!!!
REMARK  35 active torsions:
REMARK  status: ('A' for Active; 'I' for Inactive)
REMARK    1  A    between atoms: CA_2  and  N_1 
REMARK    2  A    between atoms: C_3  and  CA_2 
REMARK    3  A    between atoms: CA_2  and  CB_5 
REMARK       I    between atoms: N_12  and  C_3 
REMARK    4  A    between atoms: CB_5  and  CG_6 
REMARK    5  A    between atoms: CG_6  and  CD_7 
REMARK    6  A    between atoms: CD_7  and  NE_8 
REMARK       I    between atoms: NE_8  and  CZ_9 
REMARK       I    between atoms: CZ_9  and  NH1_10 
REMARK    7  A    between atoms: CA_13  and  N_12 
REMARK    8  A    between atoms: C_14  and  CA_13 
REMARK    9  A    between atoms: CA_13  and  CB_16 
REMARK       I    between atoms: N_19  and  C_14 
REMARK   10  A    between atoms: CB_16  and  CG1_17 
REMARK   11  A    between atoms: CB_16  and  CG2_18 
REMARK   12  A    between atoms: CA_20  and  N_19 
REMARK   13  A    between atoms: C_21  and  CA_20 
REMARK   14  A    between atoms: CA_20  and  CB_23 
REMARK       I    between atoms: N_27  and  C_21 
REMARK   15  A    between atoms: CB_23  and  CG_24 
REMARK   16  A    between atoms: CG_24  and  CD2_26 
REMARK   17  A    between atoms: CG_24  and  CD1_25 
REMARK   18  A    between atoms: CA_28  and  N_27 
REMARK   19  A    between atoms: C_29  and  CA_28 
REMARK   20  A    between atoms: CA_28  and  CB_31 
REMARK       I    between atoms: N_38  and  C_29 
REMARK   21  A    between atoms: CB_31  and  CG_32 
REMARK   22  A    between atoms: CA_39  and  N_38 
REMARK   23  A    between atoms: C_40  and  CA_39 
REMARK   24  A    between atoms: CA_39  and  CB_42 
REMARK       I    between atoms: N_47  and  C_40 
REMARK   25  A    between atoms: CB_42  and  CG_43 
REMARK   26  A    between atoms: CG_43  and  CD_44 
REMARK   27  A    between atoms: CA_48  and  N_47 
REMARK   28  A    between atoms: C_49  and  CA_48 
REMARK   29  A    between atoms: CA_48  and  CB_51 
REMARK       I    between atoms: C_49  and  N_52 
REMARK   30  A    between atoms: N_52  and  CA_53 
REMARK   31  A    between atoms: CA_53  and  CB_56 
REMARK   32  A    between atoms: CA_53  and  C_54 
REMARK       I    between atoms: C_54  and  N_60 
REMARK   33  A    between atoms: CB_56  and  CG_57 
REMARK   34  A    between atoms: CG_57  and  CD_58 
REMARK   35  A    between atoms: CD_58  and  CE_59 
ROOT
ATOM      1  CA  0Q4 d   1      -1.344  17.561  32.290  0.00  0.00     0.093 C 
ATOM      2  H37 0Q4 d   1      -1.650  18.592  32.520  0.00  0.00     0.088 H 
ENDROOT
BRANCH   1   3
ATOM      3  C   0Q4 d   1      -2.452  16.588  32.781  0.00  0.00     0.241 C 
ATOM      4  O   0Q4 d   1      -2.205  15.388  32.924  0.00  0.00    -0.271 OA
ATOM      5  N   0Q4 d   1      -3.615  17.134  33.138  0.00  0.00    -0.346 N 
ATOM      6  H45 0Q4 d   1      -3.735  18.120  33.022  0.00  0.00     0.163 HD
BRANCH   5   7
ATOM      7  CA  0Q4 d   1      -4.726  16.356  33.693  0.00  0.00     0.090 C 
ATOM      8  H46 0Q4 d   1      -4.521  15.299  33.468  0.00  0.00     0.087 H 
BRANCH   7   9
ATOM      9  C   0Q4 d   1      -6.111  16.673  33.120  0.00  0.00     0.241 C 
ATOM     10  O   0Q4 d   1      -6.534  17.828  33.035  0.00  0.00    -0.271 OA
ATOM     11  N   0Q4 d   1      -6.878  15.624  32.875  0.00  0.00    -0.346 N 
ATOM     12  H51 0Q4 d   1      -6.535  14.706  33.072  0.00  0.00     0.163 HD
BRANCH  11  13
ATOM     13  CA  0Q4 d   1      -8.207  15.787  32.326  0.00  0.00     0.086 C 
ATOM     14  H52 0Q4 d   1      -8.546  16.797  32.602  0.00  0.00     0.086 H 
BRANCH  13  15
ATOM     15  C   0Q4 d   1      -9.293  14.800  32.823  0.00  0.00     0.240 C 
ATOM     16  O   0Q4 d   1      -9.026  13.635  33.125  0.00  0.00    -0.271 OA
ATOM     17  N   0Q4 d   1     -10.526  15.295  32.840  0.00  0.00    -0.346 N 
ATOM     18  H56 0Q4 d   1     -10.649  16.257  32.597  0.00  0.00     0.163 HD
BRANCH  17  19
ATOM     19  CA  0Q4 d   1     -11.710  14.522  33.191  0.00  0.00     0.089 C 
ATOM     20  H57 0Q4 d   1     -11.656  14.169  34.231  0.00  0.00     0.087 H 
BRANCH  19  21
ATOM     21  CB  0Q4 d   1     -12.964  15.412  32.992  0.00  0.00    -0.038 C 
ATOM     22  H58 0Q4 d   1     -12.740  16.119  32.179  0.00  0.00     0.036 H 
ATOM     23  H59 0Q4 d   1     -13.125  15.968  33.928  0.00  0.00     0.036 H 
BRANCH  21  24
ATOM     24  CG  0Q4 d   1     -14.314  14.697  32.633  0.00  0.00    -0.063 C 
ATOM     25  H60 0Q4 d   1     -15.139  15.286  33.060  0.00  0.00     0.033 H 
ATOM     26  H61 0Q4 d   1     -14.304  13.696  33.089  0.00  0.00     0.033 H 
BRANCH  24  27
ATOM     27  CD  0Q4 d   1     -14.579  14.530  31.085  0.00  0.00    -0.068 C 
ATOM     28  H62 0Q4 d   1     -13.656  14.184  30.597  0.00  0.00     0.032 H 
ATOM     29  H63 0Q4 d   1     -14.874  15.502  30.664  0.00  0.00     0.032 H 
BRANCH  27  30
ATOM     30  CE  0Q4 d   1     -15.682  13.524  30.828  0.00  0.00    -0.077 C 
ATOM     31  H64 0Q4 d   1     -15.845  13.428  29.744  0.00  0.00     0.027 H 
ATOM     32  H65 0Q4 d   1     -16.610  13.866  31.309  0.00  0.00     0.027 H 
ATOM     33  H66 0Q4 d   1     -15.392  12.548  31.243  0.00  0.00     0.027 H 
ENDBRANCH  27  30
ENDBRANCH  24  27
ENDBRANCH  21  24
ENDBRANCH  19  21
BRANCH  19  34
ATOM     34  C   0Q4 d   1     -11.748  13.334  32.215  0.00  0.00     0.238 C 
ATOM     35  O   0Q4 d   1     -11.875  12.152  32.650  0.00  0.00    -0.271 OA
ATOM     36  N   0Q4 d   1     -11.613  13.610  30.997  0.00  0.00    -0.368 N 
ATOM     37  H67 0Q4 d   1     -11.629  12.880  30.314  0.00  0.00     0.159 HD
ATOM     38  H68 0Q4 d   1     -11.489  14.560  30.710  0.00  0.00     0.159 HD
ENDBRANCH  19  34
ENDBRANCH  17  19
ENDBRANCH  13  15
BRANCH  13  39
ATOM     39  CB  0Q4 d   1      -8.114  15.709  30.814  0.00  0.00    -0.049 C 
ATOM     40  H53 0Q4 d   1      -9.117  15.831  30.378  0.00  0.00     0.030 H 
ATOM     41  H54 0Q4 d   1      -7.704  14.731  30.522  0.00  0.00     0.030 H 
ATOM     42  H55 0Q4 d   1      -7.454  16.508  30.445  0.00  0.00     0.030 H 
ENDBRANCH  13  39
ENDBRANCH  11  13
ENDBRANCH   7   9
BRANCH   7  43
ATOM     43  CB  0Q4 d   1      -4.749  16.528  35.238  0.00  0.00    -0.029 C 
ATOM     44  H47 0Q4 d   1      -4.927  17.593  35.449  0.00  0.00     0.037 H 
ATOM     45  H48 0Q4 d   1      -3.758  16.239  35.617  0.00  0.00     0.037 H 
BRANCH  43  46
ATOM     46  CG  0Q4 d   1      -5.782  15.732  36.012  0.00  0.00     0.018 C 
ATOM     47  H49 0Q4 d   1      -5.393  15.545  37.024  0.00  0.00     0.049 H 
ATOM     48  H50 0Q4 d   1      -5.942  14.773  35.498  0.00  0.00     0.049 H 
BRANCH  46  49
ATOM     49  CD  0Q4 d   1      -7.133  16.453  36.133  0.00  0.00     0.172 C 
ATOM     50  OE1 0Q4 d   1      -7.141  17.657  36.450  0.00  0.00    -0.648 OA
ATOM     51  OE2 0Q4 d   1      -8.204  15.829  35.910  0.00  0.00    -0.648 OA
ENDBRANCH  46  49
ENDBRANCH  43  46
ENDBRANCH   7  43
ENDBRANCH   5   7
ENDBRANCH   1   3
BRANCH   1  52
ATOM     52  CB  0Q4 d   1      -0.977  17.480  30.778  0.00  0.00    -0.014 C 
ATOM     53  H38 0Q4 d   1      -0.217  16.694  30.654  0.00  0.00     0.043 H 
ATOM     54  H39 0Q4 d   1      -0.553  18.450  30.479  0.00  0.00     0.043 H 
BRANCH  52  55
ATOM     55  CG  0Q4 d   1      -2.103  17.174  29.871  0.00  0.00    -0.056 A 
ATOM     56  CD2 0Q4 d   1      -2.708  18.184  29.130  0.00  0.00    -0.077 A 
ATOM     57  CE2 0Q4 d   1      -3.823  17.905  28.283  0.00  0.00    -0.082 A 
ATOM     58  H41 0Q4 d   1      -2.328  19.197  29.197  0.00  0.00     0.084 H 
ATOM     59  CZ  0Q4 d   1      -4.316  16.604  28.194  0.00  0.00    -0.083 A 
ATOM     60  H43 0Q4 d   1      -4.285  18.702  27.711  0.00  0.00     0.083 H 
ATOM     61  CE1 0Q4 d   1      -3.703  15.588  28.935  0.00  0.00    -0.082 A 
ATOM     62  H44 0Q4 d   1      -5.165  16.382  27.558  0.00  0.00     0.083 H 
ATOM     63  CD1 0Q4 d   1      -2.597  15.881  29.766  0.00  0.00    -0.077 A 
ATOM     64  H42 0Q4 d   1      -4.077  14.573  28.872  0.00  0.00     0.083 H 
ATOM     65  H40 0Q4 d   1      -2.127  15.083  30.330  0.00  0.00     0.084 H 
ENDBRANCH  52  55
ENDBRANCH   1  52
BRANCH   1  66
ATOM     66  N   0Q4 d   1      -0.141  17.196  33.047  0.00  0.00    -0.346 N 
ATOM     67  C   0Q4 d   1      -0.003  17.405  34.344  0.00  0.00     0.241 C 
ATOM     68  O   0Q4 d   1      -0.895  17.880  35.045  0.00  0.00    -0.271 OA
ATOM     69  H36 0Q4 d   1       0.615  16.766  32.554  0.00  0.00     0.163 HD
BRANCH  67  70
ATOM     70  CA  0Q4 d   1       1.302  16.914  34.957  0.00  0.00     0.089 C 
ATOM     71  H26 0Q4 d   1       1.204  15.820  35.012  0.00  0.00     0.087 H 
BRANCH  70  72
ATOM     72  CB  0Q4 d   1       1.490  17.417  36.409  0.00  0.00    -0.035 C 
ATOM     73  H27 0Q4 d   1       0.697  16.973  37.028  0.00  0.00     0.037 H 
ATOM     74  H28 0Q4 d   1       1.383  18.512  36.406  0.00  0.00     0.037 H 
BRANCH  72  75
ATOM     75  CG  0Q4 d   1       2.859  17.069  37.059  0.00  0.00    -0.059 C 
ATOM     76  H29 0Q4 d   1       3.648  17.519  36.439  0.00  0.00     0.038 H 
BRANCH  75  77
ATOM     77  CD2 0Q4 d   1       3.060  15.565  37.071  0.00  0.00    -0.073 C 
ATOM     78  H33 0Q4 d   1       2.952  15.173  36.049  0.00  0.00     0.028 H 
ATOM     79  H34 0Q4 d   1       2.307  15.100  37.724  0.00  0.00     0.028 H 
ATOM     80  H35 0Q4 d   1       4.066  15.333  37.449  0.00  0.00     0.028 H 
ENDBRANCH  75  77
BRANCH  75  81
ATOM     81  CD1 0Q4 d   1       3.007  17.622  38.476  0.00  0.00    -0.073 C 
ATOM     82  H30 0Q4 d   1       3.992  17.343  38.878  0.00  0.00     0.028 H 
ATOM     83  H31 0Q4 d   1       2.217  17.203  39.117  0.00  0.00     0.028 H 
ATOM     84  H32 0Q4 d   1       2.918  18.718  38.453  0.00  0.00     0.028 H 
ENDBRANCH  75  81
ENDBRANCH  72  75
ENDBRANCH  70  72
BRANCH  70  85
ATOM     85  N   0Q4 d   1       2.510  17.166  34.194  0.00  0.00    -0.346 N 
ATOM     86  C   0Q4 d   1       2.998  16.256  33.370  0.00  0.00     0.241 C 
ATOM     87  O   0Q4 d   1       2.367  15.241  33.103  0.00  0.00    -0.271 OA
ATOM     88  H25 0Q4 d   1       2.981  18.043  34.293  0.00  0.00     0.163 HD
BRANCH  86  89
ATOM     89  CA  0Q4 d   1       4.334  16.617  32.670  0.00  0.00     0.092 C 
ATOM     90  H17 0Q4 d   1       4.480  17.697  32.820  0.00  0.00     0.088 H 
BRANCH  89  91
ATOM     91  CB  0Q4 d   1       4.330  16.367  31.075  0.00  0.00    -0.033 C 
ATOM     92  H18 0Q4 d   1       4.332  15.282  30.894  0.00  0.00     0.042 H 
BRANCH  91  93
ATOM     93  CG1 0Q4 d   1       3.098  16.981  30.406  0.00  0.00    -0.071 C 
ATOM     94  H19 0Q4 d   1       3.134  16.788  29.324  0.00  0.00     0.028 H 
ATOM     95  H20 0Q4 d   1       3.086  18.066  30.585  0.00  0.00     0.028 H 
ATOM     96  H21 0Q4 d   1       2.188  16.529  30.828  0.00  0.00     0.028 H 
ENDBRANCH  91  93
BRANCH  91  97
ATOM     97  CG2 0Q4 d   1       5.579  16.993  30.422  0.00  0.00    -0.071 C 
ATOM     98  H22 0Q4 d   1       6.484  16.571  30.883  0.00  0.00     0.028 H 
ATOM     99  H23 0Q4 d   1       5.565  18.082  30.573  0.00  0.00     0.028 H 
ATOM    100  H24 0Q4 d   1       5.579  16.772  29.344  0.00  0.00     0.028 H 
ENDBRANCH  91  97
ENDBRANCH  89  91
BRANCH  89 101
ATOM    101  N   0Q4 d   1       5.477  15.939  33.284  0.00  0.00    -0.346 N 
ATOM    102  C   0Q4 d   1       6.583  16.583  33.691  0.00  0.00     0.249 C 
ATOM    103  O   0Q4 d   1       6.732  17.813  33.564  0.00  0.00    -0.271 OA
ATOM    104  H16 0Q4 d   1       5.432  14.947  33.406  0.00  0.00     0.163 HD
BRANCH 102 105
ATOM    105  CA  0Q4 d   1       7.738  15.704  34.269  0.00  0.00     0.176 C 
ATOM    106  H4  0Q4 d   1       7.498  14.648  34.079  0.00  0.00     0.099 H 
BRANCH 105 107
ATOM    107  CB  0Q4 d   1       7.933  15.891  35.779  0.00  0.00    -0.029 C 
ATOM    108  H5  0Q4 d   1       8.072  16.966  35.966  0.00  0.00     0.036 H 
ATOM    109  H6  0Q4 d   1       8.845  15.348  36.066  0.00  0.00     0.036 H 
BRANCH 107 110
ATOM    110  CG  0Q4 d   1       6.774  15.395  36.710  0.00  0.00    -0.047 C 
ATOM    111  H7  0Q4 d   1       5.845  15.398  36.121  0.00  0.00     0.035 H 
ATOM    112  H8  0Q4 d   1       6.683  16.108  37.543  0.00  0.00     0.035 H 
BRANCH 110 113
ATOM    113  CD  0Q4 d   1       6.949  13.961  37.323  0.00  0.00     0.009 C 
ATOM    114  H9  0Q4 d   1       7.658  13.404  36.693  0.00  0.00     0.064 H 
ATOM    115  H10 0Q4 d   1       5.970  13.460  37.305  0.00  0.00     0.064 H 
BRANCH 113 116
ATOM    116  NE  0Q4 d   1       7.449  13.937  38.704  0.00  0.00    -0.227 N 
ATOM    117  CZ  0Q4 d   1       6.771  14.379  39.766  0.00  0.00     0.665 C 
ATOM    118  NH1 0Q4 d   1       5.552  14.865  39.602  0.00  0.00    -0.235 N 
ATOM    119  NH2 0Q4 d   1       7.354  14.451  40.972  0.00  0.00    -0.235 N 
ATOM    120  H12 0Q4 d   1       5.021  15.208  40.415  0.00  0.00     0.174 HD
ATOM    121  H13 0Q4 d   1       5.134  14.900  38.661  0.00  0.00     0.174 HD
ATOM    122  H14 0Q4 d   1       8.303  14.075  41.108  0.00  0.00     0.174 HD
ATOM    123  H15 0Q4 d   1       6.853  14.882  41.761  0.00  0.00     0.174 HD
ATOM    124  H11 0Q4 d   1       8.390  13.551  38.865  0.00  0.00     0.177 HD
ENDBRANCH 113 116
ENDBRANCH 110 113
ENDBRANCH 107 110
ENDBRANCH 105 107
BRANCH 105 125
ATOM    125  N   0Q4 d   1       9.011  16.052  33.566  0.00  0.00    -0.067 N 
ATOM    126  H1  0Q4 d   1       9.762  15.489  33.933  0.00  0.00     0.275 HD
ATOM    127  H2  0Q4 d   1       9.220  17.027  33.712  0.00  0.00     0.275 HD
ATOM    128  H3  0Q4 d   1       8.909  15.874  32.579  0.00  0.00     0.275 HD
ENDBRANCH 105 125
ENDBRANCH 102 105
ENDBRANCH  89 101
ENDBRANCH  86  89
ENDBRANCH  70  85
ENDBRANCH  67  70
ENDBRANCH   1  66
TORSDOF 35
