REMARK  20 active torsions:
REMARK  status: ('A' for Active; 'I' for Inactive)
REMARK    1  A    between atoms: C1_1  and  O1_38 
REMARK    2  A    between atoms: C1_1  and  C4_4 
REMARK    3  A    between atoms: C1_1  and  C3_3 
REMARK    4  A    between atoms: C1_1  and  C2_2 
REMARK    5  A    between atoms: O1_38  and  C5_5 
REMARK       I    between atoms: C5_5  and  N1_31 
REMARK    6  A    between atoms: N1_31  and  C6_6 
REMARK    7  A    between atoms: C6_6  and  C14_14 
REMARK    8  A    between atoms: C6_6  and  C7_7 
REMARK    9  A    between atoms: C7_7  and  C8_8 
REMARK   10  A    between atoms: C14_14  and  O3_36 
REMARK   11  A    between atoms: C14_14  and  C15_15 
REMARK   12  A    between atoms: C15_15  and  C16_16 
REMARK   13  A    between atoms: C16_16  and  C24_24 
REMARK   14  A    between atoms: C16_16  and  C17_17 
REMARK   15  A    between atoms: C17_17  and  C18_18 
REMARK       I    between atoms: C24_24  and  N2_32 
REMARK   16  A    between atoms: N2_32  and  C25_25 
REMARK   17  A    between atoms: C25_25  and  C29_28 
REMARK   18  A    between atoms: C25_25  and  C26_26 
REMARK   19  A    between atoms: C26_26  and  C28_27 
REMARK   20  A    between atoms: C26_26  and  C27_39 
ROOT
ATOM      1  C15 IM1 d   1      -8.960  16.898  27.865  0.00  0.00    -0.028 C 
ATOM      2  H19 IM1 d   1      -8.516  15.901  28.001  0.00  0.00     0.038 H 
ATOM      3  H20 IM1 d   1      -8.906  17.456  28.812  0.00  0.00     0.038 H 
ENDROOT
BRANCH   1   4
ATOM      4  C14 IM1 d   1     -10.421  16.700  27.541  0.00  0.00     0.056 C 
ATOM      5  H18 IM1 d   1     -10.542  16.373  26.498  0.00  0.00     0.086 H 
BRANCH   4   6
ATOM      6  C6  IM1 d   1     -11.034  15.620  28.477  0.00  0.00     0.043 C 
ATOM      7  H10 IM1 d   1     -10.434  14.701  28.404  0.00  0.00     0.077 H 
BRANCH   6   8
ATOM      8  N1  IM1 d   1     -11.009  16.102  29.852  0.00  0.00    -0.329 N 
ATOM      9  C5  IM1 d   1     -10.081  15.752  30.735  0.00  0.00     0.361 C 
ATOM     10  O2  IM1 d   1      -9.169  14.989  30.422  0.00  0.00    -0.238 OA
ATOM     11  H36 IM1 d   1     -11.729  16.730  30.146  0.00  0.00     0.165 HD
BRANCH   9  12
ATOM     12  O1  IM1 d   1     -10.118  16.278  32.027  0.00  0.00    -0.294 OA
BRANCH  12  13
ATOM     13  C1  IM1 d   1     -10.652  15.608  33.122  0.00  0.00     0.061 C 
BRANCH  13  14
ATOM     14  C4  IM1 d   1     -10.514  16.501  34.343  0.00  0.00    -0.048 C 
ATOM     15  H7  IM1 d   1     -10.932  15.988  35.222  0.00  0.00     0.031 H 
ATOM     16  H8  IM1 d   1     -11.060  17.441  34.174  0.00  0.00     0.031 H 
ATOM     17  H9  IM1 d   1      -9.451  16.721  34.518  0.00  0.00     0.031 H 
ENDBRANCH  13  14
BRANCH  13  18
ATOM     18  C3  IM1 d   1      -9.839  14.368  33.450  0.00  0.00    -0.048 C 
ATOM     19  H4  IM1 d   1     -10.282  13.858  34.318  0.00  0.00     0.031 H 
ATOM     20  H5  IM1 d   1      -8.805  14.659  33.685  0.00  0.00     0.031 H 
ATOM     21  H6  IM1 d   1      -9.841  13.688  32.585  0.00  0.00     0.031 H 
ENDBRANCH  13  18
BRANCH  13  22
ATOM     22  C2  IM1 d   1     -12.132  15.312  32.915  0.00  0.00    -0.048 C 
ATOM     23  H1  IM1 d   1     -12.527  14.783  33.795  0.00  0.00     0.031 H 
ATOM     24  H2  IM1 d   1     -12.259  14.683  32.022  0.00  0.00     0.031 H 
ATOM     25  H3  IM1 d   1     -12.679  16.256  32.779  0.00  0.00     0.031 H 
ENDBRANCH  13  22
ENDBRANCH  12  13
ENDBRANCH   9  12
ENDBRANCH   6   8
BRANCH   6  26
ATOM     26  C7  IM1 d   1     -12.474  15.305  28.071  0.00  0.00    -0.020 C 
ATOM     27  H11 IM1 d   1     -12.487  14.988  27.018  0.00  0.00     0.043 H 
ATOM     28  H12 IM1 d   1     -13.085  16.212  28.188  0.00  0.00     0.043 H 
BRANCH  26  29
ATOM     29  C8  IM1 d   1     -13.069  14.193  28.930  0.00  0.00    -0.056 A 
ATOM     30  C13 IM1 d   1     -12.620  12.870  28.786  0.00  0.00    -0.077 A 
ATOM     31  C12 IM1 d   1     -13.156  11.853  29.570  0.00  0.00    -0.082 A 
ATOM     32  H17 IM1 d   1     -11.850  12.639  28.059  0.00  0.00     0.084 H 
ATOM     33  C11 IM1 d   1     -14.138  12.143  30.500  0.00  0.00    -0.083 A 
ATOM     34  H16 IM1 d   1     -12.804  10.834  29.452  0.00  0.00     0.083 H 
ATOM     35  C10 IM1 d   1     -14.590  13.458  30.648  0.00  0.00    -0.082 A 
ATOM     36  H15 IM1 d   1     -14.556  11.353  31.113  0.00  0.00     0.083 H 
ATOM     37  C9  IM1 d   1     -14.065  14.490  29.870  0.00  0.00    -0.077 A 
ATOM     38  H14 IM1 d   1     -15.360  13.679  31.378  0.00  0.00     0.083 H 
ATOM     39  H13 IM1 d   1     -14.422  15.506  29.991  0.00  0.00     0.084 H 
ENDBRANCH  26  29
ENDBRANCH   6  26
ENDBRANCH   4   6
BRANCH   4  40
ATOM     40  O3  IM1 d   1     -11.013  18.005  27.715  0.00  0.00    -0.393 OA
ATOM     41  H39 IM1 d   1     -11.943  17.957  27.528  0.00  0.00     0.210 HD
ENDBRANCH   4  40
ENDBRANCH   1   4
BRANCH   1  42
ATOM     42  C16 IM1 d   1      -8.128  17.621  26.879  0.00  0.00     0.030 C 
ATOM     43  H21 IM1 d   1      -8.597  18.582  26.621  0.00  0.00     0.055 H 
BRANCH  42  44
ATOM     44  C24 IM1 d   1      -8.019  16.777  25.607  0.00  0.00     0.222 C 
ATOM     45  O4  IM1 d   1      -7.748  15.582  25.660  0.00  0.00    -0.273 OA
ATOM     46  N2  IM1 d   1      -8.202  17.405  24.455  0.00  0.00    -0.349 N 
ATOM     47  H37 IM1 d   1      -8.412  18.383  24.460  0.00  0.00     0.163 HD
BRANCH  46  48
ATOM     48  C25 IM1 d   1      -8.105  16.703  23.180  0.00  0.00     0.072 C 
ATOM     49  H29 IM1 d   1      -7.768  15.668  23.341  0.00  0.00     0.085 H 
BRANCH  48  50
ATOM     50  C29 IM1 d   1      -7.061  17.491  22.388  0.00  0.00     0.126 A 
ATOM     51  N4  IM1 d   1      -6.982  18.804  22.328  0.00  0.00    -0.244 NA
ATOM     52  C31 IM1 d   1      -5.843  19.015  21.568  0.00  0.00     0.019 A 
ATOM     53  C30 IM1 d   1      -5.296  17.792  21.195  0.00  0.00    -0.005 A 
ATOM     54  H35 IM1 d   1      -5.438  19.990  21.303  0.00  0.00     0.117 H 
ATOM     55  N3  IM1 d   1      -6.122  16.840  21.746  0.00  0.00    -0.351 N 
ATOM     56  H34 IM1 d   1      -4.403  17.624  20.594  0.00  0.00     0.113 H 
ATOM     57  H38 IM1 d   1      -6.022  15.818  21.669  0.00  0.00     0.166 HD
ENDBRANCH  48  50
BRANCH  48  58
ATOM     58  C26 IM1 d   1      -9.446  16.683  22.422  0.00  0.00    -0.035 C 
ATOM     59  H30 IM1 d   1      -9.770  17.718  22.236  0.00  0.00     0.042 H 
BRANCH  58  60
ATOM     60  C28 IM1 d   1     -10.512  15.966  23.226  0.00  0.00    -0.071 C 
ATOM     61  H31 IM1 d   1     -11.457  15.966  22.664  0.00  0.00     0.028 H 
ATOM     62  H32 IM1 d   1     -10.657  16.483  24.186  0.00  0.00     0.028 H 
ATOM     63  H33 IM1 d   1     -10.196  14.929  23.412  0.00  0.00     0.028 H 
ENDBRANCH  58  60
BRANCH  58  64
ATOM     64  C27 IM1 d   1      -9.254  15.956  21.078  0.00  0.00    -0.071 C 
ATOM     65  H40 IM1 d   1      -8.482  16.472  20.489  0.00  0.00     0.028 H 
ATOM     66  H41 IM1 d   1     -10.203  15.960  20.521  0.00  0.00     0.028 H 
ATOM     67  H42 IM1 d   1      -8.942  14.918  21.264  0.00  0.00     0.028 H 
ENDBRANCH  58  64
ENDBRANCH  48  58
ENDBRANCH  46  48
ENDBRANCH  42  44
BRANCH  42  68
ATOM     68  C17 IM1 d   1      -6.763  17.895  27.582  0.00  0.00    -0.029 C 
ATOM     69  H22 IM1 d   1      -6.556  17.067  28.276  0.00  0.00     0.041 H 
ATOM     70  H23 IM1 d   1      -6.844  18.835  28.147  0.00  0.00     0.041 H 
BRANCH  68  71
ATOM     71  C18 IM1 d   1      -5.598  18.014  26.614  0.00  0.00    -0.057 A 
ATOM     72  C23 IM1 d   1      -4.691  16.951  26.500  0.00  0.00    -0.077 A 
ATOM     73  C22 IM1 d   1      -3.696  16.995  25.538  0.00  0.00    -0.082 A 
ATOM     74  H28 IM1 d   1      -4.768  16.097  27.163  0.00  0.00     0.084 H 
ATOM     75  C21 IM1 d   1      -3.602  18.094  24.695  0.00  0.00    -0.083 A 
ATOM     76  H27 IM1 d   1      -2.994  16.175  25.444  0.00  0.00     0.083 H 
ATOM     77  C20 IM1 d   1      -4.503  19.151  24.805  0.00  0.00    -0.082 A 
ATOM     78  H26 IM1 d   1      -2.821  18.130  23.945  0.00  0.00     0.083 H 
ATOM     79  C19 IM1 d   1      -5.506  19.121  25.761  0.00  0.00    -0.077 A 
ATOM     80  H25 IM1 d   1      -4.419  20.002  24.139  0.00  0.00     0.083 H 
ATOM     81  H24 IM1 d   1      -6.209  19.942  25.847  0.00  0.00     0.084 H 
ENDBRANCH  68  71
ENDBRANCH  42  68
ENDBRANCH   1  42
TORSDOF 20
