REMARK  3 active torsions:
REMARK  status: ('A' for Active; 'I' for Inactive)
REMARK    1  A    between atoms: C3_3  and  O3_21 
REMARK    2  A    between atoms: C5_5  and  O4_22 
REMARK    3  A    between atoms: C17_17  and  C18_18 
ROOT
ATOM      1  C1  RDC d   1      18.469  -2.407  -5.876  0.00  0.00     0.297 C 
ATOM      2  C2  RDC d   1      18.510  -3.231  -4.624  0.00  0.00     0.081 A 
ATOM      3  C3  RDC d   1      19.479  -4.316  -4.580  0.00  0.00     0.085 A 
ATOM      4  C4  RDC d   1      19.600  -5.156  -3.476  0.00  0.00    -0.016 A 
ATOM      5  C5  RDC d   1      18.783  -4.960  -2.370  0.00  0.00     0.090 A 
ATOM      6  C6  RDC d   1      17.812  -3.900  -2.354  0.00  0.00     0.075 A 
ATOM      7  C7  RDC d   1      17.655  -3.025  -3.456  0.00  0.00    -0.007 A 
ATOM      8  C8  RDC d   1      16.589  -1.883  -3.401  0.00  0.00     0.021 C 
ATOM      9  C9  RDC d   1      15.075  -2.234  -3.357  0.00  0.00     0.153 C 
ATOM     10  C10 RDC d   1      14.557  -3.415  -4.069  0.00  0.00    -0.038 C 
ATOM     11  C11 RDC d   1      14.644  -3.611  -5.381  0.00  0.00    -0.080 C 
ATOM     12  C12 RDC d   1      14.134  -4.786  -6.082  0.00  0.00    -0.084 C 
ATOM     13  C13 RDC d   1      14.212  -5.004  -7.396  0.00  0.00    -0.073 C 
ATOM     14  C14 RDC d   1      14.792  -4.224  -8.582  0.00  0.00     0.080 A 
ATOM     15  C15 RDC d   1      15.029  -2.810  -8.602  0.00  0.00     0.070 A 
ATOM     16  C16 RDC d   1      16.473  -2.327  -8.700  0.00  0.00    -0.014 C 
ATOM     17  C17 RDC d   1      17.031  -1.434  -7.619  0.00  0.00     0.047 C 
ATOM     18  O1  RDC d   1      17.250  -2.220  -6.382  0.00  0.00    -0.312 OA
ATOM     19  O2  RDC d   1      19.491  -1.935  -6.409  0.00  0.00    -0.259 OA
ATOM     20  O5  RDC d   1      14.311  -1.557  -2.719  0.00  0.00    -0.293 OA
ATOM     21  O6  RDC d   1      14.203  -3.449  -9.565  0.00  0.00    -0.371 OA
ATOM     22 CL1  RDC d   1      16.865  -3.754  -0.932  0.00  0.00    -0.081 Cl
ATOM     23  H1  RDC d   1      20.328  -5.959  -3.480  0.00  0.00     0.092 H 
ATOM     24  H2  RDC d   1      16.745  -1.260  -4.294  0.00  0.00     0.052 H 
ATOM     25  H3  RDC d   1      16.804  -1.291  -2.499  0.00  0.00     0.052 H 
ATOM     26  H4  RDC d   1      14.066  -4.185  -3.476  0.00  0.00     0.089 H 
ATOM     27  H5  RDC d   1      15.131  -2.840  -5.976  0.00  0.00     0.083 H 
ATOM     28  H6  RDC d   1      13.647  -5.551  -5.479  0.00  0.00     0.083 H 
ATOM     29  H7  RDC d   1      13.762  -5.950  -7.694  0.00  0.00     0.081 H 
ATOM     30  H8  RDC d   1      15.613  -4.862  -8.941  0.00  0.00     0.093 H 
ATOM     31  H9  RDC d   1      14.520  -2.152  -7.882  0.00  0.00     0.087 H 
ATOM     32  H10 RDC d   1      16.563  -1.777  -9.648  0.00  0.00     0.040 H 
ATOM     33  H11 RDC d   1      17.109  -3.224  -8.735  0.00  0.00     0.040 H 
ATOM     34  H12 RDC d   1      17.999  -1.061  -7.984  0.00  0.00     0.083 H 
ENDROOT
BRANCH  17  35
ATOM     35  C18 RDC d   1      16.203  -0.230  -7.208  0.00  0.00    -0.051 C 
ATOM     36  H13 RDC d   1      16.730   0.325  -6.417  0.00  0.00     0.030 H 
ATOM     37  H14 RDC d   1      15.227  -0.568  -6.831  0.00  0.00     0.030 H 
ATOM     38  H15 RDC d   1      16.053   0.426  -8.078  0.00  0.00     0.030 H 
ENDBRANCH  17  35
BRANCH   3  39
ATOM     39  O3  RDC d   1      20.320  -4.584  -5.619  0.00  0.00    -0.360 OA
ATOM     40  H16 RDC d   1      20.871  -5.325  -5.396  0.00  0.00     0.217 HD
ENDBRANCH   3  39
BRANCH   5  41
ATOM     41  O4  RDC d   1      18.870  -5.771  -1.258  0.00  0.00    -0.359 OA
ATOM     42  H17 RDC d   1      18.687  -6.669  -1.507  0.00  0.00     0.217 HD
ENDBRANCH   5  41
TORSDOF 3
