REMARK  23 active torsions:
REMARK  status: ('A' for Active; 'I' for Inactive)
REMARK    1  A    between atoms: C_1  and  CH3_3 
REMARK       I    between atoms: N_4  and  C_1 
REMARK    2  A    between atoms: CA_5  and  N_4 
REMARK    3  A    between atoms: C_17  and  CA_5 
REMARK    4  A    between atoms: CA_5  and  CB_6 
REMARK    5  A    between atoms: CB_6  and  CG_7 
REMARK    6  A    between atoms: CZ_12  and  CH_13 
REMARK    7  A    between atoms: CH_13  and  CO_14 
REMARK       I    between atoms: C_17  and  N_19 
REMARK    8  A    between atoms: N_19  and  CA_20 
REMARK    9  A    between atoms: CA_20  and  C_21 
REMARK   10  A    between atoms: CA_20  and  CB_23 
REMARK       I    between atoms: C_21  and  N_28 
REMARK   11  A    between atoms: CB_23  and  CG_24 
REMARK   12  A    between atoms: CG_24  and  CD_25 
REMARK   13  A    between atoms: N_28  and  CA_29 
REMARK   14  A    between atoms: CA_29  and  C_30 
REMARK   15  A    between atoms: CA_29  and  CB_32 
REMARK       I    between atoms: C_30  and  N_37 
REMARK   16  A    between atoms: CB_32  and  CG_33 
REMARK   17  A    between atoms: CG_33  and  CD_34 
REMARK   18  A    between atoms: N_37  and  CA_38 
REMARK   19  A    between atoms: CA_38  and  C_39 
REMARK   20  A    between atoms: CA_38  and  CB_41 
REMARK   21  A    between atoms: CB_41  and  CG1_42 
REMARK   22  A    between atoms: CB_41  and  CG2_43 
REMARK   23  A    between atoms: CG1_42  and  CD1_44 
ROOT
ATOM      1  CA  GLU d   1      24.159  -1.513   1.968  0.00  0.00     0.090 C 
ATOM      2  H15 GLU d   1      23.320  -2.009   1.458  0.00  0.00     0.087 H 
ENDROOT
BRANCH   1   3
ATOM      3  C   GLU d   1      23.881  -0.005   2.092  0.00  0.00     0.241 C 
ATOM      4  O   GLU d   1      24.803   0.816   2.017  0.00  0.00    -0.271 OA
ATOM      5  N   GLU d   1      22.614   0.366   2.234  0.00  0.00    -0.346 N 
ATOM      6  H20 GLU d   1      21.894  -0.328   2.252  0.00  0.00     0.163 HD
BRANCH   5   7
ATOM      7  CA  GLU d   1      22.264   1.771   2.364  0.00  0.00     0.090 C 
ATOM      8  H21 GLU d   1      23.180   2.359   2.522  0.00  0.00     0.087 H 
BRANCH   7   9
ATOM      9  C   GLU d   1      21.330   1.931   3.554  0.00  0.00     0.241 C 
ATOM     10  O   GLU d   1      20.754   0.958   4.057  0.00  0.00    -0.271 OA
ATOM     11  N   ILE d   1      21.233   3.167   4.025  0.00  0.00    -0.344 N 
ATOM     12  H26 ILE d   1      21.801   3.885   3.623  0.00  0.00     0.163 HD
BRANCH  11  13
ATOM     13  CA  ILE d   1      20.330   3.507   5.104  0.00  0.00     0.099 C 
ATOM     14  H27 ILE d   1      20.245   2.672   5.815  0.00  0.00     0.090 H 
BRANCH  13  15
ATOM     15  C   ILE d   1      18.968   3.750   4.394  0.00  0.00     0.197 C 
ATOM     16  OXT ILE d   1      17.934   3.238   4.871  0.00  0.00    -0.646 OA
ATOM     17  O   ILE d   1      18.964   4.335   3.292  0.00  0.00    -0.646 OA
ENDBRANCH  13  15
BRANCH  13  18
ATOM     18  CB  ILE d   1      20.831   4.762   5.858  0.00  0.00    -0.029 C 
ATOM     19  H28 ILE d   1      21.257   5.458   5.120  0.00  0.00     0.043 H 
BRANCH  18  20
ATOM     20  CG1 ILE d   1      21.940   4.363   6.826  0.00  0.00    -0.063 C 
ATOM     21  H29 ILE d   1      22.758   3.912   6.246  0.00  0.00     0.033 H 
ATOM     22  H30 ILE d   1      21.534   3.619   7.528  0.00  0.00     0.033 H 
BRANCH  20  23
ATOM     23  CD1 ILE d   1      22.510   5.520   7.634  0.00  0.00    -0.076 C 
ATOM     24  H34 ILE d   1      23.299   5.146   8.303  0.00  0.00     0.027 H 
ATOM     25  H35 ILE d   1      21.709   5.979   8.233  0.00  0.00     0.027 H 
ATOM     26  H36 ILE d   1      22.933   6.271   6.951  0.00  0.00     0.027 H 
ENDBRANCH  20  23
ENDBRANCH  18  20
BRANCH  18  27
ATOM     27  CG2 ILE d   1      19.685   5.481   6.564  0.00  0.00    -0.070 C 
ATOM     28  H31 ILE d   1      18.912   5.748   5.829  0.00  0.00     0.028 H 
ATOM     29  H32 ILE d   1      20.066   6.394   7.044  0.00  0.00     0.028 H 
ATOM     30  H33 ILE d   1      19.252   4.819   7.328  0.00  0.00     0.028 H 
ENDBRANCH  18  27
ENDBRANCH  13  18
ENDBRANCH  11  13
ENDBRANCH   7   9
BRANCH   7  31
ATOM     31  CB  GLU d   1      21.526   2.298   1.114  0.00  0.00    -0.029 C 
ATOM     32  H22 GLU d   1      21.364   3.377   1.256  0.00  0.00     0.037 H 
ATOM     33  H23 GLU d   1      20.554   1.785   1.063  0.00  0.00     0.037 H 
BRANCH  31  34
ATOM     34  CG  GLU d   1      22.208   2.113  -0.225  0.00  0.00     0.018 C 
ATOM     35  H24 GLU d   1      21.468   2.307  -1.015  0.00  0.00     0.049 H 
ATOM     36  H25 GLU d   1      22.552   1.071  -0.292  0.00  0.00     0.049 H 
BRANCH  34  37
ATOM     37  CD  GLU d   1      23.414   3.030  -0.466  0.00  0.00     0.172 C 
ATOM     38  OE1 GLU d   1      23.718   3.912   0.358  0.00  0.00    -0.648 OA
ATOM     39  OE2 GLU d   1      24.063   2.848  -1.505  0.00  0.00    -0.648 OA
ENDBRANCH  34  37
ENDBRANCH  31  34
ENDBRANCH   7  31
ENDBRANCH   5   7
ENDBRANCH   1   3
BRANCH   1  40
ATOM     40  CB  GLU d   1      24.385  -2.156   3.333  0.00  0.00    -0.029 C 
ATOM     41  H16 GLU d   1      25.069  -1.505   3.897  0.00  0.00     0.037 H 
ATOM     42  H17 GLU d   1      24.863  -3.132   3.165  0.00  0.00     0.037 H 
BRANCH  40  43
ATOM     43  CG  GLU d   1      23.169  -2.388   4.190  0.00  0.00     0.018 C 
ATOM     44  H18 GLU d   1      22.624  -1.437   4.278  0.00  0.00     0.049 H 
ATOM     45  H19 GLU d   1      23.506  -2.711   5.186  0.00  0.00     0.049 H 
BRANCH  43  46
ATOM     46  CD  GLU d   1      22.202  -3.446   3.645  0.00  0.00     0.172 C 
ATOM     47  OE1 GLU d   1      22.449  -4.061   2.594  0.00  0.00    -0.648 OA
ATOM     48  OE2 GLU d   1      21.172  -3.652   4.299  0.00  0.00    -0.648 OA
ENDBRANCH  43  46
ENDBRANCH  40  43
ENDBRANCH   1  40
BRANCH   1  49
ATOM     49  N   GLU d   1      25.381  -1.654   1.201  0.00  0.00    -0.346 N 
ATOM     50  C   1PA d   1      25.431  -1.443  -0.102  0.00  0.00     0.241 C 
ATOM     51  O   1PA d   1      24.448  -1.116  -0.777  0.00  0.00    -0.271 OA
ATOM     52  H14 GLU d   1      26.219  -1.921   1.677  0.00  0.00     0.163 HD
BRANCH  50  53
ATOM     53  CA  1PA d   1      26.816  -1.620  -0.732  0.00  0.00     0.093 C 
ATOM     54  H5  1PA d   1      27.497  -1.938   0.071  0.00  0.00     0.088 H 
BRANCH  53  55
ATOM     55  N   1PA d   1      26.909  -2.618  -1.795  0.00  0.00    -0.348 N 
ATOM     56  C   ACE d   1      27.639  -3.734  -1.718  0.00  0.00     0.214 C 
ATOM     57  O   ACE d   1      28.218  -4.111  -0.694  0.00  0.00    -0.274 OA
ATOM     58  H4  1PA d   1      26.392  -2.455  -2.635  0.00  0.00     0.163 HD
BRANCH  56  59
ATOM     59  CH3 ACE d   1      27.643  -4.612  -2.952  0.00  0.00    -0.003 C 
ATOM     60  H1  ACE d   1      27.082  -4.115  -3.757  0.00  0.00     0.040 H 
ATOM     61  H2  ACE d   1      27.170  -5.577  -2.717  0.00  0.00     0.040 H 
ATOM     62  H3  ACE d   1      28.680  -4.782  -3.278  0.00  0.00     0.040 H 
ENDBRANCH  56  59
ENDBRANCH  53  55
BRANCH  53  63
ATOM     63  CB  1PA d   1      27.302  -0.274  -1.273  0.00  0.00    -0.014 C 
ATOM     64  H6  1PA d   1      27.071   0.511  -0.537  0.00  0.00     0.043 H 
ATOM     65  H7  1PA d   1      26.778  -0.058  -2.216  0.00  0.00     0.043 H 
BRANCH  63  66
ATOM     66  CG  1PA d   1      28.774  -0.282  -1.527  0.00  0.00    -0.056 A 
ATOM     67  CD2 1PA d   1      29.278  -0.338  -2.821  0.00  0.00    -0.076 A 
ATOM     68  CE2 1PA d   1      30.665  -0.405  -3.043  0.00  0.00    -0.076 A 
ATOM     69  H10 1PA d   1      28.597  -0.330  -3.665  0.00  0.00     0.084 H 
ATOM     70  CZ  1PA d   1      31.570  -0.415  -1.985  0.00  0.00    -0.048 A 
ATOM     71  H11 1PA d   1      31.038  -0.450  -4.060  0.00  0.00     0.084 H 
ATOM     72  CE1 1PA d   1      31.060  -0.352  -0.690  0.00  0.00    -0.076 A 
ATOM     73  CD1 1PA d   1      29.675  -0.288  -0.460  0.00  0.00    -0.076 A 
ATOM     74  H9  1PA d   1      31.742  -0.352   0.153  0.00  0.00     0.084 H 
ATOM     75  H8  1PA d   1      29.302  -0.243   0.557  0.00  0.00     0.084 H 
BRANCH  70  76
ATOM     76  CH  1PA d   1      33.062  -0.545  -2.237  0.00  0.00     0.039 C 
ATOM     77  H12 1PA d   1      33.443   0.432  -2.567  0.00  0.00     0.056 H 
ATOM     78  H13 1PA d   1      33.215  -1.287  -3.035  0.00  0.00     0.056 H 
BRANCH  76  79
ATOM     79  CO  1PA d   1      33.861  -0.983  -1.018  0.00  0.00     0.176 C 
ATOM     80  O2  1PA d   1      34.762  -0.237  -0.598  0.00  0.00    -0.648 OA
ATOM     81  O1  1PA d   1      33.587  -2.061  -0.454  0.00  0.00    -0.648 OA
ENDBRANCH  76  79
ENDBRANCH  70  76
ENDBRANCH  63  66
ENDBRANCH  53  63
ENDBRANCH  50  53
ENDBRANCH   1  49
TORSDOF 23
