REMARK  9 active torsions:
REMARK  status: ('A' for Active; 'I' for Inactive)
REMARK    1  A    between atoms: C7_4  and  C12_7 
REMARK    2  A    between atoms: C12_7  and  S15_8 
REMARK    3  A    between atoms: S15_8  and  N18_11 
REMARK    4  A    between atoms: N18_11  and  C20_12 
REMARK    5  A    between atoms: C37_21  and  C39_22 
REMARK       I    between atoms: C39_22  and  N41_24 
REMARK    6  A    between atoms: N41_24  and  C43_25 
REMARK    7  A    between atoms: C43_25  and  C46_26 
REMARK    8  A    between atoms: C46_26  and  C49_27 
REMARK    9  A    between atoms: C49_27  and  N52_28 
REMARK       I    between atoms: N52_28  and  C54_29 
REMARK       I    between atoms: C54_29  and  N55_30 
ROOT
ATOM      1  C20 R56 d   1      18.055 -15.582  22.804  0.00  0.00     0.097 C 
ATOM      2  C22 R56 d   1      17.348 -14.345  22.310  0.00  0.00     0.245 C 
ATOM      3  O23 R56 d   1      16.354 -13.915  22.914  0.00  0.00    -0.271 OA
ATOM      4  N24 R56 d   1      17.848 -13.772  21.187  0.00  0.00    -0.323 N 
ATOM      5  C25 R56 d   1      19.009 -14.336  20.548  0.00  0.00     0.060 C 
ATOM      6  C27 R56 d   1      20.106 -14.608  21.547  0.00  0.00    -0.035 C 
ATOM      7  C30 R56 d   1      19.596 -15.416  22.758  0.00  0.00    -0.035 C 
ATOM      8  S33 R56 d   1      19.577 -13.030  19.526  0.00  0.00    -0.141 SA
ATOM      9  C34 R56 d   1      17.910 -12.366  19.287  0.00  0.00     0.006 C 
ATOM     10  C37 R56 d   1      17.224 -12.562  20.598  0.00  0.00     0.101 C 
ATOM     11  H9  R56 d   1      17.769 -16.431  22.166  0.00  0.00     0.088 H 
ATOM     12  H10 R56 d   1      18.760 -15.243  19.978  0.00  0.00     0.090 H 
ATOM     13  H11 R56 d   1      20.508 -13.648  21.904  0.00  0.00     0.037 H 
ATOM     14  H12 R56 d   1      20.905 -15.178  21.051  0.00  0.00     0.037 H 
ATOM     15  H13 R56 d   1      20.050 -16.417  22.722  0.00  0.00     0.036 H 
ATOM     16  H14 R56 d   1      19.916 -14.901  23.676  0.00  0.00     0.036 H 
ATOM     17  H15 R56 d   1      17.386 -12.915  18.491  0.00  0.00     0.052 H 
ATOM     18  H16 R56 d   1      17.953 -11.297  19.029  0.00  0.00     0.052 H 
ATOM     19  H17 R56 d   1      17.395 -11.695  21.253  0.00  0.00     0.089 H 
ENDROOT
BRANCH  10  20
ATOM     20  C39 R56 d   1      15.682 -12.739  20.379  0.00  0.00     0.241 C 
ATOM     21  N41 R56 d   1      14.894 -11.653  20.671  0.00  0.00    -0.359 N 
ATOM     22  H18 R56 d   1      15.296 -10.800  21.005  0.00  0.00     0.162 HD
ATOM     23  O40 R56 d   1      15.227 -13.784  19.928  0.00  0.00    -0.271 OA
BRANCH  21  24
ATOM     24  C43 R56 d   1      13.460 -11.779  20.481  0.00  0.00    -0.003 C 
ATOM     25  H19 R56 d   1      13.111 -12.711  20.949  0.00  0.00     0.064 H 
ATOM     26  H20 R56 d   1      13.236 -11.803  19.404  0.00  0.00     0.064 H 
BRANCH  24  27
ATOM     27  C46 R56 d   1      12.747 -10.602  21.115  0.00  0.00    -0.035 C 
ATOM     28  H21 R56 d   1      11.687 -10.608  20.821  0.00  0.00     0.037 H 
ATOM     29  H22 R56 d   1      13.214  -9.663  20.783  0.00  0.00     0.037 H 
BRANCH  27  30
ATOM     30  C49 R56 d   1      12.860 -10.724  22.616  0.00  0.00     0.011 C 
ATOM     31  H23 R56 d   1      12.492  -9.798  23.082  0.00  0.00     0.064 H 
ATOM     32  H24 R56 d   1      13.915 -10.877  22.887  0.00  0.00     0.064 H 
BRANCH  30  33
ATOM     33  N52 R56 d   1      12.062 -11.866  23.111  0.00  0.00    -0.227 N 
ATOM     34  C54 R56 d   1      11.195 -11.710  24.088  0.00  0.00     0.665 C 
ATOM     35  N58 R56 d   1      10.507 -12.725  24.524  0.00  0.00    -0.235 N 
ATOM     36  N55 R56 d   1      11.032 -10.556  24.639  0.00  0.00    -0.235 N 
ATOM     37  H28 R56 d   1      10.628 -13.652  24.093  0.00  0.00     0.174 HD
ATOM     38  H29 R56 d   1       9.842 -12.601  25.300  0.00  0.00     0.174 HD
ATOM     39  H26 R56 d   1      10.351 -10.442  25.403  0.00  0.00     0.174 HD
ATOM     40  H27 R56 d   1      11.583  -9.748  24.315  0.00  0.00     0.174 HD
ATOM     41  H25 R56 d   1      12.187 -12.796  22.685  0.00  0.00     0.177 HD
ENDBRANCH  30  33
ENDBRANCH  27  30
ENDBRANCH  24  27
ENDBRANCH  21  24
ENDBRANCH  10  20
BRANCH   1  42
ATOM     42  N18 R56 d   1      17.652 -15.855  24.186  0.00  0.00    -0.305 N 
ATOM     43  H8  R56 d   1      17.260 -15.122  24.741  0.00  0.00     0.173 HD
BRANCH  42  44
ATOM     44  S15 R56 d   1      17.843 -17.394  24.850  0.00  0.00     0.231 S 
ATOM     45  O17 R56 d   1      16.590 -17.997  25.066  0.00  0.00    -0.206 OA
ATOM     46  O16 R56 d   1      18.881 -18.123  24.036  0.00  0.00    -0.206 OA
BRANCH  44  47
ATOM     47  C12 R56 d   1      18.567 -16.922  26.487  0.00  0.00     0.070 C 
ATOM     48  H6  R56 d   1      17.845 -16.319  27.058  0.00  0.00     0.066 H 
ATOM     49  H7  R56 d   1      18.824 -17.826  27.059  0.00  0.00     0.066 H 
BRANCH  47  50
ATOM     50  C7  R56 d   1      19.839 -16.096  26.206  0.00  0.00    -0.043 A 
ATOM     51  C5  R56 d   1      20.971 -16.703  25.629  0.00  0.00    -0.076 A 
ATOM     52  C3  R56 d   1      22.145 -15.940  25.379  0.00  0.00    -0.082 A 
ATOM     53  H3  R56 d   1      20.948 -17.756  25.374  0.00  0.00     0.084 H 
ATOM     54  C1  R56 d   1      22.169 -14.592  25.720  0.00  0.00    -0.083 A 
ATOM     55  H2  R56 d   1      23.013 -16.405  24.927  0.00  0.00     0.083 H 
ATOM     56  C10 R56 d   1      21.025 -14.002  26.310  0.00  0.00    -0.082 A 
ATOM     57  H1  R56 d   1      23.056 -13.998  25.536  0.00  0.00     0.083 H 
ATOM     58  C8  R56 d   1      19.879 -14.754  26.550  0.00  0.00    -0.076 A 
ATOM     59  H5  R56 d   1      21.042 -12.952  26.578  0.00  0.00     0.083 H 
ATOM     60  H4  R56 d   1      19.014 -14.288  27.008  0.00  0.00     0.084 H 
ENDBRANCH  47  50
ENDBRANCH  44  47
ENDBRANCH  42  44
ENDBRANCH   1  42
TORSDOF 9
