REMARK  4 active torsions:
REMARK  status: ('A' for Active; 'I' for Inactive)
REMARK    1  A    between atoms: N1_1  and  C1_3 
REMARK    2  A    between atoms: C1_3  and  C2_4 
REMARK    3  A    between atoms: C5_7  and  N3_10 
REMARK       I    between atoms: N3_10  and  C8_11 
REMARK       I    between atoms: C8_11  and  N4_13 
REMARK    4  A    between atoms: N4_13  and  C9_14 
ROOT
ATOM      1  C2  GP6 d   1      -1.887  14.370  16.605  0.00  0.00     0.007 A 
ATOM      2  C3  GP6 d   1      -1.937  15.761  16.467  0.00  0.00    -0.067 A 
ATOM      3  C4  GP6 d   1      -1.541  16.611  17.504  0.00  0.00    -0.056 A 
ATOM      4  C5  GP6 d   1      -1.078  16.086  18.720  0.00  0.00     0.036 A 
ATOM      5  C6  GP6 d   1      -1.027  14.699  18.866  0.00  0.00    -0.056 A 
ATOM      6  C7  GP6 d   1      -1.425  13.863  17.820  0.00  0.00    -0.067 A 
ATOM      7  H5  GP6 d   1      -2.290  16.189  15.536  0.00  0.00     0.085 H 
ATOM      8  H6  GP6 d   1      -1.592  17.685  17.367  0.00  0.00     0.086 H 
ATOM      9  H7  GP6 d   1      -0.676  14.268  19.797  0.00  0.00     0.086 H 
ATOM     10  H8  GP6 d   1      -1.373  12.789  17.956  0.00  0.00     0.085 H 
ENDROOT
BRANCH   4  11
ATOM     11  N3  GP6 d   1      -0.672  16.876  19.746  0.00  0.00    -0.309 N 
ATOM     12  C8  GP6 d   1       0.240  17.860  19.651  0.00  0.00     0.325 C 
ATOM     13  O1  GP6 d   1       0.774  18.199  18.584  0.00  0.00    -0.247 OA
ATOM     14  N4  GP6 d   1       0.531  18.453  20.815  0.00  0.00    -0.309 N 
ATOM     15  H10 GP6 d   1      -0.078  18.246  21.581  0.00  0.00     0.170 HD
ATOM     16  H9  GP6 d   1      -1.083  16.714  20.643  0.00  0.00     0.170 HD
BRANCH  14  17
ATOM     17  C9  GP6 d   1       1.546  19.294  21.074  0.00  0.00     0.036 A 
ATOM     18  C10 GP6 d   1       1.398  20.238  22.094  0.00  0.00    -0.056 A 
ATOM     19  C11 GP6 d   1       2.444  21.108  22.411  0.00  0.00    -0.060 A 
ATOM     20  H11 GP6 d   1       0.465  20.296  22.643  0.00  0.00     0.087 H 
ATOM     21  C12 GP6 d   1       3.641  21.047  21.698  0.00  0.00     0.034 A 
ATOM     22  H12 GP6 d   1       2.325  21.830  23.211  0.00  0.00     0.086 H 
ATOM     23  C13 GP6 d   1       3.794  20.119  20.675  0.00  0.00    -0.060 A 
ATOM     24 CL   GP6 d   1       4.950  22.099  22.054  0.00  0.00    -0.084 Cl
ATOM     25  C14 GP6 d   1       2.750  19.247  20.362  0.00  0.00    -0.056 A 
ATOM     26  H13 GP6 d   1       4.724  20.072  20.120  0.00  0.00     0.086 H 
ATOM     27  H14 GP6 d   1       2.873  18.527  19.561  0.00  0.00     0.087 H 
ENDBRANCH  14  17
ENDBRANCH   4  11
BRANCH   1  28
ATOM     28  C1  GP6 d   1      -2.301  13.508  15.582  0.00  0.00     0.102 C 
ATOM     29  N2  GP6 d   1      -2.006  12.213  15.666  0.00  0.00    -0.385 N 
ATOM     30  H3  GP6 d   1      -1.619  11.829  16.540  0.00  0.00     0.157 HD
ATOM     31  H4  GP6 d   1      -2.165  11.595  14.857  0.00  0.00     0.157 HD
BRANCH  28  32
ATOM     32  N1  GP6 d   1      -2.799  13.984  14.449  0.00  0.00    -0.385 N 
ATOM     33  H1  GP6 d   1      -3.099  13.337  13.706  0.00  0.00     0.157 HD
ATOM     34  H2  GP6 d   1      -2.886  15.001  14.312  0.00  0.00     0.157 HD
ENDBRANCH  28  32
ENDBRANCH   1  28
TORSDOF 4
