REMARK  6 active torsions:
REMARK  status: ('A' for Active; 'I' for Inactive)
REMARK    1  A    between atoms: N1_1  and  C1_3 
REMARK    2  A    between atoms: C1_3  and  C2_4 
REMARK    3  A    between atoms: C5_7  and  N3_10 
REMARK       I    between atoms: N3_10  and  C8_11 
REMARK       I    between atoms: C8_11  and  N4_13 
REMARK    4  A    between atoms: N4_13  and  C9_14 
REMARK    5  A    between atoms: C12_17  and  O2_20 
REMARK    6  A    between atoms: O2_20  and  C15_21 
ROOT
ATOM      1  N3  GP8 d   1      -0.674  16.687  19.084  0.00  0.00    -0.309 N 
ATOM      2  C8  GP8 d   1       0.259  17.646  19.003  0.00  0.00     0.325 C 
ATOM      3  O1  GP8 d   1       0.829  17.930  17.932  0.00  0.00    -0.247 OA
ATOM      4  N4  GP8 d   1       0.570  18.281  20.130  0.00  0.00    -0.309 N 
ATOM      5  H9  GP8 d   1      -1.127  16.566  19.967  0.00  0.00     0.170 HD
ATOM      6  H10 GP8 d   1       0.099  17.985  20.961  0.00  0.00     0.170 HD
ENDROOT
BRANCH   4   7
ATOM      7  C9  GP8 d   1       1.449  19.274  20.258  0.00  0.00     0.036 A 
ATOM      8  C10 GP8 d   1       1.031  20.401  20.965  0.00  0.00    -0.054 A 
ATOM      9  C11 GP8 d   1       1.963  21.413  21.197  0.00  0.00    -0.048 A 
ATOM     10  H11 GP8 d   1       0.012  20.488  21.324  0.00  0.00     0.087 H 
ATOM     11  C12 GP8 d   1       3.283  21.290  20.724  0.00  0.00     0.076 A 
ATOM     12  H12 GP8 d   1       1.668  22.300  21.745  0.00  0.00     0.087 H 
ATOM     13  C13 GP8 d   1       3.667  20.137  20.025  0.00  0.00    -0.048 A 
ATOM     14  C14 GP8 d   1       2.744  19.112  19.782  0.00  0.00    -0.054 A 
ATOM     15  H13 GP8 d   1       4.686  20.038  19.670  0.00  0.00     0.087 H 
ATOM     16  H14 GP8 d   1       3.031  18.219  19.239  0.00  0.00     0.087 H 
BRANCH  11  17
ATOM     17  O2  GP8 d   1       4.200  22.281  20.926  0.00  0.00    -0.311 OA
BRANCH  17  18
ATOM     18  C15 GP8 d   1       4.756  22.743  22.083  0.00  0.00     0.076 A 
ATOM     19  C16 GP8 d   1       5.795  23.673  21.985  0.00  0.00    -0.050 A 
ATOM     20  C17 GP8 d   1       6.392  24.185  23.136  0.00  0.00    -0.080 A 
ATOM     21  H15 GP8 d   1       6.138  23.998  21.009  0.00  0.00     0.087 H 
ATOM     22  C18 GP8 d   1       5.956  23.772  24.394  0.00  0.00    -0.083 A 
ATOM     23  H16 GP8 d   1       7.197  24.906  23.053  0.00  0.00     0.083 H 
ATOM     24  C19 GP8 d   1       4.923  22.839  24.501  0.00  0.00    -0.080 A 
ATOM     25  H17 GP8 d   1       6.418  24.175  25.288  0.00  0.00     0.083 H 
ATOM     26  C20 GP8 d   1       4.320  22.323  23.351  0.00  0.00    -0.050 A 
ATOM     27  H18 GP8 d   1       4.588  22.514  25.479  0.00  0.00     0.083 H 
ATOM     28  H19 GP8 d   1       3.517  21.600  23.437  0.00  0.00     0.087 H 
ENDBRANCH  17  18
ENDBRANCH  11  17
ENDBRANCH   4   7
BRANCH   1  29
ATOM     29  C5  GP8 d   1      -1.056  15.870  18.080  0.00  0.00     0.036 A 
ATOM     30  C4  GP8 d   1      -1.502  16.410  16.865  0.00  0.00    -0.056 A 
ATOM     31  C3  GP8 d   1      -1.898  15.564  15.827  0.00  0.00    -0.067 A 
ATOM     32  H6  GP8 d   1      -1.539  17.485  16.732  0.00  0.00     0.086 H 
ATOM     33  C2  GP8 d   1      -1.864  14.166  15.964  0.00  0.00     0.007 A 
ATOM     34  H5  GP8 d   1      -2.240  15.996  14.893  0.00  0.00     0.085 H 
ATOM     35  C7  GP8 d   1      -1.404  13.653  17.199  0.00  0.00    -0.067 A 
ATOM     36  C6  GP8 d   1      -1.004  14.481  18.252  0.00  0.00    -0.056 A 
ATOM     37  H8  GP8 d   1      -1.360  12.578  17.334  0.00  0.00     0.085 H 
ATOM     38  H7  GP8 d   1      -0.659  14.055  19.187  0.00  0.00     0.086 H 
BRANCH  33  39
ATOM     39  C1  GP8 d   1      -2.323  13.313  14.928  0.00  0.00     0.102 C 
ATOM     40  N2  GP8 d   1      -1.997  12.007  14.980  0.00  0.00    -0.385 N 
ATOM     41  H3  GP8 d   1      -1.592  11.611  15.840  0.00  0.00     0.157 HD
ATOM     42  H4  GP8 d   1      -2.153  11.404  14.159  0.00  0.00     0.157 HD
BRANCH  39  43
ATOM     43  N1  GP8 d   1      -2.849  13.823  13.808  0.00  0.00    -0.385 N 
ATOM     44  H1  GP8 d   1      -3.179  13.195  13.062  0.00  0.00     0.157 HD
ATOM     45  H2  GP8 d   1      -2.923  14.844  13.692  0.00  0.00     0.157 HD
ENDBRANCH  39  43
ENDBRANCH  33  39
ENDBRANCH   1  29
TORSDOF 6
