REMARK  4 active torsions:
REMARK  status: ('A' for Active; 'I' for Inactive)
REMARK    1  A    between atoms: C1_1  and  C7_9 
REMARK    2  A    between atoms: C6_8  and  N_10 
REMARK    3  A    between atoms: N_10  and  C1'_11 
REMARK    4  A    between atoms: C3'_13  and  C7'_17 
ROOT
ATOM      1  N   FLF d   1      21.182  42.876   5.828  0.00  0.00    -0.355 N 
ATOM      2  H5  FLF d   1      21.793  43.494   5.275  0.00  0.00     0.166 HD
ENDROOT
BRANCH   1   3
ATOM      3  C6  FLF d   1      20.373  42.019   5.017  0.00  0.00     0.049 A 
ATOM      4  C1  FLF d   1      20.699  41.889   3.679  0.00  0.00     0.067 A 
ATOM      5  C2  FLF d   1      19.926  41.065   2.842  0.00  0.00    -0.064 A 
ATOM      6  C3  FLF d   1      18.826  40.370   3.331  0.00  0.00    -0.082 A 
ATOM      7  H1  FLF d   1      20.193  40.970   1.796  0.00  0.00     0.085 H 
ATOM      8  C4  FLF d   1      18.491  40.491   4.680  0.00  0.00    -0.081 A 
ATOM      9  H2  FLF d   1      18.236  39.742   2.673  0.00  0.00     0.083 H 
ATOM     10  C5  FLF d   1      19.255  41.304   5.515  0.00  0.00    -0.056 A 
ATOM     11  H3  FLF d   1      17.638  39.953   5.078  0.00  0.00     0.083 H 
ATOM     12  H4  FLF d   1      18.990  41.391   6.562  0.00  0.00     0.086 H 
BRANCH   4  13
ATOM     13  C7  FLF d   1      21.850  42.621   3.145  0.00  0.00     0.211 C 
ATOM     14  O1  FLF d   1      22.104  42.681   1.830  0.00  0.00    -0.644 OA
ATOM     15  O2  FLF d   1      22.485  43.479   3.741  0.00  0.00    -0.644 OA
ENDBRANCH   4  13
ENDBRANCH   1   3
BRANCH   1  16
ATOM     16  C1' FLF d   1      21.326  43.060   7.224  0.00  0.00     0.033 A 
ATOM     17  C6' FLF d   1      21.648  44.272   7.883  0.00  0.00    -0.057 A 
ATOM     18  C5' FLF d   1      21.753  44.299   9.275  0.00  0.00    -0.080 A 
ATOM     19  H9  FLF d   1      21.812  45.176   7.308  0.00  0.00     0.086 H 
ATOM     20  C4' FLF d   1      21.540  43.124  10.014  0.00  0.00    -0.068 A 
ATOM     21  H8  FLF d   1      21.998  45.224   9.784  0.00  0.00     0.083 H 
ATOM     22  C3' FLF d   1      21.222  41.938   9.321  0.00  0.00     0.050 A 
ATOM     23  H7  FLF d   1      21.619  43.129  11.095  0.00  0.00     0.084 H 
ATOM     24  C2' FLF d   1      21.117  41.906   7.962  0.00  0.00    -0.043 A 
ATOM     25  H6  FLF d   1      20.870  40.978   7.459  0.00  0.00     0.088 H 
BRANCH  22  26
ATOM     26  C7' FLF d   1      20.989  40.672  10.087  0.00  0.00     0.417 C 
ATOM     27  F1  FLF d   1      21.236  39.557   9.379  0.00  0.00    -0.166 F 
ATOM     28  F3  FLF d   1      19.723  40.529  10.502  0.00  0.00    -0.166 F 
ATOM     29  F2  FLF d   1      21.736  40.543  11.188  0.00  0.00    -0.166 F 
ENDBRANCH  22  26
ENDBRANCH   1  16
TORSDOF 4
