REMARK  17 active torsions:
REMARK  status: ('A' for Active; 'I' for Inactive)
REMARK    1  A    between atoms: C1_1  and  C2_2 
REMARK       I    between atoms: N_7  and  C1_1 
REMARK    2  A    between atoms: CA_8  and  N_7 
REMARK    3  A    between atoms: C_9  and  CA_8 
REMARK    4  A    between atoms: CA_8  and  CB_11 
REMARK       I    between atoms: N2_16  and  C_9 
REMARK    5  A    between atoms: CB_11  and  CG_12 
REMARK    6  A    between atoms: CG_12  and  CD2_14 
REMARK    7  A    between atoms: CG_12  and  CD1_13 
REMARK    8  A    between atoms: CA2_25  and  N1_15 
REMARK    9  A    between atoms: N1_15  and  C1M_24 
REMARK   10  A    between atoms: N1_15  and  C_17 
REMARK   11  A    between atoms: N1_15  and  N2_16 
REMARK   12  A    between atoms: C_17  and  C1_18 
REMARK   13  A    between atoms: CA1_26  and  CA2_25 
REMARK       I    between atoms: N1_29  and  CA1_26 
REMARK   14  A    between atoms: N1_29  and  C1_28 
REMARK   15  A    between atoms: C4_32  and  C1'_35 
REMARK   16  A    between atoms: C1'_35  and  C3'_37 
REMARK   17  A    between atoms: C1'_35  and  C2'_36 
ROOT
ATOM      1  N1  0QH d   1      37.773  20.686  35.406  0.00  0.00     0.023 N 
ENDROOT
BRANCH   1   2
ATOM      2  CA2 0QH d   1      36.531  20.238  36.106  0.00  0.00     0.178 C 
ATOM      3  H23 0QH d   1      35.729  20.203  35.354  0.00  0.00     0.094 H 
ATOM      4  H24 0QH d   1      36.291  21.000  36.863  0.00  0.00     0.094 H 
BRANCH   2   5
ATOM      5  CA1 0QH d   1      36.544  18.892  36.812  0.00  0.00     0.250 C 
ATOM      6  O   0QH d   1      36.668  17.792  36.251  0.00  0.00    -0.271 OA
ATOM      7  N1  0QH d   1      36.432  19.241  38.103  0.00  0.00    -0.326 N 
ATOM      8  H25 0QH d   1      36.530  20.205  38.350  0.00  0.00     0.169 HD
BRANCH   7   9
ATOM      9  C1  0QH d   1      36.195  18.351  39.070  0.00  0.00     0.034 A 
ATOM     10  C6  0QH d   1      35.290  18.723  40.059  0.00  0.00    -0.057 A 
ATOM     11  C5  0QH d   1      35.007  17.872  41.125  0.00  0.00    -0.074 A 
ATOM     12  H29 0QH d   1      34.799  19.688  39.999  0.00  0.00     0.086 H 
ATOM     13  C4  0QH d   1      35.613  16.613  41.216  0.00  0.00    -0.055 A 
ATOM     14  H28 0QH d   1      34.310  18.188  41.893  0.00  0.00     0.084 H 
ATOM     15  C3  0QH d   1      36.529  16.229  40.207  0.00  0.00    -0.074 A 
ATOM     16  C2  0QH d   1      36.820  17.094  39.138  0.00  0.00    -0.057 A 
ATOM     17  H27 0QH d   1      37.010  15.259  40.259  0.00  0.00     0.084 H 
ATOM     18  H26 0QH d   1      37.523  16.793  38.370  0.00  0.00     0.086 H 
BRANCH  13  19
ATOM     19  C1' 0QH d   1      35.273  15.697  42.414  0.00  0.00    -0.036 C 
ATOM     20  H30 0QH d   1      35.715  16.114  43.331  0.00  0.00     0.046 H 
BRANCH  19  21
ATOM     21  C3' 0QH d   1      33.777  15.691  42.501  0.00  0.00    -0.069 C 
ATOM     22  H34 0QH d   1      33.412  16.722  42.618  0.00  0.00     0.028 H 
ATOM     23  H35 0QH d   1      33.462  15.090  43.367  0.00  0.00     0.028 H 
ATOM     24  H36 0QH d   1      33.358  15.256  41.581  0.00  0.00     0.028 H 
ENDBRANCH  19  21
BRANCH  19  25
ATOM     25  C2' 0QH d   1      35.742  14.242  42.251  0.00  0.00    -0.069 C 
ATOM     26  H31 0QH d   1      35.461  13.664  43.144  0.00  0.00     0.028 H 
ATOM     27  H32 0QH d   1      36.835  14.220  42.130  0.00  0.00     0.028 H 
ATOM     28  H33 0QH d   1      35.266  13.800  41.363  0.00  0.00     0.028 H 
ENDBRANCH  19  25
ENDBRANCH  13  19
ENDBRANCH   7   9
ENDBRANCH   2   5
ENDBRANCH   1   2
BRANCH   1  29
ATOM     29  C1M 0QH d   1      38.160  19.713  34.316  0.00  0.00     0.089 C 
ATOM     30  H20 0QH d   1      38.184  18.693  34.727  0.00  0.00     0.071 H 
ATOM     31  H21 0QH d   1      39.155  19.975  33.927  0.00  0.00     0.071 H 
ATOM     32  H22 0QH d   1      37.423  19.763  33.501  0.00  0.00     0.071 H 
ENDBRANCH   1  29
BRANCH   1  33
ATOM     33  C   0QH d   1      37.712  22.117  34.940  0.00  0.00     0.130 C 
ATOM     34  H13 0QH d   1      38.623  22.307  34.354  0.00  0.00     0.087 H 
ATOM     35  H14 0QH d   1      37.714  22.752  35.838  0.00  0.00     0.087 H 
BRANCH  33  36
ATOM     36  C1  0QH d   1      36.522  22.554  34.080  0.00  0.00    -0.030 A 
ATOM     37  C6  0QH d   1      36.225  21.923  32.850  0.00  0.00    -0.075 A 
ATOM     38  C5  0QH d   1      35.179  22.373  32.039  0.00  0.00    -0.082 A 
ATOM     39  H19 0QH d   1      36.819  21.075  32.530  0.00  0.00     0.084 H 
ATOM     40  C4  0QH d   1      34.426  23.461  32.459  0.00  0.00    -0.083 A 
ATOM     41  H18 0QH d   1      34.960  21.881  31.098  0.00  0.00     0.083 H 
ATOM     42  C3  0QH d   1      34.724  24.077  33.677  0.00  0.00    -0.082 A 
ATOM     43  H17 0QH d   1      33.612  23.830  31.846  0.00  0.00     0.083 H 
ATOM     44  C2  0QH d   1      35.753  23.641  34.490  0.00  0.00    -0.075 A 
ATOM     45  H16 0QH d   1      34.128  24.925  33.995  0.00  0.00     0.083 H 
ATOM     46  H15 0QH d   1      35.959  24.137  35.432  0.00  0.00     0.084 H 
ENDBRANCH  33  36
ENDBRANCH   1  33
BRANCH   1  47
ATOM     47  N2  0QH d   1      39.121  20.568  36.190  0.00  0.00    -0.183 N 
ATOM     48  C   0QH d   1      39.307  21.048  37.435  0.00  0.00     0.264 C 
ATOM     49  O   0QH d   1      38.514  21.565  38.211  0.00  0.00    -0.269 OA
ATOM     50  H12 0QH d   1      39.889  20.110  35.742  0.00  0.00     0.197 HD
BRANCH  48  51
ATOM     51  CA  0QH d   1      40.800  20.919  37.702  0.00  0.00     0.091 C 
ATOM     52  H2  0QH d   1      41.273  20.617  36.756  0.00  0.00     0.087 H 
BRANCH  51  53
ATOM     53  CB  0QH d   1      41.100  19.869  38.747  0.00  0.00    -0.035 C 
ATOM     54  H3  0QH d   1      40.269  19.878  39.468  0.00  0.00     0.037 H 
ATOM     55  H4  0QH d   1      42.029  20.169  39.255  0.00  0.00     0.037 H 
BRANCH  53  56
ATOM     56  CG  0QH d   1      41.280  18.443  38.288  0.00  0.00    -0.059 C 
ATOM     57  H5  0QH d   1      40.303  18.032  37.995  0.00  0.00     0.038 H 
BRANCH  56  58
ATOM     58  CD2 0QH d   1      41.811  17.676  39.479  0.00  0.00    -0.073 C 
ATOM     59  H9  0QH d   1      41.111  17.776  40.321  0.00  0.00     0.028 H 
ATOM     60  H10 0QH d   1      42.792  18.081  39.768  0.00  0.00     0.028 H 
ATOM     61  H11 0QH d   1      41.916  16.614  39.214  0.00  0.00     0.028 H 
ENDBRANCH  56  58
BRANCH  56  62
ATOM     62  CD1 0QH d   1      42.225  18.333  37.087  0.00  0.00    -0.073 C 
ATOM     63  H6  0QH d   1      42.322  17.278  36.792  0.00  0.00     0.028 H 
ATOM     64  H7  0QH d   1      43.214  18.730  37.361  0.00  0.00     0.028 H 
ATOM     65  H8  0QH d   1      41.818  18.913  36.245  0.00  0.00     0.028 H 
ENDBRANCH  56  62
ENDBRANCH  53  56
ENDBRANCH  51  53
BRANCH  51  66
ATOM     66  N   0QH d   1      41.428  22.136  38.149  0.00  0.00    -0.340 N 
ATOM     67  C1  0QH d   1      41.149  23.354  37.644  0.00  0.00     0.326 C 
ATOM     68  O   0QH d   1      40.738  23.466  36.483  0.00  0.00    -0.263 OA
ATOM     69  H1  0QH d   1      42.111  22.073  38.877  0.00  0.00     0.163 HD
BRANCH  67  70
ATOM     70  C2  0QH d   1      41.347  24.616  38.562  0.00  0.00     0.472 C 
ATOM     71  F3  0QH d   1      40.210  25.231  38.787  0.00  0.00    -0.162 F 
ATOM     72  F2  0QH d   1      42.130  25.537  38.058  0.00  0.00    -0.162 F 
ATOM     73  F1  0QH d   1      41.871  24.392  39.754  0.00  0.00    -0.162 F 
ENDBRANCH  67  70
ENDBRANCH  51  66
ENDBRANCH  48  51
ENDBRANCH   1  47
TORSDOF 17
