REMARK  7 active torsions:
REMARK  status: ('A' for Active; 'I' for Inactive)
REMARK    1  A    between atoms: C3_1  and  S1_13 
REMARK    2  A    between atoms: N8_21  and  C9_2 
REMARK    3  A    between atoms: C9_2  and  C10_3 
REMARK    4  A    between atoms: C13_6  and  C16_9 
REMARK    5  A    between atoms: S1_13  and  N21_12 
REMARK    6  A    between atoms: C6_16  and  S7_18 
REMARK    7  A    between atoms: S7_18  and  N8_21 
ROOT
ATOM      1  N8  AL5 d   1      -3.674   5.788  13.110  0.00  0.00    -0.311 N 
ATOM      2  H14 AL5 d   1      -3.619   5.876  12.115  0.00  0.00     0.172 HD
ENDROOT
BRANCH   1   3
ATOM      3  S7  AL5 d   1      -4.924   5.413  13.825  0.00  0.00     0.265 S 
ATOM      4  O4B AL5 d   1      -5.253   6.332  14.866  0.00  0.00    -0.200 OA
ATOM      5  O3B AL5 d   1      -6.086   5.417  12.999  0.00  0.00    -0.200 OA
BRANCH   3   6
ATOM      6  C6  AL5 d   1      -4.772   3.864  14.585  0.00  0.00     0.121 A 
ATOM      7  C5  AL5 d   1      -3.663   3.044  14.711  0.00  0.00    -0.052 A 
ATOM      8  C4  AL5 d   1      -3.945   1.918  15.454  0.00  0.00    -0.052 A 
ATOM      9  H13 AL5 d   1      -2.688   3.262  14.277  0.00  0.00     0.086 H 
ATOM     10  C3  AL5 d   1      -5.262   1.917  15.868  0.00  0.00     0.121 A 
ATOM     11  H12 AL5 d   1      -3.225   1.134  15.684  0.00  0.00     0.086 H 
ATOM     12  S2  AL5 d   1      -6.186   3.290  15.352  0.00  0.00    -0.063 SA
BRANCH  10  13
ATOM     13  S1  AL5 d   1      -5.923   0.680  16.887  0.00  0.00     0.263 S 
ATOM     14  O2A AL5 d   1      -7.342   0.898  16.816  0.00  0.00    -0.200 OA
ATOM     15  O1A AL5 d   1      -5.452   0.890  18.209  0.00  0.00    -0.200 OA
BRANCH  13  16
ATOM     16  N21 AL5 d   1      -5.426  -0.670  16.241  0.00  0.00    -0.324 N 
ATOM     17  H10 AL5 d   1      -5.680  -1.545  16.654  0.00  0.00     0.169 HD
ATOM     18  H11 AL5 d   1      -4.857  -0.651  15.419  0.00  0.00     0.169 HD
ENDBRANCH  13  16
ENDBRANCH  10  13
ENDBRANCH   3   6
ENDBRANCH   1   3
BRANCH   1  19
ATOM     19  C9  AL5 d   1      -2.533   6.016  13.996  0.00  0.00     0.026 C 
ATOM     20  H1  AL5 d   1      -1.697   5.383  13.662  0.00  0.00     0.072 H 
ATOM     21  H2  AL5 d   1      -2.821   5.733  15.019  0.00  0.00     0.072 H 
BRANCH  19  22
ATOM     22  C10 AL5 d   1      -2.073   7.458  14.006  0.00  0.00    -0.040 A 
ATOM     23  C15 AL5 d   1      -1.655   8.018  15.212  0.00  0.00    -0.075 A 
ATOM     24  C14 AL5 d   1      -1.224   9.340  15.266  0.00  0.00    -0.077 A 
ATOM     25  H6  AL5 d   1      -1.666   7.419  16.115  0.00  0.00     0.084 H 
ATOM     26  C13 AL5 d   1      -1.209  10.118  14.112  0.00  0.00    -0.062 A 
ATOM     27  H5  AL5 d   1      -0.899   9.765  16.209  0.00  0.00     0.084 H 
ATOM     28  C12 AL5 d   1      -1.630   9.564  12.892  0.00  0.00    -0.077 A 
ATOM     29  C11 AL5 d   1      -2.059   8.237  12.836  0.00  0.00    -0.075 A 
ATOM     30  H4  AL5 d   1      -1.622  10.168  11.992  0.00  0.00     0.084 H 
ATOM     31  H3  AL5 d   1      -2.380   7.809  11.893  0.00  0.00     0.084 H 
BRANCH  26  32
ATOM     32  C16 AL5 d   1      -0.706  11.575  14.204  0.00  0.00    -0.051 C 
ATOM     33  H7  AL5 d   1      -0.759  12.045  13.211  0.00  0.00     0.033 H 
ATOM     34  H8  AL5 d   1       0.336  11.582  14.557  0.00  0.00     0.033 H 
ATOM     35  H9  AL5 d   1      -1.336  12.137  14.909  0.00  0.00     0.033 H 
ENDBRANCH  26  32
ENDBRANCH  19  22
ENDBRANCH   1  19
TORSDOF 7
