REMARK  5 active torsions:
REMARK  status: ('A' for Active; 'I' for Inactive)
REMARK    1  A    between atoms: C3_1  and  S1_14 
REMARK    2  A    between atoms: C15_9  and  O5_2 
REMARK    3  A    between atoms: O5_2  and  C17_23 
REMARK    4  A    between atoms: N8_22  and  C11_5 
REMARK    5  A    between atoms: S1_14  and  N21_13 
ROOT
ATOM      1  C3  AL6 d   1      -5.265   1.959  15.920  0.00  0.00     0.122 A 
ATOM      2  C9  AL6 d   1      -2.455   4.984  13.763  0.00  0.00    -0.002 C 
ATOM      3  C10 AL6 d   1      -2.593   3.705  14.280  0.00  0.00    -0.055 C 
ATOM      4  C4  AL6 d   1      -3.995   2.040  15.398  0.00  0.00    -0.042 A 
ATOM      5  C5  AL6 d   1      -3.805   3.256  14.789  0.00  0.00    -0.003 A 
ATOM      6  C6  AL6 d   1      -4.921   4.068  14.797  0.00  0.00     0.132 A 
ATOM      7  S2  AL6 d   1      -6.198   3.356  15.626  0.00  0.00    -0.062 SA
ATOM      8  S7  AL6 d   1      -4.874   5.581  14.007  0.00  0.00     0.276 S 
ATOM      9  O3B AL6 d   1      -5.490   5.309  12.775  0.00  0.00    -0.199 OA
ATOM     10  O4B AL6 d   1      -5.729   6.475  14.731  0.00  0.00    -0.199 OA
ATOM     11  N8  AL6 d   1      -3.463   5.964  13.625  0.00  0.00    -0.246 N 
ATOM     12  H1  AL6 d   1      -1.458   5.264  13.426  0.00  0.00     0.113 H 
ATOM     13  H2  AL6 d   1      -1.732   3.038  14.287  0.00  0.00     0.087 H 
ATOM     14  H9  AL6 d   1      -3.246   1.252  15.459  0.00  0.00     0.088 H 
ENDROOT
BRANCH  11  15
ATOM     15  C11 AL6 d   1      -2.966   7.209  13.599  0.00  0.00     0.052 A 
ATOM     16  C16 AL6 d   1      -2.132   7.689  14.604  0.00  0.00    -0.024 A 
ATOM     17  C15 AL6 d   1      -1.704   9.012  14.531  0.00  0.00     0.070 A 
ATOM     18  H6  AL6 d   1      -1.823   7.049  15.423  0.00  0.00     0.091 H 
ATOM     19  C14 AL6 d   1      -2.102   9.856  13.461  0.00  0.00    -0.051 A 
ATOM     20  C13 AL6 d   1      -2.940   9.355  12.468  0.00  0.00    -0.078 A 
ATOM     21  H5  AL6 d   1      -1.756  10.883  13.417  0.00  0.00     0.087 H 
ATOM     22  C12 AL6 d   1      -3.377   8.035  12.537  0.00  0.00    -0.056 A 
ATOM     23  H4  AL6 d   1      -3.250   9.989  11.646  0.00  0.00     0.083 H 
ATOM     24  H3  AL6 d   1      -4.036   7.643  11.771  0.00  0.00     0.087 H 
BRANCH  17  25
ATOM     25  O5  AL6 d   1      -0.934   9.402  15.511  0.00  0.00    -0.356 OA
BRANCH  25  26
ATOM     26  C17 AL6 d   1      -0.448  10.767  15.499  0.00  0.00     0.010 C 
ATOM     27  H10 AL6 d   1       0.182  10.940  16.384  0.00  0.00     0.066 H 
ATOM     28  H11 AL6 d   1      -1.302  11.460  15.516  0.00  0.00     0.066 H 
ATOM     29  H12 AL6 d   1       0.144  10.937  14.588  0.00  0.00     0.066 H 
ENDBRANCH  25  26
ENDBRANCH  17  25
ENDBRANCH  11  15
BRANCH   1  30
ATOM     30  S1  AL6 d   1      -5.887   0.624  16.789  0.00  0.00     0.263 S 
ATOM     31  O1A AL6 d   1      -5.288   0.724  18.041  0.00  0.00    -0.200 OA
ATOM     32  O2A AL6 d   1      -7.287   0.787  16.854  0.00  0.00    -0.200 OA
BRANCH  30  33
ATOM     33  N21 AL6 d   1      -5.486  -0.771  16.135  0.00  0.00    -0.324 N 
ATOM     34  H7  AL6 d   1      -5.792  -1.626  16.554  0.00  0.00     0.169 HD
ATOM     35  H8  AL6 d   1      -4.928  -0.792  15.305  0.00  0.00     0.169 HD
ENDBRANCH  30  33
ENDBRANCH   1  30
TORSDOF 5
