REMARK  8 active torsions:
REMARK  status: ('A' for Active; 'I' for Inactive)
REMARK    1  A    between atoms: C3_1  and  S1_12 
REMARK    2  A    between atoms: N8_20  and  C9_2 
REMARK    3  A    between atoms: C9_2  and  C10_3 
REMARK    4  A    between atoms: C13_6  and  O16_21 
REMARK    5  A    between atoms: S1_12  and  N21_11 
REMARK    6  A    between atoms: C6_15  and  S7_17 
REMARK    7  A    between atoms: S7_17  and  N8_20 
REMARK    8  A    between atoms: O16_21  and  C17_22 
ROOT
ATOM      1  C9  AL9 d   1      -2.642   6.036  14.184  0.00  0.00     0.026 C 
ATOM      2  H1  AL9 d   1      -1.841   5.342  13.891  0.00  0.00     0.072 H 
ATOM      3  H2  AL9 d   1      -3.038   5.745  15.168  0.00  0.00     0.072 H 
ENDROOT
BRANCH   1   4
ATOM      4  N8  AL9 d   1      -3.720   5.942  13.203  0.00  0.00    -0.311 N 
ATOM      5  H11 AL9 d   1      -3.613   6.190  12.240  0.00  0.00     0.172 HD
BRANCH   4   6
ATOM      6  S7  AL9 d   1      -4.997   5.438  13.787  0.00  0.00     0.265 S 
ATOM      7  O4B AL9 d   1      -5.524   6.362  14.736  0.00  0.00    -0.200 OA
ATOM      8  O3B AL9 d   1      -5.956   5.335  12.732  0.00  0.00    -0.200 OA
BRANCH   6   9
ATOM      9  C6  AL9 d   1      -4.872   3.892  14.541  0.00  0.00     0.121 A 
ATOM     10  C5  AL9 d   1      -3.810   3.011  14.529  0.00  0.00    -0.052 A 
ATOM     11  C4  AL9 d   1      -4.078   1.880  15.273  0.00  0.00    -0.052 A 
ATOM     12  H10 AL9 d   1      -2.876   3.187  13.998  0.00  0.00     0.086 H 
ATOM     13  C3  AL9 d   1      -5.334   1.928  15.838  0.00  0.00     0.121 A 
ATOM     14  H9  AL9 d   1      -3.382   1.052  15.398  0.00  0.00     0.086 H 
ATOM     15  S2  AL9 d   1      -6.223   3.368  15.453  0.00  0.00    -0.063 SA
BRANCH  13  16
ATOM     16  S1  AL9 d   1      -5.923   0.681  16.899  0.00  0.00     0.263 S 
ATOM     17  O2A AL9 d   1      -7.333   0.863  16.870  0.00  0.00    -0.200 OA
ATOM     18  O1A AL9 d   1      -5.406   0.938  18.194  0.00  0.00    -0.200 OA
BRANCH  16  19
ATOM     19  N21 AL9 d   1      -5.419  -0.691  16.297  0.00  0.00    -0.324 N 
ATOM     20  H7  AL9 d   1      -5.646  -1.551  16.754  0.00  0.00     0.169 HD
ATOM     21  H8  AL9 d   1      -4.873  -0.699  15.459  0.00  0.00     0.169 HD
ENDBRANCH  16  19
ENDBRANCH  13  16
ENDBRANCH   6   9
ENDBRANCH   4   6
ENDBRANCH   1   4
BRANCH   1  22
ATOM     22  C10 AL9 d   1      -2.058   7.427  14.293  0.00  0.00    -0.040 A 
ATOM     23  C15 AL9 d   1      -2.005   8.026  15.548  0.00  0.00    -0.073 A 
ATOM     24  C14 AL9 d   1      -1.462   9.294  15.690  0.00  0.00    -0.050 A 
ATOM     25  H6  AL9 d   1      -2.389   7.501  16.415  0.00  0.00     0.084 H 
ATOM     26  C13 AL9 d   1      -0.966   9.979  14.586  0.00  0.00     0.068 A 
ATOM     27  H5  AL9 d   1      -1.424   9.755  16.670  0.00  0.00     0.087 H 
ATOM     28  C12 AL9 d   1      -1.025   9.369  13.322  0.00  0.00    -0.050 A 
ATOM     29  C11 AL9 d   1      -1.569   8.098  13.169  0.00  0.00    -0.073 A 
ATOM     30  H4  AL9 d   1      -0.642   9.895  12.455  0.00  0.00     0.087 H 
ATOM     31  H3  AL9 d   1      -1.613   7.634  12.190  0.00  0.00     0.084 H 
BRANCH  26  32
ATOM     32  O16 AL9 d   1      -0.448  11.169  14.767  0.00  0.00    -0.356 OA
BRANCH  32  33
ATOM     33  C17 AL9 d   1       0.054  11.794  13.562  0.00  0.00     0.010 C 
ATOM     34  H12 AL9 d   1       0.468  12.783  13.807  0.00  0.00     0.066 H 
ATOM     35  H13 AL9 d   1      -0.767  11.909  12.839  0.00  0.00     0.066 H 
ATOM     36  H14 AL9 d   1       0.843  11.165  13.124  0.00  0.00     0.066 H 
ENDBRANCH  32  33
ENDBRANCH  26  32
ENDBRANCH   1  22
TORSDOF 8
