REMARK  5 active torsions:
REMARK  status: ('A' for Active; 'I' for Inactive)
REMARK    1  A    between atoms: C3_1  and  S1_10 
REMARK    2  A    between atoms: C21_6  and  O23_23 
REMARK    3  A    between atoms: O23_23  and  C24_8 
REMARK    4  A    between atoms: S1_10  and  N21_9 
REMARK    5  A    between atoms: N8_17  and  C17_21 
ROOT
ATOM      1  C3  AL1 d   1      -5.196   2.029  15.909  0.00  0.00     0.121 A 
ATOM      2  C9  AL1 d   1      -2.649   4.822  13.005  0.00  0.00     0.014 C 
ATOM      3  C10 AL1 d   1      -2.376   3.778  14.076  0.00  0.00    -0.023 C 
ATOM      4  S2  AL1 d   1      -6.166   3.391  15.522  0.00  0.00    -0.062 SA
ATOM      5  C6  AL1 d   1      -4.823   4.029  14.700  0.00  0.00     0.128 A 
ATOM      6  C5  AL1 d   1      -3.645   3.242  14.730  0.00  0.00    -0.024 A 
ATOM      7  C4  AL1 d   1      -3.897   2.082  15.431  0.00  0.00    -0.045 A 
ATOM      8  N8  AL1 d   1      -3.492   5.851  13.587  0.00  0.00    -0.271 N 
ATOM      9  S7  AL1 d   1      -4.949   5.519  13.856  0.00  0.00     0.272 S 
ATOM     10  O3B AL1 d   1      -5.756   5.194  12.645  0.00  0.00    -0.199 OA
ATOM     11  O4B AL1 d   1      -5.752   6.572  14.530  0.00  0.00    -0.199 OA
ATOM     12  H1  AL1 d   1      -3.164   4.356  12.152  0.00  0.00     0.066 H 
ATOM     13  H2  AL1 d   1      -1.701   5.264  12.664  0.00  0.00     0.066 H 
ATOM     14  H3  AL1 d   1      -1.838   2.937  13.615  0.00  0.00     0.042 H 
ATOM     15  H4  AL1 d   1      -1.746   4.233  14.855  0.00  0.00     0.042 H 
ATOM     16  H13 AL1 d   1      -3.159   1.297  15.591  0.00  0.00     0.087 H 
ENDROOT
BRANCH   8  17
ATOM     17  C17 AL1 d   1      -3.019   7.102  13.591  0.00  0.00     0.047 A 
ATOM     18  C22 AL1 d   1      -2.447   7.552  14.758  0.00  0.00    -0.024 A 
ATOM     19  C21 AL1 d   1      -1.887   8.814  14.722  0.00  0.00     0.070 A 
ATOM     20  H7  AL1 d   1      -2.436   6.948  15.658  0.00  0.00     0.091 H 
ATOM     21  C20 AL1 d   1      -1.894   9.618  13.564  0.00  0.00    -0.051 A 
ATOM     22  C19 AL1 d   1      -2.487   9.128  12.412  0.00  0.00    -0.078 A 
ATOM     23  H6  AL1 d   1      -1.443  10.604  13.575  0.00  0.00     0.087 H 
ATOM     24  C18 AL1 d   1      -3.058   7.858  12.418  0.00  0.00    -0.056 A 
ATOM     25  H5  AL1 d   1      -2.506   9.730  11.511  0.00  0.00     0.083 H 
ATOM     26  H14 AL1 d   1      -3.526   7.462  11.524  0.00  0.00     0.086 H 
BRANCH  19  27
ATOM     27  O23 AL1 d   1      -1.340   9.194  15.837  0.00  0.00    -0.356 OA
BRANCH  27  28
ATOM     28  C24 AL1 d   1      -0.718  10.501  15.827  0.00  0.00     0.010 C 
ATOM     29  H8  AL1 d   1      -0.292  10.712  16.819  0.00  0.00     0.066 H 
ATOM     30  H9  AL1 d   1      -1.472  11.264  15.582  0.00  0.00     0.066 H 
ATOM     31  H10 AL1 d   1       0.082  10.520  15.073  0.00  0.00     0.066 H 
ENDBRANCH  27  28
ENDBRANCH  19  27
ENDBRANCH   8  17
BRANCH   1  32
ATOM     32  S1  AL1 d   1      -5.857   0.724  16.822  0.00  0.00     0.263 S 
ATOM     33  O2A AL1 d   1      -7.238   0.934  16.699  0.00  0.00    -0.200 OA
ATOM     34  O1A AL1 d   1      -5.279   0.882  18.104  0.00  0.00    -0.200 OA
BRANCH  32  35
ATOM     35  N21 AL1 d   1      -5.505  -0.638  16.366  0.00  0.00    -0.324 N 
ATOM     36  H11 AL1 d   1      -5.858  -1.436  16.855  0.00  0.00     0.169 HD
ATOM     37  H12 AL1 d   1      -4.914  -0.761  15.569  0.00  0.00     0.169 HD
ENDBRANCH  32  35
ENDBRANCH   1  32
TORSDOF 5
