REMARK  9 active torsions:
REMARK  status: ('A' for Active; 'I' for Inactive)
REMARK    1  A    between atoms: C3_1  and  S1_11 
REMARK    2  A    between atoms: C10_3  and  N15_20 
REMARK    3  A    between atoms: N8_19  and  C11_4 
REMARK    4  A    between atoms: C11_4  and  C12_5 
REMARK    5  A    between atoms: C12_5  and  O13_21 
REMARK    6  A    between atoms: O13_21  and  C14_6 
REMARK    7  A    between atoms: N15_20  and  C16_7 
REMARK    8  A    between atoms: C16_7  and  C17_22 
REMARK    9  A    between atoms: S1_11  and  N21_10 
ROOT
ATOM      1  C3  AL4 d   1      -5.411   2.130  15.994  0.00  0.00     0.121 A 
ATOM      2  C9  AL4 d   1      -3.475   5.210  12.807  0.00  0.00     0.036 C 
ATOM      3  C10 AL4 d   1      -3.090   3.910  13.561  0.00  0.00     0.145 C 
ATOM      4  C4  AL4 d   1      -4.277   2.209  15.236  0.00  0.00    -0.043 A 
ATOM      5  C5  AL4 d   1      -4.138   3.391  14.562  0.00  0.00     0.006 A 
ATOM      6  C6  AL4 d   1      -5.203   4.236  14.856  0.00  0.00     0.130 A 
ATOM      7  S2  AL4 d   1      -6.367   3.554  15.902  0.00  0.00    -0.062 SA
ATOM      8  S7  AL4 d   1      -5.346   5.867  14.338  0.00  0.00     0.268 S 
ATOM      9  O3B AL4 d   1      -6.344   5.933  13.332  0.00  0.00    -0.200 OA
ATOM     10  O4B AL4 d   1      -5.757   6.725  15.385  0.00  0.00    -0.200 OA
ATOM     11  N8  AL4 d   1      -3.959   6.120  13.837  0.00  0.00    -0.302 N 
ATOM     12  H1  AL4 d   1      -4.265   5.008  12.069  0.00  0.00     0.069 H 
ATOM     13  H2  AL4 d   1      -2.597   5.635  12.298  0.00  0.00     0.069 H 
ATOM     14  H3  AL4 d   1      -2.169   4.108  14.129  0.00  0.00     0.094 H 
ATOM     15  H15 AL4 d   1      -3.548   1.402  15.174  0.00  0.00     0.087 H 
ENDROOT
BRANCH   3  16
ATOM     16  N15 AL4 d   1      -2.809   2.905  12.539  0.00  0.00    -0.066 N 
ATOM     17  H16 AL4 d   1      -3.513   2.994  11.823  0.00  0.00     0.278 HD
ATOM     18  H17 AL4 d   1      -2.884   1.999  12.974  0.00  0.00     0.278 HD
BRANCH  16  19
ATOM     19  C16 AL4 d   1      -1.499   2.973  11.882  0.00  0.00     0.079 C 
ATOM     20  H11 AL4 d   1      -0.718   2.914  12.654  0.00  0.00     0.075 H 
ATOM     21  H12 AL4 d   1      -1.423   3.936  11.355  0.00  0.00     0.075 H 
BRANCH  19  22
ATOM     22  C17 AL4 d   1      -1.266   1.844  10.868  0.00  0.00    -0.053 C 
ATOM     23  H18 AL4 d   1      -0.269   1.957  10.416  0.00  0.00     0.029 H 
ATOM     24  H19 AL4 d   1      -2.033   1.894  10.081  0.00  0.00     0.029 H 
ATOM     25  H20 AL4 d   1      -1.329   0.873  11.380  0.00  0.00     0.029 H 
ENDBRANCH  19  22
ENDBRANCH  16  19
ENDBRANCH   3  16
BRANCH  11  26
ATOM     26  C11 AL4 d   1      -3.357   7.428  13.813  0.00  0.00     0.025 C 
ATOM     27  H4  AL4 d   1      -4.041   8.178  14.236  0.00  0.00     0.068 H 
ATOM     28  H5  AL4 d   1      -3.090   7.714  12.785  0.00  0.00     0.068 H 
BRANCH  26  29
ATOM     29  C12 AL4 d   1      -2.114   7.294  14.671  0.00  0.00     0.034 C 
ATOM     30  H6  AL4 d   1      -1.537   6.417  14.343  0.00  0.00     0.076 H 
ATOM     31  H7  AL4 d   1      -2.409   7.167  15.723  0.00  0.00     0.076 H 
BRANCH  29  32
ATOM     32  O13 AL4 d   1      -1.315   8.456  14.544  0.00  0.00    -0.394 OA
BRANCH  32  33
ATOM     33  C14 AL4 d   1      -1.898   9.614  15.144  0.00  0.00     0.004 C 
ATOM     34  H8  AL4 d   1      -1.227  10.475  15.008  0.00  0.00     0.066 H 
ATOM     35  H9  AL4 d   1      -2.050   9.433  16.218  0.00  0.00     0.066 H 
ATOM     36  H10 AL4 d   1      -2.867   9.826  14.668  0.00  0.00     0.066 H 
ENDBRANCH  32  33
ENDBRANCH  29  32
ENDBRANCH  26  29
ENDBRANCH  11  26
BRANCH   1  37
ATOM     37  S1  AL4 d   1      -5.940   0.817  16.946  0.00  0.00     0.263 S 
ATOM     38  O1A AL4 d   1      -5.369   0.906  18.247  0.00  0.00    -0.200 OA
ATOM     39  O2A AL4 d   1      -7.341   1.002  17.014  0.00  0.00    -0.200 OA
BRANCH  37  40
ATOM     40  N21 AL4 d   1      -5.515  -0.474  16.348  0.00  0.00    -0.324 N 
ATOM     41  H13 AL4 d   1      -5.754  -1.335  16.797  0.00  0.00     0.169 HD
ATOM     42  H14 AL4 d   1      -4.990  -0.482  15.497  0.00  0.00     0.169 HD
ENDBRANCH  37  40
ENDBRANCH   1  37
TORSDOF 9
