REMARK  5 active torsions:
REMARK  status: ('A' for Active; 'I' for Inactive)
REMARK    1  A    between atoms: C3_1  and  S1_14 
REMARK    2  A    between atoms: C10_4  and  O5_2 
REMARK    3  A    between atoms: C14_8  and  O6_23 
REMARK    4  A    between atoms: S1_14  and  N21_13 
REMARK    5  A    between atoms: O6_23  and  C17_24 
ROOT
ATOM      1  C3  AL2 d   1      -5.298   2.071  15.976  0.00  0.00     0.121 A 
ATOM      2  C9  AL2 d   1      -3.140   5.067  12.835  0.00  0.00     0.038 C 
ATOM      3  C10 AL2 d   1      -2.757   3.841  13.697  0.00  0.00     0.079 C 
ATOM      4  C11 AL2 d   1      -3.018   7.290  13.832  0.00  0.00     0.045 A 
ATOM      5  C12 AL2 d   1      -2.963   8.031  12.643  0.00  0.00    -0.054 A 
ATOM      6  C13 AL2 d   1      -2.425   9.316  12.657  0.00  0.00    -0.049 A 
ATOM      7  C14 AL2 d   1      -1.925   9.835  13.853  0.00  0.00     0.068 A 
ATOM      8  C15 AL2 d   1      -1.951   9.088  15.040  0.00  0.00    -0.049 A 
ATOM      9  C16 AL2 d   1      -2.507   7.811  15.028  0.00  0.00    -0.054 A 
ATOM     10  C4  AL2 d   1      -4.115   2.147  15.289  0.00  0.00    -0.043 A 
ATOM     11  C5  AL2 d   1      -3.885   3.325  14.626  0.00  0.00     0.004 A 
ATOM     12  C6  AL2 d   1      -4.945   4.189  14.842  0.00  0.00     0.131 A 
ATOM     13  S2  AL2 d   1      -6.191   3.526  15.811  0.00  0.00    -0.062 SA
ATOM     14  S7  AL2 d   1      -4.963   5.796  14.237  0.00  0.00     0.272 S 
ATOM     15  O3B AL2 d   1      -5.873   5.845  13.141  0.00  0.00    -0.199 OA
ATOM     16  O4B AL2 d   1      -5.453   6.617  15.301  0.00  0.00    -0.199 OA
ATOM     17  N8  AL2 d   1      -3.520   6.047  13.837  0.00  0.00    -0.269 N 
ATOM     18  H2  AL2 d   1      -3.982   4.835  12.166  0.00  0.00     0.070 H 
ATOM     19  H3  AL2 d   1      -2.284   5.418  12.240  0.00  0.00     0.070 H 
ATOM     20  H4  AL2 d   1      -1.895   4.110  14.326  0.00  0.00     0.093 H 
ATOM     21  H5  AL2 d   1      -3.337   7.606  11.718  0.00  0.00     0.087 H 
ATOM     22  H6  AL2 d   1      -2.395   9.907  11.749  0.00  0.00     0.087 H 
ATOM     23  H7  AL2 d   1      -1.543   9.500  15.956  0.00  0.00     0.087 H 
ATOM     24  H8  AL2 d   1      -2.544   7.224  15.938  0.00  0.00     0.087 H 
ATOM     25  H11 AL2 d   1      -3.402   1.324  15.271  0.00  0.00     0.087 H 
ENDROOT
BRANCH   3  26
ATOM     26  O5  AL2 d   1      -2.384   2.815  12.791  0.00  0.00    -0.389 OA
ATOM     27  H1  AL2 d   1      -2.139   2.037  13.278  0.00  0.00     0.210 HD
ENDBRANCH   3  26
BRANCH   7  28
ATOM     28  O6  AL2 d   1      -1.458  11.137  13.828  0.00  0.00    -0.356 OA
BRANCH  28  29
ATOM     29  C17 AL2 d   1      -0.075  11.272  13.463  0.00  0.00     0.010 C 
ATOM     30  H12 AL2 d   1       0.204  12.336  13.470  0.00  0.00     0.066 H 
ATOM     31  H13 AL2 d   1       0.080  10.859  12.455  0.00  0.00     0.066 H 
ATOM     32  H14 AL2 d   1       0.550  10.724  14.184  0.00  0.00     0.066 H 
ENDBRANCH  28  29
ENDBRANCH   7  28
BRANCH   1  33
ATOM     33  S1  AL2 d   1      -5.908   0.757  16.895  0.00  0.00     0.263 S 
ATOM     34  O1A AL2 d   1      -5.486   0.818  18.238  0.00  0.00    -0.200 OA
ATOM     35  O2A AL2 d   1      -7.310   0.923  16.875  0.00  0.00    -0.200 OA
BRANCH  33  36
ATOM     36  N21 AL2 d   1      -5.520  -0.531  16.293  0.00  0.00    -0.324 N 
ATOM     37  H9  AL2 d   1      -5.805  -1.389  16.721  0.00  0.00     0.169 HD
ATOM     38  H10 AL2 d   1      -4.972  -0.547  15.457  0.00  0.00     0.169 HD
ENDBRANCH  33  36
ENDBRANCH   1  33
TORSDOF 5
