REMARK  5 active torsions:
REMARK  status: ('A' for Active; 'I' for Inactive)
REMARK    1  A    between atoms: C3_1  and  S1_13 
REMARK    2  A    between atoms: C10_4  and  O5_2 
REMARK    3  A    between atoms: N8_21  and  C11_5 
REMARK    4  A    between atoms: C11_5  and  C12_6 
REMARK    5  A    between atoms: S1_13  and  N21_12 
ROOT
ATOM      1  C3  AL3 d   1      -5.387   2.133  15.872  0.00  0.00     0.121 A 
ATOM      2  C9  AL3 d   1      -3.396   5.167  12.736  0.00  0.00     0.022 C 
ATOM      3  C10 AL3 d   1      -2.952   4.003  13.675  0.00  0.00     0.075 C 
ATOM      4  C4  AL3 d   1      -4.264   2.205  15.113  0.00  0.00    -0.043 A 
ATOM      5  C5  AL3 d   1      -4.136   3.359  14.401  0.00  0.00     0.003 A 
ATOM      6  C6  AL3 d   1      -5.200   4.194  14.636  0.00  0.00     0.125 A 
ATOM      7  S2  AL3 d   1      -6.343   3.540  15.723  0.00  0.00    -0.063 SA
ATOM      8  S7  AL3 d   1      -5.315   5.818  14.061  0.00  0.00     0.251 S 
ATOM      9  O3B AL3 d   1      -6.297   5.826  13.050  0.00  0.00    -0.205 OA
ATOM     10  O4B AL3 d   1      -5.848   6.635  15.102  0.00  0.00    -0.205 OA
ATOM     11  N8  AL3 d   1      -3.984   6.239  13.536  0.00  0.00    -0.199 NA
ATOM     12  H2  AL3 d   1      -4.141   4.795  12.017  0.00  0.00     0.061 H 
ATOM     13  H3  AL3 d   1      -2.522   5.553  12.191  0.00  0.00     0.061 H 
ATOM     14  H4  AL3 d   1      -2.245   4.392  14.423  0.00  0.00     0.092 H 
ATOM     15  H12 AL3 d   1      -3.526   1.405  15.076  0.00  0.00     0.087 H 
ENDROOT
BRANCH  11  16
ATOM     16  C11 AL3 d   1      -3.025   6.620  14.575  0.00  0.00     0.023 C 
ATOM     17  H5  AL3 d   1      -2.241   5.852  14.650  0.00  0.00     0.065 H 
ATOM     18  H6  AL3 d   1      -3.546   6.708  15.540  0.00  0.00     0.065 H 
BRANCH  16  19
ATOM     19  C12 AL3 d   1      -2.426   7.885  14.236  0.00  0.00    -0.004 A 
ATOM     20  S16 AL3 d   1      -1.632   8.781  15.467  0.00  0.00    -0.105 SA
ATOM     21  C15 AL3 d   1      -1.298  10.036  14.324  0.00  0.00    -0.044 A 
ATOM     22  C14 AL3 d   1      -1.794   9.723  13.068  0.00  0.00    -0.076 A 
ATOM     23  H9  AL3 d   1      -0.765  10.956  14.561  0.00  0.00     0.095 H 
ATOM     24  C13 AL3 d   1      -2.430   8.512  13.005  0.00  0.00    -0.069 A 
ATOM     25  H8  AL3 d   1      -1.687  10.382  12.207  0.00  0.00     0.084 H 
ATOM     26  H7  AL3 d   1      -2.880   8.098  12.104  0.00  0.00     0.085 H 
ENDBRANCH  16  19
ENDBRANCH  11  16
BRANCH   3  27
ATOM     27  O5  AL3 d   1      -2.310   3.026  12.870  0.00  0.00    -0.390 OA
ATOM     28  H1  AL3 d   1      -2.028   2.302  13.417  0.00  0.00     0.210 HD
ENDBRANCH   3  27
BRANCH   1  29
ATOM     29  S1  AL3 d   1      -5.881   0.835  16.856  0.00  0.00     0.263 S 
ATOM     30  O1A AL3 d   1      -5.461   0.987  18.189  0.00  0.00    -0.200 OA
ATOM     31  O2A AL3 d   1      -7.304   0.850  16.894  0.00  0.00    -0.200 OA
BRANCH  29  32
ATOM     32  N21 AL3 d   1      -5.354  -0.394  16.236  0.00  0.00    -0.324 N 
ATOM     33  H10 AL3 d   1      -5.531  -1.283  16.659  0.00  0.00     0.169 HD
ATOM     34  H11 AL3 d   1      -4.819  -0.339  15.393  0.00  0.00     0.169 HD
ENDBRANCH  29  32
ENDBRANCH   1  29
TORSDOF 5
