REMARK  7 active torsions:
REMARK  status: ('A' for Active; 'I' for Inactive)
REMARK    1  A    between atoms: C3_1  and  S1_11 
REMARK    2  A    between atoms: C10_3  and  N15_22 
REMARK    3  A    between atoms: N15_22  and  C16_4 
REMARK    4  A    between atoms: C21_7  and  O23_25 
REMARK    5  A    between atoms: O23_25  and  C24_9 
REMARK    6  A    between atoms: S1_11  and  N21_10 
REMARK    7  A    between atoms: N8_18  and  C17_23 
ROOT
ATOM      1  C3  AL7 d   1      -5.457   1.879  15.876  0.00  0.00     0.121 A 
ATOM      2  C9  AL7 d   1      -4.142   4.635  12.254  0.00  0.00     0.041 C 
ATOM      3  C10 AL7 d   1      -3.484   3.472  13.012  0.00  0.00     0.145 C 
ATOM      4  S2  AL7 d   1      -6.148   3.441  16.036  0.00  0.00    -0.062 SA
ATOM      5  C6  AL7 d   1      -5.215   3.957  14.720  0.00  0.00     0.130 A 
ATOM      6  C5  AL7 d   1      -4.377   2.990  14.153  0.00  0.00     0.006 A 
ATOM      7  C4  AL7 d   1      -4.544   1.808  14.839  0.00  0.00    -0.043 A 
ATOM      8  N8  AL7 d   1      -4.191   5.736  13.214  0.00  0.00    -0.269 N 
ATOM      9  S7  AL7 d   1      -5.345   5.564  14.155  0.00  0.00     0.272 S 
ATOM     10  O3B AL7 d   1      -6.628   5.742  13.410  0.00  0.00    -0.199 OA
ATOM     11  O4B AL7 d   1      -5.266   6.431  15.364  0.00  0.00    -0.199 OA
ATOM     12  H1  AL7 d   1      -5.157   4.360  11.930  0.00  0.00     0.069 H 
ATOM     13  H2  AL7 d   1      -3.540   4.914  11.377  0.00  0.00     0.069 H 
ATOM     14  H3  AL7 d   1      -3.357   2.637  12.308  0.00  0.00     0.094 H 
ATOM     15  H15 AL7 d   1      -4.004   0.896  14.587  0.00  0.00     0.087 H 
ENDROOT
BRANCH   8  16
ATOM     16  C17 AL7 d   1      -3.391   6.819  13.181  0.00  0.00     0.048 A 
ATOM     17  C22 AL7 d   1      -2.646   7.292  14.281  0.00  0.00    -0.024 A 
ATOM     18  C21 AL7 d   1      -1.914   8.483  14.161  0.00  0.00     0.070 A 
ATOM     19  H9  AL7 d   1      -2.639   6.739  15.213  0.00  0.00     0.091 H 
ATOM     20  C20 AL7 d   1      -1.896   9.192  12.963  0.00  0.00    -0.051 A 
ATOM     21  C19 AL7 d   1      -2.617   8.721  11.878  0.00  0.00    -0.078 A 
ATOM     22  H8  AL7 d   1      -1.321  10.107  12.880  0.00  0.00     0.087 H 
ATOM     23  C18 AL7 d   1      -3.359   7.548  11.985  0.00  0.00    -0.056 A 
ATOM     24  H7  AL7 d   1      -2.603   9.268  10.942  0.00  0.00     0.083 H 
ATOM     25  H18 AL7 d   1      -3.921   7.193  11.129  0.00  0.00     0.086 H 
BRANCH  18  26
ATOM     26  O23 AL7 d   1      -1.311   8.895  15.238  0.00  0.00    -0.356 OA
BRANCH  26  27
ATOM     27  C24 AL7 d   1      -0.603  10.141  15.242  0.00  0.00     0.010 C 
ATOM     28  H10 AL7 d   1      -0.166  10.311  16.237  0.00  0.00     0.066 H 
ATOM     29  H11 AL7 d   1      -1.299  10.959  15.003  0.00  0.00     0.066 H 
ATOM     30  H12 AL7 d   1       0.199  10.110  14.489  0.00  0.00     0.066 H 
ENDBRANCH  26  27
ENDBRANCH  18  26
ENDBRANCH   8  16
BRANCH   3  31
ATOM     31  N15 AL7 d   1      -2.162   3.854  13.498  0.00  0.00    -0.069 N 
ATOM     32  H16 AL7 d   1      -1.959   3.537  14.433  0.00  0.00     0.277 HD
ATOM     33  H17 AL7 d   1      -1.966   4.840  13.428  0.00  0.00     0.277 HD
BRANCH  31  34
ATOM     34  C16 AL7 d   1      -1.547   3.046  12.446  0.00  0.00     0.065 C 
ATOM     35  H4  AL7 d   1      -0.452   3.113  12.525  0.00  0.00     0.067 H 
ATOM     36  H5  AL7 d   1      -1.867   3.420  11.462  0.00  0.00     0.067 H 
ATOM     37  H6  AL7 d   1      -1.859   1.997  12.559  0.00  0.00     0.067 H 
ENDBRANCH  31  34
ENDBRANCH   3  31
BRANCH   1  38
ATOM     38  S1  AL7 d   1      -5.932   0.597  16.939  0.00  0.00     0.263 S 
ATOM     39  O2A AL7 d   1      -7.314   0.773  16.914  0.00  0.00    -0.200 OA
ATOM     40  O1A AL7 d   1      -5.314   0.852  18.188  0.00  0.00    -0.200 OA
BRANCH  38  41
ATOM     41  N21 AL7 d   1      -5.608  -0.756  16.435  0.00  0.00    -0.324 N 
ATOM     42  H13 AL7 d   1      -5.843  -1.562  16.979  0.00  0.00     0.169 HD
ATOM     43  H14 AL7 d   1      -5.154  -0.865  15.551  0.00  0.00     0.169 HD
ENDBRANCH  38  41
ENDBRANCH   1  38
TORSDOF 7
