REMARK  6 active torsions:
REMARK  status: ('A' for Active; 'I' for Inactive)
REMARK    1  A    between atoms: C3_1  and  S1_10 
REMARK    2  A    between atoms: N8_18  and  C9_2 
REMARK    3  A    between atoms: C9_2  and  C10_3 
REMARK    4  A    between atoms: S1_10  and  N21_9 
REMARK    5  A    between atoms: C6_13  and  S7_15 
REMARK    6  A    between atoms: S7_15  and  N8_18 
ROOT
ATOM      1  S7  TPD d   1      -5.022   5.698  13.858  0.00  0.00     0.265 S 
ATOM      2  O3B TPD d   1      -4.927   5.499  12.442  0.00  0.00    -0.200 OA
ATOM      3  O4B TPD d   1      -6.308   6.244  14.191  0.00  0.00    -0.200 OA
ENDROOT
BRANCH   1   4
ATOM      4  C6  TPD d   1      -4.886   4.136  14.603  0.00  0.00     0.121 A 
ATOM      5  C5  TPD d   1      -3.822   3.265  14.557  0.00  0.00    -0.052 A 
ATOM      6  C4  TPD d   1      -4.040   2.104  15.252  0.00  0.00    -0.052 A 
ATOM      7  H9  TPD d   1      -2.898   3.477  14.021  0.00  0.00     0.086 H 
ATOM      8  C3  TPD d   1      -5.272   2.093  15.830  0.00  0.00     0.121 A 
ATOM      9  H8  TPD d   1      -3.318   1.292  15.332  0.00  0.00     0.086 H 
ATOM     10  S2  TPD d   1      -6.178   3.517  15.516  0.00  0.00    -0.063 SA
BRANCH   8  11
ATOM     11  S1  TPD d   1      -5.899   0.828  16.815  0.00  0.00     0.263 S 
ATOM     12  O1A TPD d   1      -5.475   1.074  18.158  0.00  0.00    -0.200 OA
ATOM     13  O2A TPD d   1      -7.315   0.975  16.744  0.00  0.00    -0.200 OA
BRANCH  11  14
ATOM     14  N21 TPD d   1      -5.399  -0.472  16.289  0.00  0.00    -0.324 N 
ATOM     15  H6  TPD d   1      -5.661  -1.327  16.737  0.00  0.00     0.169 HD
ATOM     16  H7  TPD d   1      -4.801  -0.490  15.488  0.00  0.00     0.169 HD
ENDBRANCH  11  14
ENDBRANCH   8  11
ENDBRANCH   1   4
BRANCH   1  17
ATOM     17  N8  TPD d   1      -3.963   6.596  14.412  0.00  0.00    -0.310 N 
ATOM     18  H10 TPD d   1      -4.187   7.337  15.045  0.00  0.00     0.172 HD
BRANCH  17  19
ATOM     19  C9  TPD d   1      -2.588   6.346  13.990  0.00  0.00     0.033 C 
ATOM     20  H1  TPD d   1      -2.552   5.831  13.019  0.00  0.00     0.073 H 
ATOM     21  H2  TPD d   1      -2.038   5.757  14.738  0.00  0.00     0.073 H 
BRANCH  19  22
ATOM     22  C10 TPD d   1      -2.072   7.696  13.894  0.00  0.00     0.001 A 
ATOM     23  S14 TPD d   1      -1.413   8.561  15.246  0.00  0.00    -0.105 SA
ATOM     24  C13 TPD d   1      -1.193   9.956  14.236  0.00  0.00    -0.044 A 
ATOM     25  C12 TPD d   1      -1.614   9.713  12.939  0.00  0.00    -0.076 A 
ATOM     26  H5  TPD d   1      -0.777  10.902  14.579  0.00  0.00     0.095 H 
ATOM     27  C11 TPD d   1      -2.106   8.444  12.733  0.00  0.00    -0.068 A 
ATOM     28  H4  TPD d   1      -1.560  10.462  12.150  0.00  0.00     0.084 H 
ATOM     29  H3  TPD d   1      -2.475   8.076  11.777  0.00  0.00     0.085 H 
ENDBRANCH  19  22
ENDBRANCH  17  19
ENDBRANCH   1  17
TORSDOF 6
