REMARK  5 active torsions:
REMARK  status: ('A' for Active; 'I' for Inactive)
REMARK    1  A    between atoms: N1_1  and  C1_9 
REMARK    2  A    between atoms: C3_11  and  O3_13 
REMARK    3  A    between atoms: C4_12  and  C5_15 
REMARK    4  A    between atoms: C5_15  and  O5_16 
REMARK    5  A    between atoms: O5_16  and  P_17 
ROOT
ATOM      1  C1  UMP d   1      15.586  49.178 -55.150  0.00  0.00     0.116 C 
ATOM      2  C2  UMP d   1      14.998  48.878 -56.528  0.00  0.00     0.002 C 
ATOM      3  C3  UMP d   1      16.231  49.011 -57.408  0.00  0.00     0.066 C 
ATOM      4  C4  UMP d   1      16.930  50.302 -56.963  0.00  0.00     0.087 C 
ATOM      5  O4  UMP d   1      16.522  50.302 -55.503  0.00  0.00    -0.356 OA
ATOM      6  H4  UMP d   1      16.196  48.317 -54.838  0.00  0.00     0.118 H 
ATOM      7  H5  UMP d   1      14.224  49.609 -56.804  0.00  0.00     0.043 H 
ATOM      8  H6  UMP d   1      14.577  47.863 -56.575  0.00  0.00     0.043 H 
ATOM      9  H7  UMP d   1      15.980  49.028 -58.479  0.00  0.00     0.087 H 
ATOM     10  H8  UMP d   1      18.020  50.267 -57.103  0.00  0.00     0.090 H 
ENDROOT
BRANCH   1  11
ATOM     11  N1  UMP d   1      14.632  49.369 -54.067  0.00  0.00    -0.282 N 
ATOM     12  C2  UMP d   1      13.759  48.360 -53.613  0.00  0.00     0.331 A 
ATOM     13  N3  UMP d   1      12.908  48.772 -52.601  0.00  0.00    -0.275 N 
ATOM     14  O2  UMP d   1      13.683  47.193 -54.004  0.00  0.00    -0.246 OA
ATOM     15  C4  UMP d   1      12.872  50.053 -52.034  0.00  0.00     0.250 A 
ATOM     16  H1  UMP d   1      12.263  48.096 -52.244  0.00  0.00     0.173 HD
ATOM     17  C5  UMP d   1      13.818  51.008 -52.578  0.00  0.00    -0.002 A 
ATOM     18  O4  UMP d   1      12.082  50.312 -51.131  0.00  0.00    -0.268 OA
ATOM     19  C6  UMP d   1      14.671  50.596 -53.594  0.00  0.00    -0.008 A 
ATOM     20  H2  UMP d   1      13.859  52.028 -52.198  0.00  0.00     0.094 H 
ATOM     21  H3  UMP d   1      15.387  51.304 -54.008  0.00  0.00     0.112 H 
ENDBRANCH   1  11
BRANCH   3  22
ATOM     22  O3  UMP d   1      17.086  47.897 -57.073  0.00  0.00    -0.393 OA
ATOM     23  H9  UMP d   1      16.669  47.087 -57.342  0.00  0.00     0.210 HD
ENDBRANCH   3  22
BRANCH   4  24
ATOM     24  C5  UMP d   1      16.333  51.521 -57.679  0.00  0.00     0.059 C 
ATOM     25  H10 UMP d   1      16.654  52.436 -57.159  0.00  0.00     0.079 H 
ATOM     26  H11 UMP d   1      15.236  51.451 -57.654  0.00  0.00     0.079 H 
BRANCH  24  27
ATOM     27  O5  UMP d   1      16.783  51.582 -59.090  0.00  0.00    -0.280 OA
BRANCH  27  28
ATOM     28  P   UMP d   1      15.834  52.212 -60.167  0.00  0.00     0.422 P 
ATOM     29  O1P UMP d   1      14.785  51.209 -60.290  0.00  0.00    -0.617 OA
ATOM     30  O2P UMP d   1      15.274  53.490 -59.674  0.00  0.00    -0.617 OA
ATOM     31  O3P UMP d   1      16.370  52.467 -61.510  0.00  0.00    -0.617 OA
ENDBRANCH  27  28
ENDBRANCH  24  27
ENDBRANCH   4  24
TORSDOF 5
