REMARK  5 active torsions:
REMARK  status: ('A' for Active; 'I' for Inactive)
REMARK    1  A    between atoms: C7_5  and  N11_8 
REMARK    2  A    between atoms: C10_7  and  C13_15 
REMARK    3  A    between atoms: C20_22  and  C21_10 
REMARK    4  A    between atoms: C13_15  and  N14_16 
REMARK    5  A    between atoms: N14_16  and  C15_17 
ROOT
ATOM      1  C13 PT1 d   1      -1.213   2.738   6.677  0.00  0.00     0.034 C 
ATOM      2  H5  PT1 d   1      -2.139   2.496   7.219  0.00  0.00     0.073 H 
ATOM      3  H6  PT1 d   1      -1.237   2.270   5.682  0.00  0.00     0.073 H 
ENDROOT
BRANCH   1   4
ATOM      4  C10 PT1 d   1      -0.028   2.207   7.450  0.00  0.00     0.070 A 
ATOM      5  C12 PT1 d   1       1.276   2.427   6.981  0.00  0.00     0.030 A 
ATOM      6  N8  PT1 d   1       2.336   2.085   7.730  0.00  0.00    -0.237 NA
ATOM      7  H3  PT1 d   1       1.429   2.877   6.006  0.00  0.00     0.118 H 
ATOM      8  C5  PT1 d   1       2.125   1.518   8.935  0.00  0.00     0.201 A 
ATOM      9  C3  PT1 d   1       0.798   1.310   9.414  0.00  0.00     0.160 A 
ATOM     10  N9  PT1 d   1       3.227   1.172   9.663  0.00  0.00    -0.043 NA
ATOM     11  C2  PT1 d   1       0.678   0.705  10.675  0.00  0.00     0.226 A 
ATOM     12  N6  PT1 d   1      -0.251   1.638   8.659  0.00  0.00    -0.242 NA
ATOM     13  N4  PT1 d   1       1.783   0.357  11.420  0.00  0.00    -0.164 N 
ATOM     14  O1  PT1 d   1      -0.569   0.477  11.197  0.00  0.00    -0.169 OA
ATOM     15  C7  PT1 d   1       2.978   0.608  10.859  0.00  0.00     0.702 A 
ATOM     16  H4  PT1 d   1       1.701  -0.058  12.326  0.00  0.00     0.186 HD
BRANCH  15  17
ATOM     17  N11 PT1 d   1       4.076   0.335  11.612  0.00  0.00    -0.233 N 
ATOM     18  H1  PT1 d   1       5.017   0.508  11.232  0.00  0.00     0.174 HD
ATOM     19  H2  PT1 d   1       3.967  -0.045  12.563  0.00  0.00     0.174 HD
ENDBRANCH  15  17
ENDBRANCH   1   4
BRANCH   1  20
ATOM     20  N14 PT1 d   1      -1.107   4.165   6.530  0.00  0.00    -0.384 N 
ATOM     21  H7  PT1 d   1      -1.220   4.587   5.597  0.00  0.00     0.160 HD
BRANCH  20  22
ATOM     22  C15 PT1 d   1      -0.855   4.985   7.624  0.00  0.00     0.028 A 
ATOM     23  C17 PT1 d   1      -1.650   4.939   8.772  0.00  0.00    -0.057 A 
ATOM     24  C19 PT1 d   1      -1.398   5.817   9.835  0.00  0.00    -0.064 A 
ATOM     25  H9  PT1 d   1      -2.462   4.224   8.841  0.00  0.00     0.086 H 
ATOM     26  C20 PT1 d   1      -0.363   6.746   9.756  0.00  0.00     0.041 A 
ATOM     27  H11 PT1 d   1      -2.014   5.773  10.726  0.00  0.00     0.085 H 
ATOM     28  C18 PT1 d   1       0.438   6.785   8.630  0.00  0.00    -0.064 A 
ATOM     29  C16 PT1 d   1       0.194   5.915   7.566  0.00  0.00    -0.057 A 
ATOM     30  H10 PT1 d   1       1.257   7.493   8.573  0.00  0.00     0.085 H 
ATOM     31  H8  PT1 d   1       0.823   5.958   6.684  0.00  0.00     0.086 H 
BRANCH  26  32
ATOM     32  C21 PT1 d   1      -0.139   7.719  10.880  0.00  0.00     0.209 C 
ATOM     33  O23 PT1 d   1      -1.086   7.944  11.724  0.00  0.00    -0.644 OA
ATOM     34  O22 PT1 d   1       0.975   8.347  11.022  0.00  0.00    -0.644 OA
ENDBRANCH  26  32
ENDBRANCH  20  22
ENDBRANCH   1  20
TORSDOF 5
