REMARK  2 active torsions:
REMARK  status: ('A' for Active; 'I' for Inactive)
REMARK    1  A    between atoms: C1_1  and  C_7 
REMARK    2  A    between atoms: C_7  and  N1_8 
ROOT
ATOM      1  C1  BEN d   1      29.153  14.938  16.613  0.00  0.00     0.007 A 
ATOM      2  C2  BEN d   1      28.717  15.569  17.779  0.00  0.00    -0.069 A 
ATOM      3  C3  BEN d   1      28.369  14.875  18.919  0.00  0.00    -0.082 A 
ATOM      4  C4  BEN d   1      28.445  13.515  18.928  0.00  0.00    -0.083 A 
ATOM      5  C5  BEN d   1      28.868  12.861  17.799  0.00  0.00    -0.082 A 
ATOM      6  C6  BEN d   1      29.219  13.554  16.660  0.00  0.00    -0.069 A 
ATOM      7  H1  BEN d   1      28.649  16.651  17.789  0.00  0.00     0.085 H 
ATOM      8  H2  BEN d   1      28.037  15.409  19.802  0.00  0.00     0.083 H 
ATOM      9  H3  BEN d   1      28.174  12.956  19.817  0.00  0.00     0.083 H 
ATOM     10  H4  BEN d   1      28.927  11.779  17.802  0.00  0.00     0.083 H 
ATOM     11  H5  BEN d   1      29.552  13.007  15.786  0.00  0.00     0.085 H 
ENDROOT
BRANCH   1  12
ATOM     12  C   BEN d   1      29.498  15.648  15.457  0.00  0.00     0.102 C 
ATOM     13  N2  BEN d   1      29.094  16.893  15.322  0.00  0.00    -0.385 N 
ATOM     14  H8  BEN d   1      28.531  17.335  16.062  0.00  0.00     0.157 HD
ATOM     15  H9  BEN d   1      29.341  17.426  14.476  0.00  0.00     0.157 HD
BRANCH  12  16
ATOM     16  N1  BEN d   1      30.221  15.046  14.532  0.00  0.00    -0.385 N 
ATOM     17  H6  BEN d   1      30.485  15.552  13.675  0.00  0.00     0.157 HD
ATOM     18  H7  BEN d   1      30.521  14.070  14.667  0.00  0.00     0.157 HD
ENDBRANCH  12  16
ENDBRANCH   1  12
TORSDOF 2
