REMARK  14 active torsions:
REMARK  status: ('A' for Active; 'I' for Inactive)
REMARK    1  A    between atoms: C4_9  and  O4_2 
REMARK    2  A    between atoms: C5_10  and  O5_3 
REMARK    3  A    between atoms: N2_4  and  C2_7 
REMARK    4  A    between atoms: N7_5  and  C7_12 
REMARK    5  A    between atoms: C2_7  and  C20_27 
REMARK    6  A    between atoms: C3_8  and  C31_13 
REMARK    7  A    between atoms: C6_11  and  C61_20 
REMARK    8  A    between atoms: C7_12  and  C70_41 
REMARK    9  A    between atoms: C31_13  and  C32_14 
REMARK   10  A    between atoms: C61_20  and  C62_21 
REMARK   11  A    between atoms: C22_29  and  C26_33 
REMARK       I    between atoms: C26_33  and  N26_35 
REMARK   12  A    between atoms: N26_35  and  C27_37 
REMARK   13  A    between atoms: C72_43  and  C76_47 
REMARK       I    between atoms: C76_47  and  N76_49 
REMARK   14  A    between atoms: N76_49  and  C77_51 
ROOT
ATOM      1  O1  XV6 d   1      -8.243  14.227  27.865  0.00  0.00    -0.247 OA
ATOM      2  N2  XV6 d   1      -9.653  15.574  28.900  0.00  0.00    -0.322 N 
ATOM      3  N7  XV6 d   1      -8.686  16.093  26.792  0.00  0.00    -0.322 N 
ATOM      4  C1  XV6 d   1      -8.859  15.282  27.852  0.00  0.00     0.322 C 
ATOM      5  C3  XV6 d   1     -10.812  16.472  28.862  0.00  0.00     0.047 C 
ATOM      6  C4  XV6 d   1     -10.549  17.940  28.543  0.00  0.00     0.082 C 
ATOM      7  C5  XV6 d   1     -10.194  18.136  27.084  0.00  0.00     0.082 C 
ATOM      8  C6  XV6 d   1      -8.813  17.577  26.823  0.00  0.00     0.047 C 
ATOM      9  H5  XV6 d   1     -11.185  16.507  29.896  0.00  0.00     0.077 H 
ATOM     10  H6  XV6 d   1      -9.704  18.288  29.155  0.00  0.00     0.090 H 
ATOM     11  H7  XV6 d   1     -10.944  17.636  26.454  0.00  0.00     0.090 H 
ATOM     12  H8  XV6 d   1      -8.591  17.891  25.793  0.00  0.00     0.077 H 
ENDROOT
BRANCH   2  13
ATOM     13  C2  XV6 d   1      -9.421  14.815  30.135  0.00  0.00     0.024 C 
ATOM     14  H3  XV6 d   1      -8.475  14.266  30.013  0.00  0.00     0.071 H 
ATOM     15  H4  XV6 d   1     -10.249  14.099  30.243  0.00  0.00     0.071 H 
BRANCH  13  16
ATOM     16  C20 XV6 d   1      -9.328  15.597  31.419  0.00  0.00    -0.039 A 
ATOM     17  C25 XV6 d   1      -8.561  16.781  31.519  0.00  0.00    -0.075 A 
ATOM     18  C24 XV6 d   1      -8.451  17.457  32.747  0.00  0.00    -0.081 A 
ATOM     19  H28 XV6 d   1      -8.055  17.170  30.643  0.00  0.00     0.084 H 
ATOM     20  C23 XV6 d   1      -9.124  16.969  33.879  0.00  0.00    -0.068 A 
ATOM     21  H27 XV6 d   1      -7.847  18.354  32.820  0.00  0.00     0.083 H 
ATOM     22  C22 XV6 d   1      -9.898  15.797  33.778  0.00  0.00     0.033 A 
ATOM     23  H26 XV6 d   1      -9.048  17.492  34.825  0.00  0.00     0.085 H 
ATOM     24  C21 XV6 d   1      -9.995  15.108  32.550  0.00  0.00    -0.060 A 
ATOM     25  H25 XV6 d   1     -10.585  14.201  32.482  0.00  0.00     0.086 H 
BRANCH  22  26
ATOM     26  C26 XV6 d   1     -10.652  15.313  34.970  0.00  0.00     0.257 C 
ATOM     27  N26 XV6 d   1     -10.916  14.001  34.901  0.00  0.00    -0.301 N 
ATOM     28  H29 XV6 d   1     -10.685  13.525  34.053  0.00  0.00     0.171 HD
ATOM     29  O26 XV6 d   1     -10.969  16.014  35.920  0.00  0.00    -0.267 OA
BRANCH  27  30
ATOM     30  C27 XV6 d   1     -11.519  13.215  35.980  0.00  0.00     0.173 A 
ATOM     31  N27 XV6 d   1     -11.546  11.870  36.035  0.00  0.00    -0.236 NA
ATOM     32  C28 XV6 d   1     -12.245  11.403  37.121  0.00  0.00     0.011 A 
ATOM     33  C29 XV6 d   1     -12.790  12.393  37.965  0.00  0.00    -0.025 A 
ATOM     34  H30 XV6 d   1     -12.370  10.339  37.317  0.00  0.00     0.115 H 
ATOM     35  S29 XV6 d   1     -12.350  13.874  37.285  0.00  0.00    -0.062 SA
ATOM     36  H31 XV6 d   1     -13.375  12.234  38.870  0.00  0.00     0.097 H 
ENDBRANCH  27  30
ENDBRANCH  22  26
ENDBRANCH  13  16
ENDBRANCH   2  13
BRANCH   5  37
ATOM     37  C31 XV6 d   1     -11.911  15.732  28.064  0.00  0.00    -0.019 C 
ATOM     38  H11 XV6 d   1     -11.489  15.385  27.109  0.00  0.00     0.043 H 
ATOM     39  H12 XV6 d   1     -12.741  16.427  27.867  0.00  0.00     0.043 H 
BRANCH  37  40
ATOM     40  C32 XV6 d   1     -12.443  14.530  28.838  0.00  0.00    -0.056 A 
ATOM     41  C37 XV6 d   1     -13.280  14.733  29.969  0.00  0.00    -0.077 A 
ATOM     42  C36 XV6 d   1     -13.730  13.624  30.714  0.00  0.00    -0.082 A 
ATOM     43  H17 XV6 d   1     -13.571  15.737  30.257  0.00  0.00     0.084 H 
ATOM     44  C35 XV6 d   1     -13.341  12.317  30.334  0.00  0.00    -0.083 A 
ATOM     45  H16 XV6 d   1     -14.372  13.772  31.575  0.00  0.00     0.083 H 
ATOM     46  C34 XV6 d   1     -12.516  12.109  29.213  0.00  0.00    -0.082 A 
ATOM     47  H15 XV6 d   1     -13.682  11.467  30.913  0.00  0.00     0.083 H 
ATOM     48  C33 XV6 d   1     -12.072  13.214  28.461  0.00  0.00    -0.077 A 
ATOM     49  H14 XV6 d   1     -12.224  11.104  28.930  0.00  0.00     0.083 H 
ATOM     50  H13 XV6 d   1     -11.444  13.058  27.591  0.00  0.00     0.084 H 
ENDBRANCH  37  40
ENDBRANCH   5  37
BRANCH   3  51
ATOM     51  C7  XV6 d   1      -8.103  15.468  25.598  0.00  0.00     0.024 C 
ATOM     52  H9  XV6 d   1      -8.114  14.379  25.750  0.00  0.00     0.071 H 
ATOM     53  H10 XV6 d   1      -7.063  15.816  25.511  0.00  0.00     0.071 H 
BRANCH  51  54
ATOM     54  C70 XV6 d   1      -8.789  15.754  24.302  0.00  0.00    -0.039 A 
ATOM     55  C75 XV6 d   1     -10.200  15.714  24.162  0.00  0.00    -0.075 A 
ATOM     56  C74 XV6 d   1     -10.815  16.059  22.941  0.00  0.00    -0.081 A 
ATOM     57  H35 XV6 d   1     -10.813  15.414  25.004  0.00  0.00     0.084 H 
ATOM     58  C73 XV6 d   1     -10.014  16.437  21.847  0.00  0.00    -0.068 A 
ATOM     59  H34 XV6 d   1     -11.895  16.033  22.846  0.00  0.00     0.083 H 
ATOM     60  C72 XV6 d   1      -8.602  16.455  21.990  0.00  0.00     0.033 A 
ATOM     61  H33 XV6 d   1     -10.472  16.712  20.904  0.00  0.00     0.085 H 
ATOM     62  C71 XV6 d   1      -7.995  16.106  23.216  0.00  0.00    -0.060 A 
ATOM     63  H32 XV6 d   1      -6.915  16.112  23.310  0.00  0.00     0.086 H 
BRANCH  60  64
ATOM     64  C76 XV6 d   1      -7.744  16.852  20.840  0.00  0.00     0.257 C 
ATOM     65  N76 XV6 d   1      -6.518  16.318  20.849  0.00  0.00    -0.301 N 
ATOM     66  H36 XV6 d   1      -6.252  15.713  21.599  0.00  0.00     0.171 HD
ATOM     67  O76 XV6 d   1      -8.112  17.614  19.966  0.00  0.00    -0.267 OA
BRANCH  65  68
ATOM     68  C77 XV6 d   1      -5.561  16.602  19.785  0.00  0.00     0.173 A 
ATOM     69  N77 XV6 d   1      -4.333  16.073  19.691  0.00  0.00    -0.236 NA
ATOM     70  C78 XV6 d   1      -3.695  16.454  18.539  0.00  0.00     0.011 A 
ATOM     71  C79 XV6 d   1      -4.420  17.314  17.689  0.00  0.00    -0.025 A 
ATOM     72  H37 XV6 d   1      -2.690  16.113  18.295  0.00  0.00     0.115 H 
ATOM     73  S79 XV6 d   1      -5.900  17.578  18.448  0.00  0.00    -0.062 SA
ATOM     74  H38 XV6 d   1      -4.090  17.724  16.736  0.00  0.00     0.097 H 
ENDBRANCH  65  68
ENDBRANCH  60  64
ENDBRANCH  51  54
ENDBRANCH   3  51
BRANCH   6  75
ATOM     75  O4  XV6 d   1     -11.697  18.691  28.877  0.00  0.00    -0.391 OA
ATOM     76  H1  XV6 d   1     -11.528  19.613  28.721  0.00  0.00     0.210 HD
ENDBRANCH   6  75
BRANCH   8  77
ATOM     77  C61 XV6 d   1      -7.691  18.232  27.694  0.00  0.00    -0.019 C 
ATOM     78  H18 XV6 d   1      -7.792  17.845  28.719  0.00  0.00     0.043 H 
ATOM     79  H19 XV6 d   1      -7.857  19.319  27.695  0.00  0.00     0.043 H 
BRANCH  77  80
ATOM     80  C62 XV6 d   1      -6.256  17.980  27.239  0.00  0.00    -0.056 A 
ATOM     81  C67 XV6 d   1      -5.740  18.658  26.111  0.00  0.00    -0.077 A 
ATOM     82  C66 XV6 d   1      -4.435  18.370  25.667  0.00  0.00    -0.082 A 
ATOM     83  H24 XV6 d   1      -6.344  19.394  25.592  0.00  0.00     0.084 H 
ATOM     84  C65 XV6 d   1      -3.646  17.429  26.349  0.00  0.00    -0.083 A 
ATOM     85  H23 XV6 d   1      -4.038  18.877  24.795  0.00  0.00     0.083 H 
ATOM     86  C64 XV6 d   1      -4.151  16.763  27.477  0.00  0.00    -0.082 A 
ATOM     87  H22 XV6 d   1      -2.641  17.216  26.002  0.00  0.00     0.083 H 
ATOM     88  C63 XV6 d   1      -5.458  17.040  27.917  0.00  0.00    -0.077 A 
ATOM     89  H21 XV6 d   1      -3.538  16.041  28.005  0.00  0.00     0.083 H 
ATOM     90  H20 XV6 d   1      -5.854  16.525  28.785  0.00  0.00     0.084 H 
ENDBRANCH  77  80
ENDBRANCH   8  77
BRANCH   7  91
ATOM     91  O5  XV6 d   1     -10.104  19.492  26.750  0.00  0.00    -0.391 OA
ATOM     92  H2  XV6 d   1     -10.946  19.909  26.892  0.00  0.00     0.210 HD
ENDBRANCH   7  91
TORSDOF 14
