REMARK  14 active torsions:
REMARK  status: ('A' for Active; 'I' for Inactive)
REMARK    1  A    between atoms: C4_9  and  O4_2 
REMARK    2  A    between atoms: C5_10  and  O5_3 
REMARK    3  A    between atoms: N2_4  and  C2_7 
REMARK    4  A    between atoms: N7_5  and  C7_12 
REMARK    5  A    between atoms: C2_7  and  C20_27 
REMARK    6  A    between atoms: C3_8  and  C31_13 
REMARK    7  A    between atoms: C6_11  and  C61_20 
REMARK    8  A    between atoms: C7_12  and  C70_41 
REMARK    9  A    between atoms: C31_13  and  C32_14 
REMARK   10  A    between atoms: C61_20  and  C62_21 
REMARK   11  A    between atoms: C22_29  and  C26_33 
REMARK       I    between atoms: C26_33  and  N26_35 
REMARK   12  A    between atoms: N26_35  and  C27_37 
REMARK   13  A    between atoms: C72_43  and  C76_47 
REMARK       I    between atoms: C76_47  and  N76_49 
REMARK   14  A    between atoms: N76_49  and  C77_51 
ROOT
ATOM      1  O1  XV6 d   1      -8.239  14.332  27.722  0.00  0.00    -0.247 OA
ATOM      2  N2  XV6 d   1      -9.743  15.550  28.754  0.00  0.00    -0.322 N 
ATOM      3  N7  XV6 d   1      -8.756  16.196  26.694  0.00  0.00    -0.322 N 
ATOM      4  C1  XV6 d   1      -8.914  15.344  27.713  0.00  0.00     0.322 C 
ATOM      5  C3  XV6 d   1     -10.891  16.496  28.793  0.00  0.00     0.047 C 
ATOM      6  C4  XV6 d   1     -10.632  17.966  28.512  0.00  0.00     0.082 C 
ATOM      7  C5  XV6 d   1     -10.306  18.214  27.059  0.00  0.00     0.082 C 
ATOM      8  C6  XV6 d   1      -8.919  17.673  26.808  0.00  0.00     0.047 C 
ATOM      9  H5  XV6 d   1     -11.194  16.502  29.851  0.00  0.00     0.077 H 
ATOM     10  H6  XV6 d   1      -9.785  18.316  29.120  0.00  0.00     0.090 H 
ATOM     11  H7  XV6 d   1     -11.055  17.745  26.404  0.00  0.00     0.090 H 
ATOM     12  H8  XV6 d   1      -8.660  18.059  25.811  0.00  0.00     0.077 H 
ENDROOT
BRANCH   2  13
ATOM     13  C2  XV6 d   1      -9.531  14.702  29.952  0.00  0.00     0.024 C 
ATOM     14  H3  XV6 d   1      -8.595  14.141  29.813  0.00  0.00     0.071 H 
ATOM     15  H4  XV6 d   1     -10.373  13.998  30.026  0.00  0.00     0.071 H 
BRANCH  13  16
ATOM     16  C20 XV6 d   1      -9.436  15.459  31.252  0.00  0.00    -0.039 A 
ATOM     17  C25 XV6 d   1      -8.665  16.645  31.361  0.00  0.00    -0.075 A 
ATOM     18  C24 XV6 d   1      -8.631  17.364  32.577  0.00  0.00    -0.081 A 
ATOM     19  H28 XV6 d   1      -8.099  17.001  30.508  0.00  0.00     0.084 H 
ATOM     20  C23 XV6 d   1      -9.361  16.879  33.687  0.00  0.00    -0.068 A 
ATOM     21  H27 XV6 d   1      -8.052  18.277  32.658  0.00  0.00     0.083 H 
ATOM     22  C22 XV6 d   1     -10.120  15.692  33.574  0.00  0.00     0.033 A 
ATOM     23  H26 XV6 d   1      -9.338  17.419  34.627  0.00  0.00     0.085 H 
ATOM     24  C21 XV6 d   1     -10.158  14.980  32.356  0.00  0.00    -0.060 A 
ATOM     25  H25 XV6 d   1     -10.741  14.070  32.274  0.00  0.00     0.086 H 
BRANCH  22  26
ATOM     26  C26 XV6 d   1     -10.843  15.171  34.776  0.00  0.00     0.257 C 
ATOM     27  N26 XV6 d   1     -10.965  13.827  34.814  0.00  0.00    -0.301 N 
ATOM     28  H29 XV6 d   1     -10.663  13.289  34.027  0.00  0.00     0.171 HD
ATOM     29  O26 XV6 d   1     -11.256  15.890  35.674  0.00  0.00    -0.267 OA
BRANCH  27  30
ATOM     30  C27 XV6 d   1     -11.529  13.135  35.979  0.00  0.00     0.173 A 
ATOM     31  N27 XV6 d   1     -11.443  11.824  36.221  0.00  0.00    -0.236 NA
ATOM     32  C28 XV6 d   1     -12.015  11.455  37.419  0.00  0.00     0.011 A 
ATOM     33  C29 XV6 d   1     -12.585  12.495  38.165  0.00  0.00    -0.025 A 
ATOM     34  H30 XV6 d   1     -12.024  10.422  37.764  0.00  0.00     0.115 H 
ATOM     35  S29 XV6 d   1     -12.335  13.887  37.250  0.00  0.00    -0.062 SA
ATOM     36  H31 XV6 d   1     -13.083  12.419  39.130  0.00  0.00     0.097 H 
ENDBRANCH  27  30
ENDBRANCH  22  26
ENDBRANCH  13  16
ENDBRANCH   2  13
BRANCH   5  37
ATOM     37  C31 XV6 d   1     -12.088  15.871  28.053  0.00  0.00    -0.019 C 
ATOM     38  H11 XV6 d   1     -11.785  15.648  27.020  0.00  0.00     0.043 H 
ATOM     39  H12 XV6 d   1     -12.914  16.598  28.044  0.00  0.00     0.043 H 
BRANCH  37  40
ATOM     40  C32 XV6 d   1     -12.576  14.592  28.701  0.00  0.00    -0.056 A 
ATOM     41  C37 XV6 d   1     -13.413  14.660  29.830  0.00  0.00    -0.077 A 
ATOM     42  C36 XV6 d   1     -13.837  13.482  30.466  0.00  0.00    -0.082 A 
ATOM     43  H17 XV6 d   1     -13.731  15.624  30.210  0.00  0.00     0.084 H 
ATOM     44  C35 XV6 d   1     -13.413  12.241  29.960  0.00  0.00    -0.083 A 
ATOM     45  H16 XV6 d   1     -14.483  13.529  31.335  0.00  0.00     0.083 H 
ATOM     46  C34 XV6 d   1     -12.577  12.161  28.826  0.00  0.00    -0.082 A 
ATOM     47  H15 XV6 d   1     -13.734  11.329  30.450  0.00  0.00     0.083 H 
ATOM     48  C33 XV6 d   1     -12.155  13.342  28.192  0.00  0.00    -0.077 A 
ATOM     49  H14 XV6 d   1     -12.263  11.195  28.447  0.00  0.00     0.083 H 
ATOM     50  H13 XV6 d   1     -11.512  13.295  27.320  0.00  0.00     0.084 H 
ENDBRANCH  37  40
ENDBRANCH   5  37
BRANCH   3  51
ATOM     51  C7  XV6 d   1      -8.111  15.654  25.490  0.00  0.00     0.024 C 
ATOM     52  H9  XV6 d   1      -8.074  14.560  25.599  0.00  0.00     0.071 H 
ATOM     53  H10 XV6 d   1      -7.087  16.054  25.455  0.00  0.00     0.071 H 
BRANCH  51  54
ATOM     54  C70 XV6 d   1      -8.755  15.953  24.177  0.00  0.00    -0.039 A 
ATOM     55  C75 XV6 d   1     -10.165  15.980  24.023  0.00  0.00    -0.075 A 
ATOM     56  C74 XV6 d   1     -10.742  16.321  22.782  0.00  0.00    -0.081 A 
ATOM     57  H35 XV6 d   1     -10.803  15.737  24.865  0.00  0.00     0.084 H 
ATOM     58  C73 XV6 d   1      -9.887  16.634  21.701  0.00  0.00    -0.068 A 
ATOM     59  H34 XV6 d   1     -11.819  16.343  22.660  0.00  0.00     0.083 H 
ATOM     60  C72 XV6 d   1      -8.489  16.591  21.856  0.00  0.00     0.033 A 
ATOM     61  H33 XV6 d   1     -10.312  16.910  20.743  0.00  0.00     0.085 H 
ATOM     62  C71 XV6 d   1      -7.925  16.244  23.096  0.00  0.00    -0.060 A 
ATOM     63  H32 XV6 d   1      -6.848  16.203  23.211  0.00  0.00     0.086 H 
BRANCH  60  64
ATOM     64  C76 XV6 d   1      -7.610  16.942  20.709  0.00  0.00     0.257 C 
ATOM     65  N76 XV6 d   1      -6.412  16.333  20.695  0.00  0.00    -0.301 N 
ATOM     66  H36 XV6 d   1      -6.194  15.689  21.428  0.00  0.00     0.171 HD
ATOM     67  O76 XV6 d   1      -7.937  17.739  19.851  0.00  0.00    -0.267 OA
BRANCH  65  68
ATOM     68  C77 XV6 d   1      -5.402  16.574  19.643  0.00  0.00     0.173 A 
ATOM     69  N77 XV6 d   1      -4.147  16.081  19.659  0.00  0.00    -0.236 NA
ATOM     70  C78 XV6 d   1      -3.424  16.426  18.537  0.00  0.00     0.011 A 
ATOM     71  C79 XV6 d   1      -4.109  17.221  17.587  0.00  0.00    -0.025 A 
ATOM     72  H37 XV6 d   1      -2.393  16.108  18.391  0.00  0.00     0.115 H 
ATOM     73  S79 XV6 d   1      -5.654  17.475  18.223  0.00  0.00    -0.062 SA
ATOM     74  H38 XV6 d   1      -3.720  17.593  16.640  0.00  0.00     0.097 H 
ENDBRANCH  65  68
ENDBRANCH  60  64
ENDBRANCH  51  54
ENDBRANCH   3  51
BRANCH   6  75
ATOM     75  O4  XV6 d   1     -11.795  18.622  28.908  0.00  0.00    -0.391 OA
ATOM     76  H1  XV6 d   1     -11.687  19.558  28.784  0.00  0.00     0.210 HD
ENDBRANCH   6  75
BRANCH   8  77
ATOM     77  C61 XV6 d   1      -7.846  18.250  27.770  0.00  0.00    -0.019 C 
ATOM     78  H18 XV6 d   1      -7.928  17.738  28.740  0.00  0.00     0.043 H 
ATOM     79  H19 XV6 d   1      -8.034  19.325  27.906  0.00  0.00     0.043 H 
BRANCH  77  80
ATOM     80  C62 XV6 d   1      -6.439  18.064  27.237  0.00  0.00    -0.056 A 
ATOM     81  C67 XV6 d   1      -5.545  17.212  27.917  0.00  0.00    -0.077 A 
ATOM     82  C66 XV6 d   1      -4.254  16.997  27.395  0.00  0.00    -0.082 A 
ATOM     83  H24 XV6 d   1      -5.849  16.725  28.836  0.00  0.00     0.084 H 
ATOM     84  C65 XV6 d   1      -3.866  17.640  26.188  0.00  0.00    -0.083 A 
ATOM     85  H23 XV6 d   1      -3.560  16.344  27.912  0.00  0.00     0.083 H 
ATOM     86  C64 XV6 d   1      -4.763  18.505  25.502  0.00  0.00    -0.082 A 
ATOM     87  H22 XV6 d   1      -2.874  17.469  25.785  0.00  0.00     0.083 H 
ATOM     88  C63 XV6 d   1      -6.052  18.714  26.033  0.00  0.00    -0.077 A 
ATOM     89  H21 XV6 d   1      -4.460  18.996  24.584  0.00  0.00     0.083 H 
ATOM     90  H20 XV6 d   1      -6.748  19.370  25.523  0.00  0.00     0.084 H 
ENDBRANCH  77  80
ENDBRANCH   8  77
BRANCH   7  91
ATOM     91  O5  XV6 d   1     -10.202  19.589  26.813  0.00  0.00    -0.391 OA
ATOM     92  H2  XV6 d   1     -11.047  19.999  26.953  0.00  0.00     0.210 HD
ENDBRANCH   7  91
TORSDOF 14
