REMARK  14 active torsions:
REMARK  status: ('A' for Active; 'I' for Inactive)
REMARK    1  A    between atoms: C4_9  and  O4_2 
REMARK    2  A    between atoms: C5_10  and  O5_3 
REMARK    3  A    between atoms: N2_4  and  C2_7 
REMARK    4  A    between atoms: N7_5  and  C7_12 
REMARK    5  A    between atoms: C2_7  and  C20_27 
REMARK    6  A    between atoms: C3_8  and  C31_13 
REMARK    7  A    between atoms: C6_11  and  C61_20 
REMARK    8  A    between atoms: C7_12  and  C70_41 
REMARK    9  A    between atoms: C31_13  and  C32_14 
REMARK   10  A    between atoms: C61_20  and  C62_21 
REMARK   11  A    between atoms: C22_29  and  C26_33 
REMARK       I    between atoms: C26_33  and  N26_35 
REMARK   12  A    between atoms: N26_35  and  C27_37 
REMARK   13  A    between atoms: C72_43  and  C76_47 
REMARK       I    between atoms: C76_47  and  N76_49 
REMARK   14  A    between atoms: N76_49  and  C77_51 
ROOT
ATOM      1  O1  XV6 d   1      -8.358  14.369  27.859  0.00  0.00    -0.247 OA
ATOM      2  N2  XV6 d   1      -9.793  15.728  28.920  0.00  0.00    -0.322 N 
ATOM      3  N7  XV6 d   1      -8.784  16.290  26.840  0.00  0.00    -0.322 N 
ATOM      4  C1  XV6 d   1      -8.973  15.437  27.873  0.00  0.00     0.322 C 
ATOM      5  C3  XV6 d   1     -10.950  16.637  28.886  0.00  0.00     0.047 C 
ATOM      6  C4  XV6 d   1     -10.687  18.103  28.625  0.00  0.00     0.082 C 
ATOM      7  C5  XV6 d   1     -10.274  18.352  27.195  0.00  0.00     0.082 C 
ATOM      8  C6  XV6 d   1      -8.912  17.763  26.920  0.00  0.00     0.047 C 
ATOM      9  H5  XV6 d   1     -11.337  16.627  29.916  0.00  0.00     0.077 H 
ATOM     10  H6  XV6 d   1      -9.896  18.467  29.298  0.00  0.00     0.090 H 
ATOM     11  H7  XV6 d   1     -11.024  17.913  26.520  0.00  0.00     0.090 H 
ATOM     12  H8  XV6 d   1      -8.692  18.108  25.899  0.00  0.00     0.077 H 
ENDROOT
BRANCH   2  13
ATOM     13  C2  XV6 d   1      -9.653  14.909  30.120  0.00  0.00     0.024 C 
ATOM     14  H3  XV6 d   1      -8.716  14.341  30.025  0.00  0.00     0.071 H 
ATOM     15  H4  XV6 d   1     -10.504  14.212  30.146  0.00  0.00     0.071 H 
BRANCH  13  16
ATOM     16  C20 XV6 d   1      -9.615  15.624  31.439  0.00  0.00    -0.039 A 
ATOM     17  C25 XV6 d   1      -8.788  16.753  31.639  0.00  0.00    -0.075 A 
ATOM     18  C24 XV6 d   1      -8.728  17.367  32.904  0.00  0.00    -0.081 A 
ATOM     19  H28 XV6 d   1      -8.200  17.146  30.818  0.00  0.00     0.084 H 
ATOM     20  C23 XV6 d   1      -9.498  16.844  33.961  0.00  0.00    -0.068 A 
ATOM     21  H27 XV6 d   1      -8.096  18.233  33.063  0.00  0.00     0.083 H 
ATOM     22  C22 XV6 d   1     -10.315  15.718  33.746  0.00  0.00     0.033 A 
ATOM     23  H26 XV6 d   1      -9.461  17.308  34.940  0.00  0.00     0.085 H 
ATOM     24  C21 XV6 d   1     -10.383  15.108  32.486  0.00  0.00    -0.060 A 
ATOM     25  H25 XV6 d   1     -11.023  14.248  32.326  0.00  0.00     0.086 H 
BRANCH  22  26
ATOM     26  C26 XV6 d   1     -11.040  15.127  34.908  0.00  0.00     0.257 C 
ATOM     27  N26 XV6 d   1     -11.163  13.797  34.842  0.00  0.00    -0.301 N 
ATOM     28  H29 XV6 d   1     -10.843  13.303  34.034  0.00  0.00     0.171 HD
ATOM     29  O26 XV6 d   1     -11.438  15.773  35.864  0.00  0.00    -0.267 OA
BRANCH  27  30
ATOM     30  C27 XV6 d   1     -11.764  13.073  35.950  0.00  0.00     0.173 A 
ATOM     31  N27 XV6 d   1     -11.821  11.735  36.072  0.00  0.00    -0.236 NA
ATOM     32  C28 XV6 d   1     -12.449  11.339  37.227  0.00  0.00     0.011 A 
ATOM     33  C29 XV6 d   1     -12.908  12.387  38.052  0.00  0.00    -0.025 A 
ATOM     34  H30 XV6 d   1     -12.583  10.290  37.488  0.00  0.00     0.115 H 
ATOM     35  S29 XV6 d   1     -12.496  13.825  37.269  0.00  0.00    -0.062 SA
ATOM     36  H31 XV6 d   1     -13.425  12.288  39.005  0.00  0.00     0.097 H 
ENDBRANCH  27  30
ENDBRANCH  22  26
ENDBRANCH  13  16
ENDBRANCH   2  13
BRANCH   5  37
ATOM     37  C31 XV6 d   1     -12.078  16.009  28.029  0.00  0.00    -0.019 C 
ATOM     38  H11 XV6 d   1     -11.686  15.797  27.023  0.00  0.00     0.043 H 
ATOM     39  H12 XV6 d   1     -12.910  16.724  27.955  0.00  0.00     0.043 H 
BRANCH  37  40
ATOM     40  C32 XV6 d   1     -12.589  14.725  28.635  0.00  0.00    -0.056 A 
ATOM     41  C37 XV6 d   1     -13.412  14.779  29.786  0.00  0.00    -0.077 A 
ATOM     42  C36 XV6 d   1     -13.783  13.579  30.438  0.00  0.00    -0.082 A 
ATOM     43  H17 XV6 d   1     -13.756  15.734  30.166  0.00  0.00     0.084 H 
ATOM     44  C35 XV6 d   1     -13.344  12.332  29.934  0.00  0.00    -0.083 A 
ATOM     45  H16 XV6 d   1     -14.405  13.615  31.325  0.00  0.00     0.083 H 
ATOM     46  C34 XV6 d   1     -12.537  12.283  28.772  0.00  0.00    -0.082 A 
ATOM     47  H15 XV6 d   1     -13.626  11.414  30.438  0.00  0.00     0.083 H 
ATOM     48  C33 XV6 d   1     -12.159  13.476  28.118  0.00  0.00    -0.077 A 
ATOM     49  H14 XV6 d   1     -12.208  11.326  28.383  0.00  0.00     0.083 H 
ATOM     50  H13 XV6 d   1     -11.544  13.438  27.226  0.00  0.00     0.084 H 
ENDBRANCH  37  40
ENDBRANCH   5  37
BRANCH   3  51
ATOM     51  C7  XV6 d   1      -8.148  15.778  25.623  0.00  0.00     0.024 C 
ATOM     52  H9  XV6 d   1      -8.062  14.686  25.726  0.00  0.00     0.071 H 
ATOM     53  H10 XV6 d   1      -7.143  16.220  25.561  0.00  0.00     0.071 H 
BRANCH  51  54
ATOM     54  C70 XV6 d   1      -8.852  16.060  24.321  0.00  0.00    -0.039 A 
ATOM     55  C75 XV6 d   1     -10.250  15.920  24.178  0.00  0.00    -0.075 A 
ATOM     56  C74 XV6 d   1     -10.851  16.159  22.930  0.00  0.00    -0.081 A 
ATOM     57  H35 XV6 d   1     -10.857  15.629  25.027  0.00  0.00     0.084 H 
ATOM     58  C73 XV6 d   1     -10.062  16.550  21.831  0.00  0.00    -0.068 A 
ATOM     59  H34 XV6 d   1     -11.922  16.042  22.814  0.00  0.00     0.083 H 
ATOM     60  C72 XV6 d   1      -8.674  16.687  21.991  0.00  0.00     0.033 A 
ATOM     61  H33 XV6 d   1     -10.523  16.744  20.869  0.00  0.00     0.085 H 
ATOM     62  C71 XV6 d   1      -8.061  16.437  23.234  0.00  0.00    -0.060 A 
ATOM     63  H32 XV6 d   1      -6.987  16.536  23.346  0.00  0.00     0.086 H 
BRANCH  60  64
ATOM     64  C76 XV6 d   1      -7.834  17.114  20.842  0.00  0.00     0.257 C 
ATOM     65  N76 XV6 d   1      -6.572  16.656  20.940  0.00  0.00    -0.301 N 
ATOM     66  H36 XV6 d   1      -6.319  16.175  21.780  0.00  0.00     0.171 HD
ATOM     67  O76 XV6 d   1      -8.243  17.792  19.912  0.00  0.00    -0.267 OA
BRANCH  65  68
ATOM     68  C77 XV6 d   1      -5.541  16.808  19.911  0.00  0.00     0.173 A 
ATOM     69  N77 XV6 d   1      -4.400  16.096  19.912  0.00  0.00    -0.236 NA
ATOM     70  C78 XV6 d   1      -3.646  16.333  18.785  0.00  0.00     0.011 A 
ATOM     71  C79 XV6 d   1      -4.191  17.253  17.861  0.00  0.00    -0.025 A 
ATOM     72  H37 XV6 d   1      -2.689  15.842  18.616  0.00  0.00     0.115 H 
ATOM     73  S79 XV6 d   1      -5.664  17.769  18.503  0.00  0.00    -0.062 SA
ATOM     74  H38 XV6 d   1      -3.747  17.568  16.918  0.00  0.00     0.097 H 
ENDBRANCH  65  68
ENDBRANCH  60  64
ENDBRANCH  51  54
ENDBRANCH   3  51
BRANCH   6  75
ATOM     75  O4  XV6 d   1     -11.891  18.762  28.890  0.00  0.00    -0.391 OA
ATOM     76  H1  XV6 d   1     -11.777  19.695  28.753  0.00  0.00     0.210 HD
ENDBRANCH   6  75
BRANCH   8  77
ATOM     77  C61 XV6 d   1      -7.763  18.339  27.790  0.00  0.00    -0.019 C 
ATOM     78  H18 XV6 d   1      -7.740  17.786  28.741  0.00  0.00     0.043 H 
ATOM     79  H19 XV6 d   1      -7.978  19.399  27.988  0.00  0.00     0.043 H 
BRANCH  77  80
ATOM     80  C62 XV6 d   1      -6.393  18.243  27.151  0.00  0.00    -0.056 A 
ATOM     81  C67 XV6 d   1      -5.402  17.433  27.745  0.00  0.00    -0.077 A 
ATOM     82  C66 XV6 d   1      -4.114  17.368  27.168  0.00  0.00    -0.082 A 
ATOM     83  H24 XV6 d   1      -5.628  16.864  28.639  0.00  0.00     0.084 H 
ATOM     84  C65 XV6 d   1      -3.836  18.118  26.004  0.00  0.00    -0.083 A 
ATOM     85  H23 XV6 d   1      -3.346  16.748  27.615  0.00  0.00     0.083 H 
ATOM     86  C64 XV6 d   1      -4.830  18.931  25.404  0.00  0.00    -0.082 A 
ATOM     87  H22 XV6 d   1      -2.847  18.071  25.563  0.00  0.00     0.083 H 
ATOM     88  C63 XV6 d   1      -6.114  18.991  25.978  0.00  0.00    -0.077 A 
ATOM     89  H21 XV6 d   1      -4.603  19.502  24.511  0.00  0.00     0.083 H 
ATOM     90  H20 XV6 d   1      -6.885  19.605  25.527  0.00  0.00     0.084 H 
ENDBRANCH  77  80
ENDBRANCH   8  77
BRANCH   7  91
ATOM     91  O5  XV6 d   1     -10.137  19.728  26.943  0.00  0.00    -0.391 OA
ATOM     92  H2  XV6 d   1     -10.968  20.162  27.099  0.00  0.00     0.210 HD
ENDBRANCH   7  91
TORSDOF 14
