REMARK  17 active torsions:
REMARK  status: ('A' for Active; 'I' for Inactive)
REMARK       I    between atoms: CV5_10  and  NV2_1 
REMARK    1  A    between atoms: NV2_1  and  CV6_3 
REMARK    2  A    between atoms: CV5_10  and  CV1_2 
REMARK    3  A    between atoms: CV1_2  and  CV2_4 
REMARK    4  A    between atoms: CV6_3  and  CR_11 
REMARK    5  A    between atoms: CV6_3  and  CV7_5 
REMARK    6  A    between atoms: CV2_4  and  CV3_6 
REMARK    7  A    between atoms: CV2_4  and  CV4_8 
REMARK    8  A    between atoms: CV7_5  and  CV9_9 
REMARK    9  A    between atoms: CV7_5  and  CV8_7 
REMARK       I    between atoms: CR_11  and  N1_14 
REMARK   10  A    between atoms: N1_14  and  C1_15 
REMARK   11  A    between atoms: CAL_24  and  CBL_25 
REMARK   12  A    between atoms: CBL_25  and  CGL_26 
REMARK   13  A    between atoms: CGL_26  and  CL2_28 
REMARK   14  A    between atoms: CGL_26  and  CL1_27 
REMARK   15  A    between atoms: C5_33  and  CT_42 
REMARK   16  A    between atoms: OT1_43  and  C7_35 
REMARK   17  A    between atoms: CT_42  and  OT1_43 
ROOT
ATOM      1  C1  PP7 d   1      20.115   8.328  21.685  0.00  0.00     0.097 C 
ATOM      2  C2  PP7 d   1      19.371   8.026  22.974  0.00  0.00     0.036 C 
ATOM      3  C4  PP7 d   1      19.190   9.129  23.984  0.00  0.00     0.220 C 
ATOM      4  O2  PP7 d   1      19.064   8.836  25.200  0.00  0.00    -0.274 OA
ATOM      5  N2  PP7 d   1      19.077  10.360  23.581  0.00  0.00    -0.357 N 
ATOM      6  CB  PP7 d   1      18.664  11.477  24.442  0.00  0.00     0.019 C 
ATOM      7  C3  PP7 d   1      21.555   8.734  21.925  0.00  0.00     0.241 C 
ATOM      8  O1  PP7 d   1      22.180   8.360  22.942  0.00  0.00    -0.271 OA
ATOM      9  NL  PP7 d   1      22.139   9.488  20.972  0.00  0.00    -0.343 N 
ATOM     10  CAL PP7 d   1      23.553   9.847  20.935  0.00  0.00     0.113 C 
ATOM     11  P   PP7 d   1      23.722  11.649  21.101  0.00  0.00     0.273 P 
ATOM     12  O3  PP7 d   1      22.754  12.289  20.134  0.00  0.00    -0.645 OA
ATOM     13  O4  PP7 d   1      25.171  12.047  20.965  0.00  0.00    -0.645 OA
ATOM     14  O5  PP7 d   1      23.354  11.926  22.622  0.00  0.00    -0.295 OA
ATOM     15  C5  PP7 d   1      23.966  12.973  23.404  0.00  0.00     0.136 C 
ATOM     16  C6  PP7 d   1      22.907  14.068  23.713  0.00  0.00    -0.007 C 
ATOM     17  CE2 PP7 d   1      21.817  13.632  24.615  0.00  0.00    -0.055 A 
ATOM     18  CZ  PP7 d   1      21.720  14.088  25.948  0.00  0.00    -0.077 A 
ATOM     19  CD2 PP7 d   1      20.807  12.768  24.178  0.00  0.00    -0.069 A 
ATOM     20  CE1 PP7 d   1      20.688  13.668  26.773  0.00  0.00    -0.082 A 
ATOM     21  CD1 PP7 d   1      19.738  12.758  26.326  0.00  0.00    -0.075 A 
ATOM     22  CG  PP7 d   1      19.782  12.332  24.983  0.00  0.00    -0.040 A 
ATOM     23  H20 PP7 d   1      19.598   9.155  21.176  0.00  0.00     0.088 H 
ATOM     24  H21 PP7 d   1      19.914   7.213  23.478  0.00  0.00     0.051 H 
ATOM     25  H22 PP7 d   1      18.366   7.677  22.693  0.00  0.00     0.051 H 
ATOM     26  H23 PP7 d   1      19.285  10.560  22.623  0.00  0.00     0.162 HD
ATOM     27  H24 PP7 d   1      18.114  11.059  25.298  0.00  0.00     0.071 H 
ATOM     28  H25 PP7 d   1      17.995  12.125  23.857  0.00  0.00     0.071 H 
ATOM     29  H26 PP7 d   1      21.558   9.828  20.233  0.00  0.00     0.163 HD
ATOM     30  H27 PP7 d   1      24.050   9.376  21.796  0.00  0.00     0.093 H 
ATOM     31  H37 PP7 d   1      24.790  13.422  22.830  0.00  0.00     0.100 H 
ATOM     32  H38 PP7 d   1      23.421  14.920  24.182  0.00  0.00     0.044 H 
ATOM     33  H39 PP7 d   1      22.458  14.389  22.762  0.00  0.00     0.044 H 
ATOM     34  H43 PP7 d   1      22.464  14.777  26.332  0.00  0.00     0.084 H 
ATOM     35  H44 PP7 d   1      20.834  12.424  23.150  0.00  0.00     0.085 H 
ATOM     36  H45 PP7 d   1      20.621  14.056  27.783  0.00  0.00     0.083 H 
ATOM     37  H46 PP7 d   1      18.976  12.382  26.999  0.00  0.00     0.084 H 
ENDROOT
BRANCH   1  38
ATOM     38  N1  PP7 d   1      20.109   7.141  20.805  0.00  0.00    -0.346 N 
ATOM     39  CR  PP7 d   1      19.197   6.964  19.849  0.00  0.00     0.241 C 
ATOM     40  OV2 PP7 d   1      18.367   7.817  19.517  0.00  0.00    -0.271 OA
ATOM     41  H19 PP7 d   1      20.815   6.444  20.931  0.00  0.00     0.163 HD
BRANCH  39  42
ATOM     42  CV6 PP7 d   1      19.306   5.599  19.125  0.00  0.00     0.092 C 
ATOM     43  H4  PP7 d   1      19.430   4.830  19.901  0.00  0.00     0.088 H 
BRANCH  42  44
ATOM     44  NV2 PP7 d   1      18.051   5.317  18.432  0.00  0.00    -0.347 N 
ATOM     45  CV5 PP7 d   1      17.328   4.224  18.580  0.00  0.00     0.218 C 
ATOM     46  OV1 PP7 d   1      17.706   3.288  19.350  0.00  0.00    -0.274 OA
ATOM     47  H1  PP7 d   1      17.713   6.009  17.794  0.00  0.00     0.163 HD
BRANCH  45  48
ATOM     48  CV1 PP7 d   1      16.092   4.057  17.730  0.00  0.00     0.012 C 
ATOM     49  H2  PP7 d   1      16.219   3.167  17.096  0.00  0.00     0.047 H 
ATOM     50  H3  PP7 d   1      15.980   4.947  17.094  0.00  0.00     0.047 H 
BRANCH  48  51
ATOM     51  CV2 PP7 d   1      14.841   3.890  18.546  0.00  0.00    -0.053 C 
ATOM     52  H5  PP7 d   1      14.923   2.935  19.085  0.00  0.00     0.039 H 
BRANCH  51  53
ATOM     53  CV3 PP7 d   1      14.689   4.922  19.553  0.00  0.00    -0.073 C 
ATOM     54  H7  PP7 d   1      13.761   4.750  20.117  0.00  0.00     0.028 H 
ATOM     55  H8  PP7 d   1      14.644   5.907  19.065  0.00  0.00     0.028 H 
ATOM     56  H9  PP7 d   1      15.547   4.892  20.241  0.00  0.00     0.028 H 
ENDBRANCH  51  53
BRANCH  51  57
ATOM     57  CV4 PP7 d   1      13.618   3.775  17.578  0.00  0.00    -0.073 C 
ATOM     58  H13 PP7 d   1      13.804   2.976  16.845  0.00  0.00     0.028 H 
ATOM     59  H14 PP7 d   1      13.477   4.730  17.051  0.00  0.00     0.028 H 
ATOM     60  H15 PP7 d   1      12.713   3.538  18.157  0.00  0.00     0.028 H 
ENDBRANCH  51  57
ENDBRANCH  48  51
ENDBRANCH  45  48
ENDBRANCH  42  44
BRANCH  42  61
ATOM     61  CV7 PP7 d   1      20.523   5.492  18.214  0.00  0.00    -0.033 C 
ATOM     62  H6  PP7 d   1      21.407   5.666  18.846  0.00  0.00     0.042 H 
BRANCH  61  63
ATOM     63  CV9 PP7 d   1      20.527   6.581  17.157  0.00  0.00    -0.071 C 
ATOM     64  H16 PP7 d   1      20.410   7.562  17.641  0.00  0.00     0.028 H 
ATOM     65  H17 PP7 d   1      19.694   6.416  16.457  0.00  0.00     0.028 H 
ATOM     66  H18 PP7 d   1      21.479   6.554  16.607  0.00  0.00     0.028 H 
ENDBRANCH  61  63
BRANCH  61  67
ATOM     67  CV8 PP7 d   1      20.678   4.116  17.637  0.00  0.00    -0.071 C 
ATOM     68  H10 PP7 d   1      21.566   4.088  16.989  0.00  0.00     0.028 H 
ATOM     69  H11 PP7 d   1      19.785   3.863  17.046  0.00  0.00     0.028 H 
ATOM     70  H12 PP7 d   1      20.796   3.388  18.453  0.00  0.00     0.028 H 
ENDBRANCH  61  67
ENDBRANCH  42  61
ENDBRANCH  39  42
ENDBRANCH   1  38
BRANCH  10  71
ATOM     71  CBL PP7 d   1      24.234   9.323  19.655  0.00  0.00    -0.032 C 
ATOM     72  H28 PP7 d   1      25.320   9.446  19.780  0.00  0.00     0.037 H 
ATOM     73  H29 PP7 d   1      23.889   9.944  18.815  0.00  0.00     0.037 H 
BRANCH  71  74
ATOM     74  CGL PP7 d   1      23.971   7.860  19.291  0.00  0.00    -0.059 C 
ATOM     75  H30 PP7 d   1      22.883   7.740  19.181  0.00  0.00     0.039 H 
BRANCH  74  76
ATOM     76  CL2 PP7 d   1      24.428   6.913  20.416  0.00  0.00    -0.073 C 
ATOM     77  H34 PP7 d   1      23.953   7.212  21.362  0.00  0.00     0.028 H 
ATOM     78  H35 PP7 d   1      25.521   6.969  20.521  0.00  0.00     0.028 H 
ATOM     79  H36 PP7 d   1      24.136   5.882  20.169  0.00  0.00     0.028 H 
ENDBRANCH  74  76
BRANCH  74  80
ATOM     80  CL1 PP7 d   1      24.599   7.488  17.969  0.00  0.00    -0.073 C 
ATOM     81  H31 PP7 d   1      24.387   6.432  17.746  0.00  0.00     0.028 H 
ATOM     82  H32 PP7 d   1      25.687   7.639  18.024  0.00  0.00     0.028 H 
ATOM     83  H33 PP7 d   1      24.181   8.122  17.173  0.00  0.00     0.028 H 
ENDBRANCH  74  80
ENDBRANCH  71  74
ENDBRANCH  10  71
BRANCH  15  84
ATOM     84  CT  PP7 d   1      24.524  12.380  24.690  0.00  0.00     0.288 C 
ATOM     85  OT2 PP7 d   1      24.527  11.217  24.955  0.00  0.00    -0.262 OA
BRANCH  84  86
ATOM     86  OT1 PP7 d   1      24.976  13.328  25.465  0.00  0.00    -0.324 OA
BRANCH  86  87
ATOM     87  C7  PP7 d   1      25.513  12.998  26.779  0.00  0.00     0.013 C 
ATOM     88  H40 PP7 d   1      25.843  13.919  27.282  0.00  0.00     0.067 H 
ATOM     89  H41 PP7 d   1      26.369  12.316  26.665  0.00  0.00     0.067 H 
ATOM     90  H42 PP7 d   1      24.733  12.510  27.382  0.00  0.00     0.067 H 
ENDBRANCH  86  87
ENDBRANCH  84  86
ENDBRANCH  15  84
TORSDOF 17
