REMARK  26 active torsions:
REMARK  status: ('A' for Active; 'I' for Inactive)
REMARK    1  A    between atoms: NV2_1  and  CV6_3 
REMARK       I    between atoms: CV5_10  and  NV2_1 
REMARK    2  A    between atoms: CV1_2  and  CV5_10 
REMARK    3  A    between atoms: CV1_2  and  CV2_4 
REMARK    4  A    between atoms: CV6_3  and  CV7_5 
REMARK    5  A    between atoms: CV6_3  and  CR_11 
REMARK    6  A    between atoms: CV2_4  and  CV4_8 
REMARK    7  A    between atoms: CV2_4  and  CV3_6 
REMARK    8  A    between atoms: CV7_5  and  CV8_7 
REMARK    9  A    between atoms: CV7_5  and  CV9_9 
REMARK       I    between atoms: CR_11  and  N1_14 
REMARK   10  A    between atoms: N1_14  and  C1_15 
REMARK   11  A    between atoms: C1_15  and  C2_16 
REMARK   12  A    between atoms: C1_15  and  C3_20 
REMARK   13  A    between atoms: C2_16  and  C4_17 
REMARK       I    between atoms: C4_17  and  N2_19 
REMARK       I    between atoms: C3_20  and  NL_22 
REMARK   14  A    between atoms: NL_22  and  CAL_23 
REMARK   15  A    between atoms: CAL_23  and  CBL_24 
REMARK   16  A    between atoms: CAL_23  and  P_28 
REMARK   17  A    between atoms: CBL_24  and  CGL_25 
REMARK   18  A    between atoms: CGL_25  and  CL1_26 
REMARK   19  A    between atoms: CGL_25  and  CL2_27 
REMARK   20  A    between atoms: P_28  and  O5_31 
REMARK   21  A    between atoms: O5_31  and  C5_32 
REMARK   22  A    between atoms: C5_32  and  C6_33 
REMARK   23  A    between atoms: C5_32  and  CT_41 
REMARK   24  A    between atoms: C6_33  and  CE2_35 
REMARK   25  A    between atoms: OT1_42  and  C7_34 
REMARK   26  A    between atoms: CT_41  and  OT1_42 
ROOT
ATOM      1  C3  PP8 d   1      21.263   8.813  21.781  0.00  0.00     0.241 C 
ATOM      2  O1  PP8 d   1      21.828   8.458  22.811  0.00  0.00    -0.271 OA
ATOM      3  NL  PP8 d   1      21.859   9.501  20.802  0.00  0.00    -0.343 N 
ATOM      4  H25 PP8 d   1      21.283   9.754  20.025  0.00  0.00     0.163 HD
ENDROOT
BRANCH   1   5
ATOM      5  C1  PP8 d   1      19.816   8.420  21.528  0.00  0.00     0.097 C 
ATOM      6  H20 PP8 d   1      19.361   9.230  20.939  0.00  0.00     0.088 H 
BRANCH   5   7
ATOM      7  N1  PP8 d   1      19.837   7.235  20.684  0.00  0.00    -0.346 N 
ATOM      8  CR  PP8 d   1      18.950   7.001  19.711  0.00  0.00     0.241 C 
ATOM      9  OV2 PP8 d   1      18.099   7.814  19.364  0.00  0.00    -0.271 OA
ATOM     10  H19 PP8 d   1      20.555   6.557  20.840  0.00  0.00     0.163 HD
BRANCH   8  11
ATOM     11  CV6 PP8 d   1      19.079   5.607  19.068  0.00  0.00     0.092 C 
ATOM     12  H4  PP8 d   1      19.234   4.869  19.869  0.00  0.00     0.088 H 
BRANCH  11  13
ATOM     13  NV2 PP8 d   1      17.832   5.286  18.419  0.00  0.00    -0.347 N 
ATOM     14  CV5 PP8 d   1      17.108   4.191  18.511  0.00  0.00     0.218 C 
ATOM     15  OV1 PP8 d   1      17.469   3.309  19.293  0.00  0.00    -0.274 OA
ATOM     16  H1  PP8 d   1      17.466   5.994  17.815  0.00  0.00     0.163 HD
BRANCH  14  17
ATOM     17  CV1 PP8 d   1      15.912   4.005  17.570  0.00  0.00     0.012 C 
ATOM     18  H2  PP8 d   1      16.081   3.120  16.938  0.00  0.00     0.047 H 
ATOM     19  H3  PP8 d   1      15.809   4.896  16.933  0.00  0.00     0.047 H 
BRANCH  17  20
ATOM     20  CV2 PP8 d   1      14.632   3.811  18.376  0.00  0.00    -0.053 C 
ATOM     21  H5  PP8 d   1      14.667   2.847  18.904  0.00  0.00     0.039 H 
BRANCH  20  22
ATOM     22  CV4 PP8 d   1      13.443   3.834  17.401  0.00  0.00    -0.073 C 
ATOM     23  H13 PP8 d   1      12.507   3.696  17.961  0.00  0.00     0.028 H 
ATOM     24  H14 PP8 d   1      13.555   3.022  16.667  0.00  0.00     0.028 H 
ATOM     25  H15 PP8 d   1      13.417   4.801  16.877  0.00  0.00     0.028 H 
ENDBRANCH  20  22
BRANCH  20  26
ATOM     26  CV3 PP8 d   1      14.471   4.939  19.382  0.00  0.00    -0.073 C 
ATOM     27  H7  PP8 d   1      13.545   4.788  19.957  0.00  0.00     0.028 H 
ATOM     28  H8  PP8 d   1      14.420   5.900  18.850  0.00  0.00     0.028 H 
ATOM     29  H9  PP8 d   1      15.331   4.945  20.067  0.00  0.00     0.028 H 
ENDBRANCH  20  26
ENDBRANCH  17  20
ENDBRANCH  14  17
ENDBRANCH  11  13
BRANCH  11  30
ATOM     30  CV7 PP8 d   1      20.303   5.553  18.168  0.00  0.00    -0.033 C 
ATOM     31  H6  PP8 d   1      21.166   5.717  18.830  0.00  0.00     0.042 H 
BRANCH  30  32
ATOM     32  CV8 PP8 d   1      20.504   4.189  17.524  0.00  0.00    -0.071 C 
ATOM     33  H10 PP8 d   1      21.401   4.213  16.888  0.00  0.00     0.028 H 
ATOM     34  H11 PP8 d   1      19.626   3.940  16.910  0.00  0.00     0.028 H 
ATOM     35  H12 PP8 d   1      20.631   3.428  18.308  0.00  0.00     0.028 H 
ENDBRANCH  30  32
BRANCH  30  36
ATOM     36  CV9 PP8 d   1      20.363   6.644  17.118  0.00  0.00    -0.071 C 
ATOM     37  H16 PP8 d   1      20.216   7.623  17.598  0.00  0.00     0.028 H 
ATOM     38  H17 PP8 d   1      19.572   6.479  16.372  0.00  0.00     0.028 H 
ATOM     39  H18 PP8 d   1      21.345   6.622  16.622  0.00  0.00     0.028 H 
ENDBRANCH  30  36
ENDBRANCH  11  30
ENDBRANCH   8  11
ENDBRANCH   5   7
BRANCH   5  40
ATOM     40  C2  PP8 d   1      18.967   8.287  22.754  0.00  0.00     0.036 C 
ATOM     41  H21 PP8 d   1      19.326   7.408  23.309  0.00  0.00     0.051 H 
ATOM     42  H22 PP8 d   1      17.933   8.113  22.421  0.00  0.00     0.051 H 
BRANCH  40  43
ATOM     43  C4  PP8 d   1      18.943   9.457  23.721  0.00  0.00     0.217 C 
ATOM     44  O2  PP8 d   1      18.823   9.103  24.917  0.00  0.00    -0.274 OA
ATOM     45  N2  PP8 d   1      19.048  10.738  23.423  0.00  0.00    -0.370 N 
ATOM     46  H23 PP8 d   1      19.018  11.424  24.150  0.00  0.00     0.159 HD
ATOM     47  H24 PP8 d   1      19.157  11.023  22.471  0.00  0.00     0.159 HD
ENDBRANCH  40  43
ENDBRANCH   5  40
ENDBRANCH   1   5
BRANCH   3  48
ATOM     48  CAL PP8 d   1      23.241   9.921  20.738  0.00  0.00     0.113 C 
ATOM     49  H26 PP8 d   1      23.738   9.465  21.607  0.00  0.00     0.093 H 
BRANCH  48  50
ATOM     50  CBL PP8 d   1      23.985   9.403  19.515  0.00  0.00    -0.032 C 
ATOM     51  H27 PP8 d   1      25.064   9.520  19.696  0.00  0.00     0.037 H 
ATOM     52  H28 PP8 d   1      23.690  10.015  18.650  0.00  0.00     0.037 H 
BRANCH  50  53
ATOM     53  CGL PP8 d   1      23.719   7.947  19.175  0.00  0.00    -0.059 C 
ATOM     54  H29 PP8 d   1      22.634   7.829  19.041  0.00  0.00     0.039 H 
BRANCH  53  55
ATOM     55  CL1 PP8 d   1      24.401   7.533  17.885  0.00  0.00    -0.073 C 
ATOM     56  H30 PP8 d   1      24.182   6.475  17.678  0.00  0.00     0.028 H 
ATOM     57  H31 PP8 d   1      25.488   7.670  17.984  0.00  0.00     0.028 H 
ATOM     58  H32 PP8 d   1      24.027   8.153  17.057  0.00  0.00     0.028 H 
ENDBRANCH  53  55
BRANCH  53  59
ATOM     59  CL2 PP8 d   1      24.164   7.013  20.300  0.00  0.00    -0.073 C 
ATOM     60  H33 PP8 d   1      23.672   7.309  21.238  0.00  0.00     0.028 H 
ATOM     61  H34 PP8 d   1      25.255   7.079  20.421  0.00  0.00     0.028 H 
ATOM     62  H35 PP8 d   1      23.885   5.979  20.050  0.00  0.00     0.028 H 
ENDBRANCH  53  59
ENDBRANCH  50  53
ENDBRANCH  48  50
BRANCH  48  63
ATOM     63  P   PP8 d   1      23.401  11.697  20.941  0.00  0.00     0.273 P 
ATOM     64  O3  PP8 d   1      22.463  12.334  19.993  0.00  0.00    -0.645 OA
ATOM     65  O4  PP8 d   1      24.844  12.081  20.815  0.00  0.00    -0.645 OA
BRANCH  63  66
ATOM     66  O5  PP8 d   1      22.922  12.006  22.399  0.00  0.00    -0.295 OA
BRANCH  66  67
ATOM     67  C5  PP8 d   1      23.563  12.960  23.166  0.00  0.00     0.136 C 
ATOM     68  H36 PP8 d   1      24.285  13.475  22.515  0.00  0.00     0.100 H 
BRANCH  67  69
ATOM     69  C6  PP8 d   1      22.563  14.009  23.743  0.00  0.00    -0.007 C 
ATOM     70  H37 PP8 d   1      21.922  14.341  22.913  0.00  0.00     0.044 H 
ATOM     71  H38 PP8 d   1      23.156  14.859  24.111  0.00  0.00     0.044 H 
BRANCH  69  72
ATOM     72  CE2 PP8 d   1      21.650  13.574  24.872  0.00  0.00    -0.055 A 
ATOM     73  CZ  PP8 d   1      21.330  14.461  25.896  0.00  0.00    -0.077 A 
ATOM     74  CE1 PP8 d   1      20.496  14.063  26.927  0.00  0.00    -0.082 A 
ATOM     75  H42 PP8 d   1      21.735  15.466  25.886  0.00  0.00     0.084 H 
ATOM     76  CD1 PP8 d   1      20.014  12.762  26.884  0.00  0.00    -0.083 A 
ATOM     77  H44 PP8 d   1      20.231  14.738  27.733  0.00  0.00     0.083 H 
ATOM     78  CG  PP8 d   1      20.284  11.820  25.895  0.00  0.00    -0.082 A 
ATOM     79  H45 PP8 d   1      19.367  12.450  27.696  0.00  0.00     0.083 H 
ATOM     80  CD2 PP8 d   1      21.121  12.300  24.910  0.00  0.00    -0.077 A 
ATOM     81  H46 PP8 d   1      19.879  10.815  25.899  0.00  0.00     0.083 H 
ATOM     82  H43 PP8 d   1      21.384  11.625  24.104  0.00  0.00     0.084 H 
ENDBRANCH  69  72
ENDBRANCH  67  69
BRANCH  67  83
ATOM     83  CT  PP8 d   1      24.324  12.379  24.379  0.00  0.00     0.288 C 
ATOM     84  OT2 PP8 d   1      24.426  11.147  24.514  0.00  0.00    -0.262 OA
BRANCH  83  85
ATOM     85  OT1 PP8 d   1      24.747  13.227  25.211  0.00  0.00    -0.324 OA
BRANCH  85  86
ATOM     86  C7  PP8 d   1      25.464  12.853  26.370  0.00  0.00     0.013 C 
ATOM     87  H39 PP8 d   1      25.730  13.753  26.943  0.00  0.00     0.067 H 
ATOM     88  H40 PP8 d   1      26.381  12.321  26.078  0.00  0.00     0.067 H 
ATOM     89  H41 PP8 d   1      24.839  12.194  26.991  0.00  0.00     0.067 H 
ENDBRANCH  85  86
ENDBRANCH  83  85
ENDBRANCH  67  83
ENDBRANCH  66  67
ENDBRANCH  63  66
ENDBRANCH  48  63
ENDBRANCH   3  48
TORSDOF 26
