REMARK  11 active torsions:
REMARK  status: ('A' for Active; 'I' for Inactive)
REMARK    1  A    between atoms: N3B_8  and  PG_1 
REMARK    2  A    between atoms: PB_5  and  N3B_8 
REMARK    3  A    between atoms: O3A_12  and  PB_5 
REMARK    4  A    between atoms: PA_9  and  O3A_12 
REMARK    5  A    between atoms: PA_9  and  O5_13 
REMARK    6  A    between atoms: O5_13  and  C5_14 
REMARK    7  A    between atoms: C5_14  and  C4_15 
REMARK    8  A    between atoms: C3_17  and  O3_18 
REMARK    9  A    between atoms: C2_19  and  O2_20 
REMARK   10  A    between atoms: C1_21  and  N9_22 
REMARK   11  A    between atoms: C6_26  and  N6_27 
ROOT
ATOM      1  C4  ANP d   1      16.200  34.275  68.503  0.00  0.00     0.089 C 
ATOM      2  O4  ANP d   1      14.886  34.473  67.918  0.00  0.00    -0.353 OA
ATOM      3  C3  ANP d   1      16.314  35.323  69.607  0.00  0.00     0.091 C 
ATOM      4  C2  ANP d   1      15.352  36.431  69.134  0.00  0.00     0.105 C 
ATOM      5  C1  ANP d   1      14.409  35.756  68.146  0.00  0.00     0.139 C 
ATOM      6  H4  ANP d   1      16.966  34.500  67.746  0.00  0.00     0.090 H 
ATOM      7  H5  ANP d   1      15.922  34.908  70.547  0.00  0.00     0.091 H 
ATOM      8  H7  ANP d   1      14.779  36.810  69.993  0.00  0.00     0.093 H 
ATOM      9  H9  ANP d   1      14.385  36.327  67.206  0.00  0.00     0.122 H 
ENDROOT
BRANCH   1  10
ATOM     10  C5  ANP d   1      16.402  32.808  68.913  0.00  0.00     0.058 C 
ATOM     11  H2  ANP d   1      16.120  32.168  68.064  0.00  0.00     0.079 H 
ATOM     12  H3  ANP d   1      17.466  32.657  69.149  0.00  0.00     0.079 H 
BRANCH  10  13
ATOM     13  O5  ANP d   1      15.613  32.408  70.071  0.00  0.00    -0.287 OA
BRANCH  13  14
ATOM     14  PA  ANP d   1      16.251  31.320  71.076  0.00  0.00     0.417 P 
ATOM     15  O1A ANP d   1      15.201  30.806  72.027  0.00  0.00    -0.624 OA
ATOM     16  O2A ANP d   1      17.389  31.909  71.858  0.00  0.00    -0.624 OA
BRANCH  14  17
ATOM     17  O3A ANP d   1      16.831  30.101  70.247  0.00  0.00    -0.186 OA
BRANCH  17  18
ATOM     18  PB  ANP d   1      17.974  29.111  70.712  0.00  0.00     0.379 P 
ATOM     19  O1B ANP d   1      18.314  28.302  69.483  0.00  0.00    -0.629 OA
ATOM     20  O2B ANP d   1      17.409  28.261  71.817  0.00  0.00    -0.629 OA
BRANCH  18  21
ATOM     21  N3B ANP d   1      19.288  29.935  71.237  0.00  0.00    -0.218 N 
ATOM     22  H1  ANP d   1      19.162  30.925  71.301  0.00  0.00     0.179 HD
BRANCH  21  23
ATOM     23  PG  ANP d   1      20.742  29.416  71.665  0.00  0.00     0.381 P 
ATOM     24  O1G ANP d   1      21.597  29.035  70.445  0.00  0.00    -0.622 OA
ATOM     25  O2G ANP d   1      21.468  30.441  72.447  0.00  0.00    -0.622 OA
ATOM     26  O3G ANP d   1      20.527  28.165  72.660  0.00  0.00    -0.622 OA
ENDBRANCH  21  23
ENDBRANCH  18  21
ENDBRANCH  17  18
ENDBRANCH  14  17
ENDBRANCH  13  14
ENDBRANCH  10  13
ENDBRANCH   1  10
BRANCH   3  27
ATOM     27  O3  ANP d   1      17.685  35.684  69.861  0.00  0.00    -0.390 OA
ATOM     28  H6  ANP d   1      17.717  36.336  70.551  0.00  0.00     0.210 HD
ENDBRANCH   3  27
BRANCH   5  29
ATOM     29  N9  ANP d   1      13.047  35.655  68.698  0.00  0.00    -0.294 N 
ATOM     30  C8  ANP d   1      12.586  34.795  69.638  0.00  0.00     0.071 A 
ATOM     31  N7  ANP d   1      11.279  34.923  69.885  0.00  0.00    -0.236 NA
ATOM     32  H10 ANP d   1      13.220  34.069  70.144  0.00  0.00     0.144 H 
ATOM     33  C5  ANP d   1      10.866  35.948  69.072  0.00  0.00     0.149 A 
ATOM     34  C6  ANP d   1       9.579  36.535  68.926  0.00  0.00     0.155 A 
ATOM     35  C4  ANP d   1      11.943  36.430  68.343  0.00  0.00     0.167 A 
ATOM     36  N1  ANP d   1       9.624  37.549  68.012  0.00  0.00    -0.222 NA
ATOM     37  C2  ANP d   1      10.734  37.974  67.315  0.00  0.00     0.091 A 
ATOM     38  N3  ANP d   1      11.922  37.448  67.450  0.00  0.00    -0.222 NA
ATOM     39  H13 ANP d   1      10.614  38.792  66.614  0.00  0.00     0.146 H 
BRANCH  34  40
ATOM     40  N6  ANP d   1       8.525  36.223  69.542  0.00  0.00    -0.382 N 
ATOM     41  H11 ANP d   1       7.647  36.725  69.348  0.00  0.00     0.157 HD
ATOM     42  H12 ANP d   1       8.541  35.465  70.240  0.00  0.00     0.157 HD
ENDBRANCH  34  40
ENDBRANCH   5  29
BRANCH   4  43
ATOM     43  O2  ANP d   1      16.040  37.537  68.528  0.00  0.00    -0.388 OA
ATOM     44  H8  ANP d   1      16.639  37.919  69.158  0.00  0.00     0.210 HD
ENDBRANCH   4  43
TORSDOF 11
