REMARK  3 active torsions:
REMARK  status: ('A' for Active; 'I' for Inactive)
REMARK    1  A    between atoms: C1_1  and  P_15 
REMARK    2  A    between atoms: C1_1  and  C2_2 
REMARK    3  A    between atoms: C7_4  and  C12_9 
ROOT
ATOM      1  C2  PIC d   1      45.855  14.918   3.284  0.00  0.00     0.028 A 
ATOM      2  C3  PIC d   1      44.747  15.297   2.498  0.00  0.00    -0.070 A 
ATOM      3  C7  PIC d   1      44.667  10.980   0.354  0.00  0.00     0.041 A 
ATOM      4  C8  PIC d   1      45.782  10.611   1.130  0.00  0.00    -0.066 A 
ATOM      5  C9  PIC d   1      46.365  11.467   2.057  0.00  0.00    -0.071 A 
ATOM      6  C10 PIC d   1      45.845  12.741   2.212  0.00  0.00    -0.025 A 
ATOM      7  C11 PIC d   1      46.410  13.632   3.130  0.00  0.00    -0.060 A 
ATOM      8  C4  PIC d   1      44.166  14.432   1.582  0.00  0.00    -0.071 A 
ATOM      9  C5  PIC d   1      44.707  13.144   1.422  0.00  0.00    -0.025 A 
ATOM     10  C6  PIC d   1      44.132  12.243   0.507  0.00  0.00    -0.056 A 
ATOM     11  H1  PIC d   1      44.337  16.294   2.613  0.00  0.00     0.084 H 
ATOM     12  H2  PIC d   1      46.202   9.620   1.000  0.00  0.00     0.085 H 
ATOM     13  H3  PIC d   1      47.213  11.143   2.649  0.00  0.00     0.084 H 
ATOM     14  H4  PIC d   1      47.270  13.335   3.720  0.00  0.00     0.086 H 
ATOM     15  H5  PIC d   1      43.308  14.745   0.998  0.00  0.00     0.084 H 
ATOM     16  H6  PIC d   1      43.269  12.541  -0.078  0.00  0.00     0.086 H 
ENDROOT
BRANCH   1  17
ATOM     17  C1  PIC d   1      46.448  15.855   4.227  0.00  0.00     0.380 C 
ATOM     18  F2  PIC d   1      47.697  15.434   4.535  0.00  0.00    -0.185 F 
ATOM     19  F1  PIC d   1      46.580  17.087   3.658  0.00  0.00    -0.185 F 
BRANCH  17  20
ATOM     20  P   PIC d   1      45.423  16.066   5.700  0.00  0.00     0.339 P 
ATOM     21  OP3 PIC d   1      43.847  16.539   5.475  0.00  0.00    -0.635 OA
ATOM     22  OP2 PIC d   1      45.368  14.854   6.569  0.00  0.00    -0.635 OA
ATOM     23  OP1 PIC d   1      46.064  17.035   6.625  0.00  0.00    -0.635 OA
ENDBRANCH  17  20
ENDBRANCH   1  17
BRANCH   3  24
ATOM     24  C12 PIC d   1      44.062  10.009  -0.660  0.00  0.00     0.209 C 
ATOM     25  O2  PIC d   1      44.579   8.870  -0.761  0.00  0.00    -0.644 OA
ATOM     26  O1  PIC d   1      43.055  10.337  -1.353  0.00  0.00    -0.644 OA
ENDBRANCH   3  24
TORSDOF 3
