REMARK  4 active torsions:
REMARK  status: ('A' for Active; 'I' for Inactive)
REMARK    1  A    between atoms: C7_7  and  C1_1 
REMARK    2  A    between atoms: C7_7  and  N1_10 
REMARK    3  A    between atoms: C8_8  and  C9_9 
REMARK    4  A    between atoms: C9_9  and  C8'_20 
ROOT
ATOM      1  C1  BAI d   1      45.321  19.468  52.868  0.00  0.00     0.009 A 
ATOM      2  C2  BAI d   1      44.678  19.061  51.640  0.00  0.00    -0.067 A 
ATOM      3  C3  BAI d   1      44.248  20.000  50.681  0.00  0.00    -0.052 A 
ATOM      4  C4  BAI d   1      44.490  21.322  50.991  0.00  0.00     0.085 A 
ATOM      5  C5  BAI d   1      45.086  21.715  52.125  0.00  0.00     0.063 A 
ATOM      6  C6  BAI d   1      45.514  20.851  53.082  0.00  0.00    -0.041 A 
ATOM      7  C8  BAI d   1      44.617  23.436  51.008  0.00  0.00     0.112 A 
ATOM      8  N3  BAI d   1      44.209  22.404  50.317  0.00  0.00    -0.233 NA
ATOM      9  N4  BAI d   1      45.156  23.019  52.112  0.00  0.00    -0.342 N 
ATOM     10  H1  BAI d   1      44.522  18.005  51.451  0.00  0.00     0.085 H 
ATOM     11  H2  BAI d   1      43.759  19.703  49.760  0.00  0.00     0.087 H 
ATOM     12  H3  BAI d   1      45.991  21.213  53.986  0.00  0.00     0.088 H 
ATOM     13  H10 BAI d   1      45.566  23.611  52.848  0.00  0.00     0.167 HD
ENDROOT
BRANCH   7  14
ATOM     14  C9  BAI d   1      44.442  24.935  50.572  0.00  0.00     0.045 C 
ATOM     15  H4  BAI d   1      45.128  25.541  51.182  0.00  0.00     0.056 H 
ATOM     16  H5  BAI d   1      43.404  25.226  50.790  0.00  0.00     0.056 H 
BRANCH  14  17
ATOM     17  C8' BAI d   1      44.725  25.274  49.056  0.00  0.00     0.112 A 
ATOM     18  N4' BAI d   1      44.304  24.534  48.068  0.00  0.00    -0.233 NA
ATOM     19  C5' BAI d   1      44.691  25.043  46.946  0.00  0.00     0.085 A 
ATOM     20  C4' BAI d   1      45.390  26.169  47.260  0.00  0.00     0.062 A 
ATOM     21  C6' BAI d   1      44.474  24.575  45.658  0.00  0.00    -0.053 A 
ATOM     22  N3' BAI d   1      45.396  26.288  48.574  0.00  0.00    -0.342 N 
ATOM     23  C3' BAI d   1      45.960  26.966  46.283  0.00  0.00    -0.055 A 
ATOM     24  H15 BAI d   1      45.845  27.039  49.118  0.00  0.00     0.167 HD
ATOM     25  C2' BAI d   1      45.772  26.536  44.940  0.00  0.00    -0.081 A 
ATOM     26  H13 BAI d   1      46.516  27.864  46.526  0.00  0.00     0.087 H 
ATOM     27  C1' BAI d   1      45.037  25.351  44.631  0.00  0.00    -0.081 A 
ATOM     28  H12 BAI d   1      46.197  27.121  44.132  0.00  0.00     0.083 H 
ATOM     29  H11 BAI d   1      44.913  25.048  43.597  0.00  0.00     0.083 H 
ATOM     30  H14 BAI d   1      43.909  23.672  45.458  0.00  0.00     0.087 H 
ENDBRANCH  14  17
ENDBRANCH   7  14
BRANCH   1  31
ATOM     31  C7  BAI d   1      45.743  18.567  53.849  0.00  0.00     0.102 C 
ATOM     32  N2  BAI d   1      45.289  17.348  53.845  0.00  0.00    -0.385 N 
ATOM     33  H8  BAI d   1      44.614  17.052  53.125  0.00  0.00     0.157 HD
ATOM     34  H9  BAI d   1      45.604  16.679  54.562  0.00  0.00     0.157 HD
BRANCH  31  35
ATOM     35  N1  BAI d   1      46.596  18.946  54.757  0.00  0.00    -0.385 N 
ATOM     36  H6  BAI d   1      46.907  18.282  55.480  0.00  0.00     0.157 HD
ATOM     37  H7  BAI d   1      46.959  19.910  54.752  0.00  0.00     0.157 HD
ENDBRANCH  31  35
ENDBRANCH   1  31
TORSDOF 4
