REMARK  4 active torsions:
REMARK  status: ('A' for Active; 'I' for Inactive)
REMARK    1  A    between atoms: C7_7  and  C1_1 
REMARK    2  A    between atoms: C7_7  and  N1_10 
REMARK    3  A    between atoms: C8_8  and  C9_9 
REMARK    4  A    between atoms: C9_9  and  C8'_20 
ROOT
ATOM      1  C1  BAI d   1      11.770 -11.841  23.067  0.00  0.00     0.009 A 
ATOM      2  C2  BAI d   1      12.233 -10.642  22.468  0.00  0.00    -0.067 A 
ATOM      3  C3  BAI d   1      13.239 -10.631  21.499  0.00  0.00    -0.052 A 
ATOM      4  C4  BAI d   1      13.749 -11.861  21.160  0.00  0.00     0.085 A 
ATOM      5  C5  BAI d   1      13.323 -13.007  21.715  0.00  0.00     0.063 A 
ATOM      6  C6  BAI d   1      12.341 -13.062  22.664  0.00  0.00    -0.041 A 
ATOM      7  C8  BAI d   1      14.861 -13.467  20.329  0.00  0.00     0.112 A 
ATOM      8  N3  BAI d   1      14.691 -12.170  20.315  0.00  0.00    -0.233 NA
ATOM      9  N4  BAI d   1      14.017 -13.978  21.191  0.00  0.00    -0.342 N 
ATOM     10  H1  BAI d   1      11.790  -9.701  22.773  0.00  0.00     0.085 H 
ATOM     11  H2  BAI d   1      13.594  -9.713  21.045  0.00  0.00     0.087 H 
ATOM     12  H3  BAI d   1      12.016 -14.005  23.088  0.00  0.00     0.088 H 
ATOM     13  H10 BAI d   1      13.918 -14.978  21.416  0.00  0.00     0.167 HD
ENDROOT
BRANCH   7  14
ATOM     14  C9  BAI d   1      15.934 -14.292  19.475  0.00  0.00     0.045 C 
ATOM     15  H4  BAI d   1      15.612 -15.344  19.457  0.00  0.00     0.056 H 
ATOM     16  H5  BAI d   1      16.904 -14.214  19.989  0.00  0.00     0.056 H 
BRANCH  14  17
ATOM     17  C8' BAI d   1      16.140 -13.832  17.997  0.00  0.00     0.112 A 
ATOM     18  N4' BAI d   1      16.638 -12.668  17.739  0.00  0.00    -0.233 NA
ATOM     19  C5' BAI d   1      16.674 -12.516  16.454  0.00  0.00     0.085 A 
ATOM     20  C4' BAI d   1      16.179 -13.639  15.893  0.00  0.00     0.062 A 
ATOM     21  C6' BAI d   1      17.119 -11.419  15.743  0.00  0.00    -0.053 A 
ATOM     22  N3' BAI d   1      15.853 -14.454  16.871  0.00  0.00    -0.342 N 
ATOM     23  C3' BAI d   1      16.080 -13.784  14.519  0.00  0.00    -0.055 A 
ATOM     24  H15 BAI d   1      15.451 -15.397  16.776  0.00  0.00     0.167 HD
ATOM     25  C2' BAI d   1      16.521 -12.687  13.739  0.00  0.00    -0.081 A 
ATOM     26  H13 BAI d   1      15.687 -14.687  14.066  0.00  0.00     0.087 H 
ATOM     27  C1' BAI d   1      17.035 -11.517  14.350  0.00  0.00    -0.081 A 
ATOM     28  H12 BAI d   1      16.464 -12.744  12.658  0.00  0.00     0.083 H 
ATOM     29  H11 BAI d   1      17.366 -10.690  13.732  0.00  0.00     0.083 H 
ATOM     30  H14 BAI d   1      17.510 -10.535  16.235  0.00  0.00     0.087 H 
ENDBRANCH  14  17
ENDBRANCH   7  14
BRANCH   1  31
ATOM     31  C7  BAI d   1      10.804 -11.837  24.038  0.00  0.00     0.102 C 
ATOM     32  N2  BAI d   1      10.579 -10.724  24.698  0.00  0.00    -0.385 N 
ATOM     33  H8  BAI d   1      11.118  -9.875  24.475  0.00  0.00     0.157 HD
ATOM     34  H9  BAI d   1       9.864 -10.700  25.439  0.00  0.00     0.157 HD
BRANCH  31  35
ATOM     35  N1  BAI d   1      10.141 -12.934  24.292  0.00  0.00    -0.385 N 
ATOM     36  H6  BAI d   1       9.413 -12.939  25.021  0.00  0.00     0.157 HD
ATOM     37  H7  BAI d   1      10.346 -13.794  23.764  0.00  0.00     0.157 HD
ENDBRANCH  31  35
ENDBRANCH   1  31
TORSDOF 4
