REMARK  7 active torsions:
REMARK  status: ('A' for Active; 'I' for Inactive)
REMARK    1  A    between atoms: C7_7  and  C1_1 
REMARK    2  A    between atoms: C7_7  and  N2_11 
REMARK    3  A    between atoms: C7_7  and  N1_10 
REMARK    4  A    between atoms: C8_8  and  C9_9 
REMARK    5  A    between atoms: C9_9  and  C8'_21 
REMARK    6  A    between atoms: C1'_14  and  C7'_20 
REMARK    7  A    between atoms: C7'_20  and  N1'_22 
ROOT
ATOM      1  C9  BAB d   1      16.404 -14.728  19.932  0.00  0.00     0.045 C 
ATOM      2  H4  BAB d   1      16.042 -15.764  20.007  0.00  0.00     0.056 H 
ATOM      3  H5  BAB d   1      17.370 -14.638  20.451  0.00  0.00     0.056 H 
ENDROOT
BRANCH   1   4
ATOM      4  C8  BAB d   1      15.343 -13.739  20.597  0.00  0.00     0.112 A 
ATOM      5  N4  BAB d   1      14.498 -14.115  21.526  0.00  0.00    -0.342 N 
ATOM      6  C5  BAB d   1      13.797 -13.062  21.847  0.00  0.00     0.063 A 
ATOM      7  H10 BAB d   1      14.405 -15.060  21.926  0.00  0.00     0.167 HD
ATOM      8  C4  BAB d   1      14.193 -12.010  21.119  0.00  0.00     0.085 A 
ATOM      9  C6  BAB d   1      12.810 -13.004  22.769  0.00  0.00    -0.041 A 
ATOM     10  C3  BAB d   1      13.609 -10.761  21.266  0.00  0.00    -0.052 A 
ATOM     11  N3  BAB d   1      15.160 -12.446  20.343  0.00  0.00    -0.233 NA
ATOM     12  C2  BAB d   1      12.566 -10.655  22.223  0.00  0.00    -0.067 A 
ATOM     13  H2  BAB d   1      13.933  -9.909  20.680  0.00  0.00     0.087 H 
ATOM     14  C1  BAB d   1      12.164 -11.777  22.980  0.00  0.00     0.009 A 
ATOM     15  H1  BAB d   1      12.072  -9.702  22.374  0.00  0.00     0.085 H 
ATOM     16  H3  BAB d   1      12.524 -13.885  23.332  0.00  0.00     0.088 H 
BRANCH  14  17
ATOM     17  C7  BAB d   1      11.177 -11.760  23.932  0.00  0.00     0.102 C 
BRANCH  17  18
ATOM     18  N2  BAB d   1      10.993 -10.700  24.681  0.00  0.00    -0.385 N 
ATOM     19  H8  BAB d   1      11.577  -9.863  24.541  0.00  0.00     0.157 HD
ATOM     20  H9  BAB d   1      10.265 -10.704  25.409  0.00  0.00     0.157 HD
ENDBRANCH  17  18
BRANCH  17  21
ATOM     21  N1  BAB d   1      10.485 -12.853  24.044  0.00  0.00    -0.385 N 
ATOM     22  H6  BAB d   1       9.727 -12.914  24.738  0.00  0.00     0.157 HD
ATOM     23  H7  BAB d   1      10.694 -13.659  23.438  0.00  0.00     0.157 HD
ENDBRANCH  17  21
ENDBRANCH  14  17
ENDBRANCH   1   4
BRANCH   1  24
ATOM     24  C8' BAB d   1      16.574 -14.344  18.449  0.00  0.00     0.112 A 
ATOM     25  N4' BAB d   1      16.185 -14.937  17.335  0.00  0.00    -0.342 N 
ATOM     26  C5' BAB d   1      16.484 -14.105  16.355  0.00  0.00     0.063 A 
ATOM     27  H18 BAB d   1      15.739 -15.861  17.248  0.00  0.00     0.167 HD
ATOM     28  C4' BAB d   1      17.061 -13.021  16.929  0.00  0.00     0.085 A 
ATOM     29  C6' BAB d   1      16.278 -14.163  14.987  0.00  0.00    -0.041 A 
ATOM     30  N3' BAB d   1      17.110 -13.194  18.210  0.00  0.00    -0.233 NA
ATOM     31  C3' BAB d   1      17.483 -11.915  16.253  0.00  0.00    -0.052 A 
ATOM     32  C2' BAB d   1      17.291 -11.934  14.880  0.00  0.00    -0.067 A 
ATOM     33  H12 BAB d   1      17.941 -11.072  16.758  0.00  0.00     0.087 H 
ATOM     34  C1' BAB d   1      16.691 -13.037  14.203  0.00  0.00     0.009 A 
ATOM     35  H11 BAB d   1      17.609 -11.077  14.298  0.00  0.00     0.085 H 
ATOM     36  H13 BAB d   1      15.820 -15.030  14.525  0.00  0.00     0.088 H 
BRANCH  34  37
ATOM     37  C7' BAB d   1      16.508 -12.975  12.820  0.00  0.00     0.102 C 
ATOM     38  N2' BAB d   1      16.658 -11.815  12.210  0.00  0.00    -0.385 N 
ATOM     39  H16 BAB d   1      16.924 -10.979  12.751  0.00  0.00     0.157 HD
ATOM     40  H17 BAB d   1      16.510 -11.745  11.193  0.00  0.00     0.157 HD
BRANCH  37  41
ATOM     41  N1' BAB d   1      16.170 -14.062  12.163  0.00  0.00    -0.385 N 
ATOM     42  H14 BAB d   1      16.033 -14.025  11.143  0.00  0.00     0.157 HD
ATOM     43  H15 BAB d   1      16.042 -14.950  12.668  0.00  0.00     0.157 HD
ENDBRANCH  37  41
ENDBRANCH  34  37
ENDBRANCH   1  24
TORSDOF 7
