REMARK  0 active torsions:
REMARK  status: ('A' for Active; 'I' for Inactive)
ROOT
ATOM      1  I   8IG d   1      11.571 -22.078   0.245  0.00  0.00    -0.001 I 
ATOM      2  O6  8IG d   1      12.887 -17.658  -4.087  0.00  0.00    -0.265 OA
ATOM      3  C8  8IG d   1      11.754 -20.082  -0.466  0.00  0.00     0.172 A 
ATOM      4  N9  8IG d   1      11.403 -18.981   0.283  0.00  0.00    -0.318 N 
ATOM      5  N2  8IG d   1      11.566 -14.420  -1.023  0.00  0.00    -0.369 N 
ATOM      6  N1  8IG d   1      12.219 -16.095  -2.522  0.00  0.00    -0.292 N 
ATOM      7  C2  8IG d   1      11.728 -15.748  -1.229  0.00  0.00     0.204 A 
ATOM      8  N3  8IG d   1      11.439 -16.647  -0.218  0.00  0.00    -0.195 NA
ATOM      9  C4  8IG d   1      11.657 -17.964  -0.591  0.00  0.00     0.168 A 
ATOM     10  C5  8IG d   1      12.124 -18.446  -1.791  0.00  0.00     0.173 A 
ATOM     11  C6  8IG d   1      12.449 -17.450  -2.885  0.00  0.00     0.281 A 
ATOM     12  N7  8IG d   1      12.170 -19.824  -1.712  0.00  0.00    -0.215 NA
ATOM     13  H1  8IG d   1      11.044 -18.937   1.247  0.00  0.00     0.169 HD
ATOM     14  H2  8IG d   1      11.215 -14.078  -0.117  0.00  0.00     0.159 HD
ATOM     15  H3  8IG d   1      11.793 -13.751  -1.772  0.00  0.00     0.159 HD
ATOM     16  H4  8IG d   1      12.405 -15.371  -3.186  0.00  0.00     0.172 HD
ENDROOT
TORSDOF 0
