REMARK  9 active torsions:
REMARK  status: ('A' for Active; 'I' for Inactive)
REMARK    1  A    between atoms: C24_4  and  S_7 
REMARK    2  A    between atoms: S_7  and  C23_10 
REMARK    3  A    between atoms: C23_10  and  C22_11 
REMARK    4  A    between atoms: C22_11  and  N20_22 
REMARK    5  A    between atoms: C13_12  and  C12_23 
REMARK       I    between atoms: C12_23  and  N9_31 
REMARK    6  A    between atoms: N9_31  and  C1_25 
REMARK    7  A    between atoms: C1_25  and  C2_26 
REMARK    8  A    between atoms: C5_29  and  C8_33 
REMARK    9  A    between atoms: C8_33  and  N11_34 
ROOT
ATOM      1  C13 IH1 d   1      18.477 -13.014  21.747  0.00  0.00     0.130 C 
ATOM      2  C14 IH1 d   1      19.729 -12.877  21.112  0.00  0.00    -0.073 C 
ATOM      3  C15 IH1 d   1      20.689 -13.744  20.815  0.00  0.00    -0.085 C 
ATOM      4  C16 IH1 d   1      20.455 -15.158  21.298  0.00  0.00     0.035 C 
ATOM      5  C19 IH1 d   1      19.029 -16.453  22.689  0.00  0.00     0.347 C 
ATOM      6  C21 IH1 d   1      17.570 -14.864  23.045  0.00  0.00     0.348 C 
ATOM      7  N17 IH1 d   1      19.290 -15.297  21.961  0.00  0.00    -0.232 N 
ATOM      8  N18 IH1 d   1      18.534 -14.287  22.435  0.00  0.00    -0.218 N 
ATOM      9  O21 IH1 d   1      16.586 -14.392  23.375  0.00  0.00    -0.245 OA
ATOM     10  O19 IH1 d   1      19.775 -17.408  22.583  0.00  0.00    -0.245 OA
ATOM     11  N20 IH1 d   1      17.895 -16.205  23.218  0.00  0.00    -0.248 N 
ATOM     12  H9  IH1 d   1      18.413 -12.244  22.530  0.00  0.00     0.097 H 
ATOM     13  H10 IH1 d   1      19.952 -11.857  20.804  0.00  0.00     0.080 H 
ATOM     14  H11 IH1 d   1      21.582 -13.457  20.262  0.00  0.00     0.079 H 
ATOM     15  H12 IH1 d   1      21.278 -15.440  21.971  0.00  0.00     0.073 H 
ATOM     16  H13 IH1 d   1      20.446 -15.830  20.427  0.00  0.00     0.073 H 
ENDROOT
BRANCH   1  17
ATOM     17  C12 IH1 d   1      17.188 -12.681  20.705  0.00  0.00     0.246 C 
ATOM     18  N9  IH1 d   1      15.823 -12.469  20.990  0.00  0.00    -0.359 N 
ATOM     19  H24 IH1 d   1      15.642 -12.610  21.963  0.00  0.00     0.162 HD
ATOM     20  O12 IH1 d   1      17.375 -12.198  19.528  0.00  0.00    -0.271 OA
BRANCH  18  21
ATOM     21  C1  IH1 d   1      14.876 -12.188  20.448  0.00  0.00    -0.001 C 
ATOM     22  H14 IH1 d   1      14.713 -12.972  19.694  0.00  0.00     0.064 H 
ATOM     23  H15 IH1 d   1      15.085 -11.233  19.945  0.00  0.00     0.064 H 
BRANCH  21  24
ATOM     24  C2  IH1 d   1      13.635 -12.018  21.112  0.00  0.00    -0.039 C 
ATOM     25  C7  IH1 d   1      13.551 -13.173  22.148  0.00  0.00    -0.059 C 
ATOM     26  C6  IH1 d   1      12.593 -12.982  23.089  0.00  0.00    -0.055 C 
ATOM     27  H25 IH1 d   1      14.524 -13.260  22.653  0.00  0.00     0.033 H 
ATOM     28  H26 IH1 d   1      13.332 -14.108  21.611  0.00  0.00     0.033 H 
ATOM     29  C5  IH1 d   1      12.241 -11.602  23.721  0.00  0.00     0.001 C 
ATOM     30  H22 IH1 d   1      11.659 -13.348  22.639  0.00  0.00     0.034 H 
ATOM     31  H23 IH1 d   1      12.873 -13.631  23.932  0.00  0.00     0.034 H 
ATOM     32  C4  IH1 d   1      11.944 -10.779  22.369  0.00  0.00    -0.055 C 
ATOM     33  H21 IH1 d   1      12.988 -11.170  24.403  0.00  0.00     0.051 H 
ATOM     34  C3  IH1 d   1      13.126 -10.671  21.583  0.00  0.00    -0.059 C 
ATOM     35  H19 IH1 d   1      11.170 -11.303  21.789  0.00  0.00     0.034 H 
ATOM     36  H20 IH1 d   1      11.589  -9.771  22.629  0.00  0.00     0.034 H 
ATOM     37  H17 IH1 d   1      12.908 -10.049  20.703  0.00  0.00     0.033 H 
ATOM     38  H18 IH1 d   1      13.909 -10.190  22.188  0.00  0.00     0.033 H 
ATOM     39  H16 IH1 d   1      12.895 -12.276  20.340  0.00  0.00     0.042 H 
BRANCH  29  40
ATOM     40  C8  IH1 d   1      10.975 -11.810  24.271  0.00  0.00     0.072 C 
ATOM     41  N10 IH1 d   1      10.499 -10.827  24.997  0.00  0.00    -0.389 N 
ATOM     42  H29 IH1 d   1       9.570 -10.912  25.434  0.00  0.00     0.157 HD
ATOM     43  H30 IH1 d   1      11.054  -9.970  25.131  0.00  0.00     0.157 HD
BRANCH  40  44
ATOM     44  N11 IH1 d   1      10.373 -12.934  24.210  0.00  0.00    -0.389 N 
ATOM     45  H27 IH1 d   1       9.439 -13.041  24.630  0.00  0.00     0.157 HD
ATOM     46  H28 IH1 d   1      10.821 -13.734  23.740  0.00  0.00     0.157 HD
ENDBRANCH  40  44
ENDBRANCH  29  40
ENDBRANCH  21  24
ENDBRANCH  18  21
ENDBRANCH   1  17
BRANCH  11  47
ATOM     47  C22 IH1 d   1      17.059 -17.123  23.810  0.00  0.00     0.021 C 
ATOM     48  H7  IH1 d   1      16.185 -16.575  24.191  0.00  0.00     0.066 H 
ATOM     49  H8  IH1 d   1      16.738 -17.828  23.029  0.00  0.00     0.066 H 
BRANCH  47  50
ATOM     50  C23 IH1 d   1      17.648 -17.986  25.022  0.00  0.00     0.048 C 
ATOM     51  H5  IH1 d   1      16.868 -18.694  25.337  0.00  0.00     0.059 H 
ATOM     52  H6  IH1 d   1      18.518 -18.543  24.643  0.00  0.00     0.059 H 
BRANCH  50  53
ATOM     53  S   IH1 d   1      18.160 -17.102  26.432  0.00  0.00     0.177 S 
ATOM     54  O2  IH1 d   1      18.444 -17.982  27.584  0.00  0.00    -0.223 OA
ATOM     55  O1  IH1 d   1      17.228 -16.025  26.736  0.00  0.00    -0.223 OA
BRANCH  53  56
ATOM     56  C24 IH1 d   1      19.646 -16.265  26.141  0.00  0.00     0.059 A 
ATOM     57  C29 IH1 d   1      19.891 -14.951  26.514  0.00  0.00    -0.061 A 
ATOM     58  C28 IH1 d   1      21.048 -14.319  26.212  0.00  0.00    -0.065 A 
ATOM     59  H2  IH1 d   1      19.129 -14.413  27.066  0.00  0.00     0.085 H 
ATOM     60  C27 IH1 d   1      21.914 -15.087  25.581  0.00  0.00     0.011 A 
ATOM     61  H1  IH1 d   1      21.244 -13.283  26.464  0.00  0.00     0.085 H 
ATOM     62 BR   IH1 d   1      23.442 -14.321  25.125  0.00  0.00    -0.051 Br
ATOM     63  C26 IH1 d   1      21.675 -16.391  25.133  0.00  0.00    -0.065 A 
ATOM     64  C25 IH1 d   1      20.503 -16.976  25.441  0.00  0.00    -0.061 A 
ATOM     65  H4  IH1 d   1      22.420 -16.920  24.549  0.00  0.00     0.085 H 
ATOM     66  H3  IH1 d   1      20.275 -17.988  25.126  0.00  0.00     0.085 H 
ENDBRANCH  53  56
ENDBRANCH  50  53
ENDBRANCH  47  50
ENDBRANCH  11  47
TORSDOF 9
