REMARK  4 active torsions:
REMARK  status: ('A' for Active; 'I' for Inactive)
REMARK    1  A    between atoms: C1_1  and  S1_11 
REMARK    2  A    between atoms: C2_2  and  N2_15 
REMARK    3  A    between atoms: C5_5  and  S5_19 
REMARK       I    between atoms: N2_15  and  C21_16 
REMARK    4  A    between atoms: C21_16  and  C22_18 
ROOT
ATOM      1  C1  TK4 d   1      20.245  15.187 158.029  0.00  0.00     0.118 A 
ATOM      2  C2  TK4 d   1      20.626  15.307 159.358  0.00  0.00     0.060 A 
ATOM      3  C3  TK4 d   1      21.926  15.851 159.680  0.00  0.00    -0.055 A 
ATOM      4  C4  TK4 d   1      22.773  16.244 158.659  0.00  0.00    -0.068 A 
ATOM      5  C5  TK4 d   1      23.224  16.514 156.182  0.00  0.00     0.091 A 
ATOM      6  C6  TK4 d   1      22.828  16.387 154.861  0.00  0.00    -0.059 A 
ATOM      7  C7  TK4 d   1      21.543  15.849 154.556  0.00  0.00    -0.081 A 
ATOM      8  C8  TK4 d   1      20.686  15.452 155.571  0.00  0.00    -0.070 A 
ATOM      9  C9  TK4 d   1      21.111  15.589 156.951  0.00  0.00     0.002 A 
ATOM     10  C10 TK4 d   1      22.385  16.122 157.283  0.00  0.00     0.000 A 
ATOM     11  H1  TK4 d   1      22.235  15.950 160.714  0.00  0.00     0.087 H 
ATOM     12  H2  TK4 d   1      23.747  16.651 158.903  0.00  0.00     0.085 H 
ATOM     13  H3  TK4 d   1      23.492  16.695 154.062  0.00  0.00     0.086 H 
ATOM     14  H4  TK4 d   1      21.234  15.750 153.522  0.00  0.00     0.083 H 
ATOM     15  H5  TK4 d   1      19.710  15.044 155.336  0.00  0.00     0.084 H 
ENDROOT
BRANCH   2  16
ATOM     16  N2  TK4 d   1      19.716  14.886 160.413  0.00  0.00    -0.326 N 
ATOM     17  C21 TK4 d   1      20.145  14.410 161.683  0.00  0.00     0.218 C 
ATOM     18  O2  TK4 d   1      21.325  14.420 162.014  0.00  0.00    -0.274 OA
ATOM     19  H6  TK4 d   1      18.733  14.934 160.235  0.00  0.00     0.169 HD
BRANCH  17  20
ATOM     20  C22 TK4 d   1      19.079  13.867 162.607  0.00  0.00    -0.003 C 
ATOM     21  H7  TK4 d   1      19.543  13.535 163.548  0.00  0.00     0.040 H 
ATOM     22  H8  TK4 d   1      18.576  13.015 162.126  0.00  0.00     0.040 H 
ATOM     23  H9  TK4 d   1      18.342  14.655 162.820  0.00  0.00     0.040 H 
ENDBRANCH  17  20
ENDBRANCH   2  16
BRANCH   1  24
ATOM     24  S1  TK4 d   1      18.607  14.504 157.533  0.00  0.00     0.141 S 
ATOM     25  O13 TK4 d   1      18.941  13.180 156.947  0.00  0.00    -0.591 OA
ATOM     26  O12 TK4 d   1      17.830  15.439 156.702  0.00  0.00    -0.591 OA
ATOM     27  O11 TK4 d   1      17.837  14.239 158.835  0.00  0.00    -0.591 OA
ENDBRANCH   1  24
BRANCH   5  28
ATOM     28  S5  TK4 d   1      24.862  17.199 156.578  0.00  0.00     0.138 S 
ATOM     29  O53 TK4 d   1      25.563  16.114 157.315  0.00  0.00    -0.591 OA
ATOM     30  O52 TK4 d   1      24.739  18.460 157.368  0.00  0.00    -0.591 OA
ATOM     31  O51 TK4 d   1      25.541  17.474 155.269  0.00  0.00    -0.591 OA
ENDBRANCH   5  28
TORSDOF 4
