REMARK  2 active torsions:
REMARK  status: ('A' for Active; 'I' for Inactive)
REMARK    1  A    between atoms: C0_1  and  N1_3 
REMARK    2  A    between atoms: C1_2  and  C0_1 
ROOT
ATOM      1  C1  ESI d   1      11.609 -12.220  23.478  0.00  0.00     0.049 A 
ATOM      2  S2  ESI d   1      12.482 -10.799  22.868  0.00  0.00    -0.086 SA
ATOM      3  C3  ESI d   1      13.242 -11.799  21.621  0.00  0.00     0.017 A 
ATOM      4  C4  ESI d   1      12.800 -13.118  21.733  0.00  0.00    -0.001 A 
ATOM      5  C5  ESI d   1      11.909 -13.326  22.752  0.00  0.00    -0.050 A 
ATOM      6  C6  ESI d   1      14.142 -11.394  20.661  0.00  0.00    -0.066 A 
ATOM      7  C7  ESI d   1      14.627 -12.338  19.767  0.00  0.00    -0.080 A 
ATOM      8  C8  ESI d   1      14.203 -13.674  19.848  0.00  0.00    -0.066 A 
ATOM      9  C9  ESI d   1      13.278 -14.087  20.832  0.00  0.00     0.018 A 
ATOM     10  I9  ESI d   1      12.584 -16.047  20.979  0.00  0.00    -0.044 I 
ATOM     11  H5  ESI d   1      11.475 -14.302  22.963  0.00  0.00     0.087 H 
ATOM     12  H6  ESI d   1      14.465 -10.361  20.605  0.00  0.00     0.085 H 
ATOM     13  H7  ESI d   1      15.336 -12.043  19.003  0.00  0.00     0.083 H 
ATOM     14  H8  ESI d   1      14.592 -14.400  19.144  0.00  0.00     0.085 H 
ENDROOT
BRANCH   1  15
ATOM     15  C0  ESI d   1      10.804 -12.075  24.526  0.00  0.00     0.109 C 
ATOM     16  N2  ESI d   1      10.750 -10.864  25.020  0.00  0.00    -0.385 N 
ATOM     17  H3  ESI d   1      11.298 -10.107  24.588  0.00  0.00     0.157 HD
ATOM     18  H4  ESI d   1      10.160 -10.669  25.841  0.00  0.00     0.157 HD
BRANCH  15  19
ATOM     19  N1  ESI d   1      10.172 -13.128  24.962  0.00  0.00    -0.385 N 
ATOM     20  H1  ESI d   1      10.294 -14.034  24.488  0.00  0.00     0.157 HD
ATOM     21  H2  ESI d   1       9.551 -13.054  25.780  0.00  0.00     0.157 HD
ENDBRANCH  15  19
ENDBRANCH   1  15
TORSDOF 2
