REMARK  2 active torsions:
REMARK  status: ('A' for Active; 'I' for Inactive)
REMARK    1  A    between atoms: C_7  and  C1_1 
REMARK    2  A    between atoms: C_7  and  N1_8 
ROOT
ATOM      1  C1  BAM d   1      45.543  19.287  52.917  0.00  0.00     0.007 A 
ATOM      2  C2  BAM d   1      45.642  20.668  53.164  0.00  0.00    -0.069 A 
ATOM      3  C3  BAM d   1      45.292  21.616  52.201  0.00  0.00    -0.082 A 
ATOM      4  C4  BAM d   1      44.825  21.199  50.962  0.00  0.00    -0.083 A 
ATOM      5  C5  BAM d   1      44.710  19.837  50.684  0.00  0.00    -0.082 A 
ATOM      6  C6  BAM d   1      45.061  18.898  51.645  0.00  0.00    -0.069 A 
ATOM      7  H1  BAM d   1      46.000  21.006  54.130  0.00  0.00     0.085 H 
ATOM      8  H2  BAM d   1      45.385  22.674  52.420  0.00  0.00     0.083 H 
ATOM      9  H3  BAM d   1      44.550  21.931  50.211  0.00  0.00     0.083 H 
ATOM     10  H4  BAM d   1      44.346  19.511  49.716  0.00  0.00     0.083 H 
ATOM     11  H5  BAM d   1      44.964  17.843  51.415  0.00  0.00     0.085 H 
ENDROOT
BRANCH   1  12
ATOM     12  C   BAM d   1      45.902  18.356  53.892  0.00  0.00     0.102 C 
ATOM     13  N2  BAM d   1      45.403  17.158  53.840  0.00  0.00    -0.385 N 
ATOM     14  H8  BAM d   1      44.738  16.909  53.094  0.00  0.00     0.157 HD
ATOM     15  H9  BAM d   1      45.672  16.457  54.545  0.00  0.00     0.157 HD
BRANCH  12  16
ATOM     16  N1  BAM d   1      46.742  18.698  54.821  0.00  0.00    -0.385 N 
ATOM     17  H6  BAM d   1      47.014  18.018  55.545  0.00  0.00     0.157 HD
ATOM     18  H7  BAM d   1      47.137  19.649  54.834  0.00  0.00     0.157 HD
ENDBRANCH  12  16
ENDBRANCH   1  12
TORSDOF 2
