REMARK  2 active torsions:
REMARK  status: ('A' for Active; 'I' for Inactive)
REMARK    1  A    between atoms: C0_1  and  N1_3 
REMARK    2  A    between atoms: C0_1  and  C1_2 
ROOT
ATOM      1  C1  ESX d   1      45.875  19.215  53.387  0.00  0.00     0.049 A 
ATOM      2  S2  ESX d   1      45.068  18.964  51.718  0.00  0.00    -0.086 SA
ATOM      3  C3  ESX d   1      45.206  20.670  51.284  0.00  0.00     0.016 A 
ATOM      4  C4  ESX d   1      45.811  21.338  52.340  0.00  0.00    -0.018 A 
ATOM      5  C5  ESX d   1      46.170  20.566  53.450  0.00  0.00    -0.051 A 
ATOM      6  C6  ESX d   1      44.803  21.306  50.123  0.00  0.00    -0.066 A 
ATOM      7  C7  ESX d   1      45.005  22.667  49.990  0.00  0.00    -0.082 A 
ATOM      8  C8  ESX d   1      45.613  23.370  51.024  0.00  0.00    -0.082 A 
ATOM      9  C9  ESX d   1      46.011  22.707  52.191  0.00  0.00    -0.072 A 
ATOM     10  H5  ESX d   1      46.657  21.006  54.319  0.00  0.00     0.087 H 
ATOM     11  H6  ESX d   1      44.333  20.742  49.325  0.00  0.00     0.085 H 
ATOM     12  H7  ESX d   1      44.692  23.181  49.088  0.00  0.00     0.083 H 
ATOM     13  H8  ESX d   1      45.780  24.437  50.926  0.00  0.00     0.083 H 
ATOM     14  H9  ESX d   1      46.482  23.268  52.990  0.00  0.00     0.084 H 
ENDROOT
BRANCH   1  15
ATOM     15  C0  ESX d   1      46.067  18.178  54.256  0.00  0.00     0.109 C 
ATOM     16  N2  ESX d   1      45.731  17.005  53.817  0.00  0.00    -0.385 N 
ATOM     17  H3  ESX d   1      45.331  16.903  52.873  0.00  0.00     0.157 HD
ATOM     18  H4  ESX d   1      45.864  16.175  54.412  0.00  0.00     0.157 HD
BRANCH  15  19
ATOM     19  N1  ESX d   1      46.576  18.409  55.425  0.00  0.00    -0.385 N 
ATOM     20  H1  ESX d   1      46.817  19.372  55.701  0.00  0.00     0.157 HD
ATOM     21  H2  ESX d   1      46.739  17.630  56.079  0.00  0.00     0.157 HD
ENDBRANCH  15  19
ENDBRANCH   1  15
TORSDOF 2
