REMARK  2 active torsions:
REMARK  status: ('A' for Active; 'I' for Inactive)
REMARK    1  A    between atoms: C1_2  and  C0_1 
REMARK    2  A    between atoms: C0_1  and  N1_3 
ROOT
ATOM      1  C1  ESI d   1       8.293   0.288  25.505  0.00  0.00     0.049 A 
ATOM      2  S2  ESI d   1       9.026   0.661  23.854  0.00  0.00    -0.086 SA
ATOM      3  C3  ESI d   1       9.172   2.380  24.151  0.00  0.00     0.017 A 
ATOM      4  C4  ESI d   1       8.664   2.627  25.455  0.00  0.00    -0.001 A 
ATOM      5  C5  ESI d   1       8.229   1.518  26.137  0.00  0.00    -0.050 A 
ATOM      6  C6  ESI d   1       9.655   3.399  23.352  0.00  0.00    -0.066 A 
ATOM      7  C7  ESI d   1       9.644   4.692  23.840  0.00  0.00    -0.080 A 
ATOM      8  C8  ESI d   1       9.155   4.954  25.136  0.00  0.00    -0.066 A 
ATOM      9  C9  ESI d   1       8.672   3.930  25.934  0.00  0.00     0.018 A 
ATOM     10  I9  ESI d   1       8.032   4.527  27.812  0.00  0.00    -0.044 I 
ATOM     11  H5  ESI d   1       7.843   1.604  27.151  0.00  0.00     0.087 H 
ATOM     12  H6  ESI d   1      10.036   3.188  22.359  0.00  0.00     0.085 H 
ATOM     13  H7  ESI d   1      10.012   5.506  23.226  0.00  0.00     0.083 H 
ATOM     14  H8  ESI d   1       9.157   5.970  25.513  0.00  0.00     0.085 H 
ENDROOT
BRANCH   1  15
ATOM     15  C0  ESI d   1       7.951  -0.983  25.911  0.00  0.00     0.109 C 
ATOM     16  N2  ESI d   1       8.342  -1.950  25.129  0.00  0.00    -0.385 N 
ATOM     17  H3  ESI d   1       8.848  -1.735  24.258  0.00  0.00     0.157 HD
ATOM     18  H4  ESI d   1       8.145  -2.929  25.382  0.00  0.00     0.157 HD
BRANCH  15  19
ATOM     19  N1  ESI d   1       7.307  -1.162  27.029  0.00  0.00    -0.385 N 
ATOM     20  H1  ESI d   1       7.053  -2.114  27.330  0.00  0.00     0.157 HD
ATOM     21  H2  ESI d   1       7.052  -0.352  27.612  0.00  0.00     0.157 HD
ENDBRANCH  15  19
ENDBRANCH   1  15
TORSDOF 2
