REMARK  17 active torsions:
REMARK  status: ('A' for Active; 'I' for Inactive)
REMARK    1  A    between atoms: N1_1  and  C31_39 
REMARK    2  A    between atoms: C2_3  and  C3_4 
REMARK       I    between atoms: C3_4  and  N2_6 
REMARK    3  A    between atoms: N2_6  and  C4_7 
REMARK    4  A    between atoms: C4_7  and  C7_10 
REMARK    5  A    between atoms: C4_7  and  C6_9 
REMARK    6  A    between atoms: C4_7  and  C5_8 
REMARK    7  A    between atoms: N3_11  and  C10_14 
REMARK    8  A    between atoms: C10_14  and  C11_15 
REMARK    9  A    between atoms: C11_15  and  C12_17 
REMARK   10  A    between atoms: C11_15  and  O2_16 
REMARK   11  A    between atoms: C12_17  and  C13_18 
REMARK   12  A    between atoms: C13_18  and  C21_26 
REMARK   13  A    between atoms: C13_18  and  C14_19 
REMARK   14  A    between atoms: C14_19  and  C15_20 
REMARK       I    between atoms: C21_26  and  N4_28 
REMARK   15  A    between atoms: N4_28  and  C22_29 
REMARK   16  A    between atoms: C23_30  and  O4_31 
REMARK   17  A    between atoms: C31_39  and  C38_47 
ROOT
ATOM      1  N1  L75 d   1       9.213  23.920   2.696  0.00  0.00    -0.061 N 
ATOM      2  C1  L75 d   1       9.232  23.899   4.162  0.00  0.00     0.119 C 
ATOM      3  C2  L75 d   1      10.395  24.782   4.644  0.00  0.00     0.203 C 
ATOM      4  N3  L75 d   1      11.671  24.240   4.130  0.00  0.00    -0.053 N 
ATOM      5  C8  L75 d   1      11.661  24.176   2.643  0.00  0.00     0.107 C 
ATOM      6  C9  L75 d   1      10.446  23.339   2.164  0.00  0.00     0.106 C 
ATOM      7  H1  L75 d   1       9.166  24.881   2.396  0.00  0.00     0.280 HD
ATOM      8  H2  L75 d   1       9.376  22.868   4.517  0.00  0.00     0.080 H 
ATOM      9  H3  L75 d   1       8.281  24.291   4.552  0.00  0.00     0.080 H 
ATOM     10  H4  L75 d   1      10.261  25.798   4.245  0.00  0.00     0.102 H 
ATOM     11  H15 L75 d   1      11.799  23.310   4.497  0.00  0.00     0.281 HD
ATOM     12  H16 L75 d   1      12.591  23.705   2.291  0.00  0.00     0.078 H 
ATOM     13  H17 L75 d   1      11.588  25.194   2.234  0.00  0.00     0.078 H 
ATOM     14  H18 L75 d   1      10.409  23.343   1.065  0.00  0.00     0.078 H 
ATOM     15  H19 L75 d   1      10.549  22.305   2.524  0.00  0.00     0.078 H 
ENDROOT
BRANCH   4  16
ATOM     16  C10 L75 d   1      12.795  25.088   4.562  0.00  0.00     0.108 C 
ATOM     17  H20 L75 d   1      12.518  25.625   5.481  0.00  0.00     0.080 H 
ATOM     18  H21 L75 d   1      13.032  25.814   3.771  0.00  0.00     0.080 H 
BRANCH  16  19
ATOM     19  C11 L75 d   1      13.998  24.224   4.828  0.00  0.00     0.059 C 
ATOM     20  H22 L75 d   1      13.872  23.263   4.308  0.00  0.00     0.085 H 
BRANCH  19  21
ATOM     21  C12 L75 d   1      14.244  23.966   6.284  0.00  0.00    -0.028 C 
ATOM     22  H24 L75 d   1      13.347  23.460   6.670  0.00  0.00     0.038 H 
ATOM     23  H25 L75 d   1      14.345  24.950   6.765  0.00  0.00     0.038 H 
BRANCH  21  24
ATOM     24  C13 L75 d   1      15.449  23.130   6.738  0.00  0.00     0.029 C 
ATOM     25  H26 L75 d   1      16.364  23.567   6.312  0.00  0.00     0.055 H 
BRANCH  24  26
ATOM     26  C21 L75 d   1      15.317  21.691   6.225  0.00  0.00     0.222 C 
ATOM     27  N4  L75 d   1      16.395  21.220   5.577  0.00  0.00    -0.350 N 
ATOM     28  H34 L75 d   1      17.087  21.847   5.218  0.00  0.00     0.163 HD
ATOM     29  O3  L75 d   1      14.292  21.051   6.471  0.00  0.00    -0.273 OA
BRANCH  27  30
ATOM     30  C22 L75 d   1      16.542  19.762   5.403  0.00  0.00     0.063 C 
ATOM     31  C30 L75 d   1      16.510  19.311   4.015  0.00  0.00    -0.027 A 
ATOM     32  C25 L75 d   1      17.374  18.293   3.819  0.00  0.00    -0.047 A 
ATOM     33  C29 L75 d   1      15.744  19.834   2.996  0.00  0.00    -0.074 A 
ATOM     34  C24 L75 d   1      18.173  18.005   5.067  0.00  0.00    -0.014 C 
ATOM     35  C26 L75 d   1      17.636  17.774   2.553  0.00  0.00    -0.076 A 
ATOM     36  C23 L75 d   1      17.985  19.326   5.883  0.00  0.00     0.063 C 
ATOM     37  H38 L75 d   1      17.768  17.138   5.610  0.00  0.00     0.044 H 
ATOM     38  H39 L75 d   1      19.233  17.828   4.831  0.00  0.00     0.044 H 
ATOM     39  H36 L75 d   1      18.078  19.201   6.972  0.00  0.00     0.087 H 
ATOM     40  C27 L75 d   1      16.912  18.295   1.488  0.00  0.00    -0.082 A 
ATOM     41  H40 L75 d   1      18.375  16.995   2.405  0.00  0.00     0.084 H 
ATOM     42  C28 L75 d   1      15.970  19.333   1.713  0.00  0.00    -0.082 A 
ATOM     43  H41 L75 d   1      17.066  17.910   0.487  0.00  0.00     0.083 H 
ATOM     44  H42 L75 d   1      15.418  19.743   0.875  0.00  0.00     0.083 H 
ATOM     45  H43 L75 d   1      15.000  20.600   3.182  0.00  0.00     0.084 H 
ATOM     46  H35 L75 d   1      15.758  19.253   5.984  0.00  0.00     0.084 H 
BRANCH  36  47
ATOM     47  O4  L75 d   1      18.908  20.267   5.354  0.00  0.00    -0.393 OA
ATOM     48  H37 L75 d   1      19.791  19.932   5.452  0.00  0.00     0.210 HD
ENDBRANCH  36  47
ENDBRANCH  27  30
ENDBRANCH  24  26
BRANCH  24  49
ATOM     49  C14 L75 d   1      15.556  23.174   8.265  0.00  0.00    -0.029 C 
ATOM     50  H27 L75 d   1      14.571  22.938   8.693  0.00  0.00     0.041 H 
ATOM     51  H28 L75 d   1      15.854  24.189   8.567  0.00  0.00     0.041 H 
BRANCH  49  52
ATOM     52  C15 L75 d   1      16.584  22.175   8.820  0.00  0.00    -0.057 A 
ATOM     53  C20 L75 d   1      16.126  21.103   9.635  0.00  0.00    -0.077 A 
ATOM     54  C19 L75 d   1      17.043  20.191  10.155  0.00  0.00    -0.082 A 
ATOM     55  H33 L75 d   1      15.069  20.996   9.851  0.00  0.00     0.084 H 
ATOM     56  C18 L75 d   1      18.403  20.354   9.872  0.00  0.00    -0.083 A 
ATOM     57  H32 L75 d   1      16.706  19.365  10.771  0.00  0.00     0.083 H 
ATOM     58  C17 L75 d   1      18.875  21.404   9.063  0.00  0.00    -0.082 A 
ATOM     59  H31 L75 d   1      19.115  19.650  10.288  0.00  0.00     0.083 H 
ATOM     60  C16 L75 d   1      17.972  22.316   8.525  0.00  0.00    -0.077 A 
ATOM     61  H30 L75 d   1      19.935  21.502   8.860  0.00  0.00     0.083 H 
ATOM     62  H29 L75 d   1      18.319  23.123   7.890  0.00  0.00     0.084 H 
ENDBRANCH  49  52
ENDBRANCH  24  49
ENDBRANCH  21  24
ENDBRANCH  19  21
BRANCH  19  63
ATOM     63  O2  L75 d   1      15.119  24.900   4.338  0.00  0.00    -0.394 OA
ATOM     64  H23 L75 d   1      14.999  25.081   3.413  0.00  0.00     0.210 HD
ENDBRANCH  19  63
ENDBRANCH  16  19
ENDBRANCH   4  16
BRANCH   3  65
ATOM     65  C3  L75 d   1      10.389  24.856   6.162  0.00  0.00     0.251 C 
ATOM     66  N2  L75 d   1      10.048  26.052   6.674  0.00  0.00    -0.351 N 
ATOM     67  H5  L75 d   1       9.788  26.783   6.044  0.00  0.00     0.163 HD
ATOM     68  O1  L75 d   1      10.751  23.854   6.823  0.00  0.00    -0.271 OA
BRANCH  66  69
ATOM     69  C4  L75 d   1      10.040  26.338   8.133  0.00  0.00     0.022 C 
BRANCH  69  70
ATOM     70  C7  L75 d   1       9.079  25.351   8.863  0.00  0.00    -0.054 C 
ATOM     71  H12 L75 d   1       9.079  25.569   9.941  0.00  0.00     0.030 H 
ATOM     72  H13 L75 d   1       9.420  24.318   8.698  0.00  0.00     0.030 H 
ATOM     73  H14 L75 d   1       8.060  25.469   8.465  0.00  0.00     0.030 H 
ENDBRANCH  69  70
BRANCH  69  74
ATOM     74  C6  L75 d   1      11.464  26.256   8.696  0.00  0.00    -0.054 C 
ATOM     75  H9  L75 d   1      11.444  26.469   9.775  0.00  0.00     0.030 H 
ATOM     76  H10 L75 d   1      12.102  26.994   8.188  0.00  0.00     0.030 H 
ATOM     77  H11 L75 d   1      11.867  25.246   8.529  0.00  0.00     0.030 H 
ENDBRANCH  69  74
BRANCH  69  78
ATOM     78  C5  L75 d   1       9.535  27.776   8.341  0.00  0.00    -0.054 C 
ATOM     79  H6  L75 d   1       9.521  28.008   9.416  0.00  0.00     0.030 H 
ATOM     80  H7  L75 d   1       8.518  27.870   7.933  0.00  0.00     0.030 H 
ATOM     81  H8  L75 d   1      10.204  28.478   7.823  0.00  0.00     0.030 H 
ENDBRANCH  69  78
ENDBRANCH  66  69
ENDBRANCH   3  65
BRANCH   1  82
ATOM     82  C31 L75 d   1       8.001  23.211   2.171  0.00  0.00     0.127 C 
ATOM     83  H44 L75 d   1       7.908  23.420   1.095  0.00  0.00     0.086 H 
ATOM     84  H45 L75 d   1       7.114  23.593   2.697  0.00  0.00     0.086 H 
BRANCH  82  85
ATOM     85  C38 L75 d   1       8.076  21.686   2.373  0.00  0.00     0.080 A 
ATOM     86  C39 L75 d   1       6.936  20.897   2.834  0.00  0.00    -0.040 A 
ATOM     87  C35 L75 d   1       7.453  19.570   2.592  0.00  0.00     0.000 A 
ATOM     88  H50 L75 d   1       5.978  21.216   3.241  0.00  0.00     0.088 H 
ATOM     89  C34 L75 d   1       8.765  19.621   2.137  0.00  0.00     0.086 A 
ATOM     90  C36 L75 d   1       6.799  18.331   2.781  0.00  0.00    -0.070 A 
ATOM     91  O5  L75 d   1       9.156  20.899   1.953  0.00  0.00    -0.312 OA
ATOM     92  C33 L75 d   1       9.570  18.478   1.938  0.00  0.00    -0.049 A 
ATOM     93  C32 L75 d   1       8.942  17.201   2.182  0.00  0.00    -0.080 A 
ATOM     94  H47 L75 d   1      10.603  18.555   1.619  0.00  0.00     0.087 H 
ATOM     95  C37 L75 d   1       7.554  17.137   2.570  0.00  0.00    -0.082 A 
ATOM     96  H46 L75 d   1       9.515  16.287   2.073  0.00  0.00     0.083 H 
ATOM     97  H49 L75 d   1       7.079  16.172   2.703  0.00  0.00     0.083 H 
ATOM     98  H48 L75 d   1       5.757  18.288   3.077  0.00  0.00     0.084 H 
ENDBRANCH  82  85
ENDBRANCH   1  82
TORSDOF 17
