REMARK  3 active torsions:
REMARK  status: ('A' for Active; 'I' for Inactive)
REMARK    1  A    between atoms: C3_3  and  N12_10 
REMARK    2  A    between atoms: C4_4  and  C18_16 
REMARK       I    between atoms: N12_10  and  C13_11 
REMARK    3  A    between atoms: C13_11  and  C14_12 
ROOT
ATOM      1  C1  OAI d   1      45.273  11.816   2.090  0.00  0.00     0.044 A 
ATOM      2  C2  OAI d   1      45.406  12.893   2.908  0.00  0.00    -0.029 A 
ATOM      3  C3  OAI d   1      44.728  14.090   2.617  0.00  0.00     0.054 A 
ATOM      4  C4  OAI d   1      43.930  14.162   1.451  0.00  0.00     0.068 A 
ATOM      5  C5  OAI d   1      43.776  13.025   0.627  0.00  0.00    -0.052 A 
ATOM      6  C6  OAI d   1      44.432  11.872   0.952  0.00  0.00    -0.007 A 
ATOM      7  C9  OAI d   1      44.506  10.604   0.300  0.00  0.00    -0.056 A 
ATOM      8  C10 OAI d   1      45.420   9.859   1.055  0.00  0.00    -0.022 A 
ATOM      9  N11 OAI d   1      45.861  10.573   2.103  0.00  0.00    -0.365 N 
ATOM     10  H1  OAI d   1      46.037  12.829   3.787  0.00  0.00     0.090 H 
ATOM     11  H2  OAI d   1      43.145  13.067  -0.253  0.00  0.00     0.086 H 
ATOM     12  H3  OAI d   1      43.968  10.285  -0.592  0.00  0.00     0.086 H 
ATOM     13  H4  OAI d   1      45.730   8.841   0.824  0.00  0.00     0.111 H 
ATOM     14  H5  OAI d   1      46.535  10.241   2.808  0.00  0.00     0.165 HD
ENDROOT
BRANCH   3  15
ATOM     15  N12 OAI d   1      44.825  15.182   3.428  0.00  0.00    -0.317 N 
ATOM     16  C13 OAI d   1      45.473  15.388   4.638  0.00  0.00     0.322 C 
ATOM     17  O17 OAI d   1      46.040  14.498   5.277  0.00  0.00    -0.261 OA
ATOM     18  H6  OAI d   1      44.337  15.986   3.087  0.00  0.00     0.169 HD
BRANCH  16  19
ATOM     19  C14 OAI d   1      45.166  16.769   5.248  0.00  0.00     0.270 C 
ATOM     20  O16 OAI d   1      43.863  17.105   5.133  0.00  0.00    -0.640 OA
ATOM     21  O15 OAI d   1      45.886  17.431   5.904  0.00  0.00    -0.640 OA
ENDBRANCH  16  19
ENDBRANCH   3  15
BRANCH   4  22
ATOM     22  C18 OAI d   1      43.301  15.419   1.066  0.00  0.00     0.211 C 
ATOM     23  O20 OAI d   1      42.963  15.437  -0.220  0.00  0.00    -0.644 OA
ATOM     24  O19 OAI d   1      43.098  16.293   1.856  0.00  0.00    -0.644 OA
ENDBRANCH   4  22
TORSDOF 3
