REMARK  3 active torsions:
REMARK  status: ('A' for Active; 'I' for Inactive)
REMARK    1  A    between atoms: C12_8  and  N20_14 
REMARK    2  A    between atoms: C13_9  and  C17_11 
REMARK       I    between atoms: N20_14  and  C21_15 
REMARK    3  A    between atoms: C21_15  and  C23_17 
ROOT
ATOM      1  C1  761 d   1      46.112   9.845   1.106  0.00  0.00    -0.082 A 
ATOM      2  C2  761 d   1      46.268  10.955   1.932  0.00  0.00    -0.072 A 
ATOM      3  C3  761 d   1      45.514  12.107   1.733  0.00  0.00    -0.024 A 
ATOM      4  C4  761 d   1      44.578  12.135   0.684  0.00  0.00    -0.025 A 
ATOM      5  C5  761 d   1      44.407  11.005  -0.150  0.00  0.00    -0.072 A 
ATOM      6  C6  761 d   1      45.161   9.862   0.080  0.00  0.00    -0.082 A 
ATOM      7  C11 761 d   1      45.593  13.219   2.590  0.00  0.00    -0.045 A 
ATOM      8  C12 761 d   1      44.806  14.351   2.337  0.00  0.00     0.053 A 
ATOM      9  C13 761 d   1      43.938  14.396   1.232  0.00  0.00     0.068 A 
ATOM     10  C14 761 d   1      43.828  13.275   0.392  0.00  0.00    -0.053 A 
ATOM     11  H1  761 d   1      46.728   8.966   1.258  0.00  0.00     0.083 H 
ATOM     12  H2  761 d   1      46.988  10.921   2.742  0.00  0.00     0.084 H 
ATOM     13  H3  761 d   1      43.691  11.031  -0.964  0.00  0.00     0.084 H 
ATOM     14  H4  761 d   1      45.013   8.982  -0.536  0.00  0.00     0.083 H 
ATOM     15  H5  761 d   1      46.261  13.201   3.444  0.00  0.00     0.088 H 
ATOM     16  H6  761 d   1      43.171  13.295  -0.470  0.00  0.00     0.086 H 
ENDROOT
BRANCH   8  17
ATOM     17  N20 761 d   1      44.771  15.429   3.160  0.00  0.00    -0.317 N 
ATOM     18  C21 761 d   1      45.196  15.554   4.434  0.00  0.00     0.322 C 
ATOM     19  O22 761 d   1      45.438  14.594   5.184  0.00  0.00    -0.261 OA
ATOM     20  H7  761 d   1      44.370  16.255   2.763  0.00  0.00     0.169 HD
BRANCH  18  21
ATOM     21  C23 761 d   1      45.360  17.014   4.980  0.00  0.00     0.270 C 
ATOM     22  O25 761 d   1      46.630  17.376   5.342  0.00  0.00    -0.640 OA
ATOM     23  O24 761 d   1      44.414  17.745   5.145  0.00  0.00    -0.640 OA
ENDBRANCH  18  21
ENDBRANCH   8  17
BRANCH   9  24
ATOM     24  C17 761 d   1      43.286  15.645   0.867  0.00  0.00     0.211 C 
ATOM     25  O19 761 d   1      43.050  15.745  -0.436  0.00  0.00    -0.644 OA
ATOM     26  O18 761 d   1      43.019  16.486   1.659  0.00  0.00    -0.644 OA
ENDBRANCH   9  24
TORSDOF 3
