REMARK  3 active torsions:
REMARK  status: ('A' for Active; 'I' for Inactive)
REMARK    1  A    between atoms: C14_8  and  N19_13 
REMARK    2  A    between atoms: C15_9  and  C16_10 
REMARK       I    between atoms: N19_13  and  C20_14 
REMARK    3  A    between atoms: C20_14  and  C21_15 
ROOT
ATOM      1  O1  OPA d   1      13.889  44.907  17.351  0.00  0.00    -0.386 OA
ATOM      2  C2  OPA d   1      13.840  45.511  18.643  0.00  0.00     0.050 C 
ATOM      3  C3  OPA d   1      12.469  45.752  19.056  0.00  0.00     0.016 C 
ATOM      4  C4  OPA d   1      11.293  45.421  18.172  0.00  0.00    -0.021 C 
ATOM      5  C5  OPA d   1      11.447  44.715  16.919  0.00  0.00    -0.019 C 
ATOM      6  C6  OPA d   1      12.802  44.028  17.001  0.00  0.00     0.024 C 
ATOM      7  S13 OPA d   1      11.975  46.431  20.565  0.00  0.00    -0.073 SA
ATOM      8  C14 OPA d   1      10.303  46.212  20.159  0.00  0.00     0.094 C 
ATOM      9  C15 OPA d   1      10.095  45.877  18.795  0.00  0.00     0.082 C 
ATOM     10  H1  OPA d   1      14.380  46.469  18.612  0.00  0.00     0.082 H 
ATOM     11  H2  OPA d   1      14.322  44.842  19.371  0.00  0.00     0.082 H 
ATOM     12  H3  OPA d   1      11.425  45.420  16.075  0.00  0.00     0.043 H 
ATOM     13  H4  OPA d   1      10.646  43.971  16.796  0.00  0.00     0.043 H 
ATOM     14  H5  OPA d   1      12.741  43.235  17.761  0.00  0.00     0.074 H 
ATOM     15  H6  OPA d   1      13.022  43.581  16.020  0.00  0.00     0.074 H 
ENDROOT
BRANCH   8  16
ATOM     16  N19 OPA d   1       9.282  46.788  20.902  0.00  0.00    -0.322 N 
ATOM     17  C20 OPA d   1       9.302  47.329  22.180  0.00  0.00     0.256 C 
ATOM     18  O24 OPA d   1      10.573  47.516  22.854  0.00  0.00    -0.165 OA
ATOM     19  H7  OPA d   1       8.393  46.818  20.445  0.00  0.00     0.169 HD
BRANCH  17  20
ATOM     20  C21 OPA d   1       8.087  47.656  22.840  0.00  0.00     0.255 C 
ATOM     21  O23 OPA d   1       7.934  48.730  23.679  0.00  0.00    -0.641 OA
ATOM     22  O22 OPA d   1       6.939  46.786  22.794  0.00  0.00    -0.641 OA
ENDBRANCH  17  20
ENDBRANCH   8  16
BRANCH   9  23
ATOM     23  C16 OPA d   1       8.801  45.860  18.315  0.00  0.00     0.212 C 
ATOM     24  O18 OPA d   1       8.426  45.771  16.998  0.00  0.00    -0.644 OA
ATOM     25  O17 OPA d   1       7.630  45.682  19.049  0.00  0.00    -0.644 OA
ENDBRANCH   9  23
TORSDOF 3
