REMARK  3 active torsions:
REMARK  status: ('A' for Active; 'I' for Inactive)
REMARK    1  A    between atoms: C1_1  and  C8_8 
REMARK    2  A    between atoms: C4_4  and  C7_7 
REMARK    3  A    between atoms: C7_7  and  N_9 
ROOT
ATOM      1  C1  AMH d   1      21.909  -3.567  40.823  0.00  0.00     0.030 C 
ATOM      2  C2  AMH d   1      22.052  -2.298  40.092  0.00  0.00    -0.052 C 
ATOM      3  C3  AMH d   1      20.743  -1.600  39.902  0.00  0.00    -0.059 C 
ATOM      4  C4  AMH d   1      19.841  -1.657  41.062  0.00  0.00    -0.031 C 
ATOM      5  C5  AMH d   1      19.730  -2.992  41.789  0.00  0.00    -0.059 C 
ATOM      6  C6  AMH d   1      21.041  -3.686  42.022  0.00  0.00    -0.052 C 
ATOM      7  H1  AMH d   1      21.216  -4.032  40.107  0.00  0.00     0.056 H 
ATOM      8  H2  AMH d   1      22.488  -2.506  39.104  0.00  0.00     0.034 H 
ATOM      9  H3  AMH d   1      22.726  -1.638  40.658  0.00  0.00     0.034 H 
ATOM     10  H4  AMH d   1      20.230  -2.062  39.046  0.00  0.00     0.033 H 
ATOM     11  H5  AMH d   1      20.948  -0.542  39.679  0.00  0.00     0.033 H 
ATOM     12  H6  AMH d   1      20.331  -0.993  41.789  0.00  0.00     0.042 H 
ATOM     13  H7  AMH d   1      19.091  -3.657  41.190  0.00  0.00     0.033 H 
ATOM     14  H8  AMH d   1      19.258  -2.813  42.766  0.00  0.00     0.033 H 
ATOM     15  H9  AMH d   1      21.547  -3.225  42.883  0.00  0.00     0.034 H 
ATOM     16  H10 AMH d   1      20.856  -4.750  42.231  0.00  0.00     0.034 H 
ENDROOT
BRANCH   4  17
ATOM     17  C7  AMH d   1      18.371  -1.016  40.859  0.00  0.00     0.083 C 
ATOM     18  H11 AMH d   1      17.630  -1.780  40.579  0.00  0.00     0.075 H 
ATOM     19  H12 AMH d   1      18.378  -0.217  40.103  0.00  0.00     0.075 H 
BRANCH  17  20
ATOM     20  N   AMH d   1      18.128  -0.502  42.164  0.00  0.00    -0.079 N 
ATOM     21  H13 AMH d   1      17.222  -0.061  42.188  0.00  0.00     0.274 HD
ATOM     22  H14 AMH d   1      18.837   0.176  42.396  0.00  0.00     0.274 HD
ATOM     23  H15 AMH d   1      18.153  -1.256  42.832  0.00  0.00     0.274 HD
ENDBRANCH  17  20
ENDBRANCH   4  17
BRANCH   1  24
ATOM     24  C8  AMH d   1      23.001  -4.615  40.747  0.00  0.00     0.177 C 
ATOM     25  O2  AMH d   1      22.578  -5.763  40.366  0.00  0.00    -0.648 OA
ATOM     26  O1  AMH d   1      24.200  -4.464  40.957  0.00  0.00    -0.648 OA
ENDBRANCH   1  24
TORSDOF 3
