REMARK  11 active torsions:
REMARK  status: ('A' for Active; 'I' for Inactive)
REMARK    1  A    between atoms: C3_4  and  N2_11 
REMARK    2  A    between atoms: N2_11  and  C10_12 
REMARK    3  A    between atoms: C10_12  and  C18_21 
REMARK    4  A    between atoms: C10_12  and  C11_13 
REMARK    5  A    between atoms: C11_13  and  C12_14 
REMARK    6  A    between atoms: C12_14  and  C13_15 
REMARK    7  A    between atoms: C13_15  and  N3_16 
REMARK    8  A    between atoms: N3_16  and  C16_19 
REMARK    9  A    between atoms: N3_16  and  C14_17 
REMARK   10  A    between atoms: C14_17  and  C15_18 
REMARK   11  A    between atoms: C16_19  and  C17_20 
ROOT
ATOM      1  C11 CLQ d   1      35.312   9.073  20.884  0.00  0.00    -0.045 C 
ATOM      2  H8  CLQ d   1      35.539   8.882  19.825  0.00  0.00     0.036 H 
ATOM      3  H9  CLQ d   1      34.908   8.159  21.343  0.00  0.00     0.036 H 
ENDROOT
BRANCH   1   4
ATOM      4  C10 CLQ d   1      34.214  10.146  20.938  0.00  0.00     0.006 C 
ATOM      5  H7  CLQ d   1      33.327   9.744  20.427  0.00  0.00     0.071 H 
BRANCH   4   6
ATOM      6  N2  CLQ d   1      34.672  11.370  20.198  0.00  0.00    -0.385 N 
ATOM      7  H6  CLQ d   1      34.736  12.237  20.750  0.00  0.00     0.160 HD
BRANCH   6   8
ATOM      8  C3  CLQ d   1      35.015  11.469  18.876  0.00  0.00     0.042 A 
ATOM      9  C2  CLQ d   1      34.822  10.374  17.926  0.00  0.00    -0.040 A 
ATOM     10  C1  CLQ d   1      35.183  10.503  16.591  0.00  0.00     0.005 A 
ATOM     11  H2  CLQ d   1      34.388   9.442  18.271  0.00  0.00     0.089 H 
ATOM     12  N1  CLQ d   1      35.701  11.650  16.106  0.00  0.00    -0.260 NA
ATOM     13  H1  CLQ d   1      35.045   9.661  15.922  0.00  0.00     0.114 H 
ATOM     14  C9  CLQ d   1      35.916  12.783  16.930  0.00  0.00     0.070 A 
ATOM     15  C4  CLQ d   1      35.592  12.727  18.358  0.00  0.00     0.019 A 
ATOM     16  C8  CLQ d   1      36.455  13.968  16.359  0.00  0.00    -0.033 A 
ATOM     17  C5  CLQ d   1      35.842  13.931  19.150  0.00  0.00    -0.067 A 
ATOM     18  C6  CLQ d   1      36.377  15.090  18.572  0.00  0.00    -0.061 A 
ATOM     19  H3  CLQ d   1      35.608  13.927  20.208  0.00  0.00     0.085 H 
ATOM     20  C7  CLQ d   1      36.675  15.093  17.170  0.00  0.00     0.036 A 
ATOM     21  H4  CLQ d   1      36.563  15.971  19.176  0.00  0.00     0.086 H 
ATOM     22 CL   CLQ d   1      37.297  16.530  16.467  0.00  0.00    -0.084 Cl
ATOM     23  H5  CLQ d   1      36.695  14.003  15.303  0.00  0.00     0.089 H 
ENDBRANCH   6   8
ENDBRANCH   4   6
BRANCH   4  24
ATOM     24  C18 CLQ d   1      33.802  10.510  22.357  0.00  0.00    -0.057 C 
ATOM     25  H25 CLQ d   1      33.469   9.605  22.886  0.00  0.00     0.030 H 
ATOM     26  H26 CLQ d   1      32.979  11.239  22.324  0.00  0.00     0.030 H 
ATOM     27  H27 CLQ d   1      34.660  10.950  22.887  0.00  0.00     0.030 H 
ENDBRANCH   4  24
ENDBRANCH   1   4
BRANCH   1  28
ATOM     28  C12 CLQ d   1      36.619   9.399  21.583  0.00  0.00    -0.041 C 
ATOM     29  H10 CLQ d   1      36.491   9.285  22.670  0.00  0.00     0.035 H 
ATOM     30  H11 CLQ d   1      36.908  10.435  21.354  0.00  0.00     0.035 H 
BRANCH  28  31
ATOM     31  C13 CLQ d   1      37.706   8.452  21.099  0.00  0.00     0.084 C 
ATOM     32  H12 CLQ d   1      38.648   8.720  21.600  0.00  0.00     0.076 H 
ATOM     33  H13 CLQ d   1      37.819   8.580  20.012  0.00  0.00     0.076 H 
BRANCH  31  34
ATOM     34  N3  CLQ d   1      37.415   7.004  21.379  0.00  0.00    -0.072 N 
ATOM     35  H14 CLQ d   1      36.476   6.864  21.040  0.00  0.00     0.279 HD
BRANCH  34  36
ATOM     36  C16 CLQ d   1      37.314   6.691  22.846  0.00  0.00     0.080 C 
ATOM     37  H20 CLQ d   1      36.758   5.748  22.956  0.00  0.00     0.075 H 
ATOM     38  H21 CLQ d   1      36.755   7.505  23.330  0.00  0.00     0.075 H 
BRANCH  36  39
ATOM     39  C17 CLQ d   1      38.620   6.542  23.554  0.00  0.00    -0.053 C 
ATOM     40  H22 CLQ d   1      38.438   6.316  24.615  0.00  0.00     0.029 H 
ATOM     41  H23 CLQ d   1      39.191   7.479  23.472  0.00  0.00     0.029 H 
ATOM     42  H24 CLQ d   1      39.193   5.722  23.097  0.00  0.00     0.029 H 
ENDBRANCH  36  39
ENDBRANCH  34  36
BRANCH  34  43
ATOM     43  C14 CLQ d   1      38.266   6.049  20.513  0.00  0.00     0.080 C 
ATOM     44  H15 CLQ d   1      39.323   6.276  20.718  0.00  0.00     0.075 H 
ATOM     45  H16 CLQ d   1      38.040   6.273  19.460  0.00  0.00     0.075 H 
BRANCH  43  46
ATOM     46  C15 CLQ d   1      38.079   4.548  20.707  0.00  0.00    -0.053 C 
ATOM     47  H17 CLQ d   1      38.749   4.004  20.025  0.00  0.00     0.029 H 
ATOM     48  H18 CLQ d   1      37.035   4.277  20.489  0.00  0.00     0.029 H 
ATOM     49  H19 CLQ d   1      38.318   4.280  21.747  0.00  0.00     0.029 H 
ENDBRANCH  43  46
ENDBRANCH  34  43
ENDBRANCH  31  34
ENDBRANCH  28  31
ENDBRANCH   1  28
TORSDOF 11
