REMARK  21 active torsions:
REMARK  status: ('A' for Active; 'I' for Inactive)
REMARK    1  A    between atoms: C_1  and  O2_3 
REMARK       I    between atoms: N_11  and  C_1 
REMARK    2  A    between atoms: O2_3  and  C1'_4 
REMARK    3  A    between atoms: C1'_4  and  C1_5 
REMARK    4  A    between atoms: CA_12  and  N_11 
REMARK    5  A    between atoms: CB_13  and  CA_12 
REMARK    6  A    between atoms: CG_14  and  CB_13 
REMARK    7  A    between atoms: CG_14  and  CD_15 
REMARK    8  A    between atoms: N_18  and  CG_14 
REMARK    9  A    between atoms: CA_19  and  N_18 
REMARK   10  A    between atoms: C_20  and  CA_19 
REMARK   11  A    between atoms: CA_19  and  CB_22 
REMARK       I    between atoms: N_26  and  C_20 
REMARK   12  A    between atoms: CB_22  and  CG_23 
REMARK   13  A    between atoms: CG_23  and  CD1_24 
REMARK   14  A    between atoms: CG_23  and  CD2_25 
REMARK   15  A    between atoms: CA_27  and  N_26 
REMARK   16  A    between atoms: C_28  and  CA_27 
REMARK   17  A    between atoms: CA_27  and  CB_30 
REMARK       I    between atoms: N2'_45  and  C_28 
REMARK   18  A    between atoms: CB_30  and  CG_31 
REMARK   19  A    between atoms: C1'_43  and  N4_40 
REMARK   20  A    between atoms: C2'_44  and  C1'_43 
REMARK   21  A    between atoms: C2'_44  and  N2'_45 
ROOT
ATOM      1  CA  0ED d   1      29.457  39.743  -1.796  0.00  0.00     0.179 C 
ATOM      2  H16 0ED d   1      29.519  40.211  -2.789  0.00  0.00     0.099 H 
ENDROOT
BRANCH   1   3
ATOM      3  N   0ED d   1      30.142  40.596  -0.730  0.00  0.00    -0.048 N 
ATOM      4  H14 0ED d   1      29.500  40.651   0.045  0.00  0.00     0.279 HD
ATOM      5  H15 0ED d   1      30.967  40.090  -0.448  0.00  0.00     0.279 HD
BRANCH   3   6
ATOM      6  CG  0ED d   1      30.577  41.977  -1.007  0.00  0.00     0.187 C 
ATOM      7  H13 0ED d   1      31.134  42.381  -0.149  0.00  0.00     0.101 H 
BRANCH   6   8
ATOM      8  CB  0ED d   1      29.245  42.718  -1.140  0.00  0.00    -0.014 C 
ATOM      9  H11 0ED d   1      28.890  42.628  -2.177  0.00  0.00     0.039 H 
ATOM     10  H12 0ED d   1      28.513  42.257  -0.461  0.00  0.00     0.039 H 
BRANCH   8  11
ATOM     11  CA  0ED d   1      29.374  44.154  -0.801  0.00  0.00    -0.000 C 
ATOM     12  H9  0ED d   1      30.328  44.545  -1.184  0.00  0.00     0.064 H 
ATOM     13  H10 0ED d   1      28.541  44.720  -1.244  0.00  0.00     0.064 H 
BRANCH  11  14
ATOM     14  N   0ED d   1      29.337  44.271   0.650  0.00  0.00    -0.337 N 
ATOM     15  C   0ED d   1      29.683  45.388   1.204  0.00  0.00     0.360 C 
ATOM     16  O1  0ED d   1      29.644  45.464   2.445  0.00  0.00    -0.239 OA
ATOM     17  H8  0ED d   1      29.047  43.496   1.212  0.00  0.00     0.164 HD
BRANCH  15  18
ATOM     18  O2  0ED d   1      30.078  46.394   0.316  0.00  0.00    -0.299 OA
BRANCH  18  19
ATOM     19  C1' 0ED d   1      30.603  47.653   0.746  0.00  0.00     0.054 C 
ATOM     20  H1  0ED d   1      29.893  48.131   1.437  0.00  0.00     0.082 H 
ATOM     21  H2  0ED d   1      30.759  48.304  -0.127  0.00  0.00     0.082 H 
BRANCH  19  22
ATOM     22  C1  0ED d   1      31.918  47.429   1.450  0.00  0.00    -0.034 A 
ATOM     23  C2  0ED d   1      32.989  46.863   0.766  0.00  0.00    -0.075 A 
ATOM     24  C3  0ED d   1      34.163  46.585   1.434  0.00  0.00    -0.082 A 
ATOM     25  H3  0ED d   1      32.901  46.641  -0.291  0.00  0.00     0.084 H 
ATOM     26  C4  0ED d   1      34.228  46.903   2.790  0.00  0.00    -0.083 A 
ATOM     27  H4  0ED d   1      35.006  46.135   0.923  0.00  0.00     0.083 H 
ATOM     28  C5  0ED d   1      33.178  47.515   3.467  0.00  0.00    -0.082 A 
ATOM     29  H5  0ED d   1      35.132  46.664   3.338  0.00  0.00     0.083 H 
ATOM     30  C6  0ED d   1      32.033  47.753   2.793  0.00  0.00    -0.075 A 
ATOM     31  H6  0ED d   1      33.277  47.794   4.510  0.00  0.00     0.083 H 
ATOM     32  H7  0ED d   1      31.192  48.203   3.309  0.00  0.00     0.084 H 
ENDBRANCH  19  22
ENDBRANCH  18  19
ENDBRANCH  15  18
ENDBRANCH  11  14
ENDBRANCH   8  11
ENDBRANCH   6   8
BRANCH   6  33
ATOM     33  CD  0ED d   1      31.520  42.033  -2.249  0.00  0.00     0.204 C 
ATOM     34  OE1 0ED d   1      31.815  43.002  -2.932  0.00  0.00    -0.646 OA
ATOM     35  OE2 0ED d   1      31.989  40.817  -2.659  0.00  0.00    -0.646 OA
ENDBRANCH   6  33
ENDBRANCH   3   6
ENDBRANCH   1   3
BRANCH   1  36
ATOM     36  C   0ED d   1      28.009  39.685  -1.335  0.00  0.00     0.249 C 
ATOM     37  O   0ED d   1      27.741  39.736  -0.116  0.00  0.00    -0.271 OA
ATOM     38  N   0ED d   1      27.085  39.591  -2.323  0.00  0.00    -0.346 N 
ATOM     39  H26 0ED d   1      27.391  39.664  -3.272  0.00  0.00     0.163 HD
BRANCH  38  40
ATOM     40  CA  0ED d   1      25.638  39.385  -2.058  0.00  0.00     0.093 C 
ATOM     41  H27 0ED d   1      25.443  39.546  -0.987  0.00  0.00     0.088 H 
BRANCH  40  42
ATOM     42  C   0ED d   1      25.262  37.934  -2.432  0.00  0.00     0.240 C 
ATOM     43  O   0ED d   1      25.744  37.374  -3.377  0.00  0.00    -0.271 OA
ATOM     44  N2' 0ED d   1      24.344  37.362  -1.746  0.00  0.00    -0.358 N 
ATOM     45  H48 0ED d   1      24.120  37.748  -0.851  0.00  0.00     0.162 HD
BRANCH  44  46
ATOM     46  C2' 0ED d   1      23.606  36.188  -2.184  0.00  0.00     0.018 C 
ATOM     47  H46 0ED d   1      23.973  35.865  -3.169  0.00  0.00     0.066 H 
ATOM     48  H47 0ED d   1      23.740  35.373  -1.458  0.00  0.00     0.066 H 
BRANCH  46  49
ATOM     49  C1' 0ED d   1      22.113  36.557  -2.281  0.00  0.00     0.098 C 
ATOM     50  H44 0ED d   1      21.555  35.614  -2.371  0.00  0.00     0.078 H 
ATOM     51  H45 0ED d   1      21.843  37.054  -1.337  0.00  0.00     0.078 H 
BRANCH  49  52
ATOM     52  N4  0ED d   1      21.651  37.442  -3.385  0.00  0.00    -0.066 N 
ATOM     53  C3  0ED d   1      21.124  38.769  -3.068  0.00  0.00     0.103 C 
ATOM     54  C2  0ED d   1      20.368  39.349  -4.307  0.00  0.00     0.042 C 
ATOM     55  H37 0ED d   1      20.429  38.692  -2.219  0.00  0.00     0.079 H 
ATOM     56  H38 0ED d   1      21.956  39.438  -2.802  0.00  0.00     0.079 H 
ATOM     57  O1  0ED d   1      21.032  39.180  -5.553  0.00  0.00    -0.388 OA
ATOM     58  H35 0ED d   1      19.389  38.851  -4.372  0.00  0.00     0.076 H 
ATOM     59  H36 0ED d   1      20.221  40.427  -4.143  0.00  0.00     0.076 H 
ATOM     60  C6  0ED d   1      21.252  37.831  -5.795  0.00  0.00     0.042 C 
ATOM     61  C5  0ED d   1      22.289  37.351  -4.721  0.00  0.00     0.103 C 
ATOM     62  H42 0ED d   1      21.659  37.688  -6.807  0.00  0.00     0.076 H 
ATOM     63  H43 0ED d   1      20.312  37.268  -5.694  0.00  0.00     0.076 H 
ATOM     64  H40 0ED d   1      22.580  36.310  -4.924  0.00  0.00     0.079 H 
ATOM     65  H41 0ED d   1      23.181  37.994  -4.752  0.00  0.00     0.079 H 
ATOM     66  H39 0ED d   1      20.784  36.970  -3.590  0.00  0.00     0.280 HD
ENDBRANCH  49  52
ENDBRANCH  46  49
ENDBRANCH  44  46
ENDBRANCH  40  42
BRANCH  40  67
ATOM     67  CB  0ED d   1      24.771  40.387  -2.884  0.00  0.00    -0.014 C 
ATOM     68  H28 0ED d   1      23.719  40.078  -2.793  0.00  0.00     0.043 H 
ATOM     69  H29 0ED d   1      25.084  40.316  -3.936  0.00  0.00     0.043 H 
BRANCH  67  70
ATOM     70  CG  0ED d   1      24.866  41.860  -2.463  0.00  0.00    -0.056 A 
ATOM     71  CD1 0ED d   1      24.199  42.297  -1.343  0.00  0.00    -0.077 A 
ATOM     72  CE1 0ED d   1      24.558  43.497  -0.769  0.00  0.00    -0.082 A 
ATOM     73  H30 0ED d   1      23.399  41.703  -0.916  0.00  0.00     0.084 H 
ATOM     74  CZ  0ED d   1      25.569  44.273  -1.315  0.00  0.00    -0.083 A 
ATOM     75  H32 0ED d   1      24.043  43.839   0.121  0.00  0.00     0.083 H 
ATOM     76  CE2 0ED d   1      26.176  43.873  -2.476  0.00  0.00    -0.082 A 
ATOM     77  H34 0ED d   1      25.877  45.190  -0.826  0.00  0.00     0.083 H 
ATOM     78  CD2 0ED d   1      25.815  42.685  -3.075  0.00  0.00    -0.077 A 
ATOM     79  H33 0ED d   1      26.943  44.493  -2.925  0.00  0.00     0.083 H 
ATOM     80  H31 0ED d   1      26.265  42.392  -4.017  0.00  0.00     0.084 H 
ENDBRANCH  67  70
ENDBRANCH  40  67
ENDBRANCH  38  40
ENDBRANCH   1  36
BRANCH   1  81
ATOM     81  CB  0ED d   1      30.181  38.364  -1.829  0.00  0.00    -0.027 C 
ATOM     82  H17 0ED d   1      30.071  37.930  -0.824  0.00  0.00     0.037 H 
ATOM     83  H18 0ED d   1      31.243  38.574  -2.024  0.00  0.00     0.037 H 
BRANCH  81  84
ATOM     84  CG  0ED d   1      29.767  37.280  -2.815  0.00  0.00    -0.059 C 
ATOM     85  H19 0ED d   1      28.677  37.171  -2.715  0.00  0.00     0.038 H 
BRANCH  84  86
ATOM     86  CD1 0ED d   1      30.032  37.693  -4.271  0.00  0.00    -0.073 C 
ATOM     87  H20 0ED d   1      29.719  36.882  -4.945  0.00  0.00     0.028 H 
ATOM     88  H21 0ED d   1      31.106  37.888  -4.407  0.00  0.00     0.028 H 
ATOM     89  H22 0ED d   1      29.461  38.604  -4.503  0.00  0.00     0.028 H 
ENDBRANCH  84  86
BRANCH  84  90
ATOM     90  CD2 0ED d   1      30.372  35.900  -2.485  0.00  0.00    -0.073 C 
ATOM     91  H23 0ED d   1      30.158  35.647  -1.436  0.00  0.00     0.028 H 
ATOM     92  H24 0ED d   1      31.461  35.930  -2.640  0.00  0.00     0.028 H 
ATOM     93  H25 0ED d   1      29.929  35.138  -3.143  0.00  0.00     0.028 H 
ENDBRANCH  84  90
ENDBRANCH  81  84
ENDBRANCH   1  81
TORSDOF 21
