REMARK  8 active torsions:
REMARK  status: ('A' for Active; 'I' for Inactive)
REMARK    1  A    between atoms: N1_1  and  C1_13 
REMARK    2  A    between atoms: C4_4  and  S_15 
REMARK    3  A    between atoms: N_24  and  C8_7 
REMARK    4  A    between atoms: C8_7  and  C20_25 
REMARK    5  A    between atoms: C8_7  and  C9_26 
REMARK    6  A    between atoms: C11_9  and  C16_21 
REMARK    7  A    between atoms: S_15  and  N_24 
REMARK    8  A    between atoms: C20_25  and  C28_36 
ROOT
ATOM      1  C2  DPS d   1      27.661  50.257  -1.937  0.00  0.00    -0.056 A 
ATOM      2  C3  DPS d   1      28.614  49.775  -1.026  0.00  0.00    -0.058 A 
ATOM      3  C4  DPS d   1      28.277  49.736   0.342  0.00  0.00     0.079 A 
ATOM      4  C5  DPS d   1      26.982  50.063   0.791  0.00  0.00    -0.058 A 
ATOM      5  C1  DPS d   1      26.382  50.681  -1.492  0.00  0.00     0.030 A 
ATOM      6  C6  DPS d   1      26.037  50.536  -0.127  0.00  0.00    -0.056 A 
ATOM      7  H1  DPS d   1      27.905  50.306  -2.992  0.00  0.00     0.087 H 
ATOM      8  H2  DPS d   1      29.587  49.440  -1.367  0.00  0.00     0.086 H 
ATOM      9  H3  DPS d   1      26.720  49.949   1.837  0.00  0.00     0.086 H 
ATOM     10  H9  DPS d   1      25.038  50.792   0.208  0.00  0.00     0.087 H 
ENDROOT
BRANCH   3  11
ATOM     11  S   DPS d   1      29.530  49.339   1.532  0.00  0.00     0.259 S 
ATOM     12  O1  DPS d   1      28.974  49.570   2.835  0.00  0.00    -0.201 OA
ATOM     13  O2  DPS d   1      30.743  49.988   1.176  0.00  0.00    -0.201 OA
BRANCH  11  14
ATOM     14  N   DPS d   1      29.931  47.664   1.519  0.00  0.00    -0.300 N 
ATOM     15  H21 DPS d   1      30.809  47.372   1.139  0.00  0.00     0.173 HD
BRANCH  14  16
ATOM     16  C8  DPS d   1      29.007  46.658   2.055  0.00  0.00     0.107 C 
ATOM     17  H5  DPS d   1      28.360  47.149   2.797  0.00  0.00     0.091 H 
BRANCH  16  18
ATOM     18  C20 DPS d   1      29.792  45.546   2.792  0.00  0.00    -0.010 C 
ATOM     19  H22 DPS d   1      29.073  44.829   3.215  0.00  0.00     0.044 H 
ATOM     20  H23 DPS d   1      30.373  46.005   3.605  0.00  0.00     0.044 H 
BRANCH  18  21
ATOM     21  C28 DPS d   1      30.738  44.802   1.883  0.00  0.00    -0.028 A 
ATOM     22  C27 DPS d   1      32.052  45.174   1.563  0.00  0.00    -0.015 A 
ATOM     23  N7  DPS d   1      32.577  44.325   0.639  0.00  0.00    -0.365 N 
ATOM     24  H28 DPS d   1      32.578  46.024   1.994  0.00  0.00     0.112 H 
ATOM     25  C23 DPS d   1      31.628  43.359   0.316  0.00  0.00     0.042 A 
ATOM     26  H4  DPS d   1      33.525  44.387   0.242  0.00  0.00     0.165 HD
ATOM     27  C24 DPS d   1      30.457  43.621   1.098  0.00  0.00    -0.002 A 
ATOM     28  C22 DPS d   1      31.640  42.265  -0.580  0.00  0.00    -0.056 A 
ATOM     29  C25 DPS d   1      29.315  42.794   0.973  0.00  0.00    -0.070 A 
ATOM     30  C26 DPS d   1      29.339  41.704   0.076  0.00  0.00    -0.082 A 
ATOM     31  H26 DPS d   1      28.428  42.996   1.562  0.00  0.00     0.084 H 
ATOM     32  C21 DPS d   1      30.494  41.450  -0.695  0.00  0.00    -0.081 A 
ATOM     33  H27 DPS d   1      28.471  41.062  -0.021  0.00  0.00     0.083 H 
ATOM     34  H24 DPS d   1      30.500  40.615  -1.387  0.00  0.00     0.083 H 
ATOM     35  H25 DPS d   1      32.522  42.054  -1.173  0.00  0.00     0.086 H 
ENDBRANCH  18  21
ENDBRANCH  16  18
BRANCH  16  36
ATOM     36  C9  DPS d   1      28.119  46.141   0.955  0.00  0.00     0.197 C 
ATOM     37  O4  DPS d   1      28.519  46.062  -0.160  0.00  0.00    -0.646 OA
ATOM     38  O3  DPS d   1      26.849  45.736   1.207  0.00  0.00    -0.646 OA
ENDBRANCH  16  36
ENDBRANCH  14  16
ENDBRANCH  11  14
ENDBRANCH   3  11
BRANCH   5  39
ATOM     39  N1  DPS d   1      25.456  51.178  -2.393  0.00  0.00    -0.381 N 
ATOM     40  C18 DPS d   1      25.717  51.058  -3.844  0.00  0.00    -0.004 C 
ATOM     41  C7  DPS d   1      25.014  52.077  -4.744  0.00  0.00    -0.043 C 
ATOM     42  H16 DPS d   1      25.398  50.054  -4.160  0.00  0.00     0.064 H 
ATOM     43  H17 DPS d   1      26.801  51.164  -4.000  0.00  0.00     0.064 H 
ATOM     44  C11 DPS d   1      23.695  52.615  -4.213  0.00  0.00    -0.026 C 
ATOM     45  H10 DPS d   1      25.695  52.929  -4.888  0.00  0.00     0.036 H 
ATOM     46  H11 DPS d   1      24.819  51.596  -5.713  0.00  0.00     0.036 H 
ATOM     47  C13 DPS d   1      23.435  52.696  -2.722  0.00  0.00    -0.043 C 
ATOM     48  H7  DPS d   1      23.205  51.633  -4.296  0.00  0.00     0.047 H 
ATOM     49  C15 DPS d   1      24.110  51.576  -1.936  0.00  0.00    -0.004 C 
ATOM     50  H12 DPS d   1      23.813  53.660  -2.352  0.00  0.00     0.036 H 
ATOM     51  H13 DPS d   1      22.350  52.638  -2.552  0.00  0.00     0.036 H 
ATOM     52  H14 DPS d   1      24.194  51.904  -0.889  0.00  0.00     0.064 H 
ATOM     53  H15 DPS d   1      23.461  50.689  -1.991  0.00  0.00     0.064 H 
BRANCH  44  54
ATOM     54  C16 DPS d   1      22.744  53.250  -5.144  0.00  0.00    -0.054 A 
ATOM     55  C17 DPS d   1      22.444  52.643  -6.387  0.00  0.00    -0.076 A 
ATOM     56  C19 DPS d   1      21.554  53.275  -7.280  0.00  0.00    -0.082 A 
ATOM     57  H19 DPS d   1      22.897  51.695  -6.652  0.00  0.00     0.084 H 
ATOM     58  C10 DPS d   1      20.974  54.513  -6.915  0.00  0.00    -0.083 A 
ATOM     59  H20 DPS d   1      21.317  52.818  -8.234  0.00  0.00     0.083 H 
ATOM     60  C12 DPS d   1      21.261  55.123  -5.672  0.00  0.00    -0.082 A 
ATOM     61  H6  DPS d   1      20.295  55.004  -7.603  0.00  0.00     0.083 H 
ATOM     62  C14 DPS d   1      22.151  54.484  -4.783  0.00  0.00    -0.076 A 
ATOM     63  H8  DPS d   1      20.803  56.069  -5.406  0.00  0.00     0.083 H 
ATOM     64  H18 DPS d   1      22.380  54.937  -3.825  0.00  0.00     0.084 H 
ENDBRANCH  44  54
ENDBRANCH   5  39
TORSDOF 8
