REMARK  14 active torsions:
REMARK  status: ('A' for Active; 'I' for Inactive)
REMARK    1  A    between atoms: S_1  and  C4_8 
REMARK    2  A    between atoms: S_1  and  N1_4 
REMARK    3  A    between atoms: C1_5  and  C7_11 
REMARK       I    between atoms: C7_11  and  N2_13 
REMARK    4  A    between atoms: N2_13  and  C8_14 
REMARK    5  A    between atoms: C8_14  and  C9_15 
REMARK    6  A    between atoms: C9_15  and  O4_16 
REMARK    7  A    between atoms: O4_16  and  C10_17 
REMARK    8  A    between atoms: C10_17  and  C11_18 
REMARK    9  A    between atoms: C11_18  and  O5_19 
REMARK   10  A    between atoms: O5_19  and  C12_20 
REMARK   11  A    between atoms: C12_20  and  C13_21 
REMARK   12  A    between atoms: C13_21  and  N3_22 
REMARK       I    between atoms: N3_22  and  C14_23 
REMARK   13  A    between atoms: C14_23  and  C15_25 
REMARK   14  A    between atoms: C15_25  and  N4_26 
ROOT
ATOM      1  C9  EG1 d   1      -2.203   7.923  13.210  0.00  0.00     0.034 C 
ATOM      2  H10 EG1 d   1      -3.129   8.255  13.703  0.00  0.00     0.076 H 
ATOM      3  H11 EG1 d   1      -1.913   8.656  12.443  0.00  0.00     0.076 H 
ENDROOT
BRANCH   1   4
ATOM      4  C8  EG1 d   1      -2.421   6.589  12.574  0.00  0.00     0.015 C 
ATOM      5  H8  EG1 d   1      -3.079   6.737  11.705  0.00  0.00     0.067 H 
ATOM      6  H9  EG1 d   1      -1.443   6.217  12.235  0.00  0.00     0.067 H 
BRANCH   4   7
ATOM      7  N2  EG1 d   1      -3.027   5.546  13.422  0.00  0.00    -0.355 N 
ATOM      8  C7  EG1 d   1      -4.247   5.546  13.846  0.00  0.00     0.251 C 
ATOM      9  O3  EG1 d   1      -4.942   6.505  13.563  0.00  0.00    -0.268 OA
ATOM     10  H7  EG1 d   1      -2.447   4.777  13.690  0.00  0.00     0.162 HD
BRANCH   8  11
ATOM     11  C1  EG1 d   1      -4.663   4.420  14.623  0.00  0.00     0.032 A 
ATOM     12  C2  EG1 d   1      -3.755   3.336  14.906  0.00  0.00    -0.066 A 
ATOM     13  C3  EG1 d   1      -4.213   2.252  15.683  0.00  0.00    -0.059 A 
ATOM     14  H3  EG1 d   1      -2.739   3.354  14.528  0.00  0.00     0.085 H 
ATOM     15  C4  EG1 d   1      -5.513   2.252  16.248  0.00  0.00     0.079 A 
ATOM     16  H4  EG1 d   1      -3.559   1.404  15.851  0.00  0.00     0.085 H 
ATOM     17  C5  EG1 d   1      -6.361   3.336  15.895  0.00  0.00    -0.059 A 
ATOM     18  C6  EG1 d   1      -5.945   4.420  15.118  0.00  0.00    -0.066 A 
ATOM     19  H5  EG1 d   1      -7.386   3.321  16.248  0.00  0.00     0.085 H 
ATOM     20  H6  EG1 d   1      -6.619   5.243  14.910  0.00  0.00     0.085 H 
BRANCH  15  21
ATOM     21  S   EG1 d   1      -6.033   0.959  17.096  0.00  0.00     0.256 S 
ATOM     22  O2  EG1 d   1      -7.466   1.084  17.025  0.00  0.00    -0.201 OA
ATOM     23  O1  EG1 d   1      -5.571   0.959  18.438  0.00  0.00    -0.201 OA
BRANCH  21  24
ATOM     24  N1  EG1 d   1      -5.465  -0.167  16.389  0.00  0.00    -0.324 N 
ATOM     25  H1  EG1 d   1      -5.636  -1.098  16.712  0.00  0.00     0.169 HD
ATOM     26  H2  EG1 d   1      -4.901  -0.015  15.577  0.00  0.00     0.169 HD
ENDBRANCH  21  24
ENDBRANCH  15  21
ENDBRANCH   8  11
ENDBRANCH   4   7
ENDBRANCH   1   4
BRANCH   1  27
ATOM     27  O4  EG1 d   1      -1.137   7.798  14.199  0.00  0.00    -0.387 OA
BRANCH  27  28
ATOM     28  C10 EG1 d   1      -1.431   8.674  15.329  0.00  0.00     0.039 C 
ATOM     29  H12 EG1 d   1      -0.885   8.329  16.220  0.00  0.00     0.077 H 
ATOM     30  H13 EG1 d   1      -2.511   8.666  15.535  0.00  0.00     0.077 H 
BRANCH  28  31
ATOM     31  C11 EG1 d   1      -0.997  10.050  14.976  0.00  0.00     0.039 C 
ATOM     32  H14 EG1 d   1      -1.292  10.263  13.938  0.00  0.00     0.077 H 
ATOM     33  H15 EG1 d   1       0.097  10.114  15.066  0.00  0.00     0.077 H 
BRANCH  31  34
ATOM     34  O5  EG1 d   1      -1.597  11.029  15.844  0.00  0.00    -0.387 OA
BRANCH  34  35
ATOM     35  C12 EG1 d   1      -1.140  12.304  15.408  0.00  0.00     0.034 C 
ATOM     36  H16 EG1 d   1      -0.997  12.955  16.283  0.00  0.00     0.076 H 
ATOM     37  H17 EG1 d   1      -1.892  12.748  14.739  0.00  0.00     0.076 H 
BRANCH  35  38
ATOM     38  C13 EG1 d   1       0.111  12.183  14.699  0.00  0.00     0.015 C 
ATOM     39  H18 EG1 d   1      -0.085  12.077  13.622  0.00  0.00     0.067 H 
ATOM     40  H19 EG1 d   1       0.655  11.299  15.062  0.00  0.00     0.067 H 
BRANCH  38  41
ATOM     41  N3  EG1 d   1       0.910  13.375  14.932  0.00  0.00    -0.358 N 
ATOM     42  C14 EG1 d   1       2.178  13.291  14.226  0.00  0.00     0.243 C 
ATOM     43  O6  EG1 d   1       2.525  12.227  13.744  0.00  0.00    -0.272 OA
ATOM     44  H20 EG1 d   1       0.626  14.147  15.500  0.00  0.00     0.162 HD
BRANCH  42  45
ATOM     45  C15 EG1 d   1       3.013  14.600  14.091  0.00  0.00     0.152 C 
ATOM     46  H21 EG1 d   1       3.165  14.852  13.031  0.00  0.00     0.090 H 
ATOM     47  H22 EG1 d   1       3.990  14.486  14.584  0.00  0.00     0.090 H 
BRANCH  45  48
ATOM     48  N4  EG1 d   1       2.197  15.669  14.776  0.00  0.00    -0.071 N 
ATOM     49  H23 EG1 d   1       2.685  16.549  14.724  0.00  0.00     0.274 HD
ATOM     50  H24 EG1 d   1       2.058  15.418  15.742  0.00  0.00     0.274 HD
ATOM     51  H25 EG1 d   1       1.302  15.754  14.319  0.00  0.00     0.274 HD
ENDBRANCH  45  48
ENDBRANCH  42  45
ENDBRANCH  38  41
ENDBRANCH  35  38
ENDBRANCH  34  35
ENDBRANCH  31  34
ENDBRANCH  28  31
ENDBRANCH  27  28
ENDBRANCH   1  27
TORSDOF 14
