REMARK  16 active torsions:
REMARK  status: ('A' for Active; 'I' for Inactive)
REMARK    1  A    between atoms: S_1  and  C4_8 
REMARK    2  A    between atoms: S_1  and  N1_4 
REMARK    3  A    between atoms: C1_5  and  C7_11 
REMARK       I    between atoms: C7_11  and  N2_13 
REMARK    4  A    between atoms: N2_13  and  C8_14 
REMARK    5  A    between atoms: C8_14  and  C9_15 
REMARK    6  A    between atoms: C9_15  and  O4_16 
REMARK    7  A    between atoms: O4_16  and  C10_17 
REMARK    8  A    between atoms: C10_17  and  C11_18 
REMARK    9  A    between atoms: C11_18  and  O5_19 
REMARK   10  A    between atoms: O5_19  and  C12_20 
REMARK   11  A    between atoms: C12_20  and  C13_21 
REMARK   12  A    between atoms: C13_21  and  N3_22 
REMARK       I    between atoms: N3_22  and  C14_23 
REMARK   13  A    between atoms: C14_23  and  C15_25 
REMARK   14  A    between atoms: C15_25  and  C16_27 
REMARK   15  A    between atoms: C15_25  and  N4_26 
REMARK   16  A    between atoms: C16_27  and  C17_28 
ROOT
ATOM      1  C11 EG3 d   1      -1.131  10.550  14.835  0.00  0.00     0.039 C 
ATOM      2  H14 EG3 d   1      -2.134  10.994  14.746  0.00  0.00     0.077 H 
ATOM      3  H15 EG3 d   1      -0.637  10.559  13.852  0.00  0.00     0.077 H 
ENDROOT
BRANCH   1   4
ATOM      4  C10 EG3 d   1      -1.260   9.091  15.329  0.00  0.00     0.039 C 
ATOM      5  H12 EG3 d   1      -0.471   8.867  16.062  0.00  0.00     0.077 H 
ATOM      6  H13 EG3 d   1      -2.245   8.932  15.791  0.00  0.00     0.077 H 
BRANCH   4   7
ATOM      7  O4  EG3 d   1      -1.100   8.173  14.058  0.00  0.00    -0.387 OA
BRANCH   7   8
ATOM      8  C9  EG3 d   1      -1.952   8.215  13.069  0.00  0.00     0.034 C 
ATOM      9  H10 EG3 d   1      -2.860   8.723  13.426  0.00  0.00     0.076 H 
ATOM     10  H11 EG3 d   1      -1.499   8.802  12.257  0.00  0.00     0.076 H 
BRANCH   8  11
ATOM     11  C8  EG3 d   1      -2.360   6.880  12.504  0.00  0.00     0.015 C 
ATOM     12  H8  EG3 d   1      -3.272   7.019  11.906  0.00  0.00     0.067 H 
ATOM     13  H9  EG3 d   1      -1.550   6.513  11.857  0.00  0.00     0.067 H 
BRANCH  11  14
ATOM     14  N2  EG3 d   1      -2.636   5.838  13.563  0.00  0.00    -0.355 N 
ATOM     15  C7  EG3 d   1      -4.070   5.671  13.987  0.00  0.00     0.251 C 
ATOM     16  O3  EG3 d   1      -4.668   6.672  13.493  0.00  0.00    -0.268 OA
ATOM     17  H7  EG3 d   1      -1.903   5.287  13.962  0.00  0.00     0.162 HD
BRANCH  15  18
ATOM     18  C1  EG3 d   1      -4.553   4.629  14.694  0.00  0.00     0.032 A 
ATOM     19  C2  EG3 d   1      -3.706   3.586  15.047  0.00  0.00    -0.066 A 
ATOM     20  C3  EG3 d   1      -4.146   2.502  15.753  0.00  0.00    -0.059 A 
ATOM     21  H3  EG3 d   1      -2.664   3.634  14.753  0.00  0.00     0.085 H 
ATOM     22  C4  EG3 d   1      -5.476   2.460  16.107  0.00  0.00     0.079 A 
ATOM     23  H4  EG3 d   1      -3.469   1.700  16.026  0.00  0.00     0.085 H 
ATOM     24  C5  EG3 d   1      -6.324   3.461  15.753  0.00  0.00    -0.059 A 
ATOM     25  C6  EG3 d   1      -5.884   4.587  15.047  0.00  0.00    -0.066 A 
ATOM     26  H5  EG3 d   1      -7.371   3.386  16.025  0.00  0.00     0.085 H 
ATOM     27  H6  EG3 d   1      -6.562   5.392  14.789  0.00  0.00     0.085 H 
BRANCH  22  28
ATOM     28  S   EG3 d   1      -6.057   1.126  17.025  0.00  0.00     0.256 S 
ATOM     29  O2  EG3 d   1      -7.472   1.042  16.884  0.00  0.00    -0.201 OA
ATOM     30  O1  EG3 d   1      -5.657   1.084  18.438  0.00  0.00    -0.201 OA
BRANCH  28  31
ATOM     31  N1  EG3 d   1      -5.355  -0.042  16.460  0.00  0.00    -0.324 N 
ATOM     32  H1  EG3 d   1      -5.525  -0.955  16.831  0.00  0.00     0.169 HD
ATOM     33  H2  EG3 d   1      -4.709   0.079  15.706  0.00  0.00     0.169 HD
ENDBRANCH  28  31
ENDBRANCH  22  28
ENDBRANCH  15  18
ENDBRANCH  11  14
ENDBRANCH   8  11
ENDBRANCH   7   8
ENDBRANCH   4   7
ENDBRANCH   1   4
BRANCH   1  34
ATOM     34  O5  EG3 d   1      -0.336  11.335  15.784  0.00  0.00    -0.387 OA
BRANCH  34  35
ATOM     35  C12 EG3 d   1       0.743  12.099  15.045  0.00  0.00     0.034 C 
ATOM     36  H16 EG3 d   1       0.277  12.718  14.264  0.00  0.00     0.076 H 
ATOM     37  H17 EG3 d   1       1.437  11.384  14.580  0.00  0.00     0.076 H 
BRANCH  35  38
ATOM     38  C13 EG3 d   1       1.477  12.951  15.949  0.00  0.00     0.015 C 
ATOM     39  H18 EG3 d   1       2.104  12.341  16.616  0.00  0.00     0.067 H 
ATOM     40  H19 EG3 d   1       0.779  13.552  16.550  0.00  0.00     0.067 H 
BRANCH  38  41
ATOM     41  N3  EG3 d   1       2.313  13.821  15.139  0.00  0.00    -0.357 N 
ATOM     42  C14 EG3 d   1       3.113  14.745  16.047  0.00  0.00     0.248 C 
ATOM     43  O6  EG3 d   1       3.003  14.674  17.276  0.00  0.00    -0.271 OA
ATOM     44  H20 EG3 d   1       2.356  13.814  14.140  0.00  0.00     0.162 HD
BRANCH  42  45
ATOM     45  C15 EG3 d   1       4.137  15.680  15.447  0.00  0.00     0.179 C 
ATOM     46  H21 EG3 d   1       4.510  15.213  14.524  0.00  0.00     0.099 H 
BRANCH  45  47
ATOM     47  C16 EG3 d   1       5.348  15.935  16.349  0.00  0.00    -0.006 C 
ATOM     48  H25 EG3 d   1       5.904  14.994  16.473  0.00  0.00     0.043 H 
ATOM     49  H26 EG3 d   1       4.994  16.284  17.330  0.00  0.00     0.043 H 
BRANCH  47  50
ATOM     50  C17 EG3 d   1       6.294  16.998  15.753  0.00  0.00    -0.056 A 
ATOM     51  C22 EG3 d   1       6.289  18.264  16.187  0.00  0.00    -0.077 A 
ATOM     52  C21 EG3 d   1       7.129  19.225  15.595  0.00  0.00    -0.082 A 
ATOM     53  H31 EG3 d   1       5.633  18.551  17.001  0.00  0.00     0.084 H 
ATOM     54  C20 EG3 d   1       8.034  18.806  14.599  0.00  0.00    -0.083 A 
ATOM     55  H30 EG3 d   1       7.081  20.265  15.898  0.00  0.00     0.083 H 
ATOM     56  C19 EG3 d   1       8.072  17.526  14.187  0.00  0.00    -0.082 A 
ATOM     57  H29 EG3 d   1       8.711  19.528  14.157  0.00  0.00     0.083 H 
ATOM     58  C18 EG3 d   1       7.200  16.580  14.759  0.00  0.00    -0.077 A 
ATOM     59  H28 EG3 d   1       8.772  17.224  13.417  0.00  0.00     0.083 H 
ATOM     60  H27 EG3 d   1       7.226  15.545  14.439  0.00  0.00     0.084 H 
ENDBRANCH  47  50
ENDBRANCH  45  47
BRANCH  45  61
ATOM     61  N4  EG3 d   1       3.468  16.981  15.079  0.00  0.00    -0.066 N 
ATOM     62  H22 EG3 d   1       4.149  17.607  14.678  0.00  0.00     0.275 HD
ATOM     63  H23 EG3 d   1       3.071  17.400  15.905  0.00  0.00     0.275 HD
ATOM     64  H24 EG3 d   1       2.737  16.805  14.408  0.00  0.00     0.275 HD
ENDBRANCH  45  61
ENDBRANCH  42  45
ENDBRANCH  38  41
ENDBRANCH  35  38
ENDBRANCH  34  35
ENDBRANCH   1  34
TORSDOF 16
