REMARK  8 active torsions:
REMARK  status: ('A' for Active; 'I' for Inactive)
REMARK    1  A    between atoms: CA1_1  and  CA_2 
REMARK    2  A    between atoms: CA1_1  and  S_13 
REMARK    3  A    between atoms: CA_2  and  C_3 
REMARK    4  A    between atoms: CA_2  and  CB_5 
REMARK    5  A    between atoms: CB_5  and  CG_6 
REMARK    6  A    between atoms: S_13  and  N1_14 
REMARK    7  A    between atoms: S_13  and  N2_15 
REMARK    8  A    between atoms: S_13  and  CM_16 
ROOT
ATOM      1  CA  CPM d   1      -2.592  29.898  -7.910  0.00  0.00     0.044 C 
ATOM      2  H3  CPM d   1      -3.163  28.962  -7.997  0.00  0.00     0.058 H 
ENDROOT
BRANCH   1   3
ATOM      3  CA1 CPM d   1      -2.768  30.804  -6.553  0.00  0.00     0.007 C 
ATOM      4  H1  CPM d   1      -3.696  31.391  -6.613  0.00  0.00     0.052 H 
ATOM      5  H2  CPM d   1      -1.910  31.484  -6.443  0.00  0.00     0.052 H 
BRANCH   3   6
ATOM      6  S   CPM d   1      -2.841  29.717  -5.196  0.00  0.00    -0.074 SA
BRANCH   6   7
ATOM      7  N1  CPM d   1      -3.814  28.509  -5.664  0.00  0.00    -0.270 NA
ATOM      8  H11 CPM d   1      -4.010  27.747  -5.034  0.00  0.00     0.196 HD
ENDBRANCH   6   7
BRANCH   6   9
ATOM      9  N2  CPM d   1      -1.402  29.294  -4.727  0.00  0.00    -0.270 NA
ATOM     10  H12 CPM d   1      -1.291  28.665  -3.947  0.00  0.00     0.196 HD
ENDBRANCH   6   9
BRANCH   6  11
ATOM     11  CM  CPM d   1      -3.631  30.562  -3.885  0.00  0.00    -0.017 C 
ATOM     12  H13 CPM d   1      -3.694  29.901  -3.008  0.00  0.00     0.044 H 
ATOM     13  H14 CPM d   1      -4.644  30.856  -4.196  0.00  0.00     0.044 H 
ATOM     14  H15 CPM d   1      -3.052  31.461  -3.626  0.00  0.00     0.044 H 
ENDBRANCH   6  11
ENDBRANCH   3   6
ENDBRANCH   1   3
BRANCH   1  15
ATOM     15  C   CPM d   1      -0.919  29.777  -8.051  0.00  0.00     0.178 C 
ATOM     16  O   CPM d   1      -0.140  30.864  -7.676  0.00  0.00    -0.648 OA
ATOM     17  OXT CPM d   1      -0.600  28.569  -8.519  0.00  0.00    -0.648 OA
ENDBRANCH   1  15
BRANCH   1  18
ATOM     18  CB  CPM d   1      -2.975  31.166  -8.940  0.00  0.00    -0.028 C 
ATOM     19  H4  CPM d   1      -2.363  32.058  -8.743  0.00  0.00     0.041 H 
ATOM     20  H5  CPM d   1      -4.041  31.434  -8.888  0.00  0.00     0.041 H 
BRANCH  18  21
ATOM     21  CG  CPM d   1      -2.580  30.442 -10.391  0.00  0.00    -0.057 A 
ATOM     22  CD1 CPM d   1      -3.827  29.838 -11.140  0.00  0.00    -0.077 A 
ATOM     23  CE1 CPM d   1      -3.237  29.173 -12.497  0.00  0.00    -0.082 A 
ATOM     24  H6  CPM d   1      -4.861  29.862 -10.817  0.00  0.00     0.084 H 
ATOM     25  CZ  CPM d   1      -2.108  29.173 -12.825  0.00  0.00    -0.083 A 
ATOM     26  H8  CPM d   1      -3.945  28.687 -13.158  0.00  0.00     0.083 H 
ATOM     27  CE2 CPM d   1      -0.740  29.717 -12.217  0.00  0.00    -0.082 A 
ATOM     28  H10 CPM d   1      -1.962  28.680 -13.779  0.00  0.00     0.083 H 
ATOM     29  CD2 CPM d   1      -1.129  30.442 -10.812  0.00  0.00    -0.077 A 
ATOM     30  H9  CPM d   1       0.249  29.623 -12.651  0.00  0.00     0.083 H 
ATOM     31  H7  CPM d   1      -0.369  30.911 -10.197  0.00  0.00     0.084 H 
ENDBRANCH  18  21
ENDBRANCH   1  18
TORSDOF 8
