REMARK  6 active torsions:
REMARK  status: ('A' for Active; 'I' for Inactive)
REMARK    1  A    between atoms: N1_1  and  C1'_9 
REMARK    2  A    between atoms: C4_5  and  O4_6 
REMARK    3  A    between atoms: C2'_10  and  O2'_11 
REMARK    4  A    between atoms: C3'_12  and  O3'_13 
REMARK    5  A    between atoms: C4'_14  and  C5'_16 
REMARK    6  A    between atoms: C5'_16  and  O5'_17 
ROOT
ATOM      1  C1' ZEB d   1      35.625  50.352   9.364  0.00  0.00     0.141 C 
ATOM      2  C2' ZEB d   1      35.686  51.799   8.943  0.00  0.00     0.105 C 
ATOM      3  C3' ZEB d   1      36.041  52.394  10.251  0.00  0.00     0.091 C 
ATOM      4  C4' ZEB d   1      35.604  51.371  11.288  0.00  0.00     0.088 C 
ATOM      5  O4' ZEB d   1      35.861  50.087  10.736  0.00  0.00    -0.353 OA
ATOM      6  H6  ZEB d   1      36.651  50.212   8.994  0.00  0.00     0.123 H 
ATOM      7  H7  ZEB d   1      34.727  52.182   8.564  0.00  0.00     0.093 H 
ATOM      8  H9  ZEB d   1      35.490  53.336  10.391  0.00  0.00     0.091 H 
ATOM      9  H11 ZEB d   1      36.276  51.488  12.151  0.00  0.00     0.090 H 
ENDROOT
BRANCH   1  10
ATOM     10  N1  ZEB d   1      35.176  48.855   8.890  0.00  0.00    -0.280 N 
ATOM     11  C6  ZEB d   1      33.878  48.548   8.909  0.00  0.00    -0.013 A 
ATOM     12  C5  ZEB d   1      33.435  47.489   8.228  0.00  0.00    -0.042 A 
ATOM     13  H5  ZEB d   1      33.181  49.160   9.479  0.00  0.00     0.111 H 
ATOM     14  C4  ZEB d   1      34.380  46.673   7.423  0.00  0.00     0.123 A 
ATOM     15  H4  ZEB d   1      32.380  47.223   8.262  0.00  0.00     0.085 H 
ATOM     16  N3  ZEB d   1      35.739  47.154   7.438  0.00  0.00    -0.313 N 
ATOM     17  H2  ZEB d   1      34.402  45.648   7.822  0.00  0.00     0.124 H 
ATOM     18  C2  ZEB d   1      36.094  48.205   8.194  0.00  0.00     0.326 A 
ATOM     19  H1  ZEB d   1      36.429  46.697   6.876  0.00  0.00     0.167 HD
ATOM     20  O2  ZEB d   1      37.258  48.567   8.266  0.00  0.00    -0.247 OA
BRANCH  14  21
ATOM     21  O4  ZEB d   1      33.648  46.655   5.906  0.00  0.00    -0.373 OA
ATOM     22  H3  ZEB d   1      34.143  46.091   5.323  0.00  0.00     0.212 HD
ENDBRANCH  14  21
ENDBRANCH   1  10
BRANCH   2  23
ATOM     23  O2' ZEB d   1      36.720  51.935   7.919  0.00  0.00    -0.388 OA
ATOM     24  H8  ZEB d   1      36.421  51.531   7.113  0.00  0.00     0.210 HD
ENDBRANCH   2  23
BRANCH   4  25
ATOM     25  C5' ZEB d   1      34.254  51.551  11.827  0.00  0.00     0.043 C 
ATOM     26  H12 ZEB d   1      34.248  52.313  12.620  0.00  0.00     0.078 H 
ATOM     27  H13 ZEB d   1      33.862  50.603  12.225  0.00  0.00     0.078 H 
BRANCH  25  28
ATOM     28  O5' ZEB d   1      33.493  51.982  10.706  0.00  0.00    -0.398 OA
ATOM     29  H14 ZEB d   1      32.592  52.124  10.972  0.00  0.00     0.209 HD
ENDBRANCH  25  28
ENDBRANCH   4  25
BRANCH   3  30
ATOM     30  O3' ZEB d   1      37.411  52.653  10.373  0.00  0.00    -0.390 OA
ATOM     31  H10 ZEB d   1      37.592  52.994  11.241  0.00  0.00     0.210 HD
ENDBRANCH   3  30
TORSDOF 6
