REMARK  6 active torsions:
REMARK  status: ('A' for Active; 'I' for Inactive)
REMARK    1  A    between atoms: P_1  and  C1P_5 
REMARK    2  A    between atoms: C1P_5  and  C1_6 
REMARK       I    between atoms: C1_6  and  N2_8 
REMARK    3  A    between atoms: N2_8  and  C2_9 
REMARK    4  A    between atoms: C2_9  and  C3_13 
REMARK    5  A    between atoms: C2_9  and  C4_10 
REMARK    6  A    between atoms: C3_13  and  C5_14 
ROOT
ATOM      1  C1  PAL d   1      43.248  29.956  15.913  0.00  0.00     0.231 C 
ATOM      2  O1  PAL d   1      43.007  31.015  15.289  0.00  0.00    -0.273 OA
ATOM      3  N2  PAL d   1      42.607  29.592  17.036  0.00  0.00    -0.345 N 
ATOM      4  H3  PAL d   1      42.906  28.760  17.504  0.00  0.00     0.163 HD
ENDROOT
BRANCH   3   5
ATOM      5  C2  PAL d   1      41.503  30.342  17.606  0.00  0.00     0.105 C 
ATOM      6  H4  PAL d   1      40.823  30.548  16.766  0.00  0.00     0.090 H 
BRANCH   5   7
ATOM      7  C3  PAL d   1      40.717  29.448  18.601  0.00  0.00     0.044 C 
ATOM      8  H5  PAL d   1      40.466  28.502  18.099  0.00  0.00     0.053 H 
ATOM      9  H6  PAL d   1      39.791  29.970  18.884  0.00  0.00     0.053 H 
BRANCH   7  10
ATOM     10  C5  PAL d   1      41.499  29.132  19.864  0.00  0.00     0.175 C 
ATOM     11  O5  PAL d   1      40.998  28.294  20.658  0.00  0.00    -0.648 OA
ATOM     12  O4  PAL d   1      42.570  29.754  20.076  0.00  0.00    -0.648 OA
ENDBRANCH   7  10
ENDBRANCH   5   7
BRANCH   5  13
ATOM     13  C4  PAL d   1      41.822  31.697  18.195  0.00  0.00     0.197 C 
ATOM     14  O3  PAL d   1      43.040  31.980  18.231  0.00  0.00    -0.646 OA
ATOM     15  O2  PAL d   1      40.869  32.427  18.650  0.00  0.00    -0.646 OA
ENDBRANCH   5  13
ENDBRANCH   3   5
BRANCH   1  16
ATOM     16  C1P PAL d   1      44.364  29.028  15.454  0.00  0.00     0.112 C 
ATOM     17  H1  PAL d   1      44.189  28.032  15.887  0.00  0.00     0.068 H 
ATOM     18  H2  PAL d   1      44.333  28.962  14.357  0.00  0.00     0.068 H 
BRANCH  16  19
ATOM     19  P   PAL d   1      46.007  29.584  15.946  0.00  0.00     0.268 P 
ATOM     20  O3P PAL d   1      46.396  30.603  14.747  0.00  0.00    -0.639 OA
ATOM     21  O2P PAL d   1      47.069  28.559  15.951  0.00  0.00    -0.639 OA
ATOM     22  O1P PAL d   1      45.966  30.512  17.178  0.00  0.00    -0.639 OA
ENDBRANCH  16  19
ENDBRANCH   1  16
TORSDOF 6
