REMARK  9 active torsions:
REMARK  status: ('A' for Active; 'I' for Inactive)
REMARK    1  A    between atoms: PB_1  and  O3A_5 
REMARK    2  A    between atoms: O3A_5  and  PA_6 
REMARK    3  A    between atoms: PA_6  and  O5_9 
REMARK    4  A    between atoms: O5_9  and  C5_10 
REMARK    5  A    between atoms: C5_10  and  C4_11 
REMARK    6  A    between atoms: C3_13  and  O3_14 
REMARK    7  A    between atoms: C2_15  and  O2_16 
REMARK    8  A    between atoms: C1_17  and  N9_18 
REMARK    9  A    between atoms: C2_25  and  N2_26 
ROOT
ATOM      1  C4  GDP d   1      13.660 -14.293  48.589  0.00  0.00     0.089 C 
ATOM      2  O4  GDP d   1      12.779 -13.798  47.537  0.00  0.00    -0.353 OA
ATOM      3  C3  GDP d   1      14.841 -14.945  47.880  0.00  0.00     0.091 C 
ATOM      4  C2  GDP d   1      14.796 -14.246  46.501  0.00  0.00     0.105 C 
ATOM      5  C1  GDP d   1      13.311 -14.089  46.250  0.00  0.00     0.139 C 
ATOM      6  H3  GDP d   1      13.146 -15.045  49.206  0.00  0.00     0.090 H 
ATOM      7  H4  GDP d   1      15.804 -14.782  48.386  0.00  0.00     0.091 H 
ATOM      8  H6  GDP d   1      15.281 -13.261  46.560  0.00  0.00     0.093 H 
ATOM      9  H8  GDP d   1      12.883 -15.019  45.847  0.00  0.00     0.122 H 
ENDROOT
BRANCH   5  10
ATOM     10  N9  GDP d   1      13.031 -12.964  45.310  0.00  0.00    -0.293 N 
ATOM     11  C8  GDP d   1      13.523 -11.660  45.296  0.00  0.00     0.071 A 
ATOM     12  N7  GDP d   1      13.081 -10.913  44.305  0.00  0.00    -0.234 NA
ATOM     13  H9  GDP d   1      14.219 -11.287  46.046  0.00  0.00     0.144 H 
ATOM     14  C5  GDP d   1      12.237 -11.783  43.618  0.00  0.00     0.173 A 
ATOM     15  C6  GDP d   1      11.450 -11.602  42.449  0.00  0.00     0.292 A 
ATOM     16  C4  GDP d   1      12.201 -13.046  44.238  0.00  0.00     0.186 A 
ATOM     17  O6  GDP d   1      11.341 -10.570  41.741  0.00  0.00    -0.265 OA
ATOM     18  N1  GDP d   1      10.729 -12.743  42.081  0.00  0.00    -0.152 N 
ATOM     19  C2  GDP d   1      10.753 -13.957  42.763  0.00  0.00     0.703 A 
ATOM     20  H10 GDP d   1      10.152 -12.682  41.266  0.00  0.00     0.187 HD
ATOM     21  N3  GDP d   1      11.494 -14.154  43.866  0.00  0.00    -0.044 NA
BRANCH  19  22
ATOM     22  N2  GDP d   1      10.013 -14.950  42.296  0.00  0.00    -0.233 N 
ATOM     23  H11 GDP d   1      10.009 -15.860  42.778  0.00  0.00     0.174 HD
ATOM     24  H12 GDP d   1       9.441 -14.812  41.451  0.00  0.00     0.174 HD
ENDBRANCH  19  22
ENDBRANCH   5  10
BRANCH   4  25
ATOM     25  O2  GDP d   1      15.436 -15.005  45.461  0.00  0.00    -0.388 OA
ATOM     26  H7  GDP d   1      15.003 -15.846  45.372  0.00  0.00     0.210 HD
ENDBRANCH   4  25
BRANCH   1  27
ATOM     27  C5  GDP d   1      14.032 -13.103  49.463  0.00  0.00     0.058 C 
ATOM     28  H1  GDP d   1      13.120 -12.705  49.932  0.00  0.00     0.079 H 
ATOM     29  H2  GDP d   1      14.730 -13.438  50.245  0.00  0.00     0.079 H 
BRANCH  27  30
ATOM     30  O5  GDP d   1      14.657 -12.058  48.694  0.00  0.00    -0.287 OA
BRANCH  30  31
ATOM     31  PA  GDP d   1      15.705 -11.087  49.388  0.00  0.00     0.418 P 
ATOM     32  O1A GDP d   1      16.718 -11.766  50.183  0.00  0.00    -0.624 OA
ATOM     33  O2A GDP d   1      16.167 -10.130  48.371  0.00  0.00    -0.624 OA
BRANCH  31  34
ATOM     34  O3A GDP d   1      14.719 -10.352  50.430  0.00  0.00    -0.173 OA
BRANCH  34  35
ATOM     35  PB  GDP d   1      15.011  -9.255  51.585  0.00  0.00     0.431 P 
ATOM     36  O1B GDP d   1      13.950  -8.227  51.431  0.00  0.00    -0.616 OA
ATOM     37  O2B GDP d   1      16.397  -8.809  51.394  0.00  0.00    -0.616 OA
ATOM     38  O3B GDP d   1      14.926  -9.960  52.864  0.00  0.00    -0.616 OA
ENDBRANCH  34  35
ENDBRANCH  31  34
ENDBRANCH  30  31
ENDBRANCH  27  30
ENDBRANCH   1  27
BRANCH   3  39
ATOM     39  O3  GDP d   1      14.513 -16.339  47.837  0.00  0.00    -0.390 OA
ATOM     40  H5  GDP d   1      13.702 -16.458  47.356  0.00  0.00     0.210 HD
ENDBRANCH   3  39
TORSDOF 9
