REMARK  10 active torsions:
REMARK  status: ('A' for Active; 'I' for Inactive)
REMARK    1  A    between atoms: C1_1  and  O1_38 
REMARK    2  A    between atoms: C8_8  and  C10_11 
REMARK    3  A    between atoms: C9_9  and  C7_10 
REMARK    4  A    between atoms: C7_10  and  C13_20 
REMARK    5  A    between atoms: C16_14  and  O2_17 
REMARK    6  A    between atoms: O2_17  and  C24_18 
REMARK    7  A    between atoms: C24_18  and  C34_37 
REMARK    8  A    between atoms: C19_23  and  C31_26 
REMARK    9  A    between atoms: C31_26  and  N2_30 
REMARK   10  A    between atoms: C34_37  and  N3_33 
ROOT
ATOM      1  C1  BZT d   1     -24.035 -30.450  24.264  0.00  0.00     0.067 A 
ATOM      2  C2  BZT d   1     -24.317 -31.520  23.316  0.00  0.00    -0.034 A 
ATOM      3  C3  BZT d   1     -23.415 -31.899  22.278  0.00  0.00     0.019 A 
ATOM      4  C4  BZT d   1     -22.164 -31.209  22.144  0.00  0.00    -0.011 A 
ATOM      5  C5  BZT d   1     -21.872 -30.151  23.067  0.00  0.00    -0.069 A 
ATOM      6  C6  BZT d   1     -22.797 -29.774  24.123  0.00  0.00    -0.050 A 
ATOM      7  S1  BZT d   1     -23.532 -33.109  21.065  0.00  0.00    -0.088 SA
ATOM      8  C8  BZT d   1     -22.062 -32.798  20.377  0.00  0.00     0.023 A 
ATOM      9  C9  BZT d   1     -21.385 -31.725  21.072  0.00  0.00    -0.024 A 
ATOM     10  H1  BZT d   1     -25.257 -32.053  23.404  0.00  0.00     0.089 H 
ATOM     11  H2  BZT d   1     -20.933 -29.616  22.974  0.00  0.00     0.085 H 
ATOM     12  H3  BZT d   1     -22.539 -28.972  24.806  0.00  0.00     0.087 H 
ENDROOT
BRANCH   8  13
ATOM     13  C10 BZT d   1     -21.563 -33.597  19.200  0.00  0.00    -0.018 A 
ATOM     14  C20 BZT d   1     -21.736 -35.019  19.283  0.00  0.00    -0.069 A 
ATOM     15  C18 BZT d   1     -21.252 -35.815  18.190  0.00  0.00    -0.050 A 
ATOM     16  H9  BZT d   1     -22.215 -35.477  20.141  0.00  0.00     0.085 H 
ATOM     17  C16 BZT d   1     -20.593 -35.245  17.013  0.00  0.00     0.068 A 
ATOM     18  H8  BZT d   1     -21.381 -36.890  18.239  0.00  0.00     0.087 H 
ATOM     19  C14 BZT d   1     -20.446 -33.836  16.969  0.00  0.00    -0.050 A 
ATOM     20  C12 BZT d   1     -20.909 -33.021  18.019  0.00  0.00    -0.069 A 
ATOM     21  H7  BZT d   1     -19.968 -33.378  16.111  0.00  0.00     0.087 H 
ATOM     22  H6  BZT d   1     -20.780 -31.947  17.954  0.00  0.00     0.085 H 
BRANCH  17  23
ATOM     23  O2  BZT d   1     -20.069 -35.955  15.882  0.00  0.00    -0.350 OA
BRANCH  23  24
ATOM     24  C24 BZT d   1     -20.199 -37.437  15.882  0.00  0.00     0.049 C 
ATOM     25  H10 BZT d   1     -21.269 -37.685  15.938  0.00  0.00     0.077 H 
ATOM     26  H11 BZT d   1     -19.686 -37.824  16.775  0.00  0.00     0.077 H 
BRANCH  24  27
ATOM     27  C34 BZT d   1     -19.601 -38.156  14.632  0.00  0.00     0.103 C 
ATOM     28  H35 BZT d   1     -19.715 -37.484  13.768  0.00  0.00     0.079 H 
ATOM     29  H36 BZT d   1     -20.181 -39.075  14.461  0.00  0.00     0.079 H 
BRANCH  27  30
ATOM     30  N3  BZT d   1     -18.138 -38.540  14.733  0.00  0.00    -0.069 N 
ATOM     31  C28 BZT d   1     -17.894 -39.983  14.851  0.00  0.00     0.084 C 
ATOM     32  C29 BZT d   1     -16.362 -39.968  14.902  0.00  0.00    -0.041 C 
ATOM     33  H29 BZT d   1     -18.271 -40.537  13.979  0.00  0.00     0.076 H 
ATOM     34  H30 BZT d   1     -18.332 -40.401  15.769  0.00  0.00     0.076 H 
ATOM     35  C30 BZT d   1     -15.945 -38.757  14.018  0.00  0.00    -0.041 C 
ATOM     36  H31 BZT d   1     -16.010 -39.832  15.935  0.00  0.00     0.035 H 
ATOM     37  H32 BZT d   1     -15.952 -40.904  14.495  0.00  0.00     0.035 H 
ATOM     38  C22 BZT d   1     -17.335 -38.219  13.555  0.00  0.00     0.084 C 
ATOM     39  H33 BZT d   1     -15.396 -38.003  14.602  0.00  0.00     0.035 H 
ATOM     40  H34 BZT d   1     -15.332 -39.076  13.162  0.00  0.00     0.035 H 
ATOM     41  H26 BZT d   1     -17.309 -37.136  13.361  0.00  0.00     0.076 H 
ATOM     42  H27 BZT d   1     -17.698 -38.744  12.659  0.00  0.00     0.076 H 
ATOM     43  H28 BZT d   1     -17.763 -38.064  15.539  0.00  0.00     0.280 HD
ENDBRANCH  27  30
ENDBRANCH  24  27
ENDBRANCH  23  24
ENDBRANCH  17  23
ENDBRANCH   8  13
BRANCH   9  44
ATOM     44  C7  BZT d   1     -19.971 -31.478  20.702  0.00  0.00    -0.015 C 
ATOM     45  H4  BZT d   1     -19.703 -30.493  21.111  0.00  0.00     0.047 H 
ATOM     46  H5  BZT d   1     -19.931 -31.442  19.603  0.00  0.00     0.047 H 
BRANCH  44  47
ATOM     47  C13 BZT d   1     -18.810 -32.521  21.183  0.00  0.00    -0.052 A 
ATOM     48  C11 BZT d   1     -19.098 -33.661  21.992  0.00  0.00    -0.076 A 
ATOM     49  C21 BZT d   1     -18.069 -34.542  22.368  0.00  0.00    -0.073 A 
ATOM     50  H12 BZT d   1     -20.115 -33.848  22.318  0.00  0.00     0.084 H 
ATOM     51  C19 BZT d   1     -16.700 -34.401  21.988  0.00  0.00    -0.015 A 
ATOM     52  H14 BZT d   1     -18.334 -35.389  22.991  0.00  0.00     0.084 H 
ATOM     53  C32 BZT d   1     -16.417 -33.273  21.178  0.00  0.00     0.019 A 
ATOM     54  C15 BZT d   1     -17.452 -32.335  20.778  0.00  0.00    -0.059 A 
ATOM     55 BR1  BZT d   1     -14.786 -32.819  20.524  0.00  0.00    -0.050 Br
ATOM     56  H13 BZT d   1     -17.190 -31.481  20.163  0.00  0.00     0.086 H 
BRANCH  51  57
ATOM     57  C31 BZT d   1     -15.691 -35.454  22.481  0.00  0.00     0.108 C 
ATOM     58  H15 BZT d   1     -14.790 -35.380  21.854  0.00  0.00     0.083 H 
ATOM     59  H16 BZT d   1     -16.147 -36.447  22.352  0.00  0.00     0.083 H 
BRANCH  57  60
ATOM     60  N2  BZT d   1     -15.282 -35.325  23.871  0.00  0.00    -0.067 N 
ATOM     61  C27 BZT d   1     -14.302 -36.257  24.533  0.00  0.00     0.084 C 
ATOM     62  C17 BZT d   1     -14.259 -35.657  25.973  0.00  0.00    -0.041 C 
ATOM     63  H24 BZT d   1     -13.315 -36.218  24.048  0.00  0.00     0.076 H 
ATOM     64  H25 BZT d   1     -14.668 -37.294  24.537  0.00  0.00     0.076 H 
ATOM     65  C23 BZT d   1     -14.462 -34.129  25.885  0.00  0.00    -0.041 C 
ATOM     66  H17 BZT d   1     -15.060 -36.101  26.582  0.00  0.00     0.035 H 
ATOM     67  H18 BZT d   1     -13.284 -35.874  26.434  0.00  0.00     0.035 H 
ATOM     68  C26 BZT d   1     -14.601 -34.025  24.315  0.00  0.00     0.084 C 
ATOM     69  H19 BZT d   1     -15.371 -33.797  26.408  0.00  0.00     0.035 H 
ATOM     70  H20 BZT d   1     -13.595 -33.569  26.266  0.00  0.00     0.035 H 
ATOM     71  H21 BZT d   1     -15.218 -33.156  24.041  0.00  0.00     0.076 H 
ATOM     72  H22 BZT d   1     -13.610 -33.932  23.848  0.00  0.00     0.076 H 
ATOM     73  H23 BZT d   1     -16.153 -35.408  24.372  0.00  0.00     0.280 HD
ENDBRANCH  57  60
ENDBRANCH  51  57
ENDBRANCH  44  47
ENDBRANCH   9  44
BRANCH   1  74
ATOM     74  O1  BZT d   1     -24.894 -30.089  25.258  0.00  0.00    -0.361 OA
ATOM     75  H37 BZT d   1     -25.671 -30.634  25.217  0.00  0.00     0.217 HD
ENDBRANCH   1  74
TORSDOF 10
