REMARK  12 active torsions:
REMARK  status: ('A' for Active; 'I' for Inactive)
REMARK    1  A    between atoms: C1_1  and  O1_39 
REMARK    2  A    between atoms: C8_8  and  C10_11 
REMARK    3  A    between atoms: C9_9  and  C7_10 
REMARK    4  A    between atoms: C7_10  and  C13_20 
REMARK    5  A    between atoms: C16_14  and  O2_17 
REMARK    6  A    between atoms: O2_17  and  C24_18 
REMARK    7  A    between atoms: C24_18  and  C34_38 
REMARK    8  A    between atoms: C19_23  and  O3_25 
REMARK    9  A    between atoms: O3_25  and  C25_26 
REMARK   10  A    between atoms: C25_26  and  C33_37 
REMARK   11  A    between atoms: C33_37  and  N2_30 
REMARK   12  A    between atoms: C34_38  and  N3_33 
ROOT
ATOM      1  C1  BT3 d   1     -23.994 -30.775  24.325  0.00  0.00     0.067 A 
ATOM      2  C2  BT3 d   1     -24.327 -32.009  23.506  0.00  0.00    -0.034 A 
ATOM      3  C3  BT3 d   1     -23.438 -32.389  22.388  0.00  0.00     0.019 A 
ATOM      4  C4  BT3 d   1     -22.237 -31.565  22.039  0.00  0.00    -0.011 A 
ATOM      5  C5  BT3 d   1     -21.930 -30.361  22.801  0.00  0.00    -0.069 A 
ATOM      6  C6  BT3 d   1     -22.797 -29.950  23.971  0.00  0.00    -0.050 A 
ATOM      7  S1  BT3 d   1     -23.472 -33.766  21.386  0.00  0.00    -0.088 SA
ATOM      8  C8  BT3 d   1     -22.089 -33.373  20.486  0.00  0.00     0.024 A 
ATOM      9  C9  BT3 d   1     -21.485 -32.165  20.983  0.00  0.00    -0.024 A 
ATOM     10  H1  BT3 d   1     -25.204 -32.603  23.738  0.00  0.00     0.089 H 
ATOM     11  H2  BT3 d   1     -21.074 -29.755  22.527  0.00  0.00     0.085 H 
ATOM     12  H3  BT3 d   1     -22.553 -29.065  24.548  0.00  0.00     0.087 H 
ENDROOT
BRANCH   9  13
ATOM     13  C7  BT3 d   1     -20.022 -31.772  20.676  0.00  0.00    -0.015 C 
ATOM     14  H4  BT3 d   1     -19.884 -30.750  21.057  0.00  0.00     0.047 H 
ATOM     15  H5  BT3 d   1     -19.919 -31.772  19.581  0.00  0.00     0.047 H 
BRANCH  13  16
ATOM     16  C13 BT3 d   1     -18.825 -32.632  21.243  0.00  0.00    -0.054 C 
ATOM     17  C11 BT3 d   1     -18.990 -33.876  22.094  0.00  0.00    -0.074 C 
ATOM     18  C21 BT3 d   1     -17.851 -34.701  22.543  0.00  0.00    -0.050 C 
ATOM     19  H11 BT3 d   1     -19.991 -34.173  22.386  0.00  0.00     0.084 H 
ATOM     20  C19 BT3 d   1     -16.490 -34.380  22.093  0.00  0.00     0.068 C 
ATOM     21  H14 BT3 d   1     -18.019 -35.543  23.204  0.00  0.00     0.087 H 
ATOM     22  C32 BT3 d   1     -16.230 -33.093  21.354  0.00  0.00    -0.050 C 
ATOM     23  C15 BT3 d   1     -17.402 -32.226  20.917  0.00  0.00    -0.074 C 
ATOM     24  H13 BT3 d   1     -15.214 -32.786  21.135  0.00  0.00     0.087 H 
ATOM     25  H12 BT3 d   1     -17.217 -31.310  20.368  0.00  0.00     0.084 H 
BRANCH  20  26
ATOM     26  O3  BT3 d   1     -15.437 -35.269  22.185  0.00  0.00    -0.350 OA
BRANCH  26  27
ATOM     27  C25 BT3 d   1     -15.297 -36.353  23.142  0.00  0.00     0.049 C 
ATOM     28  H15 BT3 d   1     -14.242 -36.664  23.149  0.00  0.00     0.077 H 
ATOM     29  H16 BT3 d   1     -15.924 -37.190  22.800  0.00  0.00     0.077 H 
BRANCH  27  30
ATOM     30  C33 BT3 d   1     -15.699 -36.021  24.581  0.00  0.00     0.103 C 
ATOM     31  H35 BT3 d   1     -16.274 -36.865  24.988  0.00  0.00     0.079 H 
ATOM     32  H36 BT3 d   1     -16.329 -35.119  24.570  0.00  0.00     0.079 H 
BRANCH  30  33
ATOM     33  N2  BT3 d   1     -14.528 -35.772  25.469  0.00  0.00    -0.069 N 
ATOM     34  C27 BT3 d   1     -13.740 -34.646  24.862  0.00  0.00     0.084 C 
ATOM     35  C17 BT3 d   1     -13.321 -33.903  26.103  0.00  0.00    -0.041 C 
ATOM     36  H24 BT3 d   1     -14.364 -34.021  24.206  0.00  0.00     0.076 H 
ATOM     37  H25 BT3 d   1     -12.871 -35.016  24.298  0.00  0.00     0.076 H 
ATOM     38  C23 BT3 d   1     -14.320 -34.177  27.184  0.00  0.00    -0.041 C 
ATOM     39  H17 BT3 d   1     -12.326 -34.246  26.422  0.00  0.00     0.035 H 
ATOM     40  H18 BT3 d   1     -13.287 -32.823  25.895  0.00  0.00     0.035 H 
ATOM     41  C26 BT3 d   1     -15.136 -35.411  26.788  0.00  0.00     0.084 C 
ATOM     42  H19 BT3 d   1     -13.797 -34.366  28.133  0.00  0.00     0.035 H 
ATOM     43  H20 BT3 d   1     -14.989 -33.311  27.300  0.00  0.00     0.035 H 
ATOM     44  H21 BT3 d   1     -15.015 -36.223  27.520  0.00  0.00     0.076 H 
ATOM     45  H22 BT3 d   1     -16.204 -35.168  26.683  0.00  0.00     0.076 H 
ATOM     46  H23 BT3 d   1     -13.947 -36.590  25.559  0.00  0.00     0.280 HD
ENDBRANCH  30  33
ENDBRANCH  27  30
ENDBRANCH  26  27
ENDBRANCH  20  26
ENDBRANCH  13  16
ENDBRANCH   9  13
BRANCH   8  47
ATOM     47  C10 BT3 d   1     -21.567 -34.248  19.408  0.00  0.00    -0.001 A 
ATOM     48  C20 BT3 d   1     -21.580 -35.713  19.634  0.00  0.00     0.016 A 
ATOM     49  N1  BT3 d   1     -21.010 -36.618  18.720  0.00  0.00    -0.236 NA
ATOM     50  H8  BT3 d   1     -22.044 -36.100  20.534  0.00  0.00     0.116 H 
ATOM     51  C16 BT3 d   1     -20.412 -36.146  17.526  0.00  0.00     0.164 A 
ATOM     52  C14 BT3 d   1     -20.284 -34.656  17.191  0.00  0.00    -0.031 A 
ATOM     53  C12 BT3 d   1     -20.921 -33.719  18.181  0.00  0.00    -0.066 A 
ATOM     54  H7  BT3 d   1     -19.771 -34.302  16.304  0.00  0.00     0.090 H 
ATOM     55  H6  BT3 d   1     -20.908 -32.651  17.997  0.00  0.00     0.085 H 
BRANCH  51  56
ATOM     56  O2  BT3 d   1     -20.272 -36.991  16.503  0.00  0.00    -0.333 OA
BRANCH  56  57
ATOM     57  C24 BT3 d   1     -19.267 -38.056  16.816  0.00  0.00     0.050 C 
ATOM     58  H9  BT3 d   1     -19.640 -38.699  17.627  0.00  0.00     0.077 H 
ATOM     59  H10 BT3 d   1     -18.315 -37.597  17.120  0.00  0.00     0.077 H 
BRANCH  57  60
ATOM     60  C34 BT3 d   1     -19.066 -38.886  15.536  0.00  0.00     0.103 C 
ATOM     61  H37 BT3 d   1     -19.897 -38.740  14.830  0.00  0.00     0.079 H 
ATOM     62  H38 BT3 d   1     -18.963 -39.957  15.765  0.00  0.00     0.079 H 
BRANCH  60  63
ATOM     63  N3  BT3 d   1     -17.774 -38.312  14.993  0.00  0.00    -0.069 N 
ATOM     64  C28 BT3 d   1     -16.597 -39.169  14.522  0.00  0.00     0.084 C 
ATOM     65  C29 BT3 d   1     -16.114 -38.334  13.330  0.00  0.00    -0.041 C 
ATOM     66  H29 BT3 d   1     -16.922 -40.173  14.211  0.00  0.00     0.076 H 
ATOM     67  H30 BT3 d   1     -15.822 -39.258  15.297  0.00  0.00     0.076 H 
ATOM     68  C30 BT3 d   1     -17.102 -37.181  13.116  0.00  0.00    -0.041 C 
ATOM     69  H31 BT3 d   1     -15.112 -37.931  13.540  0.00  0.00     0.035 H 
ATOM     70  H32 BT3 d   1     -16.075 -38.962  12.428  0.00  0.00     0.035 H 
ATOM     71  C22 BT3 d   1     -18.392 -37.547  13.833  0.00  0.00     0.084 C 
ATOM     72  H33 BT3 d   1     -16.690 -36.251  13.535  0.00  0.00     0.035 H 
ATOM     73  H34 BT3 d   1     -17.295 -37.046  12.041  0.00  0.00     0.035 H 
ATOM     74  H26 BT3 d   1     -18.950 -36.660  14.168  0.00  0.00     0.076 H 
ATOM     75  H27 BT3 d   1     -19.047 -38.181  13.217  0.00  0.00     0.076 H 
ATOM     76  H28 BT3 d   1     -17.394 -37.681  15.681  0.00  0.00     0.280 HD
ENDBRANCH  60  63
ENDBRANCH  57  60
ENDBRANCH  56  57
ENDBRANCH  51  56
ENDBRANCH   8  47
BRANCH   1  77
ATOM     77  O1  BT3 d   1     -24.693 -30.497  25.485  0.00  0.00    -0.361 OA
ATOM     78  H39 BT3 d   1     -25.420 -31.103  25.568  0.00  0.00     0.217 HD
ENDBRANCH   1  77
TORSDOF 12
