REMARK  17 active torsions:
REMARK  status: ('A' for Active; 'I' for Inactive)
REMARK    1  A    between atoms: C01_1  and  O02_2 
REMARK    2  A    between atoms: C01_1  and  C03_3 
REMARK    3  A    between atoms: C01_1  and  C31_25 
REMARK    4  A    between atoms: C03_3  and  O04_4 
REMARK    5  A    between atoms: C03_3  and  C12_12 
REMARK    6  A    between atoms: O04_4  and  C05_5 
REMARK    7  A    between atoms: C05_5  and  C06_6 
REMARK       I    between atoms: C12_12  and  N14_14 
REMARK    8  A    between atoms: N14_14  and  C15_15 
REMARK    9  A    between atoms: C23_23  and  O24_24 
REMARK   10  A    between atoms: C31_25  and  O32_26 
REMARK   11  A    between atoms: C31_25  and  C33_27 
REMARK   12  A    between atoms: C33_27  and  O34_28 
REMARK   13  A    between atoms: C33_27  and  C42_36 
REMARK   14  A    between atoms: O34_28  and  C35_29 
REMARK   15  A    between atoms: C35_29  and  C36_30 
REMARK       I    between atoms: C42_36  and  N44_38 
REMARK   16  A    between atoms: N44_38  and  C45_39 
REMARK   17  A    between atoms: C45_39  and  C46_40 
ROOT
ATOM      1  C01 BEH d   1      13.883  22.983   5.004  0.00  0.00     0.096 C 
ATOM      2  H1  BEH d   1      13.043  22.311   5.235  0.00  0.00     0.091 H 
ENDROOT
BRANCH   1   3
ATOM      3  O02 BEH d   1      14.365  22.667   3.660  0.00  0.00    -0.390 OA
ATOM      4  H2  BEH d   1      13.675  22.837   3.029  0.00  0.00     0.210 HD
ENDBRANCH   1   3
BRANCH   1   5
ATOM      5  C03 BEH d   1      14.960  22.721   6.028  0.00  0.00     0.142 C 
ATOM      6  H3  BEH d   1      15.882  23.271   5.788  0.00  0.00     0.102 H 
BRANCH   5   7
ATOM      7  O04 BEH d   1      14.517  23.066   7.369  0.00  0.00    -0.369 OA
BRANCH   7   8
ATOM      8  C05 BEH d   1      15.619  23.410   8.248  0.00  0.00     0.044 C 
ATOM      9  H4  BEH d   1      15.227  24.027   9.070  0.00  0.00     0.081 H 
ATOM     10  H5  BEH d   1      16.354  23.991   7.672  0.00  0.00     0.081 H 
BRANCH   8  11
ATOM     11  C06 BEH d   1      16.326  22.203   8.848  0.00  0.00    -0.035 A 
ATOM     12  C07 BEH d   1      15.564  21.204   9.583  0.00  0.00    -0.075 A 
ATOM     13  C08 BEH d   1      16.210  20.002  10.042  0.00  0.00    -0.082 A 
ATOM     14  H6  BEH d   1      14.511  21.365   9.785  0.00  0.00     0.084 H 
ATOM     15  C09 BEH d   1      17.609  19.797   9.784  0.00  0.00    -0.083 A 
ATOM     16  H7  BEH d   1      15.642  19.253  10.581  0.00  0.00     0.083 H 
ATOM     17  C10 BEH d   1      18.373  20.789   9.070  0.00  0.00    -0.082 A 
ATOM     18  H8  BEH d   1      18.093  18.890  10.129  0.00  0.00     0.083 H 
ATOM     19  C11 BEH d   1      17.739  21.990   8.603  0.00  0.00    -0.075 A 
ATOM     20  H9  BEH d   1      19.429  20.628   8.885  0.00  0.00     0.083 H 
ATOM     21  H10 BEH d   1      18.316  22.736   8.068  0.00  0.00     0.084 H 
ENDBRANCH   8  11
ENDBRANCH   7   8
ENDBRANCH   5   7
BRANCH   5  22
ATOM     22  C12 BEH d   1      15.155  21.244   5.914  0.00  0.00     0.250 C 
ATOM     23  O13 BEH d   1      14.225  20.473   6.169  0.00  0.00    -0.271 OA
ATOM     24  N14 BEH d   1      16.395  20.777   5.525  0.00  0.00    -0.348 N 
ATOM     25  H11 BEH d   1      17.127  21.433   5.339  0.00  0.00     0.163 HD
BRANCH  24  26
ATOM     26  C15 BEH d   1      16.662  19.363   5.380  0.00  0.00     0.063 C 
ATOM     27  C16 BEH d   1      16.580  18.898   3.946  0.00  0.00    -0.027 A 
ATOM     28  C17 BEH d   1      15.710  19.334   2.886  0.00  0.00    -0.074 A 
ATOM     29  C21 BEH d   1      17.563  17.879   3.686  0.00  0.00    -0.047 A 
ATOM     30  C18 BEH d   1      15.826  18.736   1.576  0.00  0.00    -0.082 A 
ATOM     31  H13 BEH d   1      14.972  20.107   3.069  0.00  0.00     0.084 H 
ATOM     32  C19 BEH d   1      16.812  17.713   1.337  0.00  0.00    -0.082 A 
ATOM     33  H14 BEH d   1      15.172  19.057   0.773  0.00  0.00     0.083 H 
ATOM     34  C20 BEH d   1      17.691  17.275   2.388  0.00  0.00    -0.076 A 
ATOM     35  H15 BEH d   1      16.892  17.267   0.352  0.00  0.00     0.083 H 
ATOM     36  H16 BEH d   1      18.433  16.507   2.205  0.00  0.00     0.084 H 
ATOM     37  C22 BEH d   1      18.359  17.605   4.916  0.00  0.00    -0.014 C 
ATOM     38  C23 BEH d   1      18.071  18.874   5.757  0.00  0.00     0.063 C 
ATOM     39  H17 BEH d   1      19.431  17.508   4.688  0.00  0.00     0.044 H 
ATOM     40  H18 BEH d   1      18.009  16.696   5.427  0.00  0.00     0.044 H 
ATOM     41  H19 BEH d   1      18.123  18.637   6.830  0.00  0.00     0.087 H 
ATOM     42  H12 BEH d   1      15.919  18.832   5.993  0.00  0.00     0.084 H 
BRANCH  38  43
ATOM     43  O24 BEH d   1      19.007  19.905   5.441  0.00  0.00    -0.393 OA
ATOM     44  H20 BEH d   1      19.887  19.601   5.630  0.00  0.00     0.210 HD
ENDBRANCH  38  43
ENDBRANCH  24  26
ENDBRANCH   5  22
ENDBRANCH   1   5
BRANCH   1  45
ATOM     45  C31 BEH d   1      13.353  24.394   5.020  0.00  0.00     0.096 C 
ATOM     46  H21 BEH d   1      13.195  24.696   6.066  0.00  0.00     0.091 H 
BRANCH  45  47
ATOM     47  O32 BEH d   1      14.387  25.231   4.432  0.00  0.00    -0.390 OA
ATOM     48  H22 BEH d   1      14.559  24.943   3.543  0.00  0.00     0.210 HD
ENDBRANCH  45  47
BRANCH  45  49
ATOM     49  C33 BEH d   1      12.026  24.570   4.279  0.00  0.00     0.142 C 
ATOM     50  H23 BEH d   1      12.020  25.554   3.787  0.00  0.00     0.102 H 
BRANCH  49  51
ATOM     51  O34 BEH d   1      11.809  23.544   3.268  0.00  0.00    -0.369 OA
BRANCH  51  52
ATOM     52  C35 BEH d   1      11.160  24.060   2.079  0.00  0.00     0.044 C 
ATOM     53  H24 BEH d   1      11.409  23.396   1.238  0.00  0.00     0.081 H 
ATOM     54  H25 BEH d   1      11.557  25.067   1.882  0.00  0.00     0.081 H 
BRANCH  52  55
ATOM     55  C36 BEH d   1       9.643  24.159   2.171  0.00  0.00    -0.035 A 
ATOM     56  C37 BEH d   1       8.972  25.382   1.789  0.00  0.00    -0.075 A 
ATOM     57  C38 BEH d   1       7.543  25.503   1.936  0.00  0.00    -0.082 A 
ATOM     58  H26 BEH d   1       9.546  26.211   1.391  0.00  0.00     0.084 H 
ATOM     59  C39 BEH d   1       6.780  24.403   2.459  0.00  0.00    -0.083 A 
ATOM     60  H27 BEH d   1       7.044  26.423   1.652  0.00  0.00     0.083 H 
ATOM     61  C40 BEH d   1       7.437  23.177   2.836  0.00  0.00    -0.082 A 
ATOM     62  H28 BEH d   1       5.706  24.496   2.570  0.00  0.00     0.083 H 
ATOM     63  C41 BEH d   1       8.864  23.048   2.693  0.00  0.00    -0.075 A 
ATOM     64  H29 BEH d   1       6.856  22.350   3.228  0.00  0.00     0.083 H 
ATOM     65  H30 BEH d   1       9.357  22.124   2.974  0.00  0.00     0.084 H 
ENDBRANCH  52  55
ENDBRANCH  51  52
ENDBRANCH  49  51
BRANCH  49  66
ATOM     66  C42 BEH d   1      10.912  24.511   5.307  0.00  0.00     0.249 C 
ATOM     67  O43 BEH d   1      10.742  23.512   6.023  0.00  0.00    -0.271 OA
ATOM     68  N44 BEH d   1      10.041  25.575   5.391  0.00  0.00    -0.355 N 
ATOM     69  H31 BEH d   1      10.164  26.362   4.786  0.00  0.00     0.162 HD
BRANCH  68  70
ATOM     70  C45 BEH d   1       8.949  25.569   6.344  0.00  0.00     0.019 C 
ATOM     71  H32 BEH d   1       8.937  24.572   6.808  0.00  0.00     0.071 H 
ATOM     72  H33 BEH d   1       8.024  25.716   5.768  0.00  0.00     0.071 H 
BRANCH  70  73
ATOM     73  C46 BEH d   1       8.927  26.524   7.415  0.00  0.00    -0.041 A 
ATOM     74  C47 BEH d   1       7.739  27.326   7.645  0.00  0.00    -0.075 A 
ATOM     75  C48 BEH d   1       7.719  28.279   8.725  0.00  0.00    -0.082 A 
ATOM     76  H34 BEH d   1       6.871  27.208   7.007  0.00  0.00     0.084 H 
ATOM     77  C49 BEH d   1       8.872  28.434   9.571  0.00  0.00    -0.083 A 
ATOM     78  H35 BEH d   1       6.834  28.880   8.900  0.00  0.00     0.083 H 
ATOM     79  C50 BEH d   1      10.054  27.641   9.346  0.00  0.00    -0.082 A 
ATOM     80  H36 BEH d   1       8.852  29.152  10.383  0.00  0.00     0.083 H 
ATOM     81  C51 BEH d   1      10.084  26.687   8.270  0.00  0.00    -0.075 A 
ATOM     82  H37 BEH d   1      10.920  27.763   9.987  0.00  0.00     0.083 H 
ATOM     83  H38 BEH d   1      10.973  26.090   8.099  0.00  0.00     0.084 H 
ENDBRANCH  70  73
ENDBRANCH  68  70
ENDBRANCH  49  66
ENDBRANCH  45  49
ENDBRANCH   1  45
TORSDOF 17
