REMARK  16 active torsions:
REMARK  status: ('A' for Active; 'I' for Inactive)
REMARK    1  A    between atoms: C23_15  and  C01_1 
REMARK    2  A    between atoms: C13_13  and  C07_7 
REMARK    3  A    between atoms: O14_14  and  C13_13 
REMARK    4  A    between atoms: C15_17  and  O14_14 
REMARK    5  A    between atoms: O22_16  and  C23_15 
REMARK    6  A    between atoms: C18_21  and  O22_16 
REMARK    7  A    between atoms: C15_17  and  C16_18 
REMARK    8  A    between atoms: C15_17  and  C25_25 
REMARK    9  A    between atoms: C16_18  and  C17_19 
REMARK   10  A    between atoms: C17_19  and  O24_20 
REMARK   11  A    between atoms: C17_19  and  C18_21 
REMARK   12  A    between atoms: C18_21  and  C19_22 
REMARK       I    between atoms: C19_22  and  N21_24 
REMARK   13  A    between atoms: N21_24  and  C38_38 
REMARK       I    between atoms: C25_25  and  N27_27 
REMARK   14  A    between atoms: N27_27  and  C28_28 
REMARK   15  A    between atoms: C34_34  and  O35_35 
REMARK   16  A    between atoms: C44_44  and  O45_45 
ROOT
ATOM      1  C17 BEG d   1      13.502  24.425   5.006  0.00  0.00     0.071 C 
ATOM      2  H18 BEG d   1      13.439  24.757   6.053  0.00  0.00     0.087 H 
ENDROOT
BRANCH   1   3
ATOM      3  C16 BEG d   1      13.991  23.019   4.924  0.00  0.00    -0.006 C 
ATOM      4  H16 BEG d   1      13.136  22.341   5.061  0.00  0.00     0.041 H 
ATOM      5  H17 BEG d   1      14.431  22.858   3.929  0.00  0.00     0.041 H 
BRANCH   3   6
ATOM      6  C15 BEG d   1      15.031  22.699   5.968  0.00  0.00     0.118 C 
ATOM      7  H15 BEG d   1      15.986  23.212   5.781  0.00  0.00     0.098 H 
BRANCH   6   8
ATOM      8  C25 BEG d   1      15.140  21.202   5.836  0.00  0.00     0.247 C 
ATOM      9  O26 BEG d   1      14.193  20.464   6.087  0.00  0.00    -0.271 OA
ATOM     10  N27 BEG d   1      16.358  20.692   5.436  0.00  0.00    -0.348 N 
ATOM     11  H22 BEG d   1      17.102  21.335   5.257  0.00  0.00     0.163 HD
BRANCH  10  12
ATOM     12  C28 BEG d   1      16.620  19.277   5.261  0.00  0.00     0.063 C 
ATOM     13  C29 BEG d   1      16.571  18.847   3.820  0.00  0.00    -0.027 A 
ATOM     14  C30 BEG d   1      17.534  17.849   3.551  0.00  0.00    -0.047 A 
ATOM     15  C31 BEG d   1      15.732  19.314   2.777  0.00  0.00    -0.074 A 
ATOM     16  C36 BEG d   1      17.679  17.289   2.256  0.00  0.00    -0.076 A 
ATOM     17  C37 BEG d   1      18.309  17.538   4.794  0.00  0.00    -0.014 C 
ATOM     18  C33 BEG d   1      16.833  17.755   1.212  0.00  0.00    -0.082 A 
ATOM     19  H29 BEG d   1      18.420  16.521   2.066  0.00  0.00     0.084 H 
ATOM     20  C32 BEG d   1      15.863  18.764   1.468  0.00  0.00    -0.082 A 
ATOM     21  H26 BEG d   1      16.928  17.339   0.215  0.00  0.00     0.083 H 
ATOM     22  H25 BEG d   1      15.223  19.115   0.667  0.00  0.00     0.083 H 
ATOM     23  C34 BEG d   1      18.018  18.781   5.673  0.00  0.00     0.063 C 
ATOM     24  H30 BEG d   1      19.384  17.441   4.581  0.00  0.00     0.044 H 
ATOM     25  H31 BEG d   1      17.945  16.616   5.272  0.00  0.00     0.044 H 
ATOM     26  H27 BEG d   1      18.055  18.522   6.741  0.00  0.00     0.087 H 
ATOM     27  H24 BEG d   1      14.995  20.085   2.974  0.00  0.00     0.084 H 
ATOM     28  H23 BEG d   1      15.858  18.735   5.841  0.00  0.00     0.084 H 
BRANCH  23  29
ATOM     29  O35 BEG d   1      18.937  19.823   5.379  0.00  0.00    -0.393 OA
ATOM     30  H28 BEG d   1      19.813  19.549   5.622  0.00  0.00     0.210 HD
ENDBRANCH  23  29
ENDBRANCH  10  12
ENDBRANCH   6   8
BRANCH   6  31
ATOM     31  O14 BEG d   1      14.526  23.015   7.272  0.00  0.00    -0.372 OA
BRANCH  31  32
ATOM     32  C13 BEG d   1      15.560  23.358   8.195  0.00  0.00     0.044 C 
ATOM     33  H11 BEG d   1      16.291  23.995   7.676  0.00  0.00     0.081 H 
ATOM     34  H12 BEG d   1      15.110  23.920   9.027  0.00  0.00     0.081 H 
BRANCH  32  35
ATOM     35  C07 BEG d   1      16.298  22.149   8.773  0.00  0.00    -0.035 A 
ATOM     36  C08 BEG d   1      15.570  21.130   9.459  0.00  0.00    -0.075 A 
ATOM     37  C09 BEG d   1      16.175  19.934   9.922  0.00  0.00    -0.082 A 
ATOM     38  H6  BEG d   1      14.510  21.277   9.633  0.00  0.00     0.084 H 
ATOM     39  C10 BEG d   1      17.561  19.729   9.711  0.00  0.00    -0.083 A 
ATOM     40  H7  BEG d   1      15.583  19.183  10.433  0.00  0.00     0.083 H 
ATOM     41  C11 BEG d   1      18.315  20.725   9.045  0.00  0.00    -0.082 A 
ATOM     42  H8  BEG d   1      18.039  18.819  10.056  0.00  0.00     0.083 H 
ATOM     43  C12 BEG d   1      17.690  21.914   8.586  0.00  0.00    -0.075 A 
ATOM     44  H9  BEG d   1      19.377  20.579   8.884  0.00  0.00     0.083 H 
ATOM     45  H10 BEG d   1      18.288  22.663   8.080  0.00  0.00     0.084 H 
ENDBRANCH  32  35
ENDBRANCH  31  32
ENDBRANCH   6  31
ENDBRANCH   3   6
ENDBRANCH   1   3
BRANCH   1  46
ATOM     46  O24 BEG d   1      14.483  25.178   4.305  0.00  0.00    -0.392 OA
ATOM     47  H19 BEG d   1      14.535  24.870   3.408  0.00  0.00     0.210 HD
ENDBRANCH   1  46
BRANCH   1  48
ATOM     48  C18 BEG d   1      12.117  24.538   4.353  0.00  0.00     0.140 C 
ATOM     49  H20 BEG d   1      12.086  25.528   3.874  0.00  0.00     0.102 H 
BRANCH  48  50
ATOM     50  O22 BEG d   1      11.920  23.554   3.313  0.00  0.00    -0.369 OA
BRANCH  50  51
ATOM     51  C23 BEG d   1      11.287  24.077   2.148  0.00  0.00     0.044 C 
ATOM     52  H13 BEG d   1      11.632  25.111   1.999  0.00  0.00     0.081 H 
ATOM     53  H14 BEG d   1      11.584  23.463   1.285  0.00  0.00     0.081 H 
BRANCH  51  54
ATOM     54  C01 BEG d   1       9.764  24.084   2.234  0.00  0.00    -0.035 A 
ATOM     55  C02 BEG d   1       9.044  25.251   1.867  0.00  0.00    -0.075 A 
ATOM     56  C03 BEG d   1       7.641  25.363   2.003  0.00  0.00    -0.082 A 
ATOM     57  H1  BEG d   1       9.594  26.094   1.465  0.00  0.00     0.084 H 
ATOM     58  C04 BEG d   1       6.904  24.272   2.523  0.00  0.00    -0.083 A 
ATOM     59  H2  BEG d   1       7.134  26.276   1.712  0.00  0.00     0.083 H 
ATOM     60  C05 BEG d   1       7.585  23.088   2.893  0.00  0.00    -0.082 A 
ATOM     61  H3  BEG d   1       5.828  24.343   2.637  0.00  0.00     0.083 H 
ATOM     62  C06 BEG d   1       8.994  22.996   2.747  0.00  0.00    -0.075 A 
ATOM     63  H4  BEG d   1       7.028  22.247   3.290  0.00  0.00     0.083 H 
ATOM     64  H5  BEG d   1       9.497  22.079   3.031  0.00  0.00     0.084 H 
ENDBRANCH  51  54
ENDBRANCH  50  51
ENDBRANCH  48  50
BRANCH  48  65
ATOM     65  C19 BEG d   1      10.944  24.485   5.324  0.00  0.00     0.249 C 
ATOM     66  O20 BEG d   1      10.696  23.492   6.004  0.00  0.00    -0.271 OA
ATOM     67  N21 BEG d   1      10.140  25.606   5.373  0.00  0.00    -0.348 N 
ATOM     68  H21 BEG d   1      10.386  26.369   4.775  0.00  0.00     0.163 HD
BRANCH  67  69
ATOM     69  C38 BEG d   1       8.968  25.778   6.216  0.00  0.00     0.063 C 
ATOM     70  C39 BEG d   1       9.256  26.507   7.503  0.00  0.00    -0.027 A 
ATOM     71  C40 BEG d   1       8.181  27.361   7.860  0.00  0.00    -0.047 A 
ATOM     72  C41 BEG d   1      10.408  26.446   8.332  0.00  0.00    -0.074 A 
ATOM     73  C46 BEG d   1       8.224  28.156   9.035  0.00  0.00    -0.076 A 
ATOM     74  C47 BEG d   1       7.093  27.273   6.832  0.00  0.00    -0.014 C 
ATOM     75  C43 BEG d   1       9.377  28.089   9.863  0.00  0.00    -0.082 A 
ATOM     76  H38 BEG d   1       7.393  28.802   9.296  0.00  0.00     0.084 H 
ATOM     77  C42 BEG d   1      10.467  27.240   9.518  0.00  0.00    -0.082 A 
ATOM     78  H35 BEG d   1       9.427  28.689  10.764  0.00  0.00     0.083 H 
ATOM     79  H34 BEG d   1      11.342  27.196  10.156  0.00  0.00     0.083 H 
ATOM     80  C44 BEG d   1       7.849  26.663   5.625  0.00  0.00     0.063 C 
ATOM     81  H39 BEG d   1       6.688  28.267   6.591  0.00  0.00     0.044 H 
ATOM     82  H40 BEG d   1       6.277  26.616   7.167  0.00  0.00     0.044 H 
ATOM     83  H36 BEG d   1       7.165  26.078   4.992  0.00  0.00     0.087 H 
ATOM     84  H33 BEG d   1      11.237  25.801   8.066  0.00  0.00     0.084 H 
ATOM     85  H32 BEG d   1       8.571  24.775   6.431  0.00  0.00     0.084 H 
BRANCH  80  86
ATOM     86  O45 BEG d   1       8.482  27.684   4.868  0.00  0.00    -0.393 OA
ATOM     87  H37 BEG d   1       7.821  28.250   4.487  0.00  0.00     0.210 HD
ENDBRANCH  80  86
ENDBRANCH  67  69
ENDBRANCH  48  65
ENDBRANCH   1  48
TORSDOF 16
