REMARK  15 active torsions:
REMARK  status: ('A' for Active; 'I' for Inactive)
REMARK       I    between atoms: C10_20  and  N1_1 
REMARK    1  A    between atoms: N1_1  and  C2_2 
REMARK    2  A    between atoms: C1_3  and  O1_4 
REMARK    3  A    between atoms: C10_20  and  C11_12 
REMARK    4  A    between atoms: C11_12  and  C19_22 
REMARK    5  A    between atoms: C11_12  and  C12_13 
REMARK    6  A    between atoms: C12_13  and  C13_14 
REMARK    7  A    between atoms: C19_22  and  C20_24 
REMARK    8  A    between atoms: C20_24  and  O3_23 
REMARK    9  A    between atoms: C20_24  and  C21_25 
REMARK   10  A    between atoms: C21_25  and  N2_26 
REMARK   11  A    between atoms: N2_26  and  C22_27 
REMARK   12  A    between atoms: C31_39  and  C32_40 
REMARK   13  A    between atoms: C32_40  and  C34_42 
REMARK   14  A    between atoms: C32_40  and  C33_41 
REMARK   15  A    between atoms: C34_42  and  C35_43 
ROOT
ATOM      1  C22 PI8 d   1       4.058  -3.482  16.762  0.00  0.00     0.181 C 
ATOM      2  C23 PI8 d   1       2.716  -4.219  16.707  0.00  0.00    -0.006 C 
ATOM      3  C24 PI8 d   1       2.830  -5.692  16.995  0.00  0.00    -0.056 A 
ATOM      4  C25 PI8 d   1       2.898  -6.160  18.305  0.00  0.00    -0.074 A 
ATOM      5  C26 PI8 d   1       3.065  -7.515  18.575  0.00  0.00    -0.050 A 
ATOM      6  C29 PI8 d   1       2.924  -6.616  15.955  0.00  0.00    -0.074 A 
ATOM      7  C28 PI8 d   1       3.093  -7.970  16.212  0.00  0.00    -0.050 A 
ATOM      8  C27 PI8 d   1       3.164  -8.418  17.524  0.00  0.00     0.068 A 
ATOM      9  O6  PI8 d   1       3.352  -9.770  17.750  0.00  0.00    -0.351 OA
ATOM     10  C30 PI8 d   1       5.173  -4.383  16.200  0.00  0.00     0.249 C 
ATOM     11  O4  PI8 d   1       5.248  -4.621  14.994  0.00  0.00    -0.271 OA
ATOM     12  N3  PI8 d   1       6.083  -4.800  17.079  0.00  0.00    -0.346 N 
ATOM     13  C31 PI8 d   1       7.166  -5.745  16.733  0.00  0.00     0.092 C 
ATOM     14  C36 PI8 d   1       7.430  -6.595  17.978  0.00  0.00     0.240 C 
ATOM     15  O5  PI8 d   1       7.400  -6.084  19.104  0.00  0.00    -0.271 OA
ATOM     16  N4  PI8 d   1       7.645  -7.894  17.779  0.00  0.00    -0.359 N 
ATOM     17  C37 PI8 d   1       7.915  -8.864  18.856  0.00  0.00    -0.005 C 
ATOM     18  C38 PI8 d   1       7.609 -10.301  18.446  0.00  0.00    -0.050 C 
ATOM     19  C39 PI8 d   1       6.134 -10.503  18.127  0.00  0.00    -0.062 C 
ATOM     20  C40 PI8 d   1       5.248 -10.006  19.257  0.00  0.00    -0.045 C 
ATOM     21  C41 PI8 d   1       3.778 -10.307  18.995  0.00  0.00     0.026 C 
ATOM     22  H27 PI8 d   1       4.303  -3.320  17.822  0.00  0.00     0.100 H 
ATOM     23  H28 PI8 d   1       2.290  -4.093  15.701  0.00  0.00     0.043 H 
ATOM     24  H29 PI8 d   1       2.041  -3.770  17.450  0.00  0.00     0.043 H 
ATOM     25  H30 PI8 d   1       2.820  -5.458  19.127  0.00  0.00     0.084 H 
ATOM     26  H31 PI8 d   1       3.118  -7.864  19.600  0.00  0.00     0.087 H 
ATOM     27  H32 PI8 d   1       2.864  -6.272  14.929  0.00  0.00     0.084 H 
ATOM     28  H33 PI8 d   1       3.169  -8.674  15.392  0.00  0.00     0.087 H 
ATOM     29  H34 PI8 d   1       6.031  -4.458  18.017  0.00  0.00     0.163 HD
ATOM     30  H35 PI8 d   1       6.840  -6.383  15.899  0.00  0.00     0.088 H 
ATOM     31  H45 PI8 d   1       7.622  -8.233  16.839  0.00  0.00     0.162 HD
ATOM     32  H46 PI8 d   1       8.977  -8.796  19.132  0.00  0.00     0.064 H 
ATOM     33  H47 PI8 d   1       7.293  -8.606  19.726  0.00  0.00     0.064 H 
ATOM     34  H48 PI8 d   1       8.202 -10.549  17.554  0.00  0.00     0.035 H 
ATOM     35  H49 PI8 d   1       7.889 -10.973  19.271  0.00  0.00     0.035 H 
ATOM     36  H50 PI8 d   1       5.888  -9.949  17.209  0.00  0.00     0.033 H 
ATOM     37  H51 PI8 d   1       5.946 -11.575  17.970  0.00  0.00     0.033 H 
ATOM     38  H52 PI8 d   1       5.552 -10.500  20.192  0.00  0.00     0.036 H 
ATOM     39  H53 PI8 d   1       5.377  -8.918  19.358  0.00  0.00     0.036 H 
ATOM     40  H54 PI8 d   1       3.633 -11.397  18.983  0.00  0.00     0.075 H 
ATOM     41  H55 PI8 d   1       3.173  -9.865  19.801  0.00  0.00     0.075 H 
ENDROOT
BRANCH   1  42
ATOM     42  N2  PI8 d   1       3.915  -2.148  16.170  0.00  0.00    -0.060 N 
ATOM     43  H25 PI8 d   1       3.108  -2.141  15.566  0.00  0.00     0.278 HD
ATOM     44  H26 PI8 d   1       3.788  -1.472  16.907  0.00  0.00     0.278 HD
BRANCH  42  45
ATOM     45  C21 PI8 d   1       5.096  -1.790  15.393  0.00  0.00     0.106 C 
ATOM     46  H23 PI8 d   1       5.995  -2.150  15.915  0.00  0.00     0.079 H 
ATOM     47  H24 PI8 d   1       5.034  -2.263  14.402  0.00  0.00     0.079 H 
BRANCH  45  48
ATOM     48  C20 PI8 d   1       5.187  -0.292  15.223  0.00  0.00     0.059 C 
ATOM     49  H22 PI8 d   1       4.303   0.086  14.688  0.00  0.00     0.085 H 
BRANCH  48  50
ATOM     50  C19 PI8 d   1       6.445  -0.018  14.421  0.00  0.00    -0.028 C 
ATOM     51  H19 PI8 d   1       7.265   0.160  15.133  0.00  0.00     0.038 H 
ATOM     52  H20 PI8 d   1       6.665  -0.916  13.825  0.00  0.00     0.038 H 
BRANCH  50  53
ATOM     53  C11 PI8 d   1       6.391   1.167  13.471  0.00  0.00     0.029 C 
ATOM     54  H11 PI8 d   1       6.181   2.086  14.037  0.00  0.00     0.055 H 
BRANCH  53  55
ATOM     55  C10 PI8 d   1       5.285   0.946  12.429  0.00  0.00     0.222 C 
ATOM     56  N1  PI8 d   1       4.601   2.026  12.062  0.00  0.00    -0.350 N 
ATOM     57  H1  PI8 d   1       4.816   2.909  12.480  0.00  0.00     0.163 HD
ATOM     58  O2  PI8 d   1       5.057  -0.181  11.977  0.00  0.00    -0.273 OA
BRANCH  56  59
ATOM     59  C2  PI8 d   1       3.532   1.946  11.050  0.00  0.00     0.063 C 
ATOM     60  C3  PI8 d   1       2.140   1.692  11.535  0.00  0.00    -0.027 A 
ATOM     61  C8  PI8 d   1       1.275   2.587  10.931  0.00  0.00    -0.047 A 
ATOM     62  C4  PI8 d   1       1.665   0.748  12.432  0.00  0.00    -0.074 A 
ATOM     63  C9  PI8 d   1       2.044   3.496  10.013  0.00  0.00    -0.014 C 
ATOM     64  C7  PI8 d   1      -0.080   2.552  11.214  0.00  0.00    -0.076 A 
ATOM     65  C1  PI8 d   1       3.453   3.326  10.442  0.00  0.00     0.063 C 
ATOM     66  H5  PI8 d   1       1.915   3.193   8.964  0.00  0.00     0.044 H 
ATOM     67  H6  PI8 d   1       1.721   4.540  10.135  0.00  0.00     0.044 H 
ATOM     68  H3  PI8 d   1       4.138   3.416   9.586  0.00  0.00     0.087 H 
ATOM     69  C6  PI8 d   1      -0.572   1.607  12.116  0.00  0.00    -0.082 A 
ATOM     70  H8  PI8 d   1      -0.755   3.254  10.738  0.00  0.00     0.084 H 
ATOM     71  C5  PI8 d   1       0.306   0.699  12.728  0.00  0.00    -0.082 A 
ATOM     72  H10 PI8 d   1      -1.631   1.575  12.344  0.00  0.00     0.083 H 
ATOM     73  H9  PI8 d   1      -0.073  -0.037  13.428  0.00  0.00     0.083 H 
ATOM     74  H7  PI8 d   1       2.349   0.051  12.901  0.00  0.00     0.084 H 
ATOM     75  H2  PI8 d   1       3.802   1.185  10.303  0.00  0.00     0.084 H 
BRANCH  65  76
ATOM     76  O1  PI8 d   1       3.769   4.311  11.431  0.00  0.00    -0.393 OA
ATOM     77  H4  PI8 d   1       3.651   5.178  11.062  0.00  0.00     0.210 HD
ENDBRANCH  65  76
ENDBRANCH  56  59
ENDBRANCH  53  55
BRANCH  53  78
ATOM     78  C12 PI8 d   1       7.743   1.292  12.774  0.00  0.00    -0.029 C 
ATOM     79  H12 PI8 d   1       8.037   0.298  12.406  0.00  0.00     0.041 H 
ATOM     80  H13 PI8 d   1       8.481   1.645  13.509  0.00  0.00     0.041 H 
BRANCH  78  81
ATOM     81  C13 PI8 d   1       7.738   2.240  11.618  0.00  0.00    -0.057 A 
ATOM     82  C14 PI8 d   1       7.728   3.613  11.833  0.00  0.00    -0.077 A 
ATOM     83  C15 PI8 d   1       7.701   4.499  10.767  0.00  0.00    -0.082 A 
ATOM     84  H15 PI8 d   1       7.742   3.996  12.847  0.00  0.00     0.084 H 
ATOM     85  C16 PI8 d   1       7.684   4.014   9.467  0.00  0.00    -0.083 A 
ATOM     86  H17 PI8 d   1       7.693   5.568  10.949  0.00  0.00     0.083 H 
ATOM     87  C17 PI8 d   1       7.696   2.640   9.239  0.00  0.00    -0.082 A 
ATOM     88  H18 PI8 d   1       7.661   4.703   8.630  0.00  0.00     0.083 H 
ATOM     89  C18 PI8 d   1       7.723   1.762  10.313  0.00  0.00    -0.077 A 
ATOM     90  H16 PI8 d   1       7.684   2.257   8.225  0.00  0.00     0.083 H 
ATOM     91  H14 PI8 d   1       7.732   0.693  10.133  0.00  0.00     0.084 H 
ENDBRANCH  78  81
ENDBRANCH  53  78
ENDBRANCH  50  53
ENDBRANCH  48  50
BRANCH  48  92
ATOM     92  O3  PI8 d   1       5.281   0.339  16.506  0.00  0.00    -0.394 OA
ATOM     93  H21 PI8 d   1       4.490   0.164  17.003  0.00  0.00     0.210 HD
ENDBRANCH  48  92
ENDBRANCH  45  48
ENDBRANCH  42  45
ENDBRANCH   1  42
BRANCH  13  94
ATOM     94  C32 PI8 d   1       8.486  -5.029  16.337  0.00  0.00    -0.030 C 
ATOM     95  H36 PI8 d   1       9.147  -4.994  17.216  0.00  0.00     0.043 H 
BRANCH  94  96
ATOM     96  C34 PI8 d   1       8.217  -3.599  15.865  0.00  0.00    -0.063 C 
ATOM     97  H40 PI8 d   1       7.912  -2.999  16.735  0.00  0.00     0.033 H 
ATOM     98  H41 PI8 d   1       7.397  -3.625  15.132  0.00  0.00     0.033 H 
BRANCH  96  99
ATOM     99  C35 PI8 d   1       9.394  -2.939  15.229  0.00  0.00    -0.076 C 
ATOM    100  H42 PI8 d   1       9.120  -1.920  14.919  0.00  0.00     0.027 H 
ATOM    101  H43 PI8 d   1       9.707  -3.518  14.348  0.00  0.00     0.027 H 
ATOM    102  H44 PI8 d   1      10.223  -2.892  15.951  0.00  0.00     0.027 H 
ENDBRANCH  96  99
ENDBRANCH  94  96
BRANCH  94 103
ATOM    103  C33 PI8 d   1       9.181  -5.810  15.217  0.00  0.00    -0.071 C 
ATOM    104  H37 PI8 d   1      10.115  -5.300  14.939  0.00  0.00     0.028 H 
ATOM    105  H38 PI8 d   1       8.518  -5.863  14.341  0.00  0.00     0.028 H 
ATOM    106  H39 PI8 d   1       9.409  -6.828  15.566  0.00  0.00     0.028 H 
ENDBRANCH  94 103
ENDBRANCH  13  94
TORSDOF 15
