REMARK  15 active torsions:
REMARK  status: ('A' for Active; 'I' for Inactive)
REMARK    1  A    between atoms: C7_8  and  C8_9 
REMARK    2  A    between atoms: C8_9  and  C9_11 
REMARK    3  A    between atoms: C8_9  and  C10_10 
REMARK    4  A    between atoms: C12_15  and  C20_25 
REMARK    5  A    between atoms: C20_25  and  C21_27 
REMARK    6  A    between atoms: C20_25  and  O4_26 
REMARK    7  A    between atoms: C21_27  and  N3_28 
REMARK    8  A    between atoms: N3_28  and  S_34 
REMARK    9  A    between atoms: N3_28  and  C22_29 
REMARK   10  A    between atoms: C22_29  and  C23_30 
REMARK   11  A    between atoms: C23_30  and  C24_31 
REMARK   12  A    between atoms: C24_31  and  C25_33 
REMARK   13  A    between atoms: C24_31  and  C26_32 
REMARK   14  A    between atoms: S_34  and  C27_37 
REMARK   15  A    between atoms: C30_42  and  N4_43 
ROOT
ATOM      1  C4  PI9 d   1       5.151   4.324   9.072  0.00  0.00    -0.057 C 
ATOM      2  C5  PI9 d   1       3.679   4.276   9.394  0.00  0.00     0.009 C 
ATOM      3  C6  PI9 d   1       3.400   3.617  10.733  0.00  0.00     0.218 C 
ATOM      4  O1  PI9 d   1       3.339   4.303  11.743  0.00  0.00    -0.274 OA
ATOM      5  C3  PI9 d   1       5.469   3.248   8.075  0.00  0.00    -0.063 C 
ATOM      6  C2  PI9 d   1       6.759   3.508   7.336  0.00  0.00    -0.045 C 
ATOM      7  N1  PI9 d   1       3.285   2.290  10.758  0.00  0.00    -0.347 N 
ATOM      8  C7  PI9 d   1       2.989   1.571  12.009  0.00  0.00     0.092 C 
ATOM      9  C11 PI9 d   1       4.076   0.584  12.474  0.00  0.00     0.241 C 
ATOM     10  O2  PI9 d   1       4.276  -0.477  11.862  0.00  0.00    -0.271 OA
ATOM     11  N2  PI9 d   1       4.762   0.937  13.559  0.00  0.00    -0.352 N 
ATOM     12  C12 PI9 d   1       5.828   0.083  14.130  0.00  0.00     0.042 C 
ATOM     13  C13 PI9 d   1       7.172   0.823  14.093  0.00  0.00    -0.020 C 
ATOM     14  C14 PI9 d   1       7.503   1.394  12.725  0.00  0.00    -0.056 A 
ATOM     15  C15 PI9 d   1       7.443   2.760  12.501  0.00  0.00    -0.074 A 
ATOM     16  C16 PI9 d   1       7.732   3.291  11.283  0.00  0.00    -0.050 A 
ATOM     17  C19 PI9 d   1       7.867   0.565  11.659  0.00  0.00    -0.074 A 
ATOM     18  C18 PI9 d   1       8.158   1.090  10.422  0.00  0.00    -0.050 A 
ATOM     19  C17 PI9 d   1       8.090   2.459  10.251  0.00  0.00     0.068 A 
ATOM     20  O3  PI9 d   1       8.387   3.054   9.062  0.00  0.00    -0.351 OA
ATOM     21  C1  PI9 d   1       7.855   2.587   7.838  0.00  0.00     0.026 C 
ATOM     22  H1  PI9 d   1       5.404   5.307   8.647  0.00  0.00     0.033 H 
ATOM     23  H2  PI9 d   1       5.735   4.160   9.990  0.00  0.00     0.033 H 
ATOM     24  H3  PI9 d   1       3.163   3.707   8.606  0.00  0.00     0.047 H 
ATOM     25  H4  PI9 d   1       3.289   5.304   9.418  0.00  0.00     0.047 H 
ATOM     26  H5  PI9 d   1       4.649   3.191   7.344  0.00  0.00     0.033 H 
ATOM     27  H6  PI9 d   1       5.554   2.289   8.606  0.00  0.00     0.033 H 
ATOM     28  H7  PI9 d   1       6.602   3.332   6.262  0.00  0.00     0.036 H 
ATOM     29  H8  PI9 d   1       7.063   4.553   7.496  0.00  0.00     0.036 H 
ATOM     30  H9  PI9 d   1       3.402   1.772   9.911  0.00  0.00     0.163 HD
ATOM     31  H10 PI9 d   1       2.898   2.335  12.795  0.00  0.00     0.088 H 
ATOM     32  H18 PI9 d   1       4.550   1.808  14.003  0.00  0.00     0.163 HD
ATOM     33  H19 PI9 d   1       5.914  -0.823  13.512  0.00  0.00     0.077 H 
ATOM     34  H20 PI9 d   1       7.967   0.119  14.380  0.00  0.00     0.043 H 
ATOM     35  H21 PI9 d   1       7.136   1.650  14.818  0.00  0.00     0.043 H 
ATOM     36  H22 PI9 d   1       7.160   3.419  13.314  0.00  0.00     0.084 H 
ATOM     37  H23 PI9 d   1       7.680   4.363  11.128  0.00  0.00     0.087 H 
ATOM     38  H24 PI9 d   1       7.920  -0.507  11.810  0.00  0.00     0.084 H 
ATOM     39  H25 PI9 d   1       8.435   0.443   9.598  0.00  0.00     0.087 H 
ATOM     40  H26 PI9 d   1       7.438   1.580   7.987  0.00  0.00     0.075 H 
ATOM     41  H27 PI9 d   1       8.659   2.543   7.089  0.00  0.00     0.075 H 
ENDROOT
BRANCH  12  42
ATOM     42  C20 PI9 d   1       5.482  -0.344  15.562  0.00  0.00     0.071 C 
ATOM     43  H28 PI9 d   1       4.466  -0.766  15.572  0.00  0.00     0.088 H 
BRANCH  42  44
ATOM     44  C21 PI9 d   1       6.466  -1.397  16.079  0.00  0.00     0.031 C 
ATOM     45  H30 PI9 d   1       6.330  -1.501  17.166  0.00  0.00     0.069 H 
ATOM     46  H31 PI9 d   1       7.490  -1.054  15.869  0.00  0.00     0.069 H 
BRANCH  44  47
ATOM     47  N3  PI9 d   1       6.275  -2.717  15.453  0.00  0.00    -0.304 N 
BRANCH  47  48
ATOM     48  S   PI9 d   1       7.478  -3.332  14.510  0.00  0.00     0.260 S 
ATOM     49  O5  PI9 d   1       6.882  -4.189  13.494  0.00  0.00    -0.200 OA
ATOM     50  O6  PI9 d   1       8.200  -2.234  13.874  0.00  0.00    -0.200 OA
BRANCH  48  51
ATOM     51  C27 PI9 d   1       8.516  -4.196  15.448  0.00  0.00     0.079 A 
ATOM     52  C28 PI9 d   1       8.308  -5.544  15.701  0.00  0.00    -0.058 A 
ATOM     53  C29 PI9 d   1       9.131  -6.226  16.598  0.00  0.00    -0.056 A 
ATOM     54  H44 PI9 d   1       7.503  -6.069  15.200  0.00  0.00     0.086 H 
ATOM     55  C30 PI9 d   1      10.168  -5.549  17.229  0.00  0.00     0.025 A 
ATOM     56  H46 PI9 d   1       8.963  -7.277  16.802  0.00  0.00     0.086 H 
ATOM     57  C31 PI9 d   1      10.384  -4.214  16.974  0.00  0.00    -0.056 A 
ATOM     58  C32 PI9 d   1       9.559  -3.547  16.084  0.00  0.00    -0.058 A 
ATOM     59  H45 PI9 d   1      11.194  -3.688  17.466  0.00  0.00     0.086 H 
ATOM     60  H43 PI9 d   1       9.734  -2.497  15.882  0.00  0.00     0.086 H 
BRANCH  55  61
ATOM     61  N4  PI9 d   1      10.971  -6.175  18.159  0.00  0.00    -0.399 N 
ATOM     62  H47 PI9 d   1      11.734  -5.654  18.614  0.00  0.00     0.156 HD
ATOM     63  H48 PI9 d   1      10.808  -7.163  18.398  0.00  0.00     0.156 HD
ENDBRANCH  55  61
ENDBRANCH  48  51
ENDBRANCH  47  48
BRANCH  47  64
ATOM     64  C22 PI9 d   1       5.421  -3.630  16.226  0.00  0.00     0.006 C 
ATOM     65  H32 PI9 d   1       5.215  -3.222  17.227  0.00  0.00     0.065 H 
ATOM     66  H33 PI9 d   1       5.891  -4.620  16.323  0.00  0.00     0.065 H 
BRANCH  64  67
ATOM     67  C23 PI9 d   1       4.149  -3.713  15.402  0.00  0.00    -0.047 C 
ATOM     68  H34 PI9 d   1       4.426  -3.930  14.360  0.00  0.00     0.035 H 
ATOM     69  H35 PI9 d   1       3.640  -2.739  15.451  0.00  0.00     0.035 H 
BRANCH  67  70
ATOM     70  C24 PI9 d   1       3.170  -4.792  15.875  0.00  0.00    -0.060 C 
ATOM     71  H36 PI9 d   1       3.672  -5.770  15.826  0.00  0.00     0.038 H 
BRANCH  70  72
ATOM     72  C25 PI9 d   1       1.947  -4.843  14.968  0.00  0.00    -0.073 C 
ATOM     73  H40 PI9 d   1       2.265  -5.044  13.934  0.00  0.00     0.028 H 
ATOM     74  H41 PI9 d   1       1.420  -3.878  15.008  0.00  0.00     0.028 H 
ATOM     75  H42 PI9 d   1       1.273  -5.643  15.306  0.00  0.00     0.028 H 
ENDBRANCH  70  72
BRANCH  70  76
ATOM     76  C26 PI9 d   1       2.798  -4.516  17.324  0.00  0.00    -0.073 C 
ATOM     77  H37 PI9 d   1       2.095  -5.285  17.675  0.00  0.00     0.028 H 
ATOM     78  H38 PI9 d   1       2.325  -3.526  17.399  0.00  0.00     0.028 H 
ATOM     79  H39 PI9 d   1       3.705  -4.538  17.946  0.00  0.00     0.028 H 
ENDBRANCH  70  76
ENDBRANCH  67  70
ENDBRANCH  64  67
ENDBRANCH  47  64
ENDBRANCH  44  47
ENDBRANCH  42  44
BRANCH  42  80
ATOM     80  O4  PI9 d   1       5.531   0.792  16.426  0.00  0.00    -0.392 OA
ATOM     81  H29 PI9 d   1       6.412   1.147  16.430  0.00  0.00     0.210 HD
ENDBRANCH  42  80
ENDBRANCH  12  42
BRANCH   8  82
ATOM     82  C8  PI9 d   1       1.630   0.835  11.909  0.00  0.00    -0.033 C 
ATOM     83  H11 PI9 d   1       1.645   0.188  11.020  0.00  0.00     0.042 H 
BRANCH  82  84
ATOM     84  C9  PI9 d   1       0.490   1.841  11.762  0.00  0.00    -0.071 C 
ATOM     85  H15 PI9 d   1       0.661   2.462  10.870  0.00  0.00     0.028 H 
ATOM     86  H16 PI9 d   1       0.451   2.484  12.654  0.00  0.00     0.028 H 
ATOM     87  H17 PI9 d   1      -0.463   1.302  11.656  0.00  0.00     0.028 H 
ENDBRANCH  82  84
BRANCH  82  88
ATOM     88  C10 PI9 d   1       1.408  -0.030  13.137  0.00  0.00    -0.071 C 
ATOM     89  H12 PI9 d   1       0.440  -0.546  13.052  0.00  0.00     0.028 H 
ATOM     90  H13 PI9 d   1       1.408   0.603  14.037  0.00  0.00     0.028 H 
ATOM     91  H14 PI9 d   1       2.215  -0.774  13.212  0.00  0.00     0.028 H 
ENDBRANCH  82  88
ENDBRANCH   8  82
TORSDOF 15
