REMARK  5 active torsions:
REMARK  status: ('A' for Active; 'I' for Inactive)
REMARK    1  A    between atoms: C13_10  and  C1_1 
REMARK    2  A    between atoms: C11_8  and  C17_13 
REMARK    3  A    between atoms: C13_10  and  N14_11 
REMARK       I    between atoms: C17_13  and  N19_15 
REMARK    4  A    between atoms: C22_18  and  C33_21 
REMARK    5  A    between atoms: C33_21  and  C35_22 
ROOT
ATOM      1  C17 BPP d   1     -19.479 -33.753  19.558  0.00  0.00     0.270 C 
ATOM      2  O18 BPP d   1     -19.665 -34.337  18.480  0.00  0.00    -0.266 OA
ATOM      3  N19 BPP d   1     -18.094 -33.561  20.061  0.00  0.00    -0.347 N 
ATOM      4  C20 BPP d   1     -16.853 -34.060  19.319  0.00  0.00    -0.002 C 
ATOM      5  C21 BPP d   1     -16.392 -35.256  20.202  0.00  0.00    -0.046 C 
ATOM      6  C22 BPP d   1     -16.129 -34.771  21.628  0.00  0.00    -0.047 C 
ATOM      7  C23 BPP d   1     -17.395 -34.016  22.227  0.00  0.00    -0.046 C 
ATOM      8  C24 BPP d   1     -17.791 -32.896  21.325  0.00  0.00    -0.002 C 
ATOM      9  H10 BPP d   1     -16.079 -33.280  19.270  0.00  0.00     0.064 H 
ATOM     10  H11 BPP d   1     -17.105 -34.391  18.301  0.00  0.00     0.064 H 
ATOM     11  H12 BPP d   1     -15.469 -35.684  19.785  0.00  0.00     0.035 H 
ATOM     12  H13 BPP d   1     -17.179 -36.025  20.216  0.00  0.00     0.035 H 
ATOM     13  H14 BPP d   1     -15.294 -34.057  21.583  0.00  0.00     0.040 H 
ATOM     14  H15 BPP d   1     -17.144 -33.614  23.220  0.00  0.00     0.035 H 
ATOM     15  H16 BPP d   1     -18.232 -34.724  22.319  0.00  0.00     0.035 H 
ATOM     16  H17 BPP d   1     -18.676 -32.372  21.715  0.00  0.00     0.064 H 
ATOM     17  H18 BPP d   1     -16.965 -32.179  21.203  0.00  0.00     0.064 H 
ENDROOT
BRANCH   1  18
ATOM     18  C11 BPP d   1     -20.550 -33.242  20.366  0.00  0.00     0.102 A 
ATOM     19  N12 BPP d   1     -20.950 -31.931  20.363  0.00  0.00    -0.351 N 
ATOM     20  C4  BPP d   1     -21.939 -31.736  21.219  0.00  0.00     0.043 A 
ATOM     21  H5  BPP d   1     -20.535 -31.196  19.773  0.00  0.00     0.166 HD
ATOM     22  C3  BPP d   1     -22.241 -32.969  21.857  0.00  0.00    -0.006 A 
ATOM     23  C5  BPP d   1     -22.654 -30.550  21.562  0.00  0.00    -0.055 A 
ATOM     24  C2  BPP d   1     -23.262 -33.049  22.846  0.00  0.00    -0.057 A 
ATOM     25  C10 BPP d   1     -21.361 -33.891  21.303  0.00  0.00    -0.040 A 
ATOM     26  C1  BPP d   1     -23.977 -31.842  23.185  0.00  0.00     0.008 A 
ATOM     27  H1  BPP d   1     -23.496 -33.990  23.331  0.00  0.00     0.086 H 
ATOM     28  C6  BPP d   1     -23.672 -30.618  22.539  0.00  0.00    -0.067 A 
ATOM     29  H3  BPP d   1     -24.227 -29.723  22.798  0.00  0.00     0.085 H 
ATOM     30  H4  BPP d   1     -21.311 -34.949  21.557  0.00  0.00     0.088 H 
ATOM     31  H2  BPP d   1     -22.419 -29.608  21.079  0.00  0.00     0.087 H 
BRANCH  26  32
ATOM     32  C13 BPP d   1     -24.987 -31.838  24.186  0.00  0.00     0.102 C 
ATOM     33  N15 BPP d   1     -25.730 -32.884  24.466  0.00  0.00    -0.385 N 
ATOM     34  H8  BPP d   1     -25.606 -33.760  23.938  0.00  0.00     0.157 HD
ATOM     35  H9  BPP d   1     -26.437 -32.829  25.213  0.00  0.00     0.157 HD
BRANCH  32  36
ATOM     36  N14 BPP d   1     -25.122 -30.703  24.844  0.00  0.00    -0.385 N 
ATOM     37  H6  BPP d   1     -25.832 -30.619  25.585  0.00  0.00     0.157 HD
ATOM     38  H7  BPP d   1     -24.517 -29.901  24.616  0.00  0.00     0.157 HD
ENDBRANCH  32  36
ENDBRANCH  26  32
ENDBRANCH   1  18
BRANCH   6  39
ATOM     39  C33 BPP d   1     -15.720 -35.925  22.600  0.00  0.00    -0.037 C 
ATOM     40  H19 BPP d   1     -14.901 -36.503  22.147  0.00  0.00     0.040 H 
ATOM     41  H20 BPP d   1     -16.587 -36.583  22.762  0.00  0.00     0.040 H 
BRANCH  39  42
ATOM     42  C35 BPP d   1     -15.246 -35.360  23.973  0.00  0.00    -0.058 A 
ATOM     43  C42 BPP d   1     -13.914 -34.864  24.126  0.00  0.00    -0.077 A 
ATOM     44  C41 BPP d   1     -13.487 -34.351  25.355  0.00  0.00    -0.082 A 
ATOM     45  H25 BPP d   1     -13.231 -34.886  23.285  0.00  0.00     0.084 H 
ATOM     46  C40 BPP d   1     -14.374 -34.320  26.464  0.00  0.00    -0.083 A 
ATOM     47  H24 BPP d   1     -12.476 -33.976  25.462  0.00  0.00     0.083 H 
ATOM     48  C39 BPP d   1     -15.699 -34.801  26.360  0.00  0.00    -0.082 A 
ATOM     49  H23 BPP d   1     -14.028 -33.919  27.410  0.00  0.00     0.083 H 
ATOM     50  C38 BPP d   1     -16.130 -35.317  25.124  0.00  0.00    -0.077 A 
ATOM     51  H22 BPP d   1     -16.368 -34.773  27.213  0.00  0.00     0.083 H 
ATOM     52  H21 BPP d   1     -17.143 -35.690  25.029  0.00  0.00     0.084 H 
ENDBRANCH  39  42
ENDBRANCH   6  39
TORSDOF 5
