REMARK  15 active torsions:
REMARK  status: ('A' for Active; 'I' for Inactive)
REMARK    1  A    between atoms: C3_3  and  C20_20 
REMARK    2  A    between atoms: C4_4  and  O8_8 
REMARK    3  A    between atoms: C6_6  and  C12_12 
REMARK    4  A    between atoms: C6_6  and  C9_9 
REMARK    5  A    between atoms: C9_9  and  C10_10 
REMARK    6  A    between atoms: C10_10  and  C11_11 
REMARK    7  A    between atoms: C12_12  and  C13_13 
REMARK    8  A    between atoms: C13_13  and  C14_14 
REMARK    9  A    between atoms: C20_20  and  C23_23 
REMARK   10  A    between atoms: C20_20  and  C21_21 
REMARK   11  A    between atoms: C21_21  and  C22_22 
REMARK   12  A    between atoms: C27_27  and  N28_28 
REMARK   13  A    between atoms: N28_28  and  S30_30 
REMARK   14  A    between atoms: S30_30  and  C33_33 
REMARK   15  A    between atoms: C36_36  and  C39_39 
ROOT
ATOM      1  O1  TPV d   1      13.549  21.422   6.078  0.00  0.00    -0.306 OA
ATOM      2  C2  TPV d   1      12.487  22.202   6.119  0.00  0.00     0.293 C 
ATOM      3  C3  TPV d   1      12.547  23.548   5.488  0.00  0.00     0.055 C 
ATOM      4  C4  TPV d   1      13.803  23.939   4.984  0.00  0.00     0.059 C 
ATOM      5  C5  TPV d   1      15.030  23.252   5.600  0.00  0.00     0.009 C 
ATOM      6  C6  TPV d   1      14.898  22.024   5.886  0.00  0.00     0.077 C 
ATOM      7  O7  TPV d   1      11.438  21.718   6.484  0.00  0.00    -0.259 OA
ATOM      8  H1  TPV d   1      15.285  23.787   6.527  0.00  0.00     0.047 H 
ATOM      9  H2  TPV d   1      15.860  23.343   4.884  0.00  0.00     0.047 H 
ENDROOT
BRANCH   3  10
ATOM     10  C20 TPV d   1      11.228  24.207   5.108  0.00  0.00     0.005 C 
ATOM     11  H20 TPV d   1      10.578  23.330   5.246  0.00  0.00     0.055 H 
BRANCH  10  12
ATOM     12  C23 TPV d   1      10.829  25.104   6.300  0.00  0.00    -0.047 C 
ATOM     13  C29 TPV d   1       9.507  25.585   6.353  0.00  0.00    -0.050 C 
ATOM     14  C27 TPV d   1       9.078  26.343   7.449  0.00  0.00     0.043 C 
ATOM     15  H30 TPV d   1       8.820  25.368   5.543  0.00  0.00     0.087 H 
ATOM     16  C26 TPV d   1       9.996  26.746   8.414  0.00  0.00    -0.057 C 
ATOM     17  C25 TPV d   1      11.369  26.489   8.219  0.00  0.00    -0.080 C 
ATOM     18  H28 TPV d   1       9.658  27.254   9.310  0.00  0.00     0.086 H 
ATOM     19  C24 TPV d   1      11.751  25.555   7.216  0.00  0.00    -0.076 C 
ATOM     20  H27 TPV d   1      12.117  26.992   8.820  0.00  0.00     0.083 H 
ATOM     21  H26 TPV d   1      12.773  25.197   7.173  0.00  0.00     0.084 H 
BRANCH  14  22
ATOM     22  N28 TPV d   1       7.369  26.738   7.833  0.00  0.00    -0.279 N 
ATOM     23  H29 TPV d   1       6.775  26.234   8.460  0.00  0.00     0.179 HD
BRANCH  22  24
ATOM     24  S30 TPV d   1       6.964  28.046   6.989  0.00  0.00     0.280 S 
ATOM     25  O32 TPV d   1       5.612  28.368   7.312  0.00  0.00    -0.199 OA
ATOM     26  O31 TPV d   1       8.002  29.091   7.303  0.00  0.00    -0.199 OA
BRANCH  24  27
ATOM     27  C33 TPV d   1       7.125  27.667   5.296  0.00  0.00     0.171 C 
ATOM     28  C38 TPV d   1       6.079  27.045   4.620  0.00  0.00    -0.041 C 
ATOM     29  C37 TPV d   1       6.239  26.749   3.244  0.00  0.00    -0.064 C 
ATOM     30  H33 TPV d   1       5.160  26.792   5.136  0.00  0.00     0.088 H 
ATOM     31  C36 TPV d   1       7.436  27.088   2.635  0.00  0.00     0.065 C 
ATOM     32  H32 TPV d   1       5.445  26.270   2.682  0.00  0.00     0.085 H 
ATOM     33  C35 TPV d   1       8.381  27.822   3.363  0.00  0.00     0.018 C 
ATOM     34  N34 TPV d   1       8.271  28.067   4.676  0.00  0.00    -0.247 NA
ATOM     35  H31 TPV d   1       9.245  28.212   2.838  0.00  0.00     0.116 H 
BRANCH  31  36
ATOM     36  C39 TPV d   1       7.727  26.758   1.174  0.00  0.00     0.418 C 
ATOM     37  F42 TPV d   1       8.595  25.636   1.227  0.00  0.00    -0.166 F 
ATOM     38  F40 TPV d   1       8.386  27.915   0.673  0.00  0.00    -0.166 F 
ATOM     39  F41 TPV d   1       6.501  26.511   0.569  0.00  0.00    -0.166 F 
ENDBRANCH  31  36
ENDBRANCH  24  27
ENDBRANCH  22  24
ENDBRANCH  14  22
ENDBRANCH  10  12
BRANCH  10  40
ATOM     40  C21 TPV d   1      10.591  24.700   3.760  0.00  0.00    -0.057 C 
ATOM     41  H21 TPV d   1      11.129  25.615   3.470  0.00  0.00     0.033 H 
ATOM     42  H22 TPV d   1       9.541  24.945   3.976  0.00  0.00     0.033 H 
BRANCH  40  43
ATOM     43  C22 TPV d   1      10.588  23.794   2.551  0.00  0.00    -0.076 C 
ATOM     44  H23 TPV d   1      10.103  24.308   1.708  0.00  0.00     0.027 H 
ATOM     45  H24 TPV d   1      10.035  22.872   2.785  0.00  0.00     0.027 H 
ATOM     46  H25 TPV d   1      11.624  23.542   2.279  0.00  0.00     0.027 H 
ENDBRANCH  40  43
ENDBRANCH  10  40
ENDBRANCH   3  10
BRANCH   4  47
ATOM     47  O8  TPV d   1      13.993  25.128   4.403  0.00  0.00    -0.364 OA
ATOM     48  H3  TPV d   1      14.900  25.205   4.131  0.00  0.00     0.217 HD
ENDBRANCH   4  47
BRANCH   6  49
ATOM     49  C12 TPV d   1      15.023  21.558   7.303  0.00  0.00    -0.032 C 
ATOM     50  H11 TPV d   1      14.835  20.475   7.349  0.00  0.00     0.037 H 
ATOM     51  H12 TPV d   1      14.286  22.085   7.927  0.00  0.00     0.037 H 
BRANCH  49  52
ATOM     52  C13 TPV d   1      16.369  21.839   7.800  0.00  0.00    -0.038 C 
ATOM     53  H13 TPV d   1      16.290  22.824   8.283  0.00  0.00     0.040 H 
ATOM     54  H14 TPV d   1      16.990  21.923   6.896  0.00  0.00     0.040 H 
BRANCH  52  55
ATOM     55  C14 TPV d   1      17.153  21.043   8.713  0.00  0.00    -0.058 C 
ATOM     56  C19 TPV d   1      18.502  21.476   8.905  0.00  0.00    -0.077 C 
ATOM     57  C18 TPV d   1      19.422  20.606   9.518  0.00  0.00    -0.082 C 
ATOM     58  H19 TPV d   1      18.812  22.463   8.582  0.00  0.00     0.084 H 
ATOM     59  C17 TPV d   1      18.909  19.597  10.374  0.00  0.00    -0.083 C 
ATOM     60  H18 TPV d   1      20.487  20.703   9.342  0.00  0.00     0.083 H 
ATOM     61  C16 TPV d   1      17.530  19.281  10.340  0.00  0.00    -0.082 C 
ATOM     62  H17 TPV d   1      19.571  19.070  11.052  0.00  0.00     0.083 H 
ATOM     63  C15 TPV d   1      16.659  20.012   9.507  0.00  0.00    -0.077 C 
ATOM     64  H16 TPV d   1      17.143  18.476  10.955  0.00  0.00     0.083 H 
ATOM     65  H15 TPV d   1      15.602  19.771   9.485  0.00  0.00     0.084 H 
ENDBRANCH  52  55
ENDBRANCH  49  52
ENDBRANCH   6  49
BRANCH   6  66
ATOM     66  C9  TPV d   1      15.673  21.224   4.793  0.00  0.00    -0.035 C 
ATOM     67  H4  TPV d   1      16.148  20.357   5.275  0.00  0.00     0.037 H 
ATOM     68  H5  TPV d   1      16.449  21.881   4.372  0.00  0.00     0.037 H 
BRANCH  66  69
ATOM     69  C10 TPV d   1      14.930  20.787   3.808  0.00  0.00    -0.066 C 
ATOM     70  H6  TPV d   1      14.808  21.639   3.123  0.00  0.00     0.032 H 
ATOM     71  H7  TPV d   1      13.957  20.533   4.255  0.00  0.00     0.032 H 
BRANCH  69  72
ATOM     72  C11 TPV d   1      15.304  19.611   2.940  0.00  0.00    -0.076 C 
ATOM     73  H8  TPV d   1      14.518  19.446   2.188  0.00  0.00     0.027 H 
ATOM     74  H9  TPV d   1      15.408  18.712   3.565  0.00  0.00     0.027 H 
ATOM     75  H10 TPV d   1      16.258  19.818   2.433  0.00  0.00     0.027 H 
ENDBRANCH  69  72
ENDBRANCH  66  69
ENDBRANCH   6  66
TORSDOF 15
