REMARK  8 active torsions:
REMARK  status: ('A' for Active; 'I' for Inactive)
REMARK    1  A    between atoms: C4_5  and  C7_7 
REMARK    2  A    between atoms: C11_9  and  O19_19 
REMARK    3  A    between atoms: C10_10  and  C13_13 
REMARK    4  A    between atoms: C16_16  and  C20_20 
REMARK       I    between atoms: C20_20  and  N22_22 
REMARK    5  A    between atoms: N22_22  and  C23_23 
REMARK    6  A    between atoms: C23_23  and  C24_24 
REMARK    7  A    between atoms: C24_24  and  C25_25 
REMARK    8  A    between atoms: C25_25  and  C26_26 
ROOT
ATOM      1  C7  HOP d   1       9.710  10.084  -2.986  0.00  0.00    -0.026 C 
ATOM      2  C12 HOP d   1      10.798  10.891  -3.786  0.00  0.00    -0.033 C 
ATOM      3  C11 HOP d   1      10.249  11.562  -5.069  0.00  0.00     0.043 C 
ATOM      4  C10 HOP d   1       9.057  12.518  -4.710  0.00  0.00    -0.004 C 
ATOM      5  C9  HOP d   1       7.925  11.692  -3.955  0.00  0.00    -0.055 C 
ATOM      6  C8  HOP d   1       8.476  11.008  -2.663  0.00  0.00    -0.057 C 
ATOM      7  H6  HOP d   1       9.357   9.275  -3.642  0.00  0.00     0.047 H 
ATOM      8  H7  HOP d   1      11.604  10.200  -4.072  0.00  0.00     0.037 H 
ATOM      9  H8  HOP d   1      11.203  11.675  -3.129  0.00  0.00     0.037 H 
ATOM     10  H9  HOP d   1       9.873  10.780  -5.746  0.00  0.00     0.084 H 
ATOM     11  H10 HOP d   1       9.427  13.301  -4.032  0.00  0.00     0.051 H 
ATOM     12  H11 HOP d   1       7.538  10.916  -4.632  0.00  0.00     0.034 H 
ATOM     13  H12 HOP d   1       7.110  12.376  -3.677  0.00  0.00     0.034 H 
ATOM     14  H13 HOP d   1       8.788  11.786  -1.951  0.00  0.00     0.034 H 
ATOM     15  H14 HOP d   1       7.679  10.397  -2.213  0.00  0.00     0.034 H 
ENDROOT
BRANCH   4  16
ATOM     16  C13 HOP d   1       8.491  13.216  -6.010  0.00  0.00    -0.051 A 
ATOM     17  C18 HOP d   1       7.390  12.667  -6.742  0.00  0.00    -0.075 A 
ATOM     18  C17 HOP d   1       6.920  13.342  -7.894  0.00  0.00    -0.067 A 
ATOM     19  H18 HOP d   1       6.921  11.745  -6.418  0.00  0.00     0.084 H 
ATOM     20  C16 HOP d   1       7.515  14.560  -8.347  0.00  0.00     0.032 A 
ATOM     21  H17 HOP d   1       6.087  12.924  -8.447  0.00  0.00     0.085 H 
ATOM     22  C15 HOP d   1       8.630  15.092  -7.612  0.00  0.00    -0.067 A 
ATOM     23  C14 HOP d   1       9.106  14.438  -6.470  0.00  0.00    -0.075 A 
ATOM     24  H16 HOP d   1       9.106  16.007  -7.945  0.00  0.00     0.085 H 
ATOM     25  H15 HOP d   1       9.946  14.854  -5.925  0.00  0.00     0.084 H 
BRANCH  20  26
ATOM     26  C20 HOP d   1       7.030  15.263  -9.577  0.00  0.00     0.251 C 
ATOM     27  N22 HOP d   1       7.827  16.240 -10.120  0.00  0.00    -0.357 N 
ATOM     28  H20 HOP d   1       8.701  16.392  -9.659  0.00  0.00     0.162 HD
ATOM     29  O21 HOP d   1       5.933  14.956 -10.062  0.00  0.00    -0.268 OA
BRANCH  27  30
ATOM     30  C23 HOP d   1       7.563  17.107 -11.309  0.00  0.00    -0.004 C 
ATOM     31  H21 HOP d   1       6.559  17.550 -11.224  0.00  0.00     0.064 H 
ATOM     32  H22 HOP d   1       7.620  16.500 -12.225  0.00  0.00     0.064 H 
BRANCH  30  33
ATOM     33  C24 HOP d   1       8.630  18.245 -11.371  0.00  0.00    -0.041 C 
ATOM     34  H23 HOP d   1       8.112  19.206 -11.507  0.00  0.00     0.036 H 
ATOM     35  H24 HOP d   1       9.292  18.060 -12.229  0.00  0.00     0.036 H 
BRANCH  33  36
ATOM     36  C25 HOP d   1       9.494  18.325 -10.086  0.00  0.00     0.017 C 
ATOM     37  H25 HOP d   1      10.078  17.396 -10.010  0.00  0.00     0.049 H 
ATOM     38  H26 HOP d   1       8.815  18.403  -9.224  0.00  0.00     0.049 H 
BRANCH  36  39
ATOM     39  C26 HOP d   1      10.459  19.489 -10.028  0.00  0.00     0.172 C 
ATOM     40  O28 HOP d   1      10.159  20.366  -8.988  0.00  0.00    -0.648 OA
ATOM     41  O27 HOP d   1      11.412  19.624 -10.812  0.00  0.00    -0.648 OA
ENDBRANCH  36  39
ENDBRANCH  33  36
ENDBRANCH  30  33
ENDBRANCH  27  30
ENDBRANCH  20  26
ENDBRANCH   4  16
BRANCH   3  42
ATOM     42  O19 HOP d   1      11.323  12.268  -5.734  0.00  0.00    -0.395 OA
ATOM     43  H19 HOP d   1      10.989  12.681  -6.522  0.00  0.00     0.210 HD
ENDBRANCH   3  42
BRANCH   1  44
ATOM     44  C4  HOP d   1      10.260   9.419  -1.704  0.00  0.00    -0.054 A 
ATOM     45  C3  HOP d   1       9.749   8.145  -1.279  0.00  0.00    -0.076 A 
ATOM     46  C2  HOP d   1      10.258   7.514  -0.112  0.00  0.00    -0.082 A 
ATOM     47  H5  HOP d   1       8.968   7.661  -1.854  0.00  0.00     0.084 H 
ATOM     48  C1  HOP d   1      11.294   8.147   0.644  0.00  0.00    -0.083 A 
ATOM     49  H2  HOP d   1       9.862   6.556   0.204  0.00  0.00     0.083 H 
ATOM     50  C6  HOP d   1      11.812   9.403   0.235  0.00  0.00    -0.082 A 
ATOM     51  H1  HOP d   1      11.685   7.665   1.533  0.00  0.00     0.083 H 
ATOM     52  C5  HOP d   1      11.305  10.042  -0.930  0.00  0.00    -0.076 A 
ATOM     53  H3  HOP d   1      12.597   9.877   0.813  0.00  0.00     0.083 H 
ATOM     54  H4  HOP d   1      11.706  11.001  -1.237  0.00  0.00     0.084 H 
ENDBRANCH   1  44
TORSDOF 8
