REMARK  7 active torsions:
REMARK  status: ('A' for Active; 'I' for Inactive)
REMARK    1  A    between atoms: N20_7  and  C02_2 
REMARK    2  A    between atoms: C05_5  and  C22_8 
REMARK       I    between atoms: C18_26  and  N20_7 
REMARK    3  A    between atoms: N07_15  and  C31_14 
REMARK    4  A    between atoms: C31_14  and  C32_28 
REMARK    5  A    between atoms: C18_26  and  C17_25 
REMARK    6  A    between atoms: C32_28  and  S33_29 
REMARK    7  A    between atoms: S33_29  and  C36_32 
ROOT
ATOM      1  N07 00R d   1      18.025 -16.134  23.137  0.00  0.00    -0.248 N 
ATOM      2  C08 00R d   1      19.144 -16.323  22.325  0.00  0.00     0.347 A 
ATOM      3  O09 00R d   1      19.809 -17.358  22.188  0.00  0.00    -0.245 OA
ATOM      4  N10 00R d   1      19.382 -15.120  21.661  0.00  0.00    -0.232 N 
ATOM      5  N11 00R d   1      18.399 -14.220  22.066  0.00  0.00    -0.219 N 
ATOM      6  C12 00R d   1      17.569 -14.827  22.999  0.00  0.00     0.348 A 
ATOM      7  O13 00R d   1      16.589 -14.344  23.561  0.00  0.00    -0.245 OA
ATOM      8  C14 00R d   1      20.636 -14.696  21.074  0.00  0.00     0.035 C 
ATOM      9  C15 00R d   1      20.534 -13.351  20.393  0.00  0.00    -0.085 C 
ATOM     10  C16 00R d   1      19.423 -12.595  20.551  0.00  0.00    -0.074 C 
ATOM     11  C17 00R d   1      18.203 -12.961  21.361  0.00  0.00     0.118 C 
ATOM     12  H18 00R d   1      20.948 -15.444  20.331  0.00  0.00     0.073 H 
ATOM     13  H19 00R d   1      21.393 -14.632  21.869  0.00  0.00     0.073 H 
ATOM     14  H20 00R d   1      21.355 -12.990  19.775  0.00  0.00     0.079 H 
ATOM     15  H21 00R d   1      19.407 -11.630  20.046  0.00  0.00     0.080 H 
ATOM     16  H22 00R d   1      18.035 -12.161  22.097  0.00  0.00     0.095 H 
ENDROOT
BRANCH  11  17
ATOM     17  C18 00R d   1      16.924 -13.116  20.500  0.00  0.00     0.180 C 
ATOM     18  O19 00R d   1      16.903 -13.847  19.237  0.00  0.00    -0.175 OA
ATOM     19  N20 00R d   1      15.587 -12.382  20.990  0.00  0.00    -0.365 N 
ATOM     20  H11 00R d   1      15.525 -11.904  21.866  0.00  0.00     0.161 HD
BRANCH  19  21
ATOM     21  C02 00R d   1      14.446 -12.467  20.042  0.00  0.00     0.011 C 
ATOM     22  C01 00R d   1      13.557 -11.086  19.962  0.00  0.00    -0.045 C 
ATOM     23  C06 00R d   1      12.945 -10.771  21.469  0.00  0.00    -0.055 C 
ATOM     24  H1  00R d   1      14.196 -10.251  19.638  0.00  0.00     0.036 H 
ATOM     25  H2  00R d   1      12.732 -11.216  19.246  0.00  0.00     0.036 H 
ATOM     26  C05 00R d   1      12.836 -12.068  22.343  0.00  0.00    -0.012 C 
ATOM     27  H9  00R d   1      11.943 -10.331  21.360  0.00  0.00     0.034 H 
ATOM     28  H10 00R d   1      13.607 -10.055  21.978  0.00  0.00     0.034 H 
ATOM     29  C04 00R d   1      12.352 -13.392  21.496  0.00  0.00    -0.055 C 
ATOM     30  H8  00R d   1      13.831 -12.273  22.765  0.00  0.00     0.049 H 
ATOM     31  C03 00R d   1      13.495 -13.675  20.332  0.00  0.00    -0.045 C 
ATOM     32  H6  00R d   1      12.274 -14.260  22.167  0.00  0.00     0.034 H 
ATOM     33  H7  00R d   1      11.375 -13.203  21.027  0.00  0.00     0.034 H 
ATOM     34  H4  00R d   1      14.111 -14.526  20.657  0.00  0.00     0.036 H 
ATOM     35  H5  00R d   1      12.976 -13.934  19.398  0.00  0.00     0.036 H 
ATOM     36  H3  00R d   1      14.883 -12.629  19.046  0.00  0.00     0.072 H 
BRANCH  26  37
ATOM     37  C22 00R d   1      12.034 -11.900  23.269  0.00  0.00     0.049 A 
ATOM     38  C26 00R d   1      11.444 -10.764  23.583  0.00  0.00     0.043 A 
ATOM     39  N25 00R d   1      10.617 -10.975  24.798  0.00  0.00    -0.075 NA
ATOM     40  H13 00R d   1      11.546  -9.825  23.041  0.00  0.00     0.118 H 
ATOM     41  C24 00R d   1      10.793 -12.236  25.133  0.00  0.00     0.698 A 
ATOM     42  N23 00R d   1      11.647 -12.827  24.248  0.00  0.00    -0.192 N 
ATOM     43  N27 00R d   1      10.264 -12.957  26.126  0.00  0.00    -0.233 N 
ATOM     44  H12 00R d   1      11.960 -13.807  24.292  0.00  0.00     0.184 HD
ATOM     45  H14 00R d   1       9.619 -12.515  26.796  0.00  0.00     0.174 HD
ATOM     46  H15 00R d   1      10.501 -13.955  26.221  0.00  0.00     0.174 HD
ENDBRANCH  26  37
ENDBRANCH  19  21
ENDBRANCH  11  17
BRANCH   1  47
ATOM     47  C31 00R d   1      17.370 -17.150  23.945  0.00  0.00     0.021 C 
ATOM     48  H16 00R d   1      16.815 -17.825  23.277  0.00  0.00     0.066 H 
ATOM     49  H17 00R d   1      16.668 -16.654  24.631  0.00  0.00     0.066 H 
BRANCH  47  50
ATOM     50  C32 00R d   1      18.337 -17.969  24.759  0.00  0.00     0.048 C 
ATOM     51  H23 00R d   1      17.858 -18.928  25.007  0.00  0.00     0.059 H 
ATOM     52  H24 00R d   1      19.234 -18.154  24.150  0.00  0.00     0.059 H 
BRANCH  50  53
ATOM     53  S33 00R d   1      18.841 -17.180  26.281  0.00  0.00     0.177 S 
ATOM     54  O35 00R d   1      19.261 -18.234  27.191  0.00  0.00    -0.223 OA
ATOM     55  O34 00R d   1      17.672 -16.395  26.725  0.00  0.00    -0.223 OA
BRANCH  53  56
ATOM     56  C36 00R d   1      20.165 -16.075  25.862  0.00  0.00     0.059 A 
ATOM     57  C41 00R d   1      21.207 -16.498  25.015  0.00  0.00    -0.062 A 
ATOM     58  C40 00R d   1      22.226 -15.630  24.634  0.00  0.00    -0.082 A 
ATOM     59  H29 00R d   1      21.216 -17.520  24.653  0.00  0.00     0.085 H 
ATOM     60  C39 00R d   1      22.210 -14.325  25.101  0.00  0.00    -0.083 A 
ATOM     61  H28 00R d   1      23.021 -15.970  23.981  0.00  0.00     0.083 H 
ATOM     62  C38 00R d   1      21.200 -13.893  25.943  0.00  0.00    -0.082 A 
ATOM     63  H27 00R d   1      22.994 -13.638  24.805  0.00  0.00     0.083 H 
ATOM     64  C37 00R d   1      20.181 -14.756  26.330  0.00  0.00    -0.062 A 
ATOM     65  H26 00R d   1      21.203 -12.871  26.305  0.00  0.00     0.083 H 
ATOM     66  H25 00R d   1      19.399 -14.407  26.994  0.00  0.00     0.085 H 
ENDBRANCH  53  56
ENDBRANCH  50  53
ENDBRANCH  47  50
ENDBRANCH   1  47
TORSDOF 7
