REMARK  4 active torsions:
REMARK  status: ('A' for Active; 'I' for Inactive)
REMARK    1  A    between atoms: C2_4  and  S_1 
REMARK    2  A    between atoms: S_1  and  C1_3 
REMARK    3  A    between atoms: C2_4  and  S3_5 
REMARK    4  A    between atoms: S3_5  and  C4_6 
ROOT
ATOM      1  C2  DSS d   1      59.960  -3.949   0.163  0.00  0.00     0.044 C 
ATOM      2  H4  DSS d   1      60.226  -3.704   1.202  0.00  0.00     0.068 H 
ATOM      3  H5  DSS d   1      58.867  -4.042   0.077  0.00  0.00     0.068 H 
ENDROOT
BRANCH   1   4
ATOM      4  S   DSS d   1      60.671  -5.462  -0.241  0.00  0.00     0.020 S 
ATOM      5  O   DSS d   1      60.149  -6.488   0.729  0.00  0.00    -0.258 OA
BRANCH   4   6
ATOM      6  C1  DSS d   1      59.837  -5.692  -1.805  0.00  0.00    -0.007 C 
ATOM      7  H1  DSS d   1      60.160  -6.642  -2.256  0.00  0.00     0.045 H 
ATOM      8  H2  DSS d   1      60.089  -4.861  -2.481  0.00  0.00     0.045 H 
ATOM      9  H3  DSS d   1      58.750  -5.715  -1.641  0.00  0.00     0.045 H 
ENDBRANCH   4   6
ENDBRANCH   1   4
BRANCH   1  10
ATOM     10  S3  DSS d   1      60.504  -2.604  -0.898  0.00  0.00    -0.161 SA
BRANCH  10  11
ATOM     11  C4  DSS d   1      60.050  -1.196   0.212  0.00  0.00    -0.034 C 
ATOM     12  H6  DSS d   1      60.313  -0.245  -0.275  0.00  0.00     0.041 H 
ATOM     13  H7  DSS d   1      60.599  -1.286   1.161  0.00  0.00     0.041 H 
ATOM     14  H8  DSS d   1      58.968  -1.219   0.410  0.00  0.00     0.041 H 
ENDBRANCH  10  11
ENDBRANCH   1  10
TORSDOF 4
