REMARK  4 active torsions:
REMARK  status: ('A' for Active; 'I' for Inactive)
REMARK    1  A    between atoms: C2_2  and  C1_1 
REMARK    2  A    between atoms: C2_2  and  C3_4 
REMARK    3  A    between atoms: C3_4  and  C4_5 
REMARK    4  A    between atoms: C4_5  and  O5_6 
ROOT
ATOM      1  C3  BUQ d   1      60.561  -4.093  -0.143  0.00  0.00     0.009 C 
ATOM      2  H4  BUQ d   1      61.542  -3.783   0.245  0.00  0.00     0.047 H 
ATOM      3  H5  BUQ d   1      59.793  -3.928   0.627  0.00  0.00     0.047 H 
ENDROOT
BRANCH   1   4
ATOM      4  C2  BUQ d   1      60.614  -5.579  -0.464  0.00  0.00     0.125 C 
ATOM      5  O2  BUQ d   1      60.498  -6.421   0.429  0.00  0.00    -0.298 OA
BRANCH   4   6
ATOM      6  C1  BUQ d   1      60.801  -6.061  -1.886  0.00  0.00    -0.021 C 
ATOM      7  H1  BUQ d   1      60.812  -7.161  -1.902  0.00  0.00     0.037 H 
ATOM      8  H2  BUQ d   1      61.754  -5.679  -2.280  0.00  0.00     0.037 H 
ATOM      9  H3  BUQ d   1      59.973  -5.693  -2.510  0.00  0.00     0.037 H 
ENDBRANCH   4   6
ENDBRANCH   1   4
BRANCH   1  10
ATOM     10  C4  BUQ d   1      60.224  -3.229  -1.358  0.00  0.00     0.023 C 
ATOM     11  H6  BUQ d   1      61.091  -3.264  -2.034  0.00  0.00     0.074 H 
ATOM     12  H7  BUQ d   1      60.082  -2.200  -0.998  0.00  0.00     0.074 H 
BRANCH  10  13
ATOM     13  O5  BUQ d   1      59.076  -3.571  -2.124  0.00  0.00    -0.400 OA
ATOM     14  H8  BUQ d   1      58.304  -3.531  -1.571  0.00  0.00     0.209 HD
ENDBRANCH  10  13
ENDBRANCH   1  10
TORSDOF 4
