REMARK  8 active torsions:
REMARK  status: ('A' for Active; 'I' for Inactive)
REMARK    1  A    between atoms: N1_1  and  C1_2 
REMARK       I    between atoms: C18_22  and  N1_1 
REMARK    2  A    between atoms: C1_2  and  C2_3 
REMARK    3  A    between atoms: C5_6  and  N2_9 
REMARK    4  A    between atoms: N07_11  and  C31_10 
REMARK    5  A    between atoms: C31_10  and  C32_24 
REMARK    6  A    between atoms: C18_22  and  C17_21 
REMARK    7  A    between atoms: C32_24  and  S33_25 
REMARK    8  A    between atoms: S33_25  and  C36_28 
ROOT
ATOM      1  N07 00P d   1      17.945 -15.954  23.487  0.00  0.00    -0.248 N 
ATOM      2  C08 00P d   1      19.040 -16.196  22.651  0.00  0.00     0.347 A 
ATOM      3  O09 00P d   1      19.745 -17.200  22.588  0.00  0.00    -0.245 OA
ATOM      4  N10 00P d   1      19.201 -15.053  21.859  0.00  0.00    -0.232 N 
ATOM      5  N11 00P d   1      18.207 -14.146  22.211  0.00  0.00    -0.218 N 
ATOM      6  C12 00P d   1      17.430 -14.699  23.211  0.00  0.00     0.348 A 
ATOM      7  O13 00P d   1      16.457 -14.148  23.693  0.00  0.00    -0.245 OA
ATOM      8  C14 00P d   1      20.444 -14.598  21.253  0.00  0.00     0.035 C 
ATOM      9  C15 00P d   1      20.138 -13.483  20.280  0.00  0.00    -0.085 C 
ATOM     10  C16 00P d   1      19.009 -12.764  20.413  0.00  0.00    -0.073 C 
ATOM     11  C17 00P d   1      17.994 -12.889  21.514  0.00  0.00     0.130 C 
ATOM     12  H19 00P d   1      20.921 -15.433  20.719  0.00  0.00     0.073 H 
ATOM     13  H20 00P d   1      21.122 -14.228  22.036  0.00  0.00     0.073 H 
ATOM     14  H21 00P d   1      20.832 -13.261  19.471  0.00  0.00     0.079 H 
ATOM     15  H22 00P d   1      18.811 -12.017  19.646  0.00  0.00     0.080 H 
ATOM     16  H23 00P d   1      18.053 -12.039  22.209  0.00  0.00     0.097 H 
ENDROOT
BRANCH  11  17
ATOM     17  C18 00P d   1      16.595 -12.962  20.813  0.00  0.00     0.246 C 
ATOM     18  O19 00P d   1      16.363 -13.775  19.931  0.00  0.00    -0.271 OA
ATOM     19  N1  00P d   1      15.564 -12.177  21.376  0.00  0.00    -0.359 N 
ATOM     20  H1  00P d   1      15.464 -12.179  22.371  0.00  0.00     0.162 HD
BRANCH  19  21
ATOM     21  C1  00P d   1      14.634 -11.362  20.595  0.00  0.00    -0.001 C 
ATOM     22  H2  00P d   1      14.618 -11.765  19.572  0.00  0.00     0.064 H 
ATOM     23  H3  00P d   1      15.026 -10.335  20.578  0.00  0.00     0.064 H 
BRANCH  21  24
ATOM     24  C2  00P d   1      13.147 -11.294  21.101  0.00  0.00    -0.039 C 
ATOM     25  C3  00P d   1      13.062 -10.694  22.540  0.00  0.00    -0.058 C 
ATOM     26  C4  00P d   1      11.693 -10.939  23.267  0.00  0.00    -0.038 C 
ATOM     27  H12 00P d   1      13.224  -9.608  22.470  0.00  0.00     0.033 H 
ATOM     28  H13 00P d   1      13.860 -11.145  23.148  0.00  0.00     0.033 H 
ATOM     29  C5  00P d   1      11.393 -12.461  23.234  0.00  0.00     0.100 C 
ATOM     30  H10 00P d   1      11.758 -10.595  24.310  0.00  0.00     0.036 H 
ATOM     31  H11 00P d   1      10.893 -10.390  22.749  0.00  0.00     0.036 H 
ATOM     32  C6  00P d   1      11.101 -12.818  21.770  0.00  0.00    -0.038 C 
ATOM     33  H9  00P d   1      12.301 -13.000  23.542  0.00  0.00     0.083 H 
ATOM     34  C7  00P d   1      12.415 -12.667  20.944  0.00  0.00    -0.058 C 
ATOM     35  H7  00P d   1      10.742 -13.856  21.707  0.00  0.00     0.036 H 
ATOM     36  H8  00P d   1      10.333 -12.139  21.370  0.00  0.00     0.036 H 
ATOM     37  H5  00P d   1      13.108 -13.460  21.260  0.00  0.00     0.033 H 
ATOM     38  H6  00P d   1      12.166 -12.800  19.881  0.00  0.00     0.033 H 
ATOM     39  H4  00P d   1      12.621 -10.589  20.441  0.00  0.00     0.042 H 
BRANCH  29  40
ATOM     40  N2  00P d   1      10.329 -12.847  24.171  0.00  0.00    -0.075 N 
ATOM     41  H14 00P d   1      10.173 -13.841  24.111  0.00  0.00     0.274 HD
ATOM     42  H15 00P d   1       9.479 -12.359  23.934  0.00  0.00     0.274 HD
ATOM     43  H16 00P d   1      10.605 -12.606  25.110  0.00  0.00     0.274 HD
ENDBRANCH  29  40
ENDBRANCH  21  24
ENDBRANCH  19  21
ENDBRANCH  11  17
BRANCH   1  44
ATOM     44  C31 00P d   1      17.371 -16.934  24.395  0.00  0.00     0.021 C 
ATOM     45  H17 00P d   1      18.133 -17.704  24.585  0.00  0.00     0.066 H 
ATOM     46  H18 00P d   1      16.505 -17.391  23.893  0.00  0.00     0.066 H 
BRANCH  44  47
ATOM     47  C32 00P d   1      16.902 -16.402  25.739  0.00  0.00     0.048 C 
ATOM     48  H24 00P d   1      16.859 -15.303  25.755  0.00  0.00     0.059 H 
ATOM     49  H25 00P d   1      15.922 -16.812  26.026  0.00  0.00     0.059 H 
BRANCH  47  50
ATOM     50  S33 00P d   1      18.203 -17.028  26.751  0.00  0.00     0.177 S 
ATOM     51  O35 00P d   1      18.536 -18.371  26.220  0.00  0.00    -0.223 OA
ATOM     52  O34 00P d   1      17.948 -16.912  28.158  0.00  0.00    -0.223 OA
BRANCH  50  53
ATOM     53  C36 00P d   1      19.706 -16.113  26.436  0.00  0.00     0.059 A 
ATOM     54  C41 00P d   1      20.348 -16.271  25.201  0.00  0.00    -0.062 A 
ATOM     55  C40 00P d   1      21.535 -15.599  24.934  0.00  0.00    -0.082 A 
ATOM     56  H30 00P d   1      19.916 -16.921  24.449  0.00  0.00     0.085 H 
ATOM     57  C39 00P d   1      22.083 -14.781  25.919  0.00  0.00    -0.083 A 
ATOM     58  H29 00P d   1      22.026 -15.710  23.974  0.00  0.00     0.083 H 
ATOM     59  C38 00P d   1      21.452 -14.636  27.151  0.00  0.00    -0.082 A 
ATOM     60  H28 00P d   1      23.009 -14.253  25.724  0.00  0.00     0.083 H 
ATOM     61  C37 00P d   1      20.258 -15.302  27.420  0.00  0.00    -0.062 A 
ATOM     62  H27 00P d   1      21.894 -13.999  27.909  0.00  0.00     0.083 H 
ATOM     63  H26 00P d   1      19.768 -15.189  28.380  0.00  0.00     0.085 H 
ENDBRANCH  50  53
ENDBRANCH  47  50
ENDBRANCH  44  47
ENDBRANCH   1  44
TORSDOF 8
