REMARK  7 active torsions:
REMARK  status: ('A' for Active; 'I' for Inactive)
REMARK    1  A    between atoms: O2_12  and  P_1 
REMARK    2  A    between atoms: C5_6  and  O5_5 
REMARK    3  A    between atoms: C4_7  and  C5_6 
REMARK    4  A    between atoms: C3_9  and  O3_10 
REMARK    5  A    between atoms: C2_11  and  O2_12 
REMARK    6  A    between atoms: C1_13  and  N9_14 
REMARK    7  A    between atoms: C2_21  and  N2_22 
ROOT
ATOM      1  C4  2GP d   1      20.846 -45.740   3.710  0.00  0.00     0.088 C 
ATOM      2  O4  2GP d   1      21.899 -46.405   4.461  0.00  0.00    -0.353 OA
ATOM      3  C3  2GP d   1      21.250 -45.808   2.267  0.00  0.00     0.092 C 
ATOM      4  C2  2GP d   1      22.652 -46.438   2.227  0.00  0.00     0.121 C 
ATOM      5  C1  2GP d   1      23.055 -46.518   3.671  0.00  0.00     0.140 C 
ATOM      6  H4  2GP d   1      20.779 -44.678   3.990  0.00  0.00     0.090 H 
ATOM      7  H5  2GP d   1      20.501 -46.351   1.672  0.00  0.00     0.091 H 
ATOM      8  H7  2GP d   1      23.338 -45.735   1.733  0.00  0.00     0.095 H 
ATOM      9  H8  2GP d   1      23.696 -45.646   3.868  0.00  0.00     0.123 H 
ENDROOT
BRANCH   5  10
ATOM     10  N9  2GP d   1      23.829 -47.726   4.112  0.00  0.00    -0.293 N 
ATOM     11  C8  2GP d   1      23.439 -48.979   4.507  0.00  0.00     0.071 A 
ATOM     12  N7  2GP d   1      24.433 -49.759   4.781  0.00  0.00    -0.234 NA
ATOM     13  H9  2GP d   1      22.397 -49.287   4.582  0.00  0.00     0.144 H 
ATOM     14  C5  2GP d   1      25.567 -48.947   4.558  0.00  0.00     0.173 A 
ATOM     15  C6  2GP d   1      26.963 -49.238   4.679  0.00  0.00     0.292 A 
ATOM     16  C4  2GP d   1      25.210 -47.678   4.158  0.00  0.00     0.186 A 
ATOM     17  O6  2GP d   1      27.442 -50.300   5.025  0.00  0.00    -0.265 OA
ATOM     18  N1  2GP d   1      27.744 -48.112   4.413  0.00  0.00    -0.152 N 
ATOM     19  C2  2GP d   1      27.289 -46.868   4.014  0.00  0.00     0.703 A 
ATOM     20  H10 2GP d   1      28.733 -48.215   4.522  0.00  0.00     0.187 HD
ATOM     21  N3  2GP d   1      25.991 -46.607   3.868  0.00  0.00    -0.044 NA
BRANCH  19  22
ATOM     22  N2  2GP d   1      28.231 -45.975   3.767  0.00  0.00    -0.233 N 
ATOM     23  H11 2GP d   1      27.973 -45.025   3.465  0.00  0.00     0.174 HD
ATOM     24  H12 2GP d   1      29.223 -46.229   3.877  0.00  0.00     0.174 HD
ENDBRANCH  19  22
ENDBRANCH   5  10
BRANCH   4  25
ATOM     25  O2  2GP d   1      22.690 -47.580   1.480  0.00  0.00    -0.270 OA
BRANCH  25  26
ATOM     26  P   2GP d   1      22.735 -47.696  -0.009  0.00  0.00     0.422 P 
ATOM     27  O1P 2GP d   1      23.902 -47.357  -0.732  0.00  0.00    -0.617 OA
ATOM     28  O2P 2GP d   1      21.581 -47.336  -0.748  0.00  0.00    -0.617 OA
ATOM     29  O3P 2GP d   1      22.766 -49.144  -0.188  0.00  0.00    -0.617 OA
ENDBRANCH  25  26
ENDBRANCH   4  25
BRANCH   1  30
ATOM     30  C5  2GP d   1      19.552 -46.433   4.158  0.00  0.00     0.043 C 
ATOM     31  H2  2GP d   1      19.396 -46.247   5.231  0.00  0.00     0.078 H 
ATOM     32  H3  2GP d   1      18.706 -46.021   3.588  0.00  0.00     0.078 H 
BRANCH  30  33
ATOM     33  O5  2GP d   1      19.627 -47.852   3.931  0.00  0.00    -0.398 OA
ATOM     34  H1  2GP d   1      20.355 -48.212   4.424  0.00  0.00     0.209 HD
ENDBRANCH  30  33
ENDBRANCH   1  30
BRANCH   3  35
ATOM     35  O3  2GP d   1      21.568 -44.510   1.708  0.00  0.00    -0.390 OA
ATOM     36  H6  2GP d   1      21.816 -44.611   0.797  0.00  0.00     0.210 HD
ENDBRANCH   3  35
TORSDOF 7
