REMARK  5 active torsions:
REMARK  status: ('A' for Active; 'I' for Inactive)
REMARK    1  A    between atoms: C11_1  and  C10_4 
REMARK    2  A    between atoms: C10_4  and  C9_5 
REMARK    3  A    between atoms: C9_5  and  C8_6 
REMARK    4  A    between atoms: C8_6  and  C7_7 
REMARK    5  A    between atoms: C7_7  and  C2_8 
ROOT
ATOM      1  C2  BTN d   1      29.208  14.551  11.545  0.00  0.00     0.012 C 
ATOM      2  S1  BTN d   1      27.511  15.228  11.703  0.00  0.00    -0.160 SA
ATOM      3  C6  BTN d   1      27.167  14.650  10.023  0.00  0.00    -0.002 C 
ATOM      4  C5  BTN d   1      27.736  13.248   9.974  0.00  0.00     0.042 A 
ATOM      5  N1  BTN d   1      26.885  12.181  10.497  0.00  0.00    -0.336 N 
ATOM      6  C3  BTN d   1      27.458  11.546  11.529  0.00  0.00     0.316 A 
ATOM      7  O3  BTN d   1      26.977  10.602  12.205  0.00  0.00    -0.247 OA
ATOM      8  N2  BTN d   1      28.648  12.121  11.821  0.00  0.00    -0.335 N 
ATOM      9  C4  BTN d   1      28.967  13.206  10.901  0.00  0.00     0.046 A 
ATOM     10  H9  BTN d   1      29.760  15.166  10.819  0.00  0.00     0.059 H 
ATOM     11  H10 BTN d   1      27.662  15.295   9.282  0.00  0.00     0.052 H 
ATOM     12  H11 BTN d   1      26.084  14.636   9.832  0.00  0.00     0.052 H 
ATOM     13  H12 BTN d   1      28.012  13.019   8.934  0.00  0.00     0.077 H 
ATOM     14  H13 BTN d   1      25.984  11.952  10.129  0.00  0.00     0.164 HD
ATOM     15  H14 BTN d   1      29.237  11.836  12.577  0.00  0.00     0.164 HD
ATOM     16  H15 BTN d   1      29.867  12.943  10.326  0.00  0.00     0.077 H 
ENDROOT
BRANCH   1  17
ATOM     17  C7  BTN d   1      30.016  14.626  12.822  0.00  0.00    -0.051 C 
ATOM     18  H7  BTN d   1      29.387  14.256  13.645  0.00  0.00     0.034 H 
ATOM     19  H8  BTN d   1      30.894  13.973  12.709  0.00  0.00     0.034 H 
BRANCH  17  20
ATOM     20  C8  BTN d   1      30.516  16.036  13.200  0.00  0.00    -0.063 C 
ATOM     21  H5  BTN d   1      31.220  16.382  12.429  0.00  0.00     0.033 H 
ATOM     22  H6  BTN d   1      29.655  16.719  13.243  0.00  0.00     0.033 H 
BRANCH  20  23
ATOM     23  C9  BTN d   1      31.226  16.046  14.560  0.00  0.00    -0.056 C 
ATOM     24  H3  BTN d   1      30.554  15.620  15.320  0.00  0.00     0.033 H 
ATOM     25  H4  BTN d   1      32.139  15.436  14.494  0.00  0.00     0.033 H 
BRANCH  23  26
ATOM     26  C10 BTN d   1      31.599  17.450  14.962  0.00  0.00     0.016 C 
ATOM     27  H1  BTN d   1      30.677  18.050  14.990  0.00  0.00     0.049 H 
ATOM     28  H2  BTN d   1      32.040  17.407  15.969  0.00  0.00     0.049 H 
BRANCH  26  29
ATOM     29  C11 BTN d   1      32.564  18.139  14.071  0.00  0.00     0.172 C 
ATOM     30  O12 BTN d   1      32.532  19.392  13.966  0.00  0.00    -0.648 OA
ATOM     31  O11 BTN d   1      33.426  17.463  13.473  0.00  0.00    -0.648 OA
ENDBRANCH  26  29
ENDBRANCH  23  26
ENDBRANCH  20  23
ENDBRANCH  17  20
ENDBRANCH   1  17
TORSDOF 5
