REMARK  6 active torsions:
REMARK  status: ('A' for Active; 'I' for Inactive)
REMARK    1  A    between atoms: O5'_1  and  C5'_2 
REMARK    2  A    between atoms: C5'_2  and  C4'_3 
REMARK    3  A    between atoms: C3'_5  and  O3'_6 
REMARK    4  A    between atoms: C2'_7  and  O2'_8 
REMARK    5  A    between atoms: C1'_9  and  N9_10 
REMARK    6  A    between atoms: C6_14  and  N6_15 
ROOT
ATOM      1  C4' ADN d   1       1.451   9.238  14.227  0.00  0.00     0.088 C 
ATOM      2  O4' ADN d   1       0.354   8.690  15.005  0.00  0.00    -0.353 OA
ATOM      3  C3' ADN d   1       1.038  10.668  13.918  0.00  0.00     0.091 C 
ATOM      4  C2' ADN d   1      -0.475  10.559  13.789  0.00  0.00     0.105 C 
ATOM      5  C1' ADN d   1      -0.802   9.498  14.846  0.00  0.00     0.139 C 
ATOM      6  H4  ADN d   1       1.571   8.681  13.286  0.00  0.00     0.090 H 
ATOM      7  H5  ADN d   1       1.313  11.344  14.741  0.00  0.00     0.091 H 
ATOM      8  H7  ADN d   1      -0.953  11.518  14.036  0.00  0.00     0.093 H 
ATOM      9  H9  ADN d   1      -1.641   8.886  14.483  0.00  0.00     0.122 H 
ENDROOT
BRANCH   5  10
ATOM     10  N9  ADN d   1      -1.156  10.044  16.160  0.00  0.00    -0.294 N 
ATOM     11  C8  ADN d   1      -0.749  11.228  16.724  0.00  0.00     0.071 A 
ATOM     12  N7  ADN d   1      -1.240  11.441  17.922  0.00  0.00    -0.236 NA
ATOM     13  H10 ADN d   1      -0.080  11.926  16.223  0.00  0.00     0.144 H 
ATOM     14  C5  ADN d   1      -2.024  10.322  18.165  0.00  0.00     0.149 A 
ATOM     15  C6  ADN d   1      -2.818   9.941  19.264  0.00  0.00     0.155 A 
ATOM     16  C4  ADN d   1      -1.982   9.454  17.089  0.00  0.00     0.167 A 
ATOM     17  N1  ADN d   1      -3.466   8.761  19.189  0.00  0.00    -0.222 NA
ATOM     18  C2  ADN d   1      -3.328   8.026  18.080  0.00  0.00     0.091 A 
ATOM     19  N3  ADN d   1      -2.619   8.276  16.983  0.00  0.00    -0.222 NA
ATOM     20  H13 ADN d   1      -3.874   7.090  18.075  0.00  0.00     0.146 H 
BRANCH  15  21
ATOM     21  N6  ADN d   1      -2.967  10.679  20.366  0.00  0.00    -0.382 N 
ATOM     22  H11 ADN d   1      -3.563  10.342  21.135  0.00  0.00     0.157 HD
ATOM     23  H12 ADN d   1      -2.486  11.586  20.448  0.00  0.00     0.157 HD
ENDBRANCH  15  21
ENDBRANCH   5  10
BRANCH   4  24
ATOM     24  O2' ADN d   1      -0.903  10.162  12.500  0.00  0.00    -0.388 OA
ATOM     25  H8  ADN d   1      -0.537   9.310  12.294  0.00  0.00     0.210 HD
ENDBRANCH   4  24
BRANCH   1  26
ATOM     26  C5' ADN d   1       2.731   9.118  15.024  0.00  0.00     0.043 C 
ATOM     27  H2  ADN d   1       3.579   9.430  14.397  0.00  0.00     0.078 H 
ATOM     28  H3  ADN d   1       2.670   9.769  15.909  0.00  0.00     0.078 H 
BRANCH  26  29
ATOM     29  O5' ADN d   1       2.927   7.770  15.444  0.00  0.00    -0.398 OA
ATOM     30  H1  ADN d   1       2.982   7.207  14.681  0.00  0.00     0.209 HD
ENDBRANCH  26  29
ENDBRANCH   1  26
BRANCH   3  31
ATOM     31  O3' ADN d   1       1.639  11.129  12.712  0.00  0.00    -0.390 OA
ATOM     32  H6  ADN d   1       1.368  10.572  11.992  0.00  0.00     0.210 HD
ENDBRANCH   3  31
TORSDOF 6
