REMARK  12 active torsions:
REMARK  status: ('A' for Active; 'I' for Inactive)
REMARK    1  A    between atoms: C2_2  and  NA2_3 
REMARK    2  A    between atoms: C4_5  and  NA4_6 
REMARK    3  A    between atoms: C6_9  and  C9_13 
REMARK    4  A    between atoms: C9_13  and  N10_14 
REMARK    5  A    between atoms: N10_14  and  C14_19 
REMARK    6  A    between atoms: N10_14  and  CM_15 
REMARK    7  A    between atoms: C11_16  and  C_22 
REMARK       I    between atoms: C_22  and  N_24 
REMARK    8  A    between atoms: N_24  and  CA_25 
REMARK    9  A    between atoms: CA_25  and  CB_29 
REMARK   10  A    between atoms: CA_25  and  CT_26 
REMARK   11  A    between atoms: CB_29  and  CG_30 
REMARK   12  A    between atoms: CG_30  and  CD_31 
ROOT
ATOM      1  C11 MTX d   1      19.884  70.185  41.279  0.00  0.00     0.032 A 
ATOM      2  C12 MTX d   1      21.063  69.522  40.874  0.00  0.00    -0.066 A 
ATOM      3  C13 MTX d   1      21.806  68.773  41.765  0.00  0.00    -0.056 A 
ATOM      4  C14 MTX d   1      21.371  68.669  43.109  0.00  0.00     0.030 A 
ATOM      5  C15 MTX d   1      20.249  69.337  43.512  0.00  0.00    -0.056 A 
ATOM      6  C16 MTX d   1      19.498  70.086  42.605  0.00  0.00    -0.066 A 
ATOM      7  H11 MTX d   1      21.391  69.603  39.844  0.00  0.00     0.085 H 
ATOM      8  H12 MTX d   1      22.710  68.271  41.440  0.00  0.00     0.086 H 
ATOM      9  H13 MTX d   1      19.938  69.284  44.549  0.00  0.00     0.086 H 
ATOM     10  H14 MTX d   1      18.603  70.596  42.942  0.00  0.00     0.085 H 
ENDROOT
BRANCH   4  11
ATOM     11  N10 MTX d   1      22.124  67.865  43.955  0.00  0.00    -0.379 N 
BRANCH  11  12
ATOM     12  C9  MTX d   1      21.750  67.661  45.385  0.00  0.00     0.036 C 
ATOM     13  H6  MTX d   1      22.473  66.975  45.851  0.00  0.00     0.073 H 
ATOM     14  H7  MTX d   1      21.776  68.630  45.905  0.00  0.00     0.073 H 
BRANCH  12  15
ATOM     15  C6  MTX d   1      20.389  67.084  45.502  0.00  0.00     0.070 A 
ATOM     16  N5  MTX d   1      19.778  67.219  46.698  0.00  0.00    -0.242 NA
ATOM     17  C4A MTX d   1      18.556  66.671  46.862  0.00  0.00     0.151 A 
ATOM     18  C4  MTX d   1      17.937  66.809  48.158  0.00  0.00     0.173 A 
ATOM     19  C8A MTX d   1      17.905  66.062  45.869  0.00  0.00     0.201 A 
ATOM     20  N3  MTX d   1      16.687  66.291  48.220  0.00  0.00    -0.043 NA
ATOM     21  C2  MTX d   1      15.955  65.684  47.182  0.00  0.00     0.724 A 
ATOM     22  N1  MTX d   1      16.604  65.580  46.026  0.00  0.00    -0.041 NA
ATOM     23  N8  MTX d   1      18.468  65.898  44.674  0.00  0.00    -0.237 NA
ATOM     24  C7  MTX d   1      19.671  66.379  44.529  0.00  0.00     0.030 A 
ATOM     25  H5  MTX d   1      20.157  66.219  43.573  0.00  0.00     0.118 H 
BRANCH  18  26
ATOM     26  NA4 MTX d   1      18.527  67.384  49.175  0.00  0.00    -0.381 N 
ATOM     27  H3  MTX d   1      19.480  67.761  49.072  0.00  0.00     0.157 HD
ATOM     28  H4  MTX d   1      18.038  67.459  50.079  0.00  0.00     0.157 HD
ENDBRANCH  18  26
BRANCH  21  29
ATOM     29  NA2 MTX d   1      14.743  65.313  47.418  0.00  0.00    -0.231 N 
ATOM     30  H1  MTX d   1      14.187  64.867  46.675  0.00  0.00     0.174 HD
ATOM     31  H2  MTX d   1      14.331  65.463  48.350  0.00  0.00     0.174 HD
ENDBRANCH  21  29
ENDBRANCH  12  15
ENDBRANCH  11  12
BRANCH  11  32
ATOM     32  CM  MTX d   1      23.338  67.190  43.562  0.00  0.00    -0.018 C 
ATOM     33  H8  MTX d   1      23.541  67.390  42.500  0.00  0.00     0.056 H 
ATOM     34  H9  MTX d   1      23.221  66.107  43.715  0.00  0.00     0.056 H 
ATOM     35  H10 MTX d   1      24.176  67.558  44.172  0.00  0.00     0.056 H 
ENDBRANCH  11  32
ENDBRANCH   4  11
BRANCH   1  36
ATOM     36  C   MTX d   1      19.078  70.996  40.353  0.00  0.00     0.252 C 
ATOM     37  N   MTX d   1      17.920  71.501  40.761  0.00  0.00    -0.342 N 
ATOM     38  H15 MTX d   1      17.623  71.284  41.691  0.00  0.00     0.163 HD
ATOM     39  O   MTX d   1      19.470  71.190  39.192  0.00  0.00    -0.268 OA
BRANCH  37  40
ATOM     40  CA  MTX d   1      17.023  72.373  39.931  0.00  0.00     0.097 C 
ATOM     41  H16 MTX d   1      17.581  72.927  39.162  0.00  0.00     0.089 H 
BRANCH  40  42
ATOM     42  CB  MTX d   1      15.874  71.540  39.336  0.00  0.00    -0.028 C 
ATOM     43  H17 MTX d   1      15.131  72.238  38.922  0.00  0.00     0.037 H 
ATOM     44  H18 MTX d   1      15.419  70.962  40.154  0.00  0.00     0.037 H 
BRANCH  42  45
ATOM     45  CG  MTX d   1      16.283  70.505  38.168  0.00  0.00     0.018 C 
ATOM     46  H19 MTX d   1      15.459  69.779  38.105  0.00  0.00     0.049 H 
ATOM     47  H20 MTX d   1      17.194  69.997  38.519  0.00  0.00     0.049 H 
BRANCH  45  48
ATOM     48  CD  MTX d   1      16.578  70.950  36.697  0.00  0.00     0.172 C 
ATOM     49  OE2 MTX d   1      16.356  72.118  36.287  0.00  0.00    -0.648 OA
ATOM     50  OE1 MTX d   1      17.099  69.999  36.008  0.00  0.00    -0.648 OA
ENDBRANCH  45  48
ENDBRANCH  42  45
ENDBRANCH  40  42
BRANCH  40  51
ATOM     51  CT  MTX d   1      16.327  73.254  40.913  0.00  0.00     0.196 C 
ATOM     52  O2  MTX d   1      15.890  74.311  40.413  0.00  0.00    -0.646 OA
ATOM     53  O1  MTX d   1      16.188  72.861  42.109  0.00  0.00    -0.646 OA
ENDBRANCH  40  51
ENDBRANCH  37  40
ENDBRANCH   1  36
TORSDOF 12
