REMARK  27 active torsions:
REMARK  status: ('A' for Active; 'I' for Inactive)
REMARK       I    between atoms: C1_1  and  N3_3 
REMARK       I    between atoms: N21_12  and  C1_1 
REMARK    1  A    between atoms: N3_3  and  C4_4 
REMARK    2  A    between atoms: N3_3  and  C5_5 
REMARK    3  A    between atoms: C5_5  and  C6_6 
REMARK    4  A    between atoms: C22_13  and  N21_12 
REMARK    5  A    between atoms: C23_14  and  C22_13 
REMARK    6  A    between atoms: C22_13  and  C25_16 
REMARK       I    between atoms: N37_19  and  C23_14 
REMARK    7  A    between atoms: C25_16  and  C26_17 
REMARK    8  A    between atoms: C25_16  and  C27_18 
REMARK    9  A    between atoms: C38_20  and  N37_19 
REMARK   10  A    between atoms: C38_20  and  C39_21 
REMARK   11  A    between atoms: C46_28  and  C38_20 
REMARK   12  A    between atoms: C39_21  and  C40_22 
REMARK   13  A    between atoms: C49_31  and  C46_28 
REMARK   14  A    between atoms: C49_31  and  O47_32 
REMARK   15  A    between atoms: C49_31  and  O48_33 
REMARK   16  A    between atoms: C51_35  and  C49_31 
REMARK       I    between atoms: N50_34  and  C83_45 
REMARK   17  A    between atoms: C51_35  and  N50_34 
REMARK   18  A    between atoms: C51_35  and  C52_36 
REMARK   19  A    between atoms: C52_36  and  C53_37 
REMARK   20  A    between atoms: C82_44  and  N81_43 
REMARK       I    between atoms: N81_43  and  C97_50 
REMARK   21  A    between atoms: C83_45  and  C82_44 
REMARK   22  A    between atoms: C82_44  and  C85_47 
REMARK   23  A    between atoms: C85_47  and  C86_48 
REMARK   24  A    between atoms: C85_47  and  C87_49 
REMARK       I    between atoms: C97_50  and  N99_52 
REMARK   25  A    between atoms: N99_52  and  C2_53 
REMARK   26  A    between atoms: N99_52  and  C3_54 
REMARK   27  A    between atoms: C3_54  and  C8_55 
ROOT
ATOM      1  C49 A85 d   1       5.351  -1.075  16.312  0.00  0.00     0.251 C 
ENDROOT
BRANCH   1   2
ATOM      2  C46 A85 d   1       4.831   0.073  15.435  0.00  0.00     0.320 C 
ATOM      3  F1  A85 d   1       4.990   1.228  16.118  0.00  0.00    -0.198 F 
ATOM      4  F2  A85 d   1       3.491  -0.055  15.395  0.00  0.00    -0.198 F 
BRANCH   2   5
ATOM      5  C38 A85 d   1       5.417   0.204  14.026  0.00  0.00     0.084 C 
ATOM      6  H20 A85 d   1       5.551  -0.806  13.611  0.00  0.00     0.082 H 
BRANCH   5   7
ATOM      7  N37 A85 d   1       4.471   0.944  13.189  0.00  0.00    -0.348 N 
ATOM      8  C23 A85 d   1       3.601   0.324  12.392  0.00  0.00     0.241 C 
ATOM      9  O24 A85 d   1       3.653  -0.876  12.143  0.00  0.00    -0.271 OA
ATOM     10  H19 A85 d   1       4.478   1.944  13.216  0.00  0.00     0.163 HD
BRANCH   8  11
ATOM     11  C22 A85 d   1       2.526   1.255  11.840  0.00  0.00     0.093 C 
ATOM     12  H11 A85 d   1       2.315   2.014  12.608  0.00  0.00     0.088 H 
BRANCH  11  13
ATOM     13  N21 A85 d   1       3.042   1.938  10.659  0.00  0.00    -0.329 N 
ATOM     14  C1  A85 d   1       3.371   3.244  10.692  0.00  0.00     0.319 C 
ATOM     15  O2  A85 d   1       3.158   3.923  11.678  0.00  0.00    -0.247 OA
ATOM     16  N3  A85 d   1       3.936   3.788   9.588  0.00  0.00    -0.333 N 
ATOM     17  H10 A85 d   1       3.154   1.426   9.807  0.00  0.00     0.165 HD
BRANCH  16  18
ATOM     18  C4  A85 d   1       4.356   3.041   8.410  0.00  0.00    -0.014 C 
ATOM     19  H1  A85 d   1       4.781   3.734   7.669  0.00  0.00     0.056 H 
ATOM     20  H2  A85 d   1       3.488   2.525   7.974  0.00  0.00     0.056 H 
ATOM     21  H3  A85 d   1       5.117   2.300   8.697  0.00  0.00     0.056 H 
ENDBRANCH  16  18
BRANCH  16  22
ATOM     22  C5  A85 d   1       4.208   5.197   9.557  0.00  0.00     0.038 C 
ATOM     23  H4  A85 d   1       3.429   5.726  10.125  0.00  0.00     0.074 H 
ATOM     24  H5  A85 d   1       4.198   5.542   8.513  0.00  0.00     0.074 H 
BRANCH  22  25
ATOM     25  C6  A85 d   1       5.553   5.501  10.164  0.00  0.00     0.052 A 
ATOM     26  C7  A85 d   1       5.699   5.562  11.575  0.00  0.00    -0.058 A 
ATOM     27  C9  A85 d   1       6.946   5.905  12.110  0.00  0.00    -0.080 A 
ATOM     28  H6  A85 d   1       4.860   5.347  12.226  0.00  0.00     0.086 H 
ATOM     29  C11 A85 d   1       7.994   6.190  11.234  0.00  0.00    -0.066 A 
ATOM     30  H7  A85 d   1       7.095   5.948  13.183  0.00  0.00     0.083 H 
ATOM     31  C10 A85 d   1       7.748   6.102   9.844  0.00  0.00     0.003 A 
ATOM     32  H9  A85 d   1       8.971   6.471  11.609  0.00  0.00     0.085 H 
ATOM     33  N8  A85 d   1       6.563   5.750   9.295  0.00  0.00    -0.264 NA
ATOM     34  H8  A85 d   1       8.566   6.333   9.172  0.00  0.00     0.114 H 
ENDBRANCH  22  25
ENDBRANCH  16  22
ENDBRANCH  11  13
BRANCH  11  35
ATOM     35  C25 A85 d   1       1.212   0.540  11.536  0.00  0.00    -0.033 C 
ATOM     36  H12 A85 d   1       1.410  -0.208  10.755  0.00  0.00     0.042 H 
BRANCH  35  37
ATOM     37  C26 A85 d   1       0.690  -0.189  12.781  0.00  0.00    -0.071 C 
ATOM     38  H13 A85 d   1      -0.256  -0.696  12.539  0.00  0.00     0.028 H 
ATOM     39  H14 A85 d   1       0.520   0.539  13.588  0.00  0.00     0.028 H 
ATOM     40  H15 A85 d   1       1.431  -0.933  13.108  0.00  0.00     0.028 H 
ENDBRANCH  35  37
BRANCH  35  41
ATOM     41  C27 A85 d   1       0.127   1.502  11.010  0.00  0.00    -0.071 C 
ATOM     42  H16 A85 d   1       0.502   2.024  10.117  0.00  0.00     0.028 H 
ATOM     43  H17 A85 d   1      -0.119   2.238  11.789  0.00  0.00     0.028 H 
ATOM     44  H18 A85 d   1      -0.775   0.929  10.748  0.00  0.00     0.028 H 
ENDBRANCH  35  41
ENDBRANCH  11  35
ENDBRANCH   8  11
ENDBRANCH   5   7
BRANCH   5  45
ATOM     45  C39 A85 d   1       6.758   0.906  14.010  0.00  0.00    -0.017 C 
ATOM     46  H21 A85 d   1       7.491   0.330  14.593  0.00  0.00     0.043 H 
ATOM     47  H22 A85 d   1       6.660   1.915  14.438  0.00  0.00     0.043 H 
BRANCH  45  48
ATOM     48  C40 A85 d   1       7.191   0.995  12.600  0.00  0.00    -0.056 A 
ATOM     49  C41 A85 d   1       6.962   2.166  11.877  0.00  0.00    -0.077 A 
ATOM     50  C42 A85 d   1       7.318   2.226  10.529  0.00  0.00    -0.082 A 
ATOM     51  H23 A85 d   1       6.510   3.025  12.360  0.00  0.00     0.084 H 
ATOM     52  C43 A85 d   1       7.891   1.111   9.916  0.00  0.00    -0.083 A 
ATOM     53  H24 A85 d   1       7.150   3.134   9.961  0.00  0.00     0.083 H 
ATOM     54  C44 A85 d   1       8.126  -0.059  10.646  0.00  0.00    -0.082 A 
ATOM     55  H25 A85 d   1       8.156   1.152   8.866  0.00  0.00     0.083 H 
ATOM     56  C45 A85 d   1       7.779  -0.117  11.986  0.00  0.00    -0.077 A 
ATOM     57  H26 A85 d   1       8.579  -0.918  10.164  0.00  0.00     0.083 H 
ATOM     58  H27 A85 d   1       7.962  -1.020  12.557  0.00  0.00     0.084 H 
ENDBRANCH  45  48
ENDBRANCH   5  45
ENDBRANCH   2   5
ENDBRANCH   1   2
BRANCH   1  59
ATOM     59  O47 A85 d   1       6.728  -1.148  16.133  0.00  0.00    -0.359 OA
ATOM     60  H28 A85 d   1       7.119  -0.309  16.346  0.00  0.00     0.213 HD
ENDBRANCH   1  59
BRANCH   1  61
ATOM     61  O48 A85 d   1       5.140  -0.754  17.649  0.00  0.00    -0.359 OA
ATOM     62  H29 A85 d   1       5.552   0.080  17.842  0.00  0.00     0.213 HD
ENDBRANCH   1  61
BRANCH   1  63
ATOM     63  C51 A85 d   1       4.725  -2.442  15.974  0.00  0.00     0.076 C 
ATOM     64  H31 A85 d   1       4.619  -2.499  14.881  0.00  0.00     0.081 H 
BRANCH  63  65
ATOM     65  C52 A85 d   1       3.338  -2.744  16.581  0.00  0.00    -0.017 C 
ATOM     66  H32 A85 d   1       2.589  -2.066  16.146  0.00  0.00     0.043 H 
ATOM     67  H33 A85 d   1       3.373  -2.600  17.671  0.00  0.00     0.043 H 
BRANCH  65  68
ATOM     68  C53 A85 d   1       2.969  -4.164  16.273  0.00  0.00    -0.056 A 
ATOM     69  C54 A85 d   1       2.523  -4.526  14.994  0.00  0.00    -0.077 A 
ATOM     70  C55 A85 d   1       2.246  -5.869  14.683  0.00  0.00    -0.082 A 
ATOM     71  H34 A85 d   1       2.390  -3.762  14.236  0.00  0.00     0.084 H 
ATOM     72  C56 A85 d   1       2.426  -6.858  15.646  0.00  0.00    -0.083 A 
ATOM     73  H35 A85 d   1       1.892  -6.134  13.693  0.00  0.00     0.083 H 
ATOM     74  C57 A85 d   1       2.870  -6.495  16.916  0.00  0.00    -0.082 A 
ATOM     75  H36 A85 d   1       2.224  -7.897  15.411  0.00  0.00     0.083 H 
ATOM     76  C58 A85 d   1       3.135  -5.162  17.234  0.00  0.00    -0.077 A 
ATOM     77  H37 A85 d   1       3.012  -7.261  17.670  0.00  0.00     0.083 H 
ATOM     78  H38 A85 d   1       3.471  -4.901  18.231  0.00  0.00     0.084 H 
ENDBRANCH  65  68
ENDBRANCH  63  65
BRANCH  63  79
ATOM     79  N50 A85 d   1       5.672  -3.451  16.415  0.00  0.00    -0.349 N 
ATOM     80  C83 A85 d   1       6.508  -4.071  15.586  0.00  0.00     0.241 C 
ATOM     81  O84 A85 d   1       6.424  -3.960  14.381  0.00  0.00    -0.271 OA
ATOM     82  H30 A85 d   1       5.697  -3.691  17.386  0.00  0.00     0.163 HD
BRANCH  80  83
ATOM     83  C82 A85 d   1       7.601  -4.863  16.297  0.00  0.00     0.093 C 
ATOM     84  H40 A85 d   1       7.833  -4.330  17.231  0.00  0.00     0.088 H 
BRANCH  83  85
ATOM     85  N81 A85 d   1       7.086  -6.163  16.648  0.00  0.00    -0.329 N 
ATOM     86  C97 A85 d   1       6.860  -6.557  17.931  0.00  0.00     0.319 C 
ATOM     87  O98 A85 d   1       7.185  -5.867  18.891  0.00  0.00    -0.247 OA
ATOM     88  N99 A85 d   1       6.294  -7.770  18.131  0.00  0.00    -0.333 N 
ATOM     89  H39 A85 d   1       6.885  -6.808  15.911  0.00  0.00     0.165 HD
BRANCH  88  90
ATOM     90  C2  A85 d   1       5.869  -8.630  17.016  0.00  0.00    -0.014 C 
ATOM     91  H48 A85 d   1       5.439  -9.561  17.414  0.00  0.00     0.056 H 
ATOM     92  H49 A85 d   1       6.738  -8.868  16.385  0.00  0.00     0.056 H 
ATOM     93  H50 A85 d   1       5.112  -8.104  16.415  0.00  0.00     0.056 H 
ENDBRANCH  88  90
BRANCH  88  94
ATOM     94  C3  A85 d   1       6.061  -8.257  19.487  0.00  0.00     0.038 C 
ATOM     95  H51 A85 d   1       6.801  -7.806  20.164  0.00  0.00     0.074 H 
ATOM     96  H52 A85 d   1       6.171  -9.351  19.500  0.00  0.00     0.074 H 
BRANCH  94  97
ATOM     97  C8  A85 d   1       4.668  -7.893  19.962  0.00  0.00     0.052 A 
ATOM     98  C12 A85 d   1       4.429  -6.626  20.536  0.00  0.00    -0.058 A 
ATOM     99  C13 A85 d   1       3.130  -6.316  20.958  0.00  0.00    -0.080 A 
ATOM    100  H53 A85 d   1       5.234  -5.908  20.648  0.00  0.00     0.086 H 
ATOM    101  C15 A85 d   1       2.128  -7.274  20.783  0.00  0.00    -0.066 A 
ATOM    102  H54 A85 d   1       2.907  -5.356  21.410  0.00  0.00     0.083 H 
ATOM    103  C14 A85 d   1       2.462  -8.500  20.203  0.00  0.00     0.003 A 
ATOM    104  H56 A85 d   1       1.109  -7.069  21.092  0.00  0.00     0.085 H 
ATOM    105  N10 A85 d   1       3.696  -8.820  19.807  0.00  0.00    -0.264 NA
ATOM    106  H55 A85 d   1       1.675  -9.233  20.067  0.00  0.00     0.114 H 
ENDBRANCH  94  97
ENDBRANCH  88  94
ENDBRANCH  83  85
BRANCH  83 107
ATOM    107  C85 A85 d   1       8.908  -4.976  15.521  0.00  0.00    -0.033 C 
ATOM    108  H41 A85 d   1       8.705  -5.431  14.540  0.00  0.00     0.042 H 
BRANCH 107 109
ATOM    109  C86 A85 d   1       9.812  -5.917  16.329  0.00  0.00    -0.071 C 
ATOM    110  H42 A85 d   1      10.775  -6.035  15.811  0.00  0.00     0.028 H 
ATOM    111  H43 A85 d   1       9.326  -6.899  16.426  0.00  0.00     0.028 H 
ATOM    112  H44 A85 d   1       9.983  -5.492  17.329  0.00  0.00     0.028 H 
ENDBRANCH 107 109
BRANCH 107 113
ATOM    113  C87 A85 d   1       9.558  -3.593  15.278  0.00  0.00    -0.071 C 
ATOM    114  H45 A85 d   1       8.870  -2.962  14.697  0.00  0.00     0.028 H 
ATOM    115  H46 A85 d   1      10.497  -3.722  14.720  0.00  0.00     0.028 H 
ATOM    116  H47 A85 d   1       9.769  -3.112  16.244  0.00  0.00     0.028 H 
ENDBRANCH 107 113
ENDBRANCH  83 107
ENDBRANCH  80  83
ENDBRANCH  63  79
ENDBRANCH   1  63
TORSDOF 27
