REMARK  10 active torsions:
REMARK  status: ('A' for Active; 'I' for Inactive)
REMARK    1  A    between atoms: P1_2  and  O2_5 
REMARK    2  A    between atoms: P1_2  and  O3_4 
REMARK    3  A    between atoms: O3_4  and  C4A_18 
REMARK    4  A    between atoms: O2_5  and  C1_6 
REMARK    5  A    between atoms: C1_6  and  C2_7 
REMARK    6  A    between atoms: C2_7  and  N1_8 
REMARK    7  A    between atoms: N1_8  and  C4_11 
REMARK    8  A    between atoms: N1_8  and  C5_10 
REMARK    9  A    between atoms: N1_8  and  C3_9 
REMARK   10  A    between atoms: C1A_12  and  N1A_13 
ROOT
ATOM      1  C1  NCH d   1     104.402  22.582  19.670  0.00  0.00     0.054 C 
ATOM      2  H1  NCH d   1     104.912  21.901  18.973  0.00  0.00     0.077 H 
ATOM      3  H2  NCH d   1     103.577  23.089  19.149  0.00  0.00     0.077 H 
ENDROOT
BRANCH   1   4
ATOM      4  O2  NCH d   1     105.329  23.556  20.133  0.00  0.00    -0.288 OA
BRANCH   4   5
ATOM      5  P1  NCH d   1     106.549  23.780  19.109  0.00  0.00     0.413 P 
ATOM      6  O4  NCH d   1     106.049  23.874  17.730  0.00  0.00    -0.624 OA
ATOM      7  O1  NCH d   1     107.432  22.601  19.243  0.00  0.00    -0.624 OA
BRANCH   5   8
ATOM      8  O3  NCH d   1     107.335  25.089  19.476  0.00  0.00    -0.247 OA
BRANCH   8   9
ATOM      9  C4A NCH d   1     107.338  26.226  18.345  0.00  0.00     0.082 A 
ATOM     10  C5A NCH d   1     106.180  26.665  17.751  0.00  0.00    -0.048 A 
ATOM     11  C6A NCH d   1     106.212  27.668  16.795  0.00  0.00    -0.048 A 
ATOM     12  H16 NCH d   1     105.231  26.223  18.033  0.00  0.00     0.087 H 
ATOM     13  C1A NCH d   1     107.388  28.242  16.432  0.00  0.00     0.103 A 
ATOM     14  H17 NCH d   1     105.289  27.998  16.332  0.00  0.00     0.087 H 
ATOM     15  C2A NCH d   1     108.552  27.828  17.017  0.00  0.00    -0.048 A 
ATOM     16  C3A NCH d   1     108.522  26.830  17.965  0.00  0.00    -0.048 A 
ATOM     17  H14 NCH d   1     109.495  28.284  16.736  0.00  0.00     0.087 H 
ATOM     18  H15 NCH d   1     109.450  26.510  18.425  0.00  0.00     0.087 H 
BRANCH  13  19
ATOM     19  N1A NCH d   1     107.388  29.284  15.439  0.00  0.00    -0.116 N 
ATOM     20  O2N NCH d   1     106.133  29.627  14.918  0.00  0.00    -0.532 OA
ATOM     21  O1N NCH d   1     108.602  29.880  15.070  0.00  0.00    -0.532 OA
ENDBRANCH  13  19
ENDBRANCH   8   9
ENDBRANCH   5   8
ENDBRANCH   4   5
ENDBRANCH   1   4
BRANCH   1  22
ATOM     22  C2  NCH d   1     103.845  21.786  20.817  0.00  0.00     0.104 C 
ATOM     23  H3  NCH d   1     103.729  22.428  21.703  0.00  0.00     0.079 H 
ATOM     24  H4  NCH d   1     104.515  20.947  21.057  0.00  0.00     0.079 H 
BRANCH  22  25
ATOM     25  N1  NCH d   1     102.508  21.270  20.374  0.00  0.00    -0.077 N 
BRANCH  25  26
ATOM     26  C4  NCH d   1     101.812  20.433  21.437  0.00  0.00     0.067 C 
ATOM     27  H11 NCH d   1     101.605  21.058  22.318  0.00  0.00     0.068 H 
ATOM     28  H12 NCH d   1     102.462  19.594  21.727  0.00  0.00     0.068 H 
ATOM     29  H13 NCH d   1     100.866  20.041  21.034  0.00  0.00     0.068 H 
ENDBRANCH  25  26
BRANCH  25  30
ATOM     30  C5  NCH d   1     101.649  22.426  19.900  0.00  0.00     0.067 C 
ATOM     31  H8  NCH d   1     101.552  23.166  20.708  0.00  0.00     0.068 H 
ATOM     32  H9  NCH d   1     100.652  22.053  19.624  0.00  0.00     0.068 H 
ATOM     33  H10 NCH d   1     102.120  22.898  19.025  0.00  0.00     0.068 H 
ENDBRANCH  25  30
BRANCH  25  34
ATOM     34  C3  NCH d   1     102.678  20.214  19.301  0.00  0.00     0.067 C 
ATOM     35  H5  NCH d   1     101.689  19.847  18.988  0.00  0.00     0.068 H 
ATOM     36  H6  NCH d   1     103.270  19.377  19.700  0.00  0.00     0.068 H 
ATOM     37  H7  NCH d   1     103.198  20.651  18.436  0.00  0.00     0.068 H 
ENDBRANCH  25  34
ENDBRANCH  22  25
ENDBRANCH   1  22
TORSDOF 10
