REMARK  12 active torsions:
REMARK  status: ('A' for Active; 'I' for Inactive)
REMARK    1  A    between atoms: N2_3  and  C2_4 
REMARK    2  A    between atoms: C2_4  and  C20_13 
REMARK    3  A    between atoms: C3_5  and  C31_20 
REMARK    4  A    between atoms: C4_6  and  O4_7 
REMARK    5  A    between atoms: C5_8  and  O5_9 
REMARK    6  A    between atoms: C6_10  and  C61_27 
REMARK    7  A    between atoms: N7_11  and  C7_12 
REMARK    8  A    between atoms: C7_12  and  C70_34 
REMARK    9  A    between atoms: C28_17  and  N29_18 
REMARK   10  A    between atoms: C31_20  and  C32_21 
REMARK   11  A    between atoms: C61_27  and  C62_28 
REMARK   12  A    between atoms: C72_36  and  N79_37 
ROOT
ATOM      1  C1  DMQ d   1      -8.890  15.322  27.739  0.00  0.00     0.322 C 
ATOM      2  O1  DMQ d   1      -8.408  14.213  27.620  0.00  0.00    -0.247 OA
ATOM      3  N2  DMQ d   1      -8.609  16.169  26.740  0.00  0.00    -0.322 N 
ATOM      4  C3  DMQ d   1      -8.678  17.649  26.914  0.00  0.00     0.047 C 
ATOM      5  C4  DMQ d   1     -10.018  18.272  27.161  0.00  0.00     0.082 C 
ATOM      6  C5  DMQ d   1     -10.591  18.023  28.535  0.00  0.00     0.082 C 
ATOM      7  C6  DMQ d   1     -10.830  16.559  28.855  0.00  0.00     0.047 C 
ATOM      8  N7  DMQ d   1      -9.636  15.647  28.845  0.00  0.00    -0.322 N 
ATOM      9  H3  DMQ d   1      -8.417  18.038  25.919  0.00  0.00     0.077 H 
ATOM     10  H4  DMQ d   1     -10.739  17.884  26.427  0.00  0.00     0.090 H 
ATOM     11  H6  DMQ d   1      -9.921  18.454  29.294  0.00  0.00     0.090 H 
ATOM     12  H8  DMQ d   1     -11.146  16.585  29.908  0.00  0.00     0.077 H 
ENDROOT
BRANCH   3  13
ATOM     13  C2  DMQ d   1      -8.033  15.586  25.485  0.00  0.00     0.024 C 
ATOM     14  H1  DMQ d   1      -8.093  14.490  25.559  0.00  0.00     0.071 H 
ATOM     15  H2  DMQ d   1      -6.978  15.892  25.419  0.00  0.00     0.071 H 
BRANCH  13  16
ATOM     16  C20 DMQ d   1      -8.717  16.004  24.221  0.00  0.00    -0.038 A 
ATOM     17  C29 DMQ d   1      -7.982  16.516  23.146  0.00  0.00    -0.050 A 
ATOM     18  C28 DMQ d   1      -8.669  16.959  21.996  0.00  0.00     0.026 A 
ATOM     19  H16 DMQ d   1      -6.901  16.572  23.196  0.00  0.00     0.087 H 
ATOM     20  C23 DMQ d   1     -10.079  16.849  21.907  0.00  0.00    -0.058 A 
ATOM     21  C22 DMQ d   1     -10.814  16.327  22.975  0.00  0.00    -0.080 A 
ATOM     22  H13 DMQ d   1     -10.590  17.171  21.007  0.00  0.00     0.086 H 
ATOM     23  C21 DMQ d   1     -10.116  15.918  24.124  0.00  0.00    -0.075 A 
ATOM     24  H12 DMQ d   1     -11.893  16.240  22.919  0.00  0.00     0.083 H 
ATOM     25  H11 DMQ d   1     -10.676  15.523  24.964  0.00  0.00     0.084 H 
BRANCH  18  26
ATOM     26  N29 DMQ d   1      -7.981  17.669  20.975  0.00  0.00    -0.399 N 
ATOM     27  H14 DMQ d   1      -6.956  17.764  21.015  0.00  0.00     0.156 HD
ATOM     28  H15 DMQ d   1      -8.507  18.088  20.195  0.00  0.00     0.156 HD
ENDBRANCH  18  26
ENDBRANCH  13  16
ENDBRANCH   3  13
BRANCH   4  29
ATOM     29  C31 DMQ d   1      -7.525  18.131  27.814  0.00  0.00    -0.019 C 
ATOM     30  H17 DMQ d   1      -7.413  17.450  28.671  0.00  0.00     0.043 H 
ATOM     31  H18 DMQ d   1      -7.738  19.147  28.178  0.00  0.00     0.043 H 
BRANCH  29  32
ATOM     32  C32 DMQ d   1      -6.244  18.138  26.992  0.00  0.00    -0.056 A 
ATOM     33  C37 DMQ d   1      -6.091  19.088  25.947  0.00  0.00    -0.077 A 
ATOM     34  C36 DMQ d   1      -4.927  19.075  25.152  0.00  0.00    -0.082 A 
ATOM     35  H23 DMQ d   1      -6.867  19.821  25.761  0.00  0.00     0.084 H 
ATOM     36  C35 DMQ d   1      -3.921  18.118  25.420  0.00  0.00    -0.083 A 
ATOM     37  H22 DMQ d   1      -4.805  19.789  24.346  0.00  0.00     0.083 H 
ATOM     38  C34 DMQ d   1      -4.059  17.178  26.454  0.00  0.00    -0.082 A 
ATOM     39  H21 DMQ d   1      -3.023  18.110  24.813  0.00  0.00     0.083 H 
ATOM     40  C33 DMQ d   1      -5.223  17.185  27.232  0.00  0.00    -0.077 A 
ATOM     41  H20 DMQ d   1      -3.274  16.456  26.648  0.00  0.00     0.083 H 
ATOM     42  H19 DMQ d   1      -5.344  16.455  28.024  0.00  0.00     0.084 H 
ENDBRANCH  29  32
ENDBRANCH   4  29
BRANCH   8  43
ATOM     43  C7  DMQ d   1      -9.413  14.875  30.096  0.00  0.00     0.024 C 
ATOM     44  H9  DMQ d   1      -8.402  14.447  30.033  0.00  0.00     0.071 H 
ATOM     45  H10 DMQ d   1     -10.155  14.063  30.109  0.00  0.00     0.071 H 
BRANCH  43  46
ATOM     46  C70 DMQ d   1      -9.510  15.583  31.430  0.00  0.00    -0.038 A 
ATOM     47  C79 DMQ d   1      -8.607  16.622  31.763  0.00  0.00    -0.075 A 
ATOM     48  C78 DMQ d   1      -8.641  17.201  33.048  0.00  0.00    -0.080 A 
ATOM     49  H36 DMQ d   1      -7.890  16.972  31.030  0.00  0.00     0.084 H 
ATOM     50  C77 DMQ d   1      -9.581  16.725  34.002  0.00  0.00    -0.058 A 
ATOM     51  H35 DMQ d   1      -7.957  18.001  33.306  0.00  0.00     0.083 H 
ATOM     52  C72 DMQ d   1     -10.486  15.697  33.669  0.00  0.00     0.026 A 
ATOM     53  H34 DMQ d   1      -9.602  17.157  34.996  0.00  0.00     0.086 H 
ATOM     54  C71 DMQ d   1     -10.455  15.134  32.380  0.00  0.00    -0.050 A 
ATOM     55  H31 DMQ d   1     -11.158  14.353  32.115  0.00  0.00     0.087 H 
BRANCH  52  56
ATOM     56  N79 DMQ d   1     -11.411  15.221  34.649  0.00  0.00    -0.399 N 
ATOM     57  H32 DMQ d   1     -11.426  15.640  35.590  0.00  0.00     0.156 HD
ATOM     58  H33 DMQ d   1     -12.063  14.459  34.414  0.00  0.00     0.156 HD
ENDBRANCH  52  56
ENDBRANCH  43  46
ENDBRANCH   8  43
BRANCH   5  59
ATOM     59  O4  DMQ d   1      -9.786  19.625  26.924  0.00  0.00    -0.391 OA
ATOM     60  H5  DMQ d   1      -9.169  19.956  27.566  0.00  0.00     0.210 HD
ENDBRANCH   5  59
BRANCH   7  61
ATOM     61  C61 DMQ d   1     -12.020  15.857  28.104  0.00  0.00    -0.019 C 
ATOM     62  H24 DMQ d   1     -11.677  15.583  27.095  0.00  0.00     0.043 H 
ATOM     63  H25 DMQ d   1     -12.850  16.575  28.027  0.00  0.00     0.043 H 
BRANCH  61  64
ATOM     64  C62 DMQ d   1     -12.541  14.596  28.791  0.00  0.00    -0.056 A 
ATOM     65  C67 DMQ d   1     -12.132  13.312  28.339  0.00  0.00    -0.077 A 
ATOM     66  C66 DMQ d   1     -12.536  12.147  29.028  0.00  0.00    -0.082 A 
ATOM     67  H30 DMQ d   1     -11.505  13.226  27.459  0.00  0.00     0.084 H 
ATOM     68  C65 DMQ d   1     -13.357  12.280  30.172  0.00  0.00    -0.083 A 
ATOM     69  H29 DMQ d   1     -12.222  11.168  28.686  0.00  0.00     0.083 H 
ATOM     70  C64 DMQ d   1     -13.778  13.548  30.621  0.00  0.00    -0.082 A 
ATOM     71  H28 DMQ d   1     -13.667  11.393  30.712  0.00  0.00     0.083 H 
ATOM     72  C63 DMQ d   1     -13.371  14.700  29.926  0.00  0.00    -0.077 A 
ATOM     73  H27 DMQ d   1     -14.411  13.634  31.496  0.00  0.00     0.083 H 
ATOM     74  H26 DMQ d   1     -13.698  15.676  30.265  0.00  0.00     0.084 H 
ENDBRANCH  61  64
ENDBRANCH   7  61
BRANCH   6  75
ATOM     75  O5  DMQ d   1     -11.823  18.647  28.554  0.00  0.00    -0.391 OA
ATOM     76  H7  DMQ d   1     -11.712  19.570  28.357  0.00  0.00     0.210 HD
ENDBRANCH   6  75
TORSDOF 12
