REMARK  6 active torsions:
REMARK  status: ('A' for Active; 'I' for Inactive)
REMARK    1  A    between atoms: P_1  and  O5'_6 
REMARK    2  A    between atoms: O5'_6  and  C5'_7 
REMARK    3  A    between atoms: C5'_7  and  C4'_8 
REMARK    4  A    between atoms: C3'_10  and  O3'_11 
REMARK    5  A    between atoms: C2'_12  and  O2'_13 
REMARK    6  A    between atoms: C1'_14  and  C9_15 
ROOT
ATOM      1  C4' IMU d   1      20.911   8.277  48.438  0.00  0.00     0.150 C 
ATOM      2  N4' IMU d   1      21.418   8.390  49.816  0.00  0.00    -0.055 N 
ATOM      3  C3' IMU d   1      19.522   8.842  48.516  0.00  0.00     0.092 C 
ATOM      4  C2' IMU d   1      19.078   8.269  49.796  0.00  0.00     0.094 C 
ATOM      5  C1' IMU d   1      20.314   8.414  50.773  0.00  0.00     0.158 C 
ATOM      6  H3  IMU d   1      20.846   7.210  48.178  0.00  0.00     0.091 H 
ATOM      7  H4  IMU d   1      21.950   9.241  49.904  0.00  0.00     0.278 HD
ATOM      8  H5  IMU d   1      22.012   7.600  50.016  0.00  0.00     0.278 HD
ATOM      9  H6  IMU d   1      19.534   9.940  48.576  0.00  0.00     0.090 H 
ATOM     10  H8  IMU d   1      18.254   8.881  50.191  0.00  0.00     0.090 H 
ATOM     11  H10 IMU d   1      20.395   7.613  51.522  0.00  0.00     0.096 H 
ENDROOT
BRANCH   5  12
ATOM     12  C9  IMU d   1      20.104   9.786  51.432  0.00  0.00     0.022 A 
ATOM     13  C8  IMU d   1      20.603  11.034  51.008  0.00  0.00    -0.012 A 
ATOM     14  N7  IMU d   1      20.243  12.052  51.756  0.00  0.00    -0.359 N 
ATOM     15  H11 IMU d   1      21.237  11.146  50.130  0.00  0.00     0.112 H 
ATOM     16  C5  IMU d   1      19.458  11.486  52.744  0.00  0.00     0.130 A 
ATOM     17  H12 IMU d   1      20.489  13.045  51.635  0.00  0.00     0.165 HD
ATOM     18  C6  IMU d   1      18.764  12.107  53.853  0.00  0.00     0.277 A 
ATOM     19  C4  IMU d   1      19.364  10.089  52.576  0.00  0.00     0.102 A 
ATOM     20  O6  IMU d   1      18.734  13.287  54.132  0.00  0.00    -0.266 OA
ATOM     21  N1  IMU d   1      18.063  11.193  54.661  0.00  0.00    -0.292 N 
ATOM     22  C2  IMU d   1      18.005   9.805  54.459  0.00  0.00     0.203 A 
ATOM     23  H13 IMU d   1      17.564  11.563  55.445  0.00  0.00     0.172 HD
ATOM     24  N3  IMU d   1      18.653   9.198  53.400  0.00  0.00    -0.212 NA
ATOM     25  N2  IMU d   1      17.295   9.091  55.327  0.00  0.00    -0.369 N 
ATOM     26  H14 IMU d   1      17.225   8.069  55.218  0.00  0.00     0.159 HD
ATOM     27  H15 IMU d   1      16.815   9.560  56.109  0.00  0.00     0.159 HD
ENDBRANCH   5  12
BRANCH   4  28
ATOM     28  O2' IMU d   1      18.573   6.936  49.650  0.00  0.00    -0.390 OA
ATOM     29  H9  IMU d   1      17.831   6.943  49.057  0.00  0.00     0.210 HD
ENDBRANCH   4  28
BRANCH   1  30
ATOM     30  C5' IMU d   1      21.753   8.917  47.394  0.00  0.00     0.061 C 
ATOM     31  H1  IMU d   1      22.506   8.197  47.042  0.00  0.00     0.078 H 
ATOM     32  H2  IMU d   1      21.117   9.223  46.551  0.00  0.00     0.078 H 
BRANCH  30  33
ATOM     33  O5' IMU d   1      22.413  10.068  47.932  0.00  0.00    -0.281 OA
BRANCH  33  34
ATOM     34  P   IMU d   1      23.404  11.006  47.159  0.00  0.00     0.422 P 
ATOM     35  O1P IMU d   1      24.026  11.882  48.177  0.00  0.00    -0.617 OA
ATOM     36  O2P IMU d   1      22.737  11.756  46.077  0.00  0.00    -0.617 OA
ATOM     37  O3P IMU d   1      24.453  10.081  46.637  0.00  0.00    -0.617 OA
ENDBRANCH  33  34
ENDBRANCH  30  33
ENDBRANCH   1  30
BRANCH   3  38
ATOM     38  O3' IMU d   1      18.780   8.463  47.358  0.00  0.00    -0.391 OA
ATOM     39  H7  IMU d   1      18.732   7.515  47.310  0.00  0.00     0.210 HD
ENDBRANCH   3  38
TORSDOF 6
