REMARK  4 active torsions:
REMARK  status: ('A' for Active; 'I' for Inactive)
REMARK    1  A    between atoms: C1_1  and  O1_6 
REMARK    2  A    between atoms: C2_2  and  O2_7 
REMARK    3  A    between atoms: C3_3  and  O3_8 
REMARK    4  A    between atoms: C4_4  and  O4_9 
ROOT
ATOM      1  C1  RIP d   1      49.732  33.632  43.618  0.00  0.00     0.155 C 
ATOM      2  C2  RIP d   1      49.036  33.099  44.894  0.00  0.00     0.110 C 
ATOM      3  C3  RIP d   1      48.701  34.269  45.823  0.00  0.00     0.091 C 
ATOM      4  C4  RIP d   1      49.947  35.132  46.049  0.00  0.00     0.083 C 
ATOM      5  C5  RIP d   1      50.577  35.563  44.747  0.00  0.00     0.049 C 
ATOM      6  O5  RIP d   1      50.878  34.425  43.967  0.00  0.00    -0.356 OA
ATOM      7  H1  RIP d   1      49.016  34.260  43.068  0.00  0.00     0.133 H 
ATOM      8  H2  RIP d   1      49.728  32.418  45.411  0.00  0.00     0.094 H 
ATOM      9  H3  RIP d   1      48.369  33.867  46.792  0.00  0.00     0.091 H 
ATOM     10  H4  RIP d   1      50.679  34.546  46.624  0.00  0.00     0.090 H 
ATOM     11  H5  RIP d   1      51.503  36.120  44.955  0.00  0.00     0.078 H 
ATOM     12  H6  RIP d   1      49.876  36.209  44.197  0.00  0.00     0.078 H 
ENDROOT
BRANCH   1  13
ATOM     13  O1  RIP d   1      50.148  32.576  42.779  0.00  0.00    -0.369 OA
ATOM     14  H7  RIP d   1      50.783  32.040  43.238  0.00  0.00     0.212 HD
ENDBRANCH   1  13
BRANCH   2  15
ATOM     15  O2  RIP d   1      47.840  32.383  44.582  0.00  0.00    -0.388 OA
ATOM     16  H8  RIP d   1      48.051  31.643  44.024  0.00  0.00     0.210 HD
ENDBRANCH   2  15
BRANCH   3  17
ATOM     17  O3  RIP d   1      47.653  35.053  45.273  0.00  0.00    -0.390 OA
ATOM     18  H9  RIP d   1      47.457  35.774  45.860  0.00  0.00     0.210 HD
ENDBRANCH   3  17
BRANCH   4  19
ATOM     19  O4  RIP d   1      49.611  36.278  46.764  0.00  0.00    -0.391 OA
ATOM     20  H10 RIP d   1      49.246  36.029  47.605  0.00  0.00     0.210 HD
ENDBRANCH   4  19
TORSDOF 4
