REMARK  17 active torsions:
REMARK  status: ('A' for Active; 'I' for Inactive)
REMARK    1  A    between atoms: AP_1  and  AO5_4 
REMARK    2  A    between atoms: AP_1  and  O3_23 
REMARK    3  A    between atoms: AO5_4  and  AC5_5 
REMARK    4  A    between atoms: AC5_5  and  AC4_6 
REMARK    5  A    between atoms: AC3_8  and  AO3_9 
REMARK    6  A    between atoms: AC2_10  and  AO2_11 
REMARK    7  A    between atoms: AC1_12  and  AN9_13 
REMARK    8  A    between atoms: AC6_17  and  AN6_18 
REMARK    9  A    between atoms: O3_23  and  NP_24 
REMARK   10  A    between atoms: NP_24  and  NO5_27 
REMARK   11  A    between atoms: NO5_27  and  NC5_28 
REMARK   12  A    between atoms: NC5_28  and  NC4_29 
REMARK   13  A    between atoms: NC3_31  and  NO3_32 
REMARK   14  A    between atoms: NC2_33  and  NO2_34 
REMARK   15  A    between atoms: NC1_35  and  NN1_36 
REMARK   16  A    between atoms: NC3_38  and  NC7_39 
REMARK   17  A    between atoms: NC7_39  and  NC8_41 
ROOT
ATOM      1  NP  A3D d   1       7.806  30.290  20.267  0.00  0.00     0.417 P 
ATOM      2  NO1 A3D d   1       6.608  30.352  21.100  0.00  0.00    -0.624 OA
ATOM      3  NO2 A3D d   1       8.312  31.528  19.672  0.00  0.00    -0.624 OA
ENDROOT
BRANCH   1   4
ATOM      4  O3  A3D d   1       7.060  29.295  19.472  0.00  0.00    -0.180 OA
BRANCH   4   5
ATOM      5  AP  A3D d   1       6.497  29.233  18.068  0.00  0.00     0.417 P 
ATOM      6  AO1 A3D d   1       5.398  30.094  17.583  0.00  0.00    -0.624 OA
ATOM      7  AO2 A3D d   1       6.150  27.839  17.788  0.00  0.00    -0.624 OA
BRANCH   5   8
ATOM      8  AO5 A3D d   1       7.702  29.548  17.049  0.00  0.00    -0.287 OA
BRANCH   8   9
ATOM      9  AC5 A3D d   1       8.567  28.513  16.689  0.00  0.00     0.058 C 
ATOM     10  H1  A3D d   1       7.993  27.656  16.306  0.00  0.00     0.079 H 
ATOM     11  H2  A3D d   1       9.162  28.197  17.559  0.00  0.00     0.079 H 
BRANCH   9  12
ATOM     12  AC4 A3D d   1       9.470  29.054  15.613  0.00  0.00     0.089 C 
ATOM     13  AO4 A3D d   1      10.532  28.148  15.197  0.00  0.00    -0.353 OA
ATOM     14  AC1 A3D d   1      10.443  27.903  13.793  0.00  0.00     0.139 C 
ATOM     15  AC2 A3D d   1       8.961  28.029  13.533  0.00  0.00     0.105 C 
ATOM     16  H8  A3D d   1      11.064  28.573  13.181  0.00  0.00     0.122 H 
ATOM     17  AC3 A3D d   1       8.745  29.341  14.310  0.00  0.00     0.091 C 
ATOM     18  H6  A3D d   1       8.367  27.213  13.971  0.00  0.00     0.093 H 
ATOM     19  H4  A3D d   1       7.679  29.579  14.437  0.00  0.00     0.091 H 
ATOM     20  H3  A3D d   1       9.916  29.983  15.998  0.00  0.00     0.090 H 
BRANCH  14  21
ATOM     21  AN9 A3D d   1      10.757  26.514  13.613  0.00  0.00    -0.294 N 
ATOM     22  AC8 A3D d   1      10.053  25.458  14.171  0.00  0.00     0.071 A 
ATOM     23  AN7 A3D d   1      10.675  24.311  13.994  0.00  0.00    -0.236 NA
ATOM     24  H9  A3D d   1       9.102  25.564  14.692  0.00  0.00     0.144 H 
ATOM     25  AC5 A3D d   1      11.787  24.616  13.201  0.00  0.00     0.149 A 
ATOM     26  AC6 A3D d   1      12.797  23.822  12.632  0.00  0.00     0.155 A 
ATOM     27  AC4 A3D d   1      11.856  25.981  12.958  0.00  0.00     0.167 A 
ATOM     28  AN1 A3D d   1      13.727  24.481  11.882  0.00  0.00    -0.222 NA
ATOM     29  AC2 A3D d   1      13.699  25.818  11.787  0.00  0.00     0.091 A 
ATOM     30  AN3 A3D d   1      12.791  26.660  12.269  0.00  0.00    -0.222 NA
ATOM     31  H12 A3D d   1      14.523  26.270  11.248  0.00  0.00     0.146 H 
BRANCH  26  32
ATOM     32  AN6 A3D d   1      12.919  22.481  12.789  0.00  0.00    -0.382 N 
ATOM     33  H10 A3D d   1      13.694  21.977  12.334  0.00  0.00     0.157 HD
ATOM     34  H11 A3D d   1      12.237  21.966  13.364  0.00  0.00     0.157 HD
ENDBRANCH  26  32
ENDBRANCH  14  21
BRANCH  15  35
ATOM     35  AO2 A3D d   1       8.791  28.020  12.122  0.00  0.00    -0.388 OA
ATOM     36  H7  A3D d   1       9.401  28.632  11.727  0.00  0.00     0.210 HD
ENDBRANCH  15  35
BRANCH  17  37
ATOM     37  AO3 A3D d   1       9.471  30.440  13.727  0.00  0.00    -0.390 OA
ATOM     38  H5  A3D d   1       9.446  31.184  14.318  0.00  0.00     0.210 HD
ENDBRANCH  17  37
ENDBRANCH   9  12
ENDBRANCH   8   9
ENDBRANCH   5   8
ENDBRANCH   4   5
ENDBRANCH   1   4
BRANCH   1  39
ATOM     39  NO5 A3D d   1       8.959  29.543  21.036  0.00  0.00    -0.287 OA
BRANCH  39  40
ATOM     40  NC5 A3D d   1      10.243  29.948  20.476  0.00  0.00     0.058 C 
ATOM     41  H13 A3D d   1      10.365  31.033  20.612  0.00  0.00     0.079 H 
ATOM     42  H14 A3D d   1      10.255  29.709  19.402  0.00  0.00     0.079 H 
BRANCH  40  43
ATOM     43  NC4 A3D d   1      11.410  29.230  21.156  0.00  0.00     0.089 C 
ATOM     44  NO4 A3D d   1      12.145  30.088  22.087  0.00  0.00    -0.353 OA
ATOM     45  NC1 A3D d   1      11.916  29.635  23.441  0.00  0.00     0.136 C 
ATOM     46  NC2 A3D d   1      10.711  28.703  23.333  0.00  0.00     0.105 C 
ATOM     47  H20 A3D d   1      12.798  29.096  23.818  0.00  0.00     0.122 H 
ATOM     48  NC3 A3D d   1      10.912  28.046  21.989  0.00  0.00     0.091 C 
ATOM     49  H18 A3D d   1       9.769  29.270  23.367  0.00  0.00     0.093 H 
ATOM     50  H16 A3D d   1       9.944  27.718  21.583  0.00  0.00     0.091 H 
ATOM     51  H15 A3D d   1      12.096  28.871  20.375  0.00  0.00     0.090 H 
BRANCH  45  52
ATOM     52  NN1 A3D d   1      11.589  30.752  24.363  0.00  0.00    -0.337 N 
ATOM     53  NC2 A3D d   1      12.545  31.178  25.190  0.00  0.00    -0.008 A 
ATOM     54  NC3 A3D d   1      12.560  32.214  26.023  0.00  0.00     0.006 A 
ATOM     55  H21 A3D d   1      13.457  30.583  25.181  0.00  0.00     0.112 H 
ATOM     56  NC4 A3D d   1      11.377  32.874  25.962  0.00  0.00    -0.020 A 
ATOM     57  NC5 A3D d   1      10.274  32.547  25.170  0.00  0.00    -0.084 A 
ATOM     58  H25 A3D d   1      11.640  33.902  25.672  0.00  0.00     0.046 H 
ATOM     59  H26 A3D d   1      10.996  32.870  26.994  0.00  0.00     0.046 H 
ATOM     60  NC6 A3D d   1      10.383  31.393  24.365  0.00  0.00    -0.021 A 
ATOM     61  H27 A3D d   1       9.371  33.155  25.174  0.00  0.00     0.079 H 
ATOM     62  H28 A3D d   1       9.544  31.030  23.773  0.00  0.00     0.111 H 
BRANCH  54  63
ATOM     63  NC7 A3D d   1      13.655  32.505  26.874  0.00  0.00     0.153 C 
ATOM     64  NO7 A3D d   1      13.471  33.266  27.842  0.00  0.00    -0.293 OA
BRANCH  63  65
ATOM     65  NC8 A3D d   1      14.991  31.776  26.709  0.00  0.00    -0.017 C 
ATOM     66  H22 A3D d   1      15.705  32.144  27.461  0.00  0.00     0.038 H 
ATOM     67  H23 A3D d   1      15.390  31.965  25.702  0.00  0.00     0.038 H 
ATOM     68  H24 A3D d   1      14.838  30.695  26.846  0.00  0.00     0.038 H 
ENDBRANCH  63  65
ENDBRANCH  54  63
ENDBRANCH  45  52
BRANCH  46  69
ATOM     69  NO2 A3D d   1      10.713  27.719  24.350  0.00  0.00    -0.388 OA
ATOM     70  H19 A3D d   1      11.545  27.261  24.344  0.00  0.00     0.210 HD
ENDBRANCH  46  69
BRANCH  48  71
ATOM     71  NO3 A3D d   1      11.748  26.843  22.089  0.00  0.00    -0.390 OA
ATOM     72  H17 A3D d   1      11.311  26.199  22.634  0.00  0.00     0.210 HD
ENDBRANCH  48  71
ENDBRANCH  40  43
ENDBRANCH  39  40
ENDBRANCH   1  39
TORSDOF 17
