REMARK  7 active torsions:
REMARK  status: ('A' for Active; 'I' for Inactive)
REMARK    1  A    between atoms: N1_1  and  C1'_9 
REMARK    2  A    between atoms: C3'_11  and  O3'_14 
REMARK    3  A    between atoms: C4'_12  and  C5'_15 
REMARK    4  A    between atoms: C5'_15  and  O5'_16 
REMARK    5  A    between atoms: O5'_16  and  PA_17 
REMARK    6  A    between atoms: PA_17  and  O3A_20 
REMARK    7  A    between atoms: O3A_20  and  PB_21 
ROOT
ATOM      1  C1' DUD d   1      -6.323  36.296  33.862  0.00  0.00     0.116 C 
ATOM      2  C2' DUD d   1      -6.436  36.871  35.262  0.00  0.00     0.002 C 
ATOM      3  C3' DUD d   1      -7.780  37.550  35.338  0.00  0.00     0.066 C 
ATOM      4  C4' DUD d   1      -8.616  36.848  34.266  0.00  0.00     0.087 C 
ATOM      5  O4' DUD d   1      -7.652  36.397  33.270  0.00  0.00    -0.356 OA
ATOM      6  H4  DUD d   1      -6.009  35.243  33.920  0.00  0.00     0.118 H 
ATOM      7  H5  DUD d   1      -5.631  37.600  35.440  0.00  0.00     0.043 H 
ATOM      8  H6  DUD d   1      -6.374  36.066  36.010  0.00  0.00     0.043 H 
ATOM      9  H7  DUD d   1      -7.699  38.630  35.144  0.00  0.00     0.087 H 
ATOM     10  H8  DUD d   1      -9.154  35.990  34.696  0.00  0.00     0.090 H 
ENDROOT
BRANCH   4  11
ATOM     11  C5' DUD d   1      -9.626  37.825  33.648  0.00  0.00     0.058 C 
ATOM     12  H10 DUD d   1     -10.357  38.113  34.418  0.00  0.00     0.079 H 
ATOM     13  H11 DUD d   1     -10.145  37.321  32.820  0.00  0.00     0.079 H 
BRANCH  11  14
ATOM     14  O5' DUD d   1      -8.981  39.036  33.133  0.00  0.00    -0.287 OA
BRANCH  14  15
ATOM     15  PA  DUD d   1      -9.654  40.501  32.969  0.00  0.00     0.418 P 
ATOM     16  O2A DUD d   1      -8.616  41.583  32.871  0.00  0.00    -0.624 OA
ATOM     17  O1A DUD d   1     -10.720  40.615  33.984  0.00  0.00    -0.624 OA
BRANCH  15  18
ATOM     18  O3A DUD d   1     -10.462  40.534  31.567  0.00  0.00    -0.173 OA
BRANCH  18  19
ATOM     19  PB  DUD d   1     -11.752  39.794  30.900  0.00  0.00     0.431 P 
ATOM     20  O3B DUD d   1     -13.012  40.001  31.978  0.00  0.00    -0.616 OA
ATOM     21  O2B DUD d   1     -12.048  40.625  29.709  0.00  0.00    -0.616 OA
ATOM     22  O1B DUD d   1     -11.491  38.339  30.707  0.00  0.00    -0.616 OA
ENDBRANCH  18  19
ENDBRANCH  15  18
ENDBRANCH  14  15
ENDBRANCH  11  14
ENDBRANCH   4  11
BRANCH   3  23
ATOM     23  O3' DUD d   1      -8.352  37.317  36.609  0.00  0.00    -0.393 OA
ATOM     24  H9  DUD d   1      -9.199  37.745  36.657  0.00  0.00     0.210 HD
ENDBRANCH   3  23
BRANCH   1  25
ATOM     25  N1  DUD d   1      -5.345  37.056  33.000  0.00  0.00    -0.282 N 
ATOM     26  C6  DUD d   1      -5.534  38.397  32.783  0.00  0.00    -0.008 A 
ATOM     27  C5  DUD d   1      -4.686  39.098  32.009  0.00  0.00    -0.002 A 
ATOM     28  H3  DUD d   1      -6.382  38.901  33.244  0.00  0.00     0.112 H 
ATOM     29  C4  DUD d   1      -3.556  38.480  31.405  0.00  0.00     0.250 A 
ATOM     30  H2  DUD d   1      -4.868  40.159  31.842  0.00  0.00     0.094 H 
ATOM     31  N3  DUD d   1      -3.411  37.132  31.702  0.00  0.00    -0.275 N 
ATOM     32  O4  DUD d   1      -2.697  39.053  30.745  0.00  0.00    -0.268 OA
ATOM     33  C2  DUD d   1      -4.265  36.395  32.454  0.00  0.00     0.331 A 
ATOM     34  H1  DUD d   1      -2.609  36.665  31.330  0.00  0.00     0.173 HD
ATOM     35  O2  DUD d   1      -4.026  35.187  32.625  0.00  0.00    -0.246 OA
ENDBRANCH   1  25
TORSDOF 7
