REMARK  10 active torsions:
REMARK  status: ('A' for Active; 'I' for Inactive)
REMARK    1  A    between atoms: S_1  and  N2_16 
REMARK    2  A    between atoms: N2_16  and  P_5 
REMARK    3  A    between atoms: P_5  and  N1_8 
REMARK    4  A    between atoms: P_5  and  N_6 
REMARK    5  A    between atoms: N1_8  and  C4_15 
REMARK    6  A    between atoms: C1_12  and  C_9 
REMARK    7  A    between atoms: C2_13  and  C1_12 
REMARK    8  A    between atoms: C1_12  and  N3_17 
REMARK    9  A    between atoms: C3_14  and  C2_13 
REMARK   10  A    between atoms: C4_15  and  C3_14 
ROOT
ATOM      1  C4  PSQ d   1      27.479  11.964  25.298  0.00  0.00    -0.003 C 
ATOM      2  H9  PSQ d   1      26.498  11.466  25.291  0.00  0.00     0.064 H 
ATOM      3  H10 PSQ d   1      27.773  12.180  26.336  0.00  0.00     0.064 H 
ENDROOT
BRANCH   1   4
ATOM      4  N1  PSQ d   1      27.446  13.206  24.490  0.00  0.00    -0.339 N 
ATOM      5  H3  PSQ d   1      28.097  13.359  23.746  0.00  0.00     0.164 HD
BRANCH   4   6
ATOM      6  P   PSQ d   1      26.319  14.301  24.857  0.00  0.00     0.354 P 
ATOM      7  O3  PSQ d   1      26.632  14.749  26.273  0.00  0.00    -0.249 OA
BRANCH   6   8
ATOM      8  N2  PSQ d   1      26.394  15.535  23.707  0.00  0.00    -0.213 N 
ATOM      9  H11 PSQ d   1      25.600  15.675  23.116  0.00  0.00     0.186 HD
BRANCH   8  10
ATOM     10  S   PSQ d   1      27.657  16.491  23.507  0.00  0.00     0.212 S 
ATOM     11  O2  PSQ d   1      27.722  17.466  24.742  0.00  0.00    -0.578 OA
ATOM     12  O1  PSQ d   1      28.792  15.787  23.418  0.00  0.00    -0.578 OA
ATOM     13  O   PSQ d   1      27.300  17.298  22.281  0.00  0.00    -0.578 OA
ENDBRANCH   8  10
ENDBRANCH   6   8
BRANCH   6  14
ATOM     14  N   PSQ d   1      24.669  13.823  24.863  0.00  0.00    -0.348 N 
ATOM     15  H1  PSQ d   1      23.957  14.488  25.088  0.00  0.00     0.160 HD
ATOM     16  H2  PSQ d   1      24.421  12.880  24.642  0.00  0.00     0.160 HD
ENDBRANCH   6  14
ENDBRANCH   4   6
ENDBRANCH   1   4
BRANCH   1  17
ATOM     17  C3  PSQ d   1      28.530  11.103  24.604  0.00  0.00    -0.048 C 
ATOM     18  H7  PSQ d   1      29.500  11.619  24.657  0.00  0.00     0.035 H 
ATOM     19  H8  PSQ d   1      28.240  10.974  23.551  0.00  0.00     0.035 H 
BRANCH  17  20
ATOM     20  C2  PSQ d   1      28.676   9.706  25.253  0.00  0.00    -0.028 C 
ATOM     21  H5  PSQ d   1      27.706   9.191  25.184  0.00  0.00     0.036 H 
ATOM     22  H6  PSQ d   1      28.944   9.844  26.311  0.00  0.00     0.036 H 
BRANCH  20  23
ATOM     23  C1  PSQ d   1      29.754   8.802  24.593  0.00  0.00     0.182 C 
ATOM     24  H4  PSQ d   1      29.477   8.674  23.536  0.00  0.00     0.101 H 
BRANCH  23  25
ATOM     25  N3  PSQ d   1      29.772   7.471  25.247  0.00  0.00    -0.065 N 
ATOM     26  H12 PSQ d   1      30.474   6.893  24.812  0.00  0.00     0.275 HD
ATOM     27  H13 PSQ d   1      28.869   7.035  25.147  0.00  0.00     0.275 HD
ATOM     28  H14 PSQ d   1      29.986   7.580  26.226  0.00  0.00     0.275 HD
ENDBRANCH  23  25
BRANCH  23  29
ATOM     29  C   PSQ d   1      31.192   9.380  24.643  0.00  0.00     0.204 C 
ATOM     30  O5  PSQ d   1      31.802   9.397  25.744  0.00  0.00    -0.646 OA
ATOM     31  O4  PSQ d   1      31.735   9.776  23.575  0.00  0.00    -0.646 OA
ENDBRANCH  23  29
ENDBRANCH  20  23
ENDBRANCH  17  20
ENDBRANCH   1  17
TORSDOF 10
