REMARK  7 active torsions:
REMARK  status: ('A' for Active; 'I' for Inactive)
REMARK    1  A    between atoms: C1_1  and  O1_11 
REMARK    2  A    between atoms: O1_11  and  C11_12 
REMARK    3  A    between atoms: C11_12  and  C12_13 
REMARK    4  A    between atoms: C12_13  and  O2_14 
REMARK    5  A    between atoms: C12_13  and  C13_15 
REMARK    6  A    between atoms: C13_15  and  N1_16 
REMARK    7  A    between atoms: N1_16  and  C14_17 
ROOT
ATOM      1  C11 SNP d   1      26.452  55.830  91.261  0.00  0.00     0.051 C 
ATOM      2  H8  SNP d   1      26.742  55.012  91.936  0.00  0.00     0.079 H 
ATOM      3  H9  SNP d   1      25.933  56.612  91.834  0.00  0.00     0.079 H 
ENDROOT
BRANCH   1   4
ATOM      4  O1  SNP d   1      25.594  55.331  90.245  0.00  0.00    -0.348 OA
BRANCH   4   5
ATOM      5  C1  SNP d   1      24.316  54.891  90.554  0.00  0.00     0.080 A 
ATOM      6  C2  SNP d   1      23.977  54.195  91.752  0.00  0.00    -0.050 A 
ATOM      7  C3  SNP d   1      22.648  53.756  92.032  0.00  0.00    -0.080 A 
ATOM      8  H1  SNP d   1      24.757  53.992  92.477  0.00  0.00     0.087 H 
ATOM      9  C4  SNP d   1      21.611  54.022  91.085  0.00  0.00    -0.072 A 
ATOM     10  H2  SNP d   1      22.428  53.227  92.952  0.00  0.00     0.083 H 
ATOM     11  C10 SNP d   1      21.912  54.707  89.893  0.00  0.00    -0.023 A 
ATOM     12  H3  SNP d   1      20.596  53.697  91.284  0.00  0.00     0.084 H 
ATOM     13  C5  SNP d   1      20.878  54.961  88.969  0.00  0.00    -0.072 A 
ATOM     14  C9  SNP d   1      23.256  55.140  89.633  0.00  0.00     0.007 A 
ATOM     15  C6  SNP d   1      21.150  55.657  87.750  0.00  0.00    -0.082 A 
ATOM     16  H4  SNP d   1      19.870  54.626  89.184  0.00  0.00     0.084 H 
ATOM     17  C7  SNP d   1      22.481  56.095  87.471  0.00  0.00    -0.082 A 
ATOM     18  H5  SNP d   1      20.352  55.851  87.043  0.00  0.00     0.083 H 
ATOM     19  C8  SNP d   1      23.519  55.828  88.421  0.00  0.00    -0.070 A 
ATOM     20  H6  SNP d   1      22.703  56.623  86.551  0.00  0.00     0.083 H 
ATOM     21  H7  SNP d   1      24.529  56.159  88.209  0.00  0.00     0.085 H 
ENDBRANCH   4   5
ENDBRANCH   1   4
BRANCH   1  22
ATOM     22  C12 SNP d   1      27.698  56.418  90.597  0.00  0.00     0.079 C 
ATOM     23  H10 SNP d   1      28.327  56.879  91.373  0.00  0.00     0.088 H 
BRANCH  22  24
ATOM     24  O2  SNP d   1      28.417  55.376  89.966  0.00  0.00    -0.392 OA
ATOM     25  H11 SNP d   1      29.193  55.734  89.551  0.00  0.00     0.210 HD
ENDBRANCH  22  24
BRANCH  22  26
ATOM     26  C13 SNP d   1      27.352  57.483  89.543  0.00  0.00     0.107 C 
ATOM     27  H12 SNP d   1      26.386  57.946  89.792  0.00  0.00     0.079 H 
ATOM     28  H13 SNP d   1      27.288  57.012  88.551  0.00  0.00     0.079 H 
BRANCH  26  29
ATOM     29  N1  SNP d   1      28.389  58.499  89.532  0.00  0.00    -0.068 N 
ATOM     30  H14 SNP d   1      29.284  58.035  89.531  0.00  0.00     0.277 HD
ATOM     31  H15 SNP d   1      28.298  59.050  90.371  0.00  0.00     0.277 HD
BRANCH  29  32
ATOM     32  C14 SNP d   1      28.343  59.396  88.394  0.00  0.00     0.102 A 
ATOM     33  C15 SNP d   1      29.247  58.819  87.286  0.00  0.00    -0.036 A 
ATOM     34  C16 SNP d   1      28.823  60.813  88.767  0.00  0.00    -0.036 A 
ATOM     35  H17 SNP d   1      28.955  58.779  86.226  0.00  0.00     0.036 H 
ATOM     36  H18 SNP d   1      30.042  58.082  87.475  0.00  0.00     0.036 H 
ATOM     37  H19 SNP d   1      29.414  61.034  89.668  0.00  0.00     0.036 H 
ATOM     38  H20 SNP d   1      28.328  61.731  88.419  0.00  0.00     0.036 H 
ATOM     39  H16 SNP d   1      27.308  59.458  88.027  0.00  0.00     0.084 H 
ENDBRANCH  29  32
ENDBRANCH  26  29
ENDBRANCH  22  26
ENDBRANCH   1  22
TORSDOF 7
