REMARK  6 active torsions:
REMARK  status: ('A' for Active; 'I' for Inactive)
REMARK    1  A    between atoms: C2_2  and  C21_7 
REMARK    2  A    between atoms: C3_3  and  O31_11 
REMARK    3  A    between atoms: C21_7  and  C22_8 
REMARK    4  A    between atoms: C22_8  and  C24_10 
REMARK    5  A    between atoms: C22_8  and  C23_9 
REMARK    6  A    between atoms: O31_11  and  C31_12 
ROOT
ATOM      1  N1  PRZ d   1      -0.030  24.757  10.542  0.00  0.00    -0.260 NA
ATOM      2  C2  PRZ d   1      -0.403  25.858  11.220  0.00  0.00     0.087 C 
ATOM      3  C3  PRZ d   1       0.571  26.734  11.761  0.00  0.00     0.189 C 
ATOM      4  N4  PRZ d   1       1.933  26.429  11.644  0.00  0.00    -0.234 NA
ATOM      5  C5  PRZ d   1       2.299  25.195  10.997  0.00  0.00     0.022 C 
ATOM      6  C6  PRZ d   1       1.292  24.386  10.350  0.00  0.00     0.019 C 
ATOM      7  H1  PRZ d   1       3.334  24.872  10.996  0.00  0.00     0.117 H 
ATOM      8  H2  PRZ d   1       1.558  23.529   9.742  0.00  0.00     0.117 H 
ENDROOT
BRANCH   2   9
ATOM      9  C21 PRZ d   1      -1.930  26.102  11.566  0.00  0.00    -0.018 C 
ATOM     10  H3  PRZ d   1      -2.501  25.198  11.309  0.00  0.00     0.043 H 
ATOM     11  H4  PRZ d   1      -2.298  26.950  10.970  0.00  0.00     0.043 H 
BRANCH   9  12
ATOM     12  C22 PRZ d   1      -2.157  26.438  13.170  0.00  0.00    -0.056 C 
ATOM     13  H5  PRZ d   1      -1.571  27.362  13.056  0.00  0.00     0.039 H 
BRANCH  12  14
ATOM     14  C24 PRZ d   1      -1.197  25.872  14.244  0.00  0.00    -0.073 C 
ATOM     15  H9  PRZ d   1      -0.376  25.330  13.752  0.00  0.00     0.028 H 
ATOM     16  H10 PRZ d   1      -1.748  25.185  14.903  0.00  0.00     0.028 H 
ATOM     17  H11 PRZ d   1      -0.785  26.700  14.840  0.00  0.00     0.028 H 
ENDBRANCH  12  14
BRANCH  12  18
ATOM     18  C23 PRZ d   1      -3.253  27.159  13.754  0.00  0.00    -0.073 C 
ATOM     19  H6  PRZ d   1      -3.116  27.215  14.844  0.00  0.00     0.028 H 
ATOM     20  H7  PRZ d   1      -4.196  26.638  13.530  0.00  0.00     0.028 H 
ATOM     21  H8  PRZ d   1      -3.287  28.176  13.336  0.00  0.00     0.028 H 
ENDBRANCH  12  18
ENDBRANCH   9  12
ENDBRANCH   2   9
BRANCH   3  22
ATOM     22  O31 PRZ d   1       0.115  27.803  12.190  0.00  0.00    -0.338 OA
BRANCH  22  23
ATOM     23  C31 PRZ d   1       0.998  28.775  12.745  0.00  0.00     0.012 C 
ATOM     24  H12 PRZ d   1       0.420  29.652  13.071  0.00  0.00     0.067 H 
ATOM     25  H13 PRZ d   1       1.731  29.081  11.984  0.00  0.00     0.067 H 
ATOM     26  H14 PRZ d   1       1.525  28.342  13.608  0.00  0.00     0.067 H 
ENDBRANCH  22  23
ENDBRANCH   3  22
TORSDOF 6
