REMARK  4 active torsions:
REMARK  status: ('A' for Active; 'I' for Inactive)
REMARK    1  A    between atoms: C2_2  and  N2_12 
REMARK    2  A    between atoms: C6_6  and  O6_7 
REMARK    3  A    between atoms: O6_7  and  C9_8 
REMARK    4  A    between atoms: C9_8  and  C10_13 
ROOT
ATOM      1  C9  CMG d   1       1.706  27.118   9.112  0.00  0.00     0.031 C 
ATOM      2  H1  CMG d   1       2.658  27.543   9.462  0.00  0.00     0.075 H 
ATOM      3  H2  CMG d   1       1.887  26.493   8.225  0.00  0.00     0.075 H 
ENDROOT
BRANCH   1   4
ATOM      4  O6  CMG d   1       0.722  28.160   8.841  0.00  0.00    -0.332 OA
BRANCH   4   5
ATOM      5  C6  CMG d   1       1.327  29.141   8.057  0.00  0.00     0.216 A 
ATOM      6  N1  CMG d   1       2.445  28.991   7.346  0.00  0.00    -0.036 NA
ATOM      7  C2  CMG d   1       2.981  29.960   6.614  0.00  0.00     0.724 A 
ATOM      8  N3  CMG d   1       2.390  31.170   6.609  0.00  0.00    -0.043 NA
ATOM      9  C4  CMG d   1       1.301  31.419   7.326  0.00  0.00     0.181 A 
ATOM     10  N9  CMG d   1       0.588  32.528   7.490  0.00  0.00    -0.333 N 
ATOM     11  C5  CMG d   1       0.749  30.408   8.049  0.00  0.00     0.158 A 
ATOM     12  C8  CMG d   1      -0.492  32.319   8.278  0.00  0.00     0.066 A 
ATOM     13  H4  CMG d   1       0.828  33.437   7.069  0.00  0.00     0.168 HD
ATOM     14  N7  CMG d   1      -0.292  31.001   8.618  0.00  0.00    -0.236 NA
ATOM     15  H3  CMG d   1      -1.292  33.001   8.562  0.00  0.00     0.143 H 
BRANCH   7  16
ATOM     16  N2  CMG d   1       4.122  29.981   5.880  0.00  0.00    -0.231 N 
ATOM     17  H5  CMG d   1       4.690  29.127   5.787  0.00  0.00     0.174 HD
ATOM     18  H6  CMG d   1       4.420  30.851   5.416  0.00  0.00     0.174 HD
ENDBRANCH   7  16
ENDBRANCH   4   5
ENDBRANCH   1   4
BRANCH   1  19
ATOM     19  C10 CMG d   1       0.979  26.303  10.257  0.00  0.00    -0.033 C 
ATOM     20  C15 CMG d   1       1.848  25.047  10.126  0.00  0.00    -0.060 C 
ATOM     21  C14 CMG d   1       1.364  23.999  11.171  0.00  0.00    -0.065 C 
ATOM     22  H16 CMG d   1       2.901  25.303  10.317  0.00  0.00     0.033 H 
ATOM     23  H17 CMG d   1       1.750  24.632   9.112  0.00  0.00     0.033 H 
ATOM     24  C13 CMG d   1       0.172  23.387  10.321  0.00  0.00    -0.065 C 
ATOM     25  H14 CMG d   1       2.138  23.253  11.404  0.00  0.00     0.033 H 
ATOM     26  H15 CMG d   1       1.015  24.468  12.103  0.00  0.00     0.033 H 
ATOM     27  C12 CMG d   1      -0.778  24.578  10.592  0.00  0.00    -0.065 C 
ATOM     28  H12 CMG d   1       0.418  23.263   9.256  0.00  0.00     0.033 H 
ATOM     29  H13 CMG d   1      -0.202  22.434  10.724  0.00  0.00     0.033 H 
ATOM     30  C11 CMG d   1      -0.223  25.570   9.570  0.00  0.00    -0.060 C 
ATOM     31  H10 CMG d   1      -1.828  24.322  10.389  0.00  0.00     0.033 H 
ATOM     32  H11 CMG d   1      -0.685  24.953  11.622  0.00  0.00     0.033 H 
ATOM     33  H8  CMG d   1       0.122  25.036   8.673  0.00  0.00     0.033 H 
ATOM     34  H9  CMG d   1      -0.999  26.297   9.288  0.00  0.00     0.033 H 
ATOM     35  H7  CMG d   1       0.822  26.797  11.227  0.00  0.00     0.043 H 
ENDBRANCH   1  19
TORSDOF 4
