REMARK  5 active torsions:
REMARK  status: ('A' for Active; 'I' for Inactive)
REMARK    1  A    between atoms: C6_2  and  O6_3 
REMARK    2  A    between atoms: O6_3  and  C1_4 
REMARK    3  A    between atoms: C1_4  and  C3_5 
REMARK    4  A    between atoms: C5_11  and  N7_12 
REMARK    5  A    between atoms: C2_17  and  N2_18 
ROOT
ATOM      1  C1  NW1 d   1       1.919  26.234   8.681  0.00  0.00     0.031 C 
ATOM      2  H1  NW1 d   1       2.949  26.613   8.752  0.00  0.00     0.075 H 
ATOM      3  H2  NW1 d   1       1.764  25.775   7.694  0.00  0.00     0.075 H 
ENDROOT
BRANCH   1   4
ATOM      4  O6  NW1 d   1       0.965  27.309   8.898  0.00  0.00    -0.332 OA
BRANCH   4   5
ATOM      5  C6  NW1 d   1       1.225  28.478   8.180  0.00  0.00     0.218 A 
ATOM      6  N1  NW1 d   1       2.163  28.411   7.198  0.00  0.00    -0.036 NA
ATOM      7  C2  NW1 d   1       2.488  29.550   6.466  0.00  0.00     0.724 A 
ATOM      8  N3  NW1 d   1       1.872  30.621   6.724  0.00  0.00    -0.043 NA
ATOM      9  C4  NW1 d   1       0.858  30.822   7.769  0.00  0.00     0.176 A 
ATOM     10  C5  NW1 d   1       0.513  29.755   8.491  0.00  0.00     0.186 A 
ATOM     11  N9  NW1 d   1       0.324  31.993   7.960  0.00  0.00    -0.381 N 
ATOM     12  H14 NW1 d   1       0.617  32.793   7.381  0.00  0.00     0.157 HD
ATOM     13  H15 NW1 d   1      -0.392  32.120   8.690  0.00  0.00     0.157 HD
BRANCH   7  14
ATOM     14  N2  NW1 d   1       3.411  29.419   5.547  0.00  0.00    -0.231 N 
ATOM     15  H16 NW1 d   1       3.866  28.507   5.400  0.00  0.00     0.174 HD
ATOM     16  H17 NW1 d   1       3.682  30.228   4.971  0.00  0.00     0.174 HD
ENDBRANCH   7  14
BRANCH  10  17
ATOM     17  N7  NW1 d   1      -0.438  29.684   9.584  0.00  0.00    -0.090 NA
ATOM     18  O8  NW1 d   1      -1.067  30.715   9.874  0.00  0.00    -0.060 OA
ENDBRANCH  10  17
ENDBRANCH   4   5
ENDBRANCH   1   4
BRANCH   1  19
ATOM     19  C3  NW1 d   1       1.644  25.219   9.793  0.00  0.00    -0.033 C 
ATOM     20  C7  NW1 d   1       2.379  23.868   9.568  0.00  0.00    -0.060 C 
ATOM     21  C8  NW1 d   1       2.177  22.970  10.833  0.00  0.00    -0.065 C 
ATOM     22  H12 NW1 d   1       3.452  24.052   9.412  0.00  0.00     0.033 H 
ATOM     23  H13 NW1 d   1       1.962  23.362   8.685  0.00  0.00     0.033 H 
ATOM     24  C9  NW1 d   1       0.652  22.691  10.941  0.00  0.00    -0.065 C 
ATOM     25  H10 NW1 d   1       2.729  22.025  10.720  0.00  0.00     0.033 H 
ATOM     26  H11 NW1 d   1       2.531  23.496  11.732  0.00  0.00     0.033 H 
ATOM     27  C10 NW1 d   1      -0.045  24.056  11.268  0.00  0.00    -0.065 C 
ATOM     28  H8  NW1 d   1       0.273  22.293   9.988  0.00  0.00     0.033 H 
ATOM     29  H9  NW1 d   1       0.457  21.966  11.745  0.00  0.00     0.033 H 
ATOM     30  C11 NW1 d   1       0.138  25.012  10.052  0.00  0.00    -0.060 C 
ATOM     31  H6  NW1 d   1      -1.117  23.890  11.451  0.00  0.00     0.033 H 
ATOM     32  H7  NW1 d   1       0.415  24.502  12.162  0.00  0.00     0.033 H 
ATOM     33  H4  NW1 d   1      -0.331  24.569   9.161  0.00  0.00     0.033 H 
ATOM     34  H5  NW1 d   1      -0.334  25.981  10.271  0.00  0.00     0.033 H 
ATOM     35  H3  NW1 d   1       2.062  25.651  10.714  0.00  0.00     0.043 H 
ENDBRANCH   1  19
TORSDOF 5
