REMARK  5 active torsions:
REMARK  status: ('A' for Active; 'I' for Inactive)
REMARK    1  A    between atoms: C12_13  and  O16_1 
REMARK    2  A    between atoms: C10_8  and  O18_2 
REMARK    3  A    between atoms: C17_10  and  N8_5 
REMARK    4  A    between atoms: C12_13  and  C1_7 
REMARK    5  A    between atoms: C4_16  and  C3_18 
ROOT
ATOM      1  C1  TMC d   1      50.145  33.603   0.197  0.00  0.00     0.013 A 
ATOM      2  C10 TMC d   1      49.743  34.292  -1.110  0.00  0.00     0.047 C 
ATOM      3  C14 TMC d   1      48.473  33.653  -1.611  0.00  0.00    -0.021 C 
ATOM      4  C17 TMC d   1      47.965  32.710  -0.519  0.00  0.00     0.027 C 
ATOM      5  C13 TMC d   1      49.005  32.671   0.640  0.00  0.00    -0.021 A 
ATOM      6  C15 TMC d   1      50.327  32.118   0.153  0.00  0.00    -0.047 A 
ATOM      7  H4  TMC d   1      49.419  35.291  -0.785  0.00  0.00     0.084 H 
ATOM      8  H5  TMC d   1      47.720  34.428  -1.817  0.00  0.00     0.040 H 
ATOM      9  H6  TMC d   1      48.677  33.086  -2.531  0.00  0.00     0.040 H 
ATOM     10  H7  TMC d   1      47.812  31.696  -0.917  0.00  0.00     0.074 H 
ATOM     11  H8  TMC d   1      48.606  32.553   1.658  0.00  0.00     0.044 H 
ATOM     12  H9  TMC d   1      51.010  31.630   0.864  0.00  0.00     0.035 H 
ATOM     13  H10 TMC d   1      50.379  31.603  -0.818  0.00  0.00     0.035 H 
ENDROOT
BRANCH   4  14
ATOM     14  N8  TMC d   1      46.650  33.297  -0.048  0.00  0.00    -0.304 N 
ATOM     15  C11 TMC d   1      45.552  32.612  -0.475  0.00  0.00     0.329 A 
ATOM     16  N5  TMC d   1      44.379  33.110   0.163  0.00  0.00    -0.275 N 
ATOM     17  O9  TMC d   1      45.485  31.687  -1.261  0.00  0.00    -0.246 OA
ATOM     18  C6  TMC d   1      44.359  34.181   1.047  0.00  0.00     0.256 A 
ATOM     19  H3  TMC d   1      43.511  32.657  -0.040  0.00  0.00     0.173 HD
ATOM     20  C4  TMC d   1      45.542  34.840   1.421  0.00  0.00     0.022 A 
ATOM     21  O7  TMC d   1      43.191  34.517   1.459  0.00  0.00    -0.267 OA
ATOM     22  C2  TMC d   1      46.687  34.352   0.844  0.00  0.00    -0.004 A 
ATOM     23  H13 TMC d   1      47.645  34.805   1.094  0.00  0.00     0.112 H 
BRANCH  20  24
ATOM     24  C3  TMC d   1      45.600  35.996   2.398  0.00  0.00    -0.045 C 
ATOM     25  H14 TMC d   1      46.643  36.326   2.514  0.00  0.00     0.033 H 
ATOM     26  H15 TMC d   1      45.208  35.672   3.373  0.00  0.00     0.033 H 
ATOM     27  H16 TMC d   1      44.992  36.829   2.017  0.00  0.00     0.033 H 
ENDBRANCH  20  24
ENDBRANCH   4  14
BRANCH   1  28
ATOM     28  C12 TMC d   1      50.810  34.398   1.275  0.00  0.00     0.026 C 
ATOM     29  H11 TMC d   1      50.555  33.966   2.254  0.00  0.00     0.075 H 
ATOM     30  H12 TMC d   1      51.900  34.364   1.131  0.00  0.00     0.075 H 
BRANCH  28  31
ATOM     31  O16 TMC d   1      50.365  35.773   1.229  0.00  0.00    -0.400 OA
ATOM     32  H1  TMC d   1      50.794  36.267   1.918  0.00  0.00     0.209 HD
ENDBRANCH  28  31
ENDBRANCH   1  28
BRANCH   2  33
ATOM     33  O18 TMC d   1      50.744  34.609  -2.041  0.00  0.00    -0.395 OA
ATOM     34  H2  TMC d   1      51.481  35.003  -1.590  0.00  0.00     0.210 HD
ENDBRANCH   2  33
TORSDOF 5
