REMARK  5 active torsions:
REMARK  status: ('A' for Active; 'I' for Inactive)
REMARK    1  A    between atoms: C12_13  and  O16_1 
REMARK    2  A    between atoms: C10_8  and  O18_2 
REMARK    3  A    between atoms: C17_10  and  N8_5 
REMARK    4  A    between atoms: C12_13  and  C1_7 
REMARK    5  A    between atoms: C4_16  and  C3_18 
ROOT
ATOM      1  C1  TMC d   1      50.262  33.934  -0.176  0.00  0.00     0.013 A 
ATOM      2  C10 TMC d   1      49.722  34.609  -1.433  0.00  0.00     0.047 C 
ATOM      3  C14 TMC d   1      48.591  33.732  -1.982  0.00  0.00    -0.021 C 
ATOM      4  C17 TMC d   1      48.095  32.874  -0.779  0.00  0.00     0.027 C 
ATOM      5  C13 TMC d   1      49.222  32.924   0.294  0.00  0.00    -0.021 A 
ATOM      6  C15 TMC d   1      50.567  32.480  -0.238  0.00  0.00    -0.047 A 
ATOM      7  H4  TMC d   1      49.296  35.582  -1.147  0.00  0.00     0.084 H 
ATOM      8  H5  TMC d   1      47.774  34.359  -2.368  0.00  0.00     0.040 H 
ATOM      9  H6  TMC d   1      48.966  33.083  -2.787  0.00  0.00     0.040 H 
ATOM     10  H7  TMC d   1      47.926  31.833  -1.091  0.00  0.00     0.074 H 
ATOM     11  H8  TMC d   1      48.890  32.775   1.332  0.00  0.00     0.044 H 
ATOM     12  H9  TMC d   1      51.311  32.047   0.447  0.00  0.00     0.035 H 
ATOM     13  H10 TMC d   1      50.630  31.975  -1.213  0.00  0.00     0.035 H 
ENDROOT
BRANCH   4  14
ATOM     14  N8  TMC d   1      46.802  33.461  -0.283  0.00  0.00    -0.304 N 
ATOM     15  C11 TMC d   1      45.637  32.811  -0.637  0.00  0.00     0.329 A 
ATOM     16  N5  TMC d   1      44.464  33.209   0.028  0.00  0.00    -0.275 N 
ATOM     17  O9  TMC d   1      45.578  31.908  -1.474  0.00  0.00    -0.246 OA
ATOM     18  C6  TMC d   1      44.355  34.237   0.951  0.00  0.00     0.256 A 
ATOM     19  H3  TMC d   1      43.629  32.702  -0.185  0.00  0.00     0.173 HD
ATOM     20  C4  TMC d   1      45.625  34.886   1.259  0.00  0.00     0.022 A 
ATOM     21  O7  TMC d   1      43.295  34.605   1.477  0.00  0.00    -0.267 OA
ATOM     22  C2  TMC d   1      46.780  34.489   0.655  0.00  0.00    -0.004 A 
ATOM     23  H13 TMC d   1      47.712  34.990   0.913  0.00  0.00     0.112 H 
BRANCH  20  24
ATOM     24  C3  TMC d   1      45.575  36.005   2.295  0.00  0.00    -0.045 C 
ATOM     25  H14 TMC d   1      46.586  36.414   2.442  0.00  0.00     0.033 H 
ATOM     26  H15 TMC d   1      45.199  35.605   3.248  0.00  0.00     0.033 H 
ATOM     27  H16 TMC d   1      44.904  36.802   1.942  0.00  0.00     0.033 H 
ENDBRANCH  20  24
ENDBRANCH   4  14
BRANCH   1  28
ATOM     28  C12 TMC d   1      50.876  34.846   0.843  0.00  0.00     0.026 C 
ATOM     29  H11 TMC d   1      50.671  34.478   1.859  0.00  0.00     0.075 H 
ATOM     30  H12 TMC d   1      51.963  34.914   0.690  0.00  0.00     0.075 H 
BRANCH  28  31
ATOM     31  O16 TMC d   1      50.248  36.156   0.638  0.00  0.00    -0.400 OA
ATOM     32  H1  TMC d   1      50.603  36.778   1.263  0.00  0.00     0.209 HD
ENDBRANCH  28  31
ENDBRANCH   1  28
BRANCH   2  33
ATOM     33  O18 TMC d   1      50.749  34.862  -2.406  0.00  0.00    -0.395 OA
ATOM     34  H2  TMC d   1      50.371  35.308  -3.155  0.00  0.00     0.210 HD
ENDBRANCH   2  33
TORSDOF 5
