REMARK  3 active torsions:
REMARK  status: ('A' for Active; 'I' for Inactive)
REMARK    1  A    between atoms: C13_13  and  C18_18 
REMARK    2  A    between atoms: C17_17  and  C27_19 
REMARK    3  A    between atoms: C17_17  and  O97_21 
ROOT
ATOM      1  C1  R18 d   1       0.414  28.070   4.103  0.00  0.00    -0.034 C 
ATOM      2  C2  R18 d   1       1.195  26.999   4.832  0.00  0.00    -0.002 C 
ATOM      3  C3  R18 d   1       2.661  27.140   4.532  0.00  0.00     0.150 C 
ATOM      4  C4  R18 d   1       3.174  28.457   4.794  0.00  0.00    -0.032 C 
ATOM      5  C5  R18 d   1       2.367  29.553   4.780  0.00  0.00    -0.048 C 
ATOM      6  C6  R18 d   1       2.973  30.906   5.116  0.00  0.00    -0.040 C 
ATOM      7  C7  R18 d   1       2.207  32.030   4.457  0.00  0.00    -0.054 C 
ATOM      8  C8  R18 d   1       0.733  31.962   4.898  0.00  0.00    -0.023 C 
ATOM      9  C9  R18 d   1       0.124  30.597   4.514  0.00  0.00    -0.047 C 
ATOM     10  C10 R18 d   1       0.912  29.480   4.476  0.00  0.00    -0.045 C 
ATOM     11  C11 R18 d   1      -1.316  30.583   4.251  0.00  0.00    -0.079 C 
ATOM     12  C12 R18 d   1      -2.102  31.675   4.310  0.00  0.00    -0.091 C 
ATOM     13  C13 R18 d   1      -1.535  33.039   4.664  0.00  0.00     0.009 C 
ATOM     14  C14 R18 d   1      -0.056  33.066   4.261  0.00  0.00    -0.034 C 
ATOM     15  C15 R18 d   1       0.387  34.509   4.572  0.00  0.00    -0.057 C 
ATOM     16  C16 R18 d   1      -0.899  35.299   4.311  0.00  0.00    -0.035 C 
ATOM     17  C17 R18 d   1      -2.001  34.282   3.900  0.00  0.00     0.065 C 
ATOM     18  O83 R18 d   1       3.375  26.212   4.162  0.00  0.00    -0.293 OA
ATOM     19  H1  R18 d   1      -0.649  27.983   4.371  0.00  0.00     0.040 H 
ATOM     20  H2  R18 d   1       0.532  27.924   3.019  0.00  0.00     0.040 H 
ATOM     21  H3  R18 d   1       0.849  26.008   4.503  0.00  0.00     0.045 H 
ATOM     22  H4  R18 d   1       1.033  27.103   5.915  0.00  0.00     0.045 H 
ATOM     23  H5  R18 d   1       4.234  28.581   5.009  0.00  0.00     0.089 H 
ATOM     24  H6  R18 d   1       4.015  30.929   4.765  0.00  0.00     0.040 H 
ATOM     25  H7  R18 d   1       2.950  31.048   6.207  0.00  0.00     0.040 H 
ATOM     26  H8  R18 d   1       2.269  31.927   3.364  0.00  0.00     0.034 H 
ATOM     27  H9  R18 d   1       2.638  32.996   4.759  0.00  0.00     0.034 H 
ATOM     28  H10 R18 d   1       0.686  32.078   5.991  0.00  0.00     0.048 H 
ATOM     29  H11 R18 d   1      -1.780  29.632   3.992  0.00  0.00     0.083 H 
ATOM     30  H12 R18 d   1      -3.166  31.578   4.100  0.00  0.00     0.078 H 
ATOM     31  H13 R18 d   1       0.020  32.914   3.174  0.00  0.00     0.042 H 
ATOM     32  H14 R18 d   1       1.197  34.832   3.902  0.00  0.00     0.033 H 
ATOM     33  H15 R18 d   1       0.713  34.611   5.617  0.00  0.00     0.033 H 
ATOM     34  H16 R18 d   1      -0.736  36.023   3.499  0.00  0.00     0.037 H 
ATOM     35  H17 R18 d   1      -1.203  35.833   5.223  0.00  0.00     0.037 H 
ENDROOT
BRANCH  17  36
ATOM     36  C27 R18 d   1      -2.034  34.050   2.412  0.00  0.00    -0.047 C 
ATOM     37  H21 R18 d   1      -2.826  33.326   2.171  0.00  0.00     0.031 H 
ATOM     38  H22 R18 d   1      -1.063  33.654   2.081  0.00  0.00     0.031 H 
ATOM     39  H23 R18 d   1      -2.237  35.001   1.897  0.00  0.00     0.031 H 
ENDBRANCH  17  36
BRANCH  17  40
ATOM     40  O97 R18 d   1      -3.257  34.797   4.345  0.00  0.00    -0.389 OA
ATOM     41  H24 R18 d   1      -3.949  34.192   4.105  0.00  0.00     0.210 HD
ENDBRANCH  17  40
BRANCH  13  42
ATOM     42  C18 R18 d   1      -1.725  33.228   6.189  0.00  0.00    -0.063 C 
ATOM     43  H18 R18 d   1      -1.384  32.324   6.716  0.00  0.00     0.029 H 
ATOM     44  H19 R18 d   1      -2.789  33.400   6.407  0.00  0.00     0.029 H 
ATOM     45  H20 R18 d   1      -1.137  34.093   6.527  0.00  0.00     0.029 H 
ENDBRANCH  13  42
TORSDOF 3
