REMARK  9 active torsions:
REMARK  status: ('A' for Active; 'I' for Inactive)
REMARK    1  A    between atoms: C1_1  and  O2_21 
REMARK    2  A    between atoms: C4_4  and  C18_18 
REMARK    3  A    between atoms: C12_12  and  C20_22 
REMARK    4  A    between atoms: C13_13  and  O1_20 
REMARK    5  A    between atoms: C17_17  and  C19_19 
REMARK    6  A    between atoms: C19_19  and  C24_28 
REMARK    7  A    between atoms: C19_19  and  C21_23 
REMARK    8  A    between atoms: C21_23  and  C22_24 
REMARK    9  A    between atoms: C22_24  and  C23_25 
ROOT
ATOM      1  C1  DXC d   1       4.853  -3.500  84.879  0.00  0.00     0.036 C 
ATOM      2  C2  DXC d   1       3.819  -4.194  83.985  0.00  0.00    -0.037 C 
ATOM      3  C3  DXC d   1       2.456  -4.345  84.699  0.00  0.00    -0.044 C 
ATOM      4  C4  DXC d   1       2.586  -5.084  86.069  0.00  0.00    -0.036 C 
ATOM      5  C5  DXC d   1       3.633  -4.316  86.923  0.00  0.00    -0.055 C 
ATOM      6  C6  DXC d   1       5.002  -4.248  86.228  0.00  0.00    -0.040 C 
ATOM      7  C7  DXC d   1       1.438  -5.058  83.772  0.00  0.00    -0.060 C 
ATOM      8  C8  DXC d   1       1.772  -6.549  83.589  0.00  0.00    -0.061 C 
ATOM      9  C9  DXC d   1       1.934  -7.291  84.928  0.00  0.00    -0.046 C 
ATOM     10  C10 DXC d   1       2.999  -6.588  85.820  0.00  0.00    -0.041 C 
ATOM     11  C11 DXC d   1       2.359  -8.763  84.718  0.00  0.00    -0.041 C 
ATOM     12  C12 DXC d   1       2.517  -9.540  86.042  0.00  0.00    -0.010 C 
ATOM     13  C13 DXC d   1       3.566  -8.871  86.950  0.00  0.00     0.043 C 
ATOM     14  C14 DXC d   1       3.155  -7.383  87.157  0.00  0.00    -0.036 C 
ATOM     15  C15 DXC d   1       1.517  -9.696  83.840  0.00  0.00    -0.060 C 
ATOM     16  C16 DXC d   1       1.887 -11.116  84.309  0.00  0.00    -0.060 C 
ATOM     17  C17 DXC d   1       2.906 -10.929  85.454  0.00  0.00    -0.041 C 
ATOM     18  H1  DXC d   1       4.501  -2.482  85.101  0.00  0.00     0.082 H 
ATOM     19  H2  DXC d   1       4.193  -5.193  83.716  0.00  0.00     0.037 H 
ATOM     20  H3  DXC d   1       3.679  -3.597  83.072  0.00  0.00     0.037 H 
ATOM     21  H4  DXC d   1       2.074  -3.334  84.904  0.00  0.00     0.041 H 
ATOM     22  H5  DXC d   1       3.750  -4.830  87.889  0.00  0.00     0.034 H 
ATOM     23  H6  DXC d   1       3.270  -3.292  87.094  0.00  0.00     0.034 H 
ATOM     24  H7  DXC d   1       5.714  -3.709  86.870  0.00  0.00     0.036 H 
ATOM     25  H8  DXC d   1       5.372  -5.267  86.044  0.00  0.00     0.036 H 
ATOM     26  H9  DXC d   1       1.450  -4.568  82.787  0.00  0.00     0.033 H 
ATOM     27  H10 DXC d   1       0.434  -4.970  84.213  0.00  0.00     0.033 H 
ATOM     28  H11 DXC d   1       0.960  -7.024  83.020  0.00  0.00     0.033 H 
ATOM     29  H12 DXC d   1       2.713  -6.632  83.025  0.00  0.00     0.033 H 
ATOM     30  H13 DXC d   1       0.966  -7.275  85.450  0.00  0.00     0.041 H 
ATOM     31  H14 DXC d   1       3.965  -6.598  85.294  0.00  0.00     0.042 H 
ATOM     32  H15 DXC d   1       3.349  -8.701  84.243  0.00  0.00     0.042 H 
ATOM     33  H16 DXC d   1       3.595  -9.382  87.924  0.00  0.00     0.084 H 
ATOM     34  H17 DXC d   1       2.194  -7.358  87.691  0.00  0.00     0.037 H 
ATOM     35  H18 DXC d   1       3.926  -6.890  87.767  0.00  0.00     0.037 H 
ATOM     36  H19 DXC d   1       1.769  -9.561  82.778  0.00  0.00     0.033 H 
ATOM     37  H20 DXC d   1       0.444  -9.506  83.990  0.00  0.00     0.033 H 
ATOM     38  H21 DXC d   1       0.994 -11.644  84.674  0.00  0.00     0.033 H 
ATOM     39  H22 DXC d   1       2.338 -11.686  83.484  0.00  0.00     0.033 H 
ATOM     40  H23 DXC d   1       3.913 -10.832  85.023  0.00  0.00     0.042 H 
ENDROOT
BRANCH  17  41
ATOM     41  C19 DXC d   1       2.968 -12.184  86.394  0.00  0.00    -0.053 C 
ATOM     42  H27 DXC d   1       1.970 -12.333  86.832  0.00  0.00     0.040 H 
BRANCH  41  43
ATOM     43  C24 DXC d   1       3.978 -12.007  87.537  0.00  0.00    -0.072 C 
ATOM     44  H37 DXC d   1       3.716 -11.114  88.123  0.00  0.00     0.028 H 
ATOM     45  H38 DXC d   1       4.988 -11.888  87.118  0.00  0.00     0.028 H 
ATOM     46  H39 DXC d   1       3.953 -12.893  88.189  0.00  0.00     0.028 H 
ENDBRANCH  41  43
BRANCH  41  47
ATOM     47  C21 DXC d   1       3.350 -13.446  85.578  0.00  0.00    -0.053 C 
ATOM     48  H33 DXC d   1       2.601 -13.575  84.783  0.00  0.00     0.034 H 
ATOM     49  H34 DXC d   1       3.317 -14.311  86.257  0.00  0.00     0.034 H 
BRANCH  47  50
ATOM     50  C22 DXC d   1       4.731 -13.414  84.923  0.00  0.00     0.016 C 
ATOM     51  H35 DXC d   1       5.446 -13.981  85.537  0.00  0.00     0.049 H 
ATOM     52  H36 DXC d   1       5.073 -12.373  84.830  0.00  0.00     0.049 H 
BRANCH  50  53
ATOM     53  C23 DXC d   1       4.626 -14.046  83.541  0.00  0.00     0.172 C 
ATOM     54  O4  DXC d   1       4.346 -15.348  83.605  0.00  0.00    -0.648 OA
ATOM     55  O3  DXC d   1       4.774 -13.466  82.516  0.00  0.00    -0.648 OA
ENDBRANCH  50  53
ENDBRANCH  47  50
ENDBRANCH  41  47
ENDBRANCH  17  41
BRANCH  12  56
ATOM     56  C20 DXC d   1       1.176  -9.622  86.815  0.00  0.00    -0.066 C 
ATOM     57  H30 DXC d   1       0.415 -10.098  86.179  0.00  0.00     0.028 H 
ATOM     58  H31 DXC d   1       0.846  -8.608  87.085  0.00  0.00     0.028 H 
ATOM     59  H32 DXC d   1       1.315 -10.218  87.729  0.00  0.00     0.028 H 
ENDBRANCH  12  56
BRANCH  13  60
ATOM     60  O1  DXC d   1       4.844  -8.961  86.334  0.00  0.00    -0.395 OA
ATOM     61  H28 DXC d   1       5.493  -8.549  86.892  0.00  0.00     0.210 HD
ENDBRANCH  13  60
BRANCH   4  62
ATOM     62  C18 DXC d   1       1.248  -5.053  86.853  0.00  0.00    -0.068 C 
ATOM     63  H24 DXC d   1       0.475  -5.588  86.281  0.00  0.00     0.028 H 
ATOM     64  H25 DXC d   1       0.935  -4.009  87.004  0.00  0.00     0.028 H 
ATOM     65  H26 DXC d   1       1.384  -5.540  87.830  0.00  0.00     0.028 H 
ENDBRANCH   4  62
BRANCH   1  66
ATOM     66  O2  DXC d   1       6.061  -3.399  84.151  0.00  0.00    -0.396 OA
ATOM     67  H29 DXC d   1       5.902  -2.932  83.339  0.00  0.00     0.210 HD
ENDBRANCH   1  66
TORSDOF 9
