REMARK  1 active torsions:
REMARK  status: ('A' for Active; 'I' for Inactive)
REMARK    1  A    between atoms: C6_7  and  O1_1 
ROOT
ATOM      1  C1  PBR d   1      41.907   0.505  27.174  0.00  0.00     0.064 A 
ATOM      2  C2  PBR d   1      41.898   0.516  25.760  0.00  0.00     0.050 A 
ATOM      3  C3  PBR d   1      43.000   0.000  25.047  0.00  0.00     0.048 A 
ATOM      4  C4  PBR d   1      44.100  -0.516  25.760  0.00  0.00     0.050 A 
ATOM      5  C5  PBR d   1      44.090  -0.505  27.174  0.00  0.00     0.064 A 
ATOM      6  C6  PBR d   1      43.000   0.000  27.868  0.00  0.00     0.103 A 
ATOM      7 BR1  PBR d   1      40.445   1.199  28.152  0.00  0.00    -0.047 Br
ATOM      8 BR2  PBR d   1      40.412   1.229  24.826  0.00  0.00    -0.048 Br
ATOM      9 BR3  PBR d   1      43.000   0.000  23.151  0.00  0.00    -0.048 Br
ATOM     10 BR4  PBR d   1      45.590  -1.229  24.826  0.00  0.00    -0.048 Br
ATOM     11 BR5  PBR d   1      45.560  -1.199  28.152  0.00  0.00    -0.047 Br
ENDROOT
BRANCH   6  12
ATOM     12  O1  PBR d   1      43.000   0.000  29.203  0.00  0.00    -0.358 OA
ATOM     13  H1  PBR d   1      43.813  -0.376  29.518  0.00  0.00     0.217 HD
ENDBRANCH   6  12
TORSDOF 1
