REMARK  25 active torsions:
REMARK  status: ('A' for Active; 'I' for Inactive)
REMARK    1  A    between atoms: S4_22  and  C1_1 
REMARK    2  A    between atoms: C2_2  and  O2_7 
REMARK    3  A    between atoms: C3_3  and  O3_8 
REMARK    4  A    between atoms: C4_4  and  O4_9 
REMARK    5  A    between atoms: C5_5  and  C6_6 
REMARK    6  A    between atoms: C6_6  and  O6_11 
REMARK    7  A    between atoms: S4_33  and  C1_12 
REMARK    8  A    between atoms: C2_13  and  O2_14 
REMARK    9  A    between atoms: C3_15  and  O3_16 
REMARK   10  A    between atoms: C4_17  and  S4_22 
REMARK   11  A    between atoms: C5_18  and  C6_20 
REMARK   12  A    between atoms: C6_20  and  O6_21 
REMARK   13  A    between atoms: O4_44  and  C1_23 
REMARK   14  A    between atoms: C2_24  and  O2_25 
REMARK   15  A    between atoms: C3_26  and  O3_27 
REMARK   16  A    between atoms: C4_28  and  S4_33 
REMARK   17  A    between atoms: C5_29  and  C6_31 
REMARK   18  A    between atoms: C6_31  and  O6_32 
REMARK   19  A    between atoms: C1_34  and  O1_41 
REMARK   20  A    between atoms: C2_35  and  O2_42 
REMARK   21  A    between atoms: C3_36  and  O3_43 
REMARK   22  A    between atoms: O4_44  and  C4_37 
REMARK   23  A    between atoms: C5_38  and  C6_39 
REMARK   24  A    between atoms: C6_39  and  O6_46 
REMARK   25  A    between atoms: O1_41  and  C7_40 
ROOT
ATOM      1  H22 GLC d   1       5.163  40.719   8.892  0.00  0.00     0.133 H 
ATOM      2  H23 GLC d   1       3.616  43.132   7.803  0.00  0.00     0.094 H 
ATOM      3  H25 GLC d   1       4.556  42.562  10.677  0.00  0.00     0.089 H 
ATOM      4  H27 GLC d   1       1.685  42.471   9.532  0.00  0.00     0.065 H 
ATOM      5  H28 GLC d   1       3.430  40.106  10.409  0.00  0.00     0.088 H 
ATOM      6  C1  SGC d   1       4.416  41.171   8.223  0.00  0.00     0.159 C 
ATOM      7  C2  SGC d   1       4.314  42.668   8.515  0.00  0.00     0.109 C 
ATOM      8  C3  SGC d   1       3.800  42.867   9.938  0.00  0.00     0.079 C 
ATOM      9  C4  SGC d   1       2.500  42.030  10.124  0.00  0.00     0.048 C 
ATOM     10  C5  SGC d   1       2.696  40.557   9.725  0.00  0.00     0.076 C 
ATOM     11  O5  SGC d   1       3.193  40.549   8.403  0.00  0.00    -0.350 OA
ENDROOT
BRANCH   9  12
ATOM     12  S4  SGC d   1       2.101  42.055  11.883  0.00  0.00    -0.124 SA
BRANCH  12  13
ATOM     13  C1  SGC d   1       1.176  43.566  12.022  0.00  0.00     0.110 C 
ATOM     14  C2  SGC d   1       0.505  43.679  13.391  0.00  0.00     0.095 C 
ATOM     15  C3  SGC d   1      -0.702  42.716  13.417  0.00  0.00     0.078 C 
ATOM     16  H13 GLC d   1       0.142  44.705  13.550  0.00  0.00     0.092 H 
ATOM     17  C4  SGC d   1      -1.590  43.001  12.223  0.00  0.00     0.048 C 
ATOM     18  H15 GLC d   1      -0.340  41.679  13.362  0.00  0.00     0.089 H 
ATOM     19  C5  SGC d   1      -0.836  42.972  10.891  0.00  0.00     0.074 C 
ATOM     20  H17 GLC d   1      -2.042  43.995  12.355  0.00  0.00     0.065 H 
ATOM     21  O5  SGC d   1       0.274  43.904  10.988  0.00  0.00    -0.364 OA
ATOM     22  H18 GLC d   1      -0.468  41.950  10.716  0.00  0.00     0.088 H 
ATOM     23  H12 GLC d   1       1.938  44.358  11.992  0.00  0.00     0.104 H 
BRANCH  14  24
ATOM     24  O2  SGC d   1       1.500  43.379  14.378  0.00  0.00    -0.390 OA
ATOM     25  H14 GLC d   1       1.114  43.441  15.244  0.00  0.00     0.210 HD
ENDBRANCH  14  24
BRANCH  15  26
ATOM     26  O3  SGC d   1      -1.438  42.889  14.618  0.00  0.00    -0.392 OA
ATOM     27  H16 GLC d   1      -0.876  42.706  15.362  0.00  0.00     0.210 HD
ENDBRANCH  15  26
BRANCH  17  28
ATOM     28  S4  SGC d   1      -2.916  41.724  12.124  0.00  0.00    -0.124 SA
BRANCH  28  29
ATOM     29  C1  GLC d   1      -4.397  42.746  12.107  0.00  0.00     0.111 C 
ATOM     30  C2  GLC d   1      -5.631  41.870  11.741  0.00  0.00     0.096 C 
ATOM     31  C3  GLC d   1      -6.892  42.702  11.781  0.00  0.00     0.090 C 
ATOM     32  H2  GLC d   1      -5.710  40.989  12.395  0.00  0.00     0.092 H 
ATOM     33  C4  GLC d   1      -7.063  43.426  13.101  0.00  0.00     0.089 C 
ATOM     34  H3  GLC d   1      -6.879  43.437  10.963  0.00  0.00     0.091 H 
ATOM     35  C5  GLC d   1      -5.769  44.233  13.356  0.00  0.00     0.087 C 
ATOM     36  H4  GLC d   1      -7.196  42.683  13.901  0.00  0.00     0.091 H 
ATOM     37  O5  GLC d   1      -4.674  43.355  13.328  0.00  0.00    -0.363 OA
ATOM     38  H5  GLC d   1      -5.645  45.001  12.578  0.00  0.00     0.090 H 
ATOM     39  H1  GLC d   1      -4.264  43.529  11.346  0.00  0.00     0.104 H 
BRANCH  30  40
ATOM     40  O2  GLC d   1      -5.442  41.521  10.379  0.00  0.00    -0.389 OA
ATOM     41  H8  GLC d   1      -5.351  42.312   9.860  0.00  0.00     0.210 HD
ENDBRANCH  30  40
BRANCH  31  42
ATOM     42  O3  GLC d   1      -7.976  41.791  11.616  0.00  0.00    -0.390 OA
ATOM     43  H9  GLC d   1      -7.879  41.331  10.790  0.00  0.00     0.210 HD
ENDBRANCH  31  42
BRANCH  33  44
ATOM     44  O4  GLC d   1      -8.203  44.308  13.104  0.00  0.00    -0.390 OA
ATOM     45  H10 GLC d   1      -8.100  44.959  12.420  0.00  0.00     0.210 HD
ENDBRANCH  33  44
BRANCH  35  46
ATOM     46  C6  GLC d   1      -5.886  44.902  14.723  0.00  0.00     0.043 C 
ATOM     47  H6  GLC d   1      -6.834  45.458  14.768  0.00  0.00     0.078 H 
ATOM     48  H7  GLC d   1      -5.045  45.600  14.851  0.00  0.00     0.078 H 
BRANCH  46  49
ATOM     49  O6  GLC d   1      -5.861  43.976  15.751  0.00  0.00    -0.398 OA
ATOM     50  H11 GLC d   1      -5.042  43.495  15.723  0.00  0.00     0.209 HD
ENDBRANCH  46  49
ENDBRANCH  35  46
ENDBRANCH  28  29
ENDBRANCH  17  28
BRANCH  19  51
ATOM     51  C6  SGC d   1      -1.669  43.432   9.655  0.00  0.00     0.042 C 
ATOM     52  H19 GLC d   1      -2.479  42.710   9.475  0.00  0.00     0.077 H 
ATOM     53  H20 GLC d   1      -1.014  43.476   8.772  0.00  0.00     0.077 H 
BRANCH  51  54
ATOM     54  O6  SGC d   1      -2.228  44.713   9.886  0.00  0.00    -0.398 OA
ATOM     55  H21 GLC d   1      -1.530  45.339  10.040  0.00  0.00     0.209 HD
ENDBRANCH  51  54
ENDBRANCH  19  51
ENDBRANCH  12  13
ENDBRANCH   9  12
BRANCH   8  56
ATOM     56  O3  SGC d   1       3.522  44.208  10.050  0.00  0.00    -0.392 OA
ATOM     57  H26 GLC d   1       4.315  44.709   9.896  0.00  0.00     0.210 HD
ENDBRANCH   8  56
BRANCH  10  58
ATOM     58  C6  SGC d   1       1.423  39.690   9.736  0.00  0.00     0.042 C 
ATOM     59  H29 GLC d   1       1.125  39.491  10.776  0.00  0.00     0.077 H 
ATOM     60  H30 GLC d   1       1.625  38.737   9.224  0.00  0.00     0.077 H 
BRANCH  58  61
ATOM     61  O6  SGC d   1       0.370  40.375   9.064  0.00  0.00    -0.398 OA
ATOM     62  H31 GLC d   1       0.628  40.546   8.166  0.00  0.00     0.209 HD
ENDBRANCH  58  61
ENDBRANCH  10  58
BRANCH   7  63
ATOM     63  O2  SGC d   1       5.568  43.266   8.390  0.00  0.00    -0.388 OA
ATOM     64  H24 GLC d   1       5.890  43.141   7.505  0.00  0.00     0.210 HD
ENDBRANCH   7  63
BRANCH   6  65
ATOM     65  O4  MGL d   1       4.800  40.983   6.872  0.00  0.00    -0.348 OA
BRANCH  65  66
ATOM     66  C4  MGL d   1       5.304  39.683   6.611  0.00  0.00     0.096 C 
ATOM     67  C3  MGL d   1       4.337  38.892   5.757  0.00  0.00     0.092 C 
ATOM     68  C2  MGL d   1       4.906  37.528   5.362  0.00  0.00     0.110 C 
ATOM     69  H34 GLC d   1       4.099  39.473   4.854  0.00  0.00     0.091 H 
ATOM     70  C1  MGL d   1       6.280  37.723   4.757  0.00  0.00     0.158 C 
ATOM     71  H33 GLC d   1       4.991  36.874   6.242  0.00  0.00     0.094 H 
ATOM     72  O5  MGL d   1       7.137  38.507   5.547  0.00  0.00    -0.349 OA
ATOM     73  H32 GLC d   1       6.098  38.365   3.883  0.00  0.00     0.133 H 
ATOM     74  C5  MGL d   1       6.688  39.783   5.975  0.00  0.00     0.089 C 
ATOM     75  H36 GLC d   1       6.672  40.485   5.128  0.00  0.00     0.090 H 
ATOM     76  H35 GLC d   1       5.410  39.157   7.571  0.00  0.00     0.091 H 
BRANCH  67  77
ATOM     77  O3  MGL d   1       3.158  38.618   6.486  0.00  0.00    -0.390 OA
ATOM     78  H43 GLC d   1       2.759  39.436   6.759  0.00  0.00     0.210 HD
ENDBRANCH  67  77
BRANCH  68  79
ATOM     79  O2  MGL d   1       3.958  36.981   4.443  0.00  0.00    -0.388 OA
ATOM     80  H42 GLC d   1       3.119  36.882   4.877  0.00  0.00     0.210 HD
ENDBRANCH  68  79
BRANCH  70  81
ATOM     81  O1  MGL d   1       6.786  36.533   4.180  0.00  0.00    -0.363 OA
BRANCH  81  82
ATOM     82  C7  MGL d   1       7.970  36.667   3.387  0.00  0.00     0.007 C 
ATOM     83  H39 GLC d   1       8.263  35.681   2.996  0.00  0.00     0.066 H 
ATOM     84  H40 GLC d   1       8.783  37.072   4.008  0.00  0.00     0.066 H 
ATOM     85  H41 GLC d   1       7.774  37.351   2.548  0.00  0.00     0.066 H 
ENDBRANCH  81  82
ENDBRANCH  70  81
BRANCH  74  86
ATOM     86  C6  MGL d   1       7.652  40.269   7.082  0.00  0.00     0.043 C 
ATOM     87  H37 GLC d   1       7.805  39.487   7.840  0.00  0.00     0.078 H 
ATOM     88  H38 GLC d   1       7.267  41.179   7.566  0.00  0.00     0.078 H 
BRANCH  86  89
ATOM     89  O6  MGL d   1       8.919  40.552   6.347  0.00  0.00    -0.398 OA
ATOM     90  H44 GLC d   1       9.577  40.860   6.959  0.00  0.00     0.209 HD
ENDBRANCH  86  89
ENDBRANCH  74  86
ENDBRANCH  65  66
ENDBRANCH   6  65
TORSDOF 25
