REMARK  5 active torsions:
REMARK  status: ('A' for Active; 'I' for Inactive)
REMARK    1  A    between atoms: C2_2  and  O2_11 
REMARK    2  A    between atoms: C3_3  and  O3_12 
REMARK    3  A    between atoms: C4_4  and  O4_13 
REMARK    4  A    between atoms: C5_5  and  C6_6 
REMARK    5  A    between atoms: C6_6  and  O6_14 
ROOT
ATOM      1  C1  NTZ d   1      47.299 119.688  52.489  0.00  0.00     0.178 A 
ATOM      2  C2  NTZ d   1      47.989 119.019  53.722  0.00  0.00     0.123 C 
ATOM      3  C3  NTZ d   1      48.380 120.117  54.695  0.00  0.00     0.094 C 
ATOM      4  C4  NTZ d   1      48.799 121.386  53.864  0.00  0.00     0.086 C 
ATOM      5  C5  NTZ d   1      47.499 122.013  53.258  0.00  0.00     0.083 C 
ATOM      6  N1  NTZ d   1      47.041 121.028  52.380  0.00  0.00    -0.248 N 
ATOM      7  N17 NTZ d   1      46.449 121.226  51.146  0.00  0.00    -0.197 N 
ATOM      8  N18 NTZ d   1      46.303 119.928  50.563  0.00  0.00    -0.050 NA
ATOM      9  N21 NTZ d   1      46.856 119.108  51.361  0.00  0.00    -0.113 NA
ATOM     10  H1  NTZ d   1      48.915 118.559  53.347  0.00  0.00     0.099 H 
ATOM     11  H2  NTZ d   1      47.551 120.368  55.373  0.00  0.00     0.091 H 
ATOM     12  H3  NTZ d   1      49.511 121.112  53.072  0.00  0.00     0.090 H 
ATOM     13  H4  NTZ d   1      46.780 122.144  54.080  0.00  0.00     0.083 H 
ATOM     14  H7  NTZ d   1      46.170 122.126  50.731  0.00  0.00     0.212 HD
ENDROOT
BRANCH   5  15
ATOM     15  C6  NTZ d   1      47.563 123.347  52.521  0.00  0.00     0.040 C 
ATOM     16  H5  NTZ d   1      47.955 124.126  53.191  0.00  0.00     0.077 H 
ATOM     17  H6  NTZ d   1      46.559 123.632  52.175  0.00  0.00     0.077 H 
BRANCH  15  18
ATOM     18  O6  NTZ d   1      48.457 123.181  51.373  0.00  0.00    -0.399 OA
ATOM     19  H11 NTZ d   1      49.321 122.931  51.679  0.00  0.00     0.209 HD
ENDBRANCH  15  18
ENDBRANCH   5  15
BRANCH   4  20
ATOM     20  O4  NTZ d   1      49.372 122.364  54.747  0.00  0.00    -0.391 OA
ATOM     21  H10 NTZ d   1      49.578 123.151  54.256  0.00  0.00     0.210 HD
ENDBRANCH   4  20
BRANCH   3  22
ATOM     22  O3  NTZ d   1      49.481 119.572  55.422  0.00  0.00    -0.390 OA
ATOM     23  H9  NTZ d   1      49.816 120.226  56.024  0.00  0.00     0.210 HD
ENDBRANCH   3  22
BRANCH   2  24
ATOM     24  O2  NTZ d   1      47.265 117.957  54.401  0.00  0.00    -0.385 OA
ATOM     25  H8  NTZ d   1      46.476 118.313  54.793  0.00  0.00     0.210 HD
ENDBRANCH   2  24
TORSDOF 5
