REMARK  7 active torsions:
REMARK  status: ('A' for Active; 'I' for Inactive)
REMARK    1  A    between atoms: C1_1  and  N1_2 
REMARK    2  A    between atoms: N1_2  and  O7_3 
REMARK    3  A    between atoms: C2_4  and  O2_5 
REMARK    4  A    between atoms: C3_6  and  O3_7 
REMARK    5  A    between atoms: C4_8  and  O4_9 
REMARK    6  A    between atoms: C5_10  and  C6_12 
REMARK    7  A    between atoms: C6_12  and  O6_13 
ROOT
ATOM      1  C1  GOX d   1      46.871 119.891  52.844  0.00  0.00     0.159 C 
ATOM      2  C2  GOX d   1      47.752 119.220  53.910  0.00  0.00     0.121 C 
ATOM      3  C3  GOX d   1      48.249 120.259  54.889  0.00  0.00     0.094 C 
ATOM      4  C4  GOX d   1      48.648 121.507  54.062  0.00  0.00     0.084 C 
ATOM      5  C5  GOX d   1      47.312 122.173  53.572  0.00  0.00     0.058 C 
ATOM      6  N5  GOX d   1      46.714 121.224  52.640  0.00  0.00    -0.365 N 
ATOM      7  H2  GOX d   1      48.642 118.858  53.374  0.00  0.00     0.099 H 
ATOM      8  H4  GOX d   1      47.467 120.531  55.614  0.00  0.00     0.091 H 
ATOM      9  H6  GOX d   1      49.296 121.229  53.218  0.00  0.00     0.090 H 
ATOM     10  H8  GOX d   1      46.665 122.343  54.445  0.00  0.00     0.079 H 
ATOM     11  H9  GOX d   1      46.175 121.564  51.831  0.00  0.00     0.161 HD
ENDROOT
BRANCH   5  12
ATOM     12  C6  GOX d   1      47.406 123.456  52.773  0.00  0.00     0.038 C 
ATOM     13  H10 GOX d   1      47.877 124.231  53.395  0.00  0.00     0.077 H 
ATOM     14  H11 GOX d   1      46.392 123.777  52.492  0.00  0.00     0.077 H 
BRANCH  12  15
ATOM     15  O6  GOX d   1      48.187 123.278  51.578  0.00  0.00    -0.399 OA
ATOM     16  H12 GOX d   1      49.066 123.005  51.813  0.00  0.00     0.209 HD
ENDBRANCH  12  15
ENDBRANCH   5  12
BRANCH   4  17
ATOM     17  O4  GOX d   1      49.290 122.463  54.907  0.00  0.00    -0.391 OA
ATOM     18  H7  GOX d   1      49.532 123.225  54.394  0.00  0.00     0.210 HD
ENDBRANCH   4  17
BRANCH   3  19
ATOM     19  O3  GOX d   1      49.347 119.649  55.564  0.00  0.00    -0.390 OA
ATOM     20  H5  GOX d   1      49.705 120.258  56.198  0.00  0.00     0.210 HD
ENDBRANCH   3  19
BRANCH   1  21
ATOM     21  N1  GOX d   1      46.180 119.101  52.013  0.00  0.00    -0.120 NA
BRANCH  21  22
ATOM     22  O7  GOX d   1      45.512 119.568  50.983  0.00  0.00    -0.265 OA
ATOM     23  H1  GOX d   1      45.094 118.848  50.525  0.00  0.00     0.247 HD
ENDBRANCH  21  22
ENDBRANCH   1  21
BRANCH   2  24
ATOM     24  O2  GOX d   1      47.199 118.054  54.530  0.00  0.00    -0.385 OA
ATOM     25  H3  GOX d   1      46.385 118.283  54.963  0.00  0.00     0.210 HD
ENDBRANCH   2  24
TORSDOF 7
