REMARK  8 active torsions:
REMARK  status: ('A' for Active; 'I' for Inactive)
REMARK    1  A    between atoms: C19_21  and  C22_1 
REMARK    2  A    between atoms: C9_12  and  N1_3 
REMARK    3  A    between atoms: C7_5  and  C6_6 
REMARK    4  A    between atoms: C10_11  and  C7_5 
REMARK    5  A    between atoms: C7_5  and  N_26 
REMARK       I    between atoms: C6_6  and  N3_28 
REMARK    6  A    between atoms: C8_13  and  C5_7 
REMARK    7  A    between atoms: C3_9  and  C9_12 
REMARK       I    between atoms: N_26  and  C8_13 
REMARK    8  A    between atoms: C18_20  and  C19_21 
ROOT
ATOM      1  C7  BPO d   1       8.761  -6.307  23.003  0.00  0.00     0.115 C 
ATOM      2  H5  BPO d   1       9.420  -6.559  22.159  0.00  0.00     0.095 H 
ENDROOT
BRANCH   1   3
ATOM      3  C6  BPO d   1       8.031  -7.620  23.461  0.00  0.00     0.247 C 
ATOM      4  N3  BPO d   1       8.827  -8.772  23.281  0.00  0.00    -0.350 N 
ATOM      5  C21 BPO d   1      10.214  -8.498  22.857  0.00  0.00    -0.002 C 
ATOM      6  C16 BPO d   1       8.551  -9.903  24.158  0.00  0.00    -0.002 C 
ATOM      7  C20 BPO d   1      11.015  -9.763  22.563  0.00  0.00    -0.040 C 
ATOM      8  H23 BPO d   1      10.721  -7.942  23.659  0.00  0.00     0.064 H 
ATOM      9  H24 BPO d   1      10.186  -7.883  21.946  0.00  0.00     0.064 H 
ATOM     10  C18 BPO d   1      10.998 -10.676  23.829  0.00  0.00     0.011 C 
ATOM     11  H17 BPO d   1      12.053  -9.494  22.315  0.00  0.00     0.036 H 
ATOM     12  H18 BPO d   1      10.562 -10.298  21.715  0.00  0.00     0.036 H 
ATOM     13  C17 BPO d   1       9.554 -11.047  24.218  0.00  0.00    -0.040 C 
ATOM     14  H16 BPO d   1      11.553 -10.248  24.676  0.00  0.00     0.052 H 
ATOM     15  H9  BPO d   1       9.210 -11.837  23.534  0.00  0.00     0.036 H 
ATOM     16  H10 BPO d   1       9.568 -11.434  25.248  0.00  0.00     0.036 H 
ATOM     17  H11 BPO d   1       8.454  -9.504  25.179  0.00  0.00     0.064 H 
ATOM     18  H12 BPO d   1       7.590 -10.332  23.839  0.00  0.00     0.064 H 
ATOM     19  O   BPO d   1       6.878  -7.679  23.825  0.00  0.00    -0.271 OA
BRANCH  10  20
ATOM     20  C19 BPO d   1      11.630 -11.964  23.246  0.00  0.00     0.163 C 
ATOM     21  O2  BPO d   1      11.348 -12.287  22.110  0.00  0.00    -0.292 OA
BRANCH  20  22
ATOM     22  C22 BPO d   1      12.569 -12.751  24.112  0.00  0.00     0.010 A 
ATOM     23  C23 BPO d   1      13.392 -13.717  23.490  0.00  0.00    -0.070 A 
ATOM     24  C24 BPO d   1      14.249 -14.442  24.304  0.00  0.00    -0.082 A 
ATOM     25  H25 BPO d   1      13.355 -13.884  22.420  0.00  0.00     0.085 H 
ATOM     26  C25 BPO d   1      14.343 -14.273  25.688  0.00  0.00    -0.083 A 
ATOM     27  H26 BPO d   1      14.885 -15.186  23.838  0.00  0.00     0.083 H 
ATOM     28  C26 BPO d   1      13.537 -13.315  26.283  0.00  0.00    -0.082 A 
ATOM     29  H27 BPO d   1      15.026 -14.873  26.279  0.00  0.00     0.083 H 
ATOM     30  C27 BPO d   1      12.661 -12.567  25.492  0.00  0.00    -0.070 A 
ATOM     31  H28 BPO d   1      13.586 -13.148  27.353  0.00  0.00     0.083 H 
ATOM     32  H29 BPO d   1      12.033 -11.820  25.965  0.00  0.00     0.085 H 
ENDBRANCH  20  22
ENDBRANCH  10  20
ENDBRANCH   1   3
BRANCH   1  33
ATOM     33  C10 BPO d   1       7.668  -5.364  22.502  0.00  0.00    -0.026 A 
ATOM     34  C11 BPO d   1       7.429  -4.170  23.194  0.00  0.00    -0.074 A 
ATOM     35  C12 BPO d   1       6.439  -3.287  22.771  0.00  0.00    -0.082 A 
ATOM     36  H7  BPO d   1       8.022  -3.930  24.069  0.00  0.00     0.084 H 
ATOM     37  C13 BPO d   1       5.667  -3.633  21.651  0.00  0.00    -0.083 A 
ATOM     38  H8  BPO d   1       6.268  -2.353  23.295  0.00  0.00     0.083 H 
ATOM     39  C14 BPO d   1       5.895  -4.823  20.964  0.00  0.00    -0.082 A 
ATOM     40  H14 BPO d   1       4.882  -2.965  21.316  0.00  0.00     0.083 H 
ATOM     41  C15 BPO d   1       6.893  -5.720  21.380  0.00  0.00    -0.074 A 
ATOM     42  H13 BPO d   1       5.293  -5.061  20.095  0.00  0.00     0.083 H 
ATOM     43  H15 BPO d   1       7.061  -6.654  20.856  0.00  0.00     0.084 H 
ENDBRANCH   1  33
BRANCH   1  44
ATOM     44  N   BPO d   1       9.597  -5.689  24.025  0.00  0.00    -0.340 N 
ATOM     45  C8  BPO d   1      10.713  -4.935  23.583  0.00  0.00     0.252 C 
ATOM     46  O1  BPO d   1      11.006  -4.750  22.400  0.00  0.00    -0.268 OA
ATOM     47  H20 BPO d   1       9.392  -5.793  24.998  0.00  0.00     0.164 HD
BRANCH  45  48
ATOM     48  C5  BPO d   1      11.595  -4.271  24.623  0.00  0.00     0.033 A 
ATOM     49  C1  BPO d   1      12.871  -3.782  24.248  0.00  0.00    -0.068 A 
ATOM     50  C   BPO d   1      13.659  -3.161  25.233  0.00  0.00    -0.081 A 
ATOM     51  H1  BPO d   1      13.230  -3.884  23.230  0.00  0.00     0.085 H 
ATOM     52  C2  BPO d   1      13.197  -3.010  26.547  0.00  0.00    -0.069 A 
ATOM     53  H19 BPO d   1      14.644  -2.792  24.971  0.00  0.00     0.083 H 
ATOM     54  C3  BPO d   1      11.942  -3.511  26.910  0.00  0.00     0.008 A 
ATOM     55  H4  BPO d   1      13.812  -2.505  27.283  0.00  0.00     0.085 H 
ATOM     56  C4  BPO d   1      11.131  -4.153  25.941  0.00  0.00    -0.054 A 
ATOM     57  H6  BPO d   1      10.160  -4.549  26.216  0.00  0.00     0.086 H 
BRANCH  54  58
ATOM     58  C9  BPO d   1      11.381  -3.409  28.285  0.00  0.00     0.102 C 
ATOM     59  N2  BPO d   1      10.041  -3.503  28.331  0.00  0.00    -0.385 N 
ATOM     60  H21 BPO d   1       9.523  -3.881  27.525  0.00  0.00     0.157 HD
ATOM     61  H22 BPO d   1       9.532  -3.197  29.172  0.00  0.00     0.157 HD
BRANCH  58  62
ATOM     62  N1  BPO d   1      12.174  -2.934  29.269  0.00  0.00    -0.385 N 
ATOM     63  H2  BPO d   1      11.811  -2.853  30.229  0.00  0.00     0.157 HD
ATOM     64  H3  BPO d   1      13.142  -2.652  29.059  0.00  0.00     0.157 HD
ENDBRANCH  58  62
ENDBRANCH  54  58
ENDBRANCH  45  48
ENDBRANCH   1  44
TORSDOF 8
