REMARK  27 active torsions:
REMARK  status: ('A' for Active; 'I' for Inactive)
REMARK    1  A    between atoms: C33_32  and  C34_1 
REMARK    2  A    between atoms: C30_13  and  C40_7 
REMARK    3  A    between atoms: O29_14  and  C30_13 
REMARK    4  A    between atoms: C5_15  and  O29_14 
REMARK    5  A    between atoms: C4_16  and  C5_15 
REMARK    6  A    between atoms: C5_15  and  C6_35 
REMARK    7  A    between atoms: C3_17  and  C4_16 
REMARK    8  A    between atoms: C4_16  and  O28_34 
REMARK    9  A    between atoms: C2_18  and  C3_17 
REMARK   10  A    between atoms: C3_17  and  O27_33 
REMARK   11  A    between atoms: C2_18  and  C1_19 
REMARK   12  A    between atoms: O32_31  and  C2_18 
REMARK       I    between atoms: C1_19  and  N18_21 
REMARK   13  A    between atoms: N18_21  and  C19_22 
REMARK   14  A    between atoms: C19_22  and  C20_23 
REMARK   15  A    between atoms: C19_22  and  C23_27 
REMARK   16  A    between atoms: C20_23  and  C21_24 
REMARK   17  A    between atoms: C20_23  and  C22_25 
REMARK   18  A    between atoms: C22_25  and  C46_26 
REMARK       I    between atoms: C23_27  and  N25_29 
REMARK   19  A    between atoms: N25_29  and  C26_30 
REMARK   20  A    between atoms: C33_32  and  O32_31 
REMARK       I    between atoms: C6_35  and  N8_37 
REMARK   21  A    between atoms: N8_37  and  C9_38 
REMARK   22  A    between atoms: C9_38  and  C10_39 
REMARK   23  A    between atoms: C9_38  and  C13_43 
REMARK   24  A    between atoms: C10_39  and  C11_40 
REMARK   25  A    between atoms: C10_39  and  C12_41 
REMARK   26  A    between atoms: C12_41  and  C47_42 
REMARK       I    between atoms: C13_43  and  N15_45 
REMARK   27  A    between atoms: N15_45  and  C16_46 
ROOT
ATOM      1  C4  BEI d   1      14.093  23.028   4.912  0.00  0.00     0.096 C 
ATOM      2  H16 BEI d   1      13.207  22.399   5.085  0.00  0.00     0.091 H 
ENDROOT
BRANCH   1   3
ATOM      3  C5  BEI d   1      15.155  22.646   5.937  0.00  0.00     0.142 C 
ATOM      4  H15 BEI d   1      16.100  23.162   5.709  0.00  0.00     0.102 H 
BRANCH   3   5
ATOM      5  O29 BEI d   1      14.714  23.058   7.282  0.00  0.00    -0.370 OA
BRANCH   5   6
ATOM      6  C30 BEI d   1      15.802  23.414   8.200  0.00  0.00     0.041 C 
ATOM      7  H13 BEI d   1      16.563  23.985   7.649  0.00  0.00     0.081 H 
ATOM      8  H14 BEI d   1      15.396  24.033   9.014  0.00  0.00     0.081 H 
BRANCH   6   9
ATOM      9  C40 BEI d   1      16.446  22.180   8.794  0.00  0.00    -0.057 A 
ATOM     10  C41 BEI d   1      15.634  21.207   9.480  0.00  0.00    -0.028 A 
ATOM     11  C42 BEI d   1      16.224  20.024  10.037  0.00  0.00    -0.102 A 
ATOM     12  H6  BEI d   1      14.873  20.870   8.761  0.00  0.00     0.045 H 
ATOM     13  H7  BEI d   1      15.145  21.736  10.311  0.00  0.00     0.045 H 
ATOM     14  C43 BEI d   1      17.617  19.824   9.905  0.00  0.00    -0.103 A 
ATOM     15  H8  BEI d   1      15.607  19.290  10.554  0.00  0.00     0.076 H 
ATOM     16  C44 BEI d   1      18.434  20.794   9.221  0.00  0.00    -0.035 A 
ATOM     17  H9  BEI d   1      18.076  18.930  10.324  0.00  0.00     0.076 H 
ATOM     18  C45 BEI d   1      17.846  21.974   8.664  0.00  0.00    -0.095 A 
ATOM     19  H10 BEI d   1      18.924  20.264   8.391  0.00  0.00     0.044 H 
ATOM     20  H11 BEI d   1      19.194  21.130   9.941  0.00  0.00     0.044 H 
ATOM     21  H12 BEI d   1      18.465  22.706   8.146  0.00  0.00     0.077 H 
ENDBRANCH   6   9
ENDBRANCH   5   6
ENDBRANCH   3   5
BRANCH   3  22
ATOM     22  C6  BEI d   1      15.352  21.195   5.790  0.00  0.00     0.250 C 
ATOM     23  O7  BEI d   1      14.385  20.483   6.108  0.00  0.00    -0.271 OA
ATOM     24  N8  BEI d   1      16.546  20.742   5.325  0.00  0.00    -0.345 N 
ATOM     25  H38 BEI d   1      17.259  21.405   5.095  0.00  0.00     0.163 HD
BRANCH  24  26
ATOM     26  C9  BEI d   1      16.821  19.322   5.151  0.00  0.00     0.092 C 
ATOM     27  H39 BEI d   1      16.088  18.730   5.719  0.00  0.00     0.088 H 
BRANCH  26  28
ATOM     28  C10 BEI d   1      16.756  18.889   3.627  0.00  0.00    -0.030 C 
ATOM     29  H40 BEI d   1      17.430  19.546   3.058  0.00  0.00     0.043 H 
BRANCH  28  30
ATOM     30  C11 BEI d   1      17.226  17.395   3.429  0.00  0.00    -0.071 C 
ATOM     31  H41 BEI d   1      17.168  17.131   2.363  0.00  0.00     0.028 H 
ATOM     32  H42 BEI d   1      16.574  16.726   4.009  0.00  0.00     0.028 H 
ATOM     33  H43 BEI d   1      18.264  17.288   3.777  0.00  0.00     0.028 H 
ENDBRANCH  28  30
BRANCH  28  34
ATOM     34  C12 BEI d   1      15.322  19.040   3.055  0.00  0.00    -0.063 C 
ATOM     35  H44 BEI d   1      14.881  19.974   3.433  0.00  0.00     0.033 H 
ATOM     36  H45 BEI d   1      14.712  18.186   3.385  0.00  0.00     0.033 H 
BRANCH  34  37
ATOM     37  C47 BEI d   1      15.341  19.080   1.513  0.00  0.00    -0.076 C 
ATOM     38  H46 BEI d   1      14.313  19.187   1.136  0.00  0.00     0.027 H 
ATOM     39  H47 BEI d   1      15.777  18.147   1.127  0.00  0.00     0.027 H 
ATOM     40  H48 BEI d   1      15.946  19.934   1.176  0.00  0.00     0.027 H 
ENDBRANCH  34  37
ENDBRANCH  28  34
ENDBRANCH  26  28
BRANCH  26  41
ATOM     41  C13 BEI d   1      18.200  19.098   5.705  0.00  0.00     0.240 C 
ATOM     42  O14 BEI d   1      19.152  19.780   5.269  0.00  0.00    -0.271 OA
ATOM     43  N15 BEI d   1      18.294  18.127   6.676  0.00  0.00    -0.364 N 
ATOM     44  H49 BEI d   1      17.495  17.613   6.989  0.00  0.00     0.161 HD
BRANCH  43  45
ATOM     45  C16 BEI d   1      19.625  17.891   7.222  0.00  0.00    -0.018 C 
ATOM     46  H50 BEI d   1      19.574  17.099   7.984  0.00  0.00     0.056 H 
ATOM     47  H51 BEI d   1      20.003  18.817   7.681  0.00  0.00     0.056 H 
ATOM     48  H52 BEI d   1      20.303  17.579   6.414  0.00  0.00     0.056 H 
ENDBRANCH  43  45
ENDBRANCH  26  41
ENDBRANCH  24  26
ENDBRANCH   3  22
ENDBRANCH   1   3
BRANCH   1  49
ATOM     49  C3  BEI d   1      13.680  24.467   4.996  0.00  0.00     0.096 C 
ATOM     50  H17 BEI d   1      13.583  24.777   6.047  0.00  0.00     0.091 H 
BRANCH  49  51
ATOM     51  C2  BEI d   1      12.294  24.657   4.292  0.00  0.00     0.142 C 
ATOM     52  H18 BEI d   1      12.316  25.637   3.792  0.00  0.00     0.102 H 
BRANCH  51  53
ATOM     53  C1  BEI d   1      11.114  24.663   5.264  0.00  0.00     0.250 C 
ATOM     54  O17 BEI d   1      10.823  23.623   5.863  0.00  0.00    -0.271 OA
ATOM     55  N18 BEI d   1      10.419  25.827   5.404  0.00  0.00    -0.345 N 
ATOM     56  H19 BEI d   1      10.726  26.622   4.881  0.00  0.00     0.163 HD
BRANCH  55  57
ATOM     57  C19 BEI d   1       9.235  25.987   6.284  0.00  0.00     0.092 C 
ATOM     58  H20 BEI d   1       8.780  25.004   6.475  0.00  0.00     0.088 H 
BRANCH  57  59
ATOM     59  C20 BEI d   1       9.585  26.671   7.665  0.00  0.00    -0.030 C 
ATOM     60  H21 BEI d   1      10.019  27.657   7.445  0.00  0.00     0.043 H 
BRANCH  59  61
ATOM     61  C21 BEI d   1       8.298  26.891   8.527  0.00  0.00    -0.071 C 
ATOM     62  H22 BEI d   1       8.572  27.367   9.480  0.00  0.00     0.028 H 
ATOM     63  H23 BEI d   1       7.820  25.921   8.726  0.00  0.00     0.028 H 
ATOM     64  H24 BEI d   1       7.597  27.540   7.981  0.00  0.00     0.028 H 
ENDBRANCH  59  61
BRANCH  59  65
ATOM     65  C22 BEI d   1      10.648  25.852   8.490  0.00  0.00    -0.063 C 
ATOM     66  H25 BEI d   1      11.423  25.473   7.807  0.00  0.00     0.033 H 
ATOM     67  H26 BEI d   1      10.149  25.005   8.984  0.00  0.00     0.033 H 
BRANCH  65  68
ATOM     68  C46 BEI d   1      11.316  26.757   9.573  0.00  0.00    -0.076 C 
ATOM     69  H27 BEI d   1      12.054  26.169  10.138  0.00  0.00     0.027 H 
ATOM     70  H28 BEI d   1      10.545  27.136  10.260  0.00  0.00     0.027 H 
ATOM     71  H29 BEI d   1      11.819  27.604   9.084  0.00  0.00     0.027 H 
ENDBRANCH  65  68
ENDBRANCH  59  65
ENDBRANCH  57  59
BRANCH  57  72
ATOM     72  C23 BEI d   1       8.270  26.882   5.519  0.00  0.00     0.240 C 
ATOM     73  O24 BEI d   1       8.691  27.958   5.060  0.00  0.00    -0.271 OA
ATOM     74  N25 BEI d   1       6.976  26.422   5.398  0.00  0.00    -0.364 N 
ATOM     75  H30 BEI d   1       6.696  25.546   5.790  0.00  0.00     0.161 HD
BRANCH  74  76
ATOM     76  C26 BEI d   1       6.036  27.265   4.677  0.00  0.00    -0.018 C 
ATOM     77  H31 BEI d   1       5.049  26.780   4.657  0.00  0.00     0.056 H 
ATOM     78  H32 BEI d   1       6.392  27.414   3.647  0.00  0.00     0.056 H 
ATOM     79  H33 BEI d   1       5.955  28.239   5.181  0.00  0.00     0.056 H 
ENDBRANCH  74  76
ENDBRANCH  57  72
ENDBRANCH  55  57
ENDBRANCH  51  53
BRANCH  51  80
ATOM     80  O32 BEI d   1      12.069  23.615   3.249  0.00  0.00    -0.369 OA
BRANCH  80  81
ATOM     81  C33 BEI d   1      11.424  24.093   2.033  0.00  0.00     0.044 C 
ATOM     82  H34 BEI d   1      11.814  25.094   1.797  0.00  0.00     0.081 H 
ATOM     83  H35 BEI d   1      11.665  23.403   1.211  0.00  0.00     0.081 H 
BRANCH  81  84
ATOM     84  C34 BEI d   1       9.910  24.178   2.172  0.00  0.00    -0.035 A 
ATOM     85  C35 BEI d   1       9.228  25.359   1.809  0.00  0.00    -0.075 A 
ATOM     86  C36 BEI d   1       7.819  25.455   1.940  0.00  0.00    -0.082 A 
ATOM     87  H1  BEI d   1       9.788  26.204   1.425  0.00  0.00     0.084 H 
ATOM     88  C37 BEI d   1       7.088  24.357   2.443  0.00  0.00    -0.083 A 
ATOM     89  H2  BEI d   1       7.306  26.367   1.655  0.00  0.00     0.083 H 
ATOM     90  C38 BEI d   1       7.754  23.159   2.816  0.00  0.00    -0.082 A 
ATOM     91  H3  BEI d   1       6.011  24.429   2.545  0.00  0.00     0.083 H 
ATOM     92  C39 BEI d   1       9.170  23.073   2.679  0.00  0.00    -0.075 A 
ATOM     93  H4  BEI d   1       7.190  22.317   3.202  0.00  0.00     0.083 H 
ATOM     94  H5  BEI d   1       9.685  22.162   2.962  0.00  0.00     0.084 H 
ENDBRANCH  81  84
ENDBRANCH  80  81
ENDBRANCH  51  80
ENDBRANCH  49  51
BRANCH  49  95
ATOM     95  O27 BEI d   1      14.780  25.204   4.370  0.00  0.00    -0.390 OA
ATOM     96  H36 BEI d   1      14.882  24.915   3.471  0.00  0.00     0.210 HD
ENDBRANCH  49  95
ENDBRANCH   1  49
BRANCH   1  97
ATOM     97  O28 BEI d   1      14.606  22.782   3.551  0.00  0.00    -0.390 OA
ATOM     98  H37 BEI d   1      13.922  22.966   2.918  0.00  0.00     0.210 HD
ENDBRANCH   1  97
TORSDOF 27
