REMARK  17 active torsions:
REMARK  status: ('A' for Active; 'I' for Inactive)
REMARK    1  A    between atoms: C22_23  and  C23_1 
REMARK    2  A    between atoms: C32_13  and  C33_7 
REMARK    3  A    between atoms: O31_14  and  C32_13 
REMARK    4  A    between atoms: C9_15  and  O31_14 
REMARK    5  A    between atoms: C7_16  and  C9_15 
REMARK    6  A    between atoms: C9_15  and  C10_26 
REMARK    7  A    between atoms: C5_17  and  C7_16 
REMARK    8  A    between atoms: C7_16  and  O8_25 
REMARK    9  A    between atoms: C4_18  and  C5_17 
REMARK   10  A    between atoms: C5_17  and  O6_24 
REMARK   11  A    between atoms: C4_18  and  C2_19 
REMARK   12  A    between atoms: O21_22  and  C4_18 
REMARK       I    between atoms: C2_19  and  N1_21 
REMARK   13  A    between atoms: N1_21  and  C41_39 
REMARK   14  A    between atoms: C22_23  and  O21_22 
REMARK       I    between atoms: C10_26  and  N12_28 
REMARK   15  A    between atoms: N12_28  and  C51_29 
REMARK   16  A    between atoms: C59_35  and  O60_36 
REMARK   17  A    between atoms: C49_45  and  O50_46 
ROOT
ATOM      1  C7  BEB d   1      14.063  23.059   5.031  0.00  0.00     0.096 C 
ATOM      2  H14 BEB d   1      13.199  22.404   5.214  0.00  0.00     0.091 H 
ENDROOT
BRANCH   1   3
ATOM      3  C9  BEB d   1      15.180  22.685   6.028  0.00  0.00     0.142 C 
ATOM      4  H13 BEB d   1      16.123  23.175   5.744  0.00  0.00     0.102 H 
BRANCH   3   5
ATOM      5  O31 BEB d   1      14.796  23.116   7.367  0.00  0.00    -0.369 OA
BRANCH   5   6
ATOM      6  C32 BEB d   1      15.890  23.402   8.288  0.00  0.00     0.044 C 
ATOM      7  H11 BEB d   1      16.629  24.020   7.757  0.00  0.00     0.081 H 
ATOM      8  H12 BEB d   1      15.480  23.968   9.137  0.00  0.00     0.081 H 
BRANCH   6   9
ATOM      9  C33 BEB d   1      16.617  22.167   8.846  0.00  0.00    -0.035 A 
ATOM     10  C34 BEB d   1      15.897  21.182   9.590  0.00  0.00    -0.075 A 
ATOM     11  C35 BEB d   1      16.568  20.030  10.094  0.00  0.00    -0.082 A 
ATOM     12  H6  BEB d   1      14.836  21.311   9.772  0.00  0.00     0.084 H 
ATOM     13  C36 BEB d   1      17.960  19.859   9.854  0.00  0.00    -0.083 A 
ATOM     14  H7  BEB d   1      16.019  19.285  10.659  0.00  0.00     0.083 H 
ATOM     15  C37 BEB d   1      18.681  20.839   9.114  0.00  0.00    -0.082 A 
ATOM     16  H8  BEB d   1      18.472  18.983  10.235  0.00  0.00     0.083 H 
ATOM     17  C38 BEB d   1      18.010  21.990   8.610  0.00  0.00    -0.075 A 
ATOM     18  H9  BEB d   1      19.742  20.709   8.934  0.00  0.00     0.083 H 
ATOM     19  H10 BEB d   1      18.561  22.733   8.045  0.00  0.00     0.084 H 
ENDBRANCH   6   9
ENDBRANCH   5   6
ENDBRANCH   3   5
BRANCH   3  20
ATOM     20  C10 BEB d   1      15.341  21.199   5.962  0.00  0.00     0.250 C 
ATOM     21  O11 BEB d   1      14.354  20.516   6.211  0.00  0.00    -0.271 OA
ATOM     22  N12 BEB d   1      16.505  20.701   5.579  0.00  0.00    -0.348 N 
ATOM     23  H22 BEB d   1      17.231  21.369   5.418  0.00  0.00     0.163 HD
BRANCH  22  24
ATOM     24  C51 BEB d   1      16.870  19.300   5.359  0.00  0.00     0.063 C 
ATOM     25  C52 BEB d   1      16.755  18.920   3.883  0.00  0.00    -0.027 A 
ATOM     26  C57 BEB d   1      17.677  17.910   3.529  0.00  0.00    -0.047 A 
ATOM     27  C53 BEB d   1      15.875  19.446   2.893  0.00  0.00    -0.074 A 
ATOM     28  C56 BEB d   1      17.758  17.395   2.212  0.00  0.00    -0.076 A 
ATOM     29  C58 BEB d   1      18.498  17.518   4.745  0.00  0.00    -0.014 C 
ATOM     30  C55 BEB d   1      16.875  17.924   1.227  0.00  0.00    -0.082 A 
ATOM     31  H29 BEB d   1      18.472  16.619   1.960  0.00  0.00     0.084 H 
ATOM     32  C54 BEB d   1      15.938  18.945   1.561  0.00  0.00    -0.082 A 
ATOM     33  H26 BEB d   1      16.916  17.546   0.212  0.00  0.00     0.083 H 
ATOM     34  H25 BEB d   1      15.273  19.340   0.801  0.00  0.00     0.083 H 
ATOM     35  C59 BEB d   1      18.283  18.748   5.673  0.00  0.00     0.063 C 
ATOM     36  H30 BEB d   1      19.560  17.389   4.489  0.00  0.00     0.044 H 
ATOM     37  H31 BEB d   1      18.117  16.595   5.207  0.00  0.00     0.044 H 
ATOM     38  H27 BEB d   1      18.366  18.449   6.728  0.00  0.00     0.087 H 
ATOM     39  H24 BEB d   1      15.163  20.221   3.152  0.00  0.00     0.084 H 
ATOM     40  H23 BEB d   1      16.150  18.715   5.951  0.00  0.00     0.084 H 
BRANCH  35  41
ATOM     41  O60 BEB d   1      19.229  19.799   5.376  0.00  0.00    -0.393 OA
ATOM     42  H28 BEB d   1      20.109  19.492   5.558  0.00  0.00     0.210 HD
ENDBRANCH  35  41
ENDBRANCH  22  24
ENDBRANCH   3  20
ENDBRANCH   1   3
BRANCH   1  43
ATOM     43  C5  BEB d   1      13.594  24.513   5.108  0.00  0.00     0.096 C 
ATOM     44  H15 BEB d   1      13.473  24.809   6.160  0.00  0.00     0.091 H 
BRANCH  43  45
ATOM     45  C4  BEB d   1      12.221  24.732   4.356  0.00  0.00     0.142 C 
ATOM     46  H16 BEB d   1      12.254  25.705   3.844  0.00  0.00     0.102 H 
BRANCH  45  47
ATOM     47  C2  BEB d   1      11.034  24.726   5.312  0.00  0.00     0.250 C 
ATOM     48  O3  BEB d   1      10.818  23.713   5.961  0.00  0.00    -0.271 OA
ATOM     49  N1  BEB d   1      10.261  25.803   5.360  0.00  0.00    -0.348 N 
ATOM     50  H17 BEB d   1      10.560  26.559   4.778  0.00  0.00     0.163 HD
BRANCH  49  51
ATOM     51  C41 BEB d   1       9.029  26.067   6.135  0.00  0.00     0.063 C 
ATOM     52  C42 BEB d   1       9.299  26.762   7.477  0.00  0.00    -0.027 A 
ATOM     53  C47 BEB d   1       8.196  27.563   7.878  0.00  0.00    -0.047 A 
ATOM     54  C43 BEB d   1      10.456  26.702   8.306  0.00  0.00    -0.074 A 
ATOM     55  C46 BEB d   1       8.207  28.313   9.090  0.00  0.00    -0.076 A 
ATOM     56  C48 BEB d   1       7.094  27.469   6.839  0.00  0.00    -0.014 C 
ATOM     57  C45 BEB d   1       9.379  28.245   9.918  0.00  0.00    -0.082 A 
ATOM     58  H38 BEB d   1       7.355  28.918   9.379  0.00  0.00     0.084 H 
ATOM     59  C44 BEB d   1      10.493  27.446   9.526  0.00  0.00    -0.082 A 
ATOM     60  H35 BEB d   1       9.417  28.804  10.846  0.00  0.00     0.083 H 
ATOM     61  H34 BEB d   1      11.373  27.402  10.157  0.00  0.00     0.083 H 
ATOM     62  C49 BEB d   1       7.905  26.992   5.596  0.00  0.00     0.063 C 
ATOM     63  H39 BEB d   1       6.620  28.446   6.662  0.00  0.00     0.044 H 
ATOM     64  H40 BEB d   1       6.327  26.735   7.128  0.00  0.00     0.044 H 
ATOM     65  H36 BEB d   1       7.250  26.453   4.895  0.00  0.00     0.087 H 
ATOM     66  H33 BEB d   1      11.305  26.095   8.013  0.00  0.00     0.084 H 
ATOM     67  H32 BEB d   1       8.587  25.076   6.317  0.00  0.00     0.084 H 
BRANCH  62  68
ATOM     68  O50 BEB d   1       8.542  28.110   4.926  0.00  0.00    -0.393 OA
ATOM     69  H37 BEB d   1       7.875  28.695   4.585  0.00  0.00     0.210 HD
ENDBRANCH  62  68
ENDBRANCH  49  51
ENDBRANCH  45  47
BRANCH  45  70
ATOM     70  O21 BEB d   1      12.038  23.665   3.357  0.00  0.00    -0.369 OA
BRANCH  70  71
ATOM     71  C22 BEB d   1      11.362  24.033   2.126  0.00  0.00     0.044 C 
ATOM     72  H18 BEB d   1      11.788  24.985   1.776  0.00  0.00     0.081 H 
ATOM     73  H19 BEB d   1      11.559  23.247   1.382  0.00  0.00     0.081 H 
BRANCH  71  74
ATOM     74  C23 BEB d   1       9.844  24.207   2.241  0.00  0.00    -0.035 A 
ATOM     75  C24 BEB d   1       9.231  25.405   1.795  0.00  0.00    -0.075 A 
ATOM     76  C25 BEB d   1       7.825  25.575   1.912  0.00  0.00    -0.082 A 
ATOM     77  H1  BEB d   1       9.837  26.194   1.363  0.00  0.00     0.084 H 
ATOM     78  C26 BEB d   1       7.026  24.542   2.480  0.00  0.00    -0.083 A 
ATOM     79  H2  BEB d   1       7.360  26.492   1.569  0.00  0.00     0.083 H 
ATOM     80  C27 BEB d   1       7.638  23.339   2.929  0.00  0.00    -0.082 A 
ATOM     81  H3  BEB d   1       5.954  24.672   2.570  0.00  0.00     0.083 H 
ATOM     82  C28 BEB d   1       9.043  23.172   2.810  0.00  0.00    -0.075 A 
ATOM     83  H4  BEB d   1       7.032  22.551   3.361  0.00  0.00     0.083 H 
ATOM     84  H5  BEB d   1       9.509  22.255   3.153  0.00  0.00     0.084 H 
ENDBRANCH  71  74
ENDBRANCH  70  71
ENDBRANCH  45  70
ENDBRANCH  43  45
BRANCH  43  85
ATOM     85  O6  BEB d   1      14.640  25.294   4.491  0.00  0.00    -0.390 OA
ATOM     86  H20 BEB d   1      14.739  25.029   3.584  0.00  0.00     0.210 HD
ENDBRANCH  43  85
ENDBRANCH   1  43
BRANCH   1  87
ATOM     87  O8  BEB d   1      14.580  22.836   3.691  0.00  0.00    -0.390 OA
ATOM     88  H21 BEB d   1      13.892  22.997   3.056  0.00  0.00     0.210 HD
ENDBRANCH   1  87
TORSDOF 17
