REMARK  21 active torsions:
REMARK  status: ('A' for Active; 'I' for Inactive)
REMARK    1  A    between atoms: C22_23  and  C23_1 
REMARK    2  A    between atoms: C32_13  and  C33_7 
REMARK    3  A    between atoms: O31_14  and  C32_13 
REMARK    4  A    between atoms: C9_15  and  O31_14 
REMARK    5  A    between atoms: C7_16  and  C9_15 
REMARK    6  A    between atoms: C9_15  and  C10_26 
REMARK    7  A    between atoms: C5_17  and  C7_16 
REMARK    8  A    between atoms: C7_16  and  O8_25 
REMARK    9  A    between atoms: C4_18  and  C5_17 
REMARK   10  A    between atoms: C5_17  and  O6_24 
REMARK   11  A    between atoms: C4_18  and  C2_19 
REMARK   12  A    between atoms: O21_22  and  C4_18 
REMARK       I    between atoms: C2_19  and  N1_21 
REMARK   13  A    between atoms: N1_21  and  C41_39 
REMARK   14  A    between atoms: C22_23  and  O21_22 
REMARK       I    between atoms: C10_26  and  N12_28 
REMARK   15  A    between atoms: N12_28  and  C51_29 
REMARK   16  A    between atoms: C59_35  and  O60_36 
REMARK   17  A    between atoms: C41_39  and  C42_40 
REMARK   18  A    between atoms: C41_39  and  C45_43 
REMARK   19  A    between atoms: C42_40  and  C43_41 
REMARK   20  A    between atoms: C42_40  and  C44_42 
REMARK       I    between atoms: C45_43  and  N47_45 
REMARK   21  A    between atoms: N47_45  and  C48_46 
ROOT
ATOM      1  C5  BEC d   1      13.566  24.458   4.997  0.00  0.00     0.096 C 
ATOM      2  H15 BEC d   1      13.502  24.782   6.046  0.00  0.00     0.091 H 
ENDROOT
BRANCH   1   3
ATOM      3  C7  BEC d   1      13.990  23.020   4.936  0.00  0.00     0.096 C 
ATOM      4  H14 BEC d   1      13.114  22.386   5.138  0.00  0.00     0.091 H 
BRANCH   3   5
ATOM      5  C9  BEC d   1      15.082  22.670   5.944  0.00  0.00     0.142 C 
ATOM      6  H13 BEC d   1      16.026  23.183   5.706  0.00  0.00     0.102 H 
BRANCH   5   7
ATOM      7  O31 BEC d   1      14.606  23.081   7.272  0.00  0.00    -0.369 OA
BRANCH   7   8
ATOM      8  C32 BEC d   1      15.653  23.423   8.223  0.00  0.00     0.044 C 
ATOM      9  H11 BEC d   1      16.360  24.106   7.728  0.00  0.00     0.081 H 
ATOM     10  H12 BEC d   1      15.189  23.933   9.080  0.00  0.00     0.081 H 
BRANCH   8  11
ATOM     11  C33 BEC d   1      16.436  22.218   8.748  0.00  0.00    -0.035 A 
ATOM     12  C34 BEC d   1      15.756  21.184   9.480  0.00  0.00    -0.075 A 
ATOM     13  C35 BEC d   1      16.488  20.048   9.952  0.00  0.00    -0.082 A 
ATOM     14  H6  BEC d   1      14.693  21.264   9.674  0.00  0.00     0.084 H 
ATOM     15  C36 BEC d   1      17.885  19.948   9.691  0.00  0.00    -0.083 A 
ATOM     16  H7  BEC d   1      15.981  19.266  10.506  0.00  0.00     0.083 H 
ATOM     17  C37 BEC d   1      18.556  20.968   8.967  0.00  0.00    -0.082 A 
ATOM     18  H8  BEC d   1      18.439  19.087  10.048  0.00  0.00     0.083 H 
ATOM     19  C38 BEC d   1      17.834  22.106   8.491  0.00  0.00    -0.075 A 
ATOM     20  H9  BEC d   1      19.619  20.884   8.774  0.00  0.00     0.083 H 
ATOM     21  H10 BEC d   1      18.348  22.882   7.936  0.00  0.00     0.084 H 
ENDBRANCH   8  11
ENDBRANCH   7   8
ENDBRANCH   5   7
BRANCH   5  22
ATOM     22  C10 BEC d   1      15.254  21.191   5.851  0.00  0.00     0.250 C 
ATOM     23  O11 BEC d   1      14.273  20.503   6.126  0.00  0.00    -0.271 OA
ATOM     24  N12 BEC d   1      16.422  20.699   5.505  0.00  0.00    -0.348 N 
ATOM     25  H22 BEC d   1      17.144  21.361   5.303  0.00  0.00     0.163 HD
BRANCH  24  26
ATOM     26  C51 BEC d   1      16.777  19.296   5.384  0.00  0.00     0.063 C 
ATOM     27  C52 BEC d   1      16.726  18.850   3.936  0.00  0.00    -0.027 A 
ATOM     28  C57 BEC d   1      17.688  17.848   3.658  0.00  0.00    -0.047 A 
ATOM     29  C53 BEC d   1      15.868  19.306   2.890  0.00  0.00    -0.074 A 
ATOM     30  C56 BEC d   1      17.837  17.272   2.364  0.00  0.00    -0.076 A 
ATOM     31  C58 BEC d   1      18.469  17.538   4.915  0.00  0.00    -0.014 C 
ATOM     32  C55 BEC d   1      16.978  17.731   1.327  0.00  0.00    -0.082 A 
ATOM     33  H29 BEC d   1      18.582  16.508   2.175  0.00  0.00     0.084 H 
ATOM     34  C54 BEC d   1      15.994  18.744   1.581  0.00  0.00    -0.082 A 
ATOM     35  H26 BEC d   1      17.068  17.310   0.332  0.00  0.00     0.083 H 
ATOM     36  H25 BEC d   1      15.346  19.083   0.781  0.00  0.00     0.083 H 
ATOM     37  C59 BEC d   1      18.172  18.800   5.772  0.00  0.00     0.063 C 
ATOM     38  H30 BEC d   1      19.544  17.436   4.707  0.00  0.00     0.044 H 
ATOM     39  H31 BEC d   1      18.101  16.623   5.403  0.00  0.00     0.044 H 
ATOM     40  H27 BEC d   1      18.235  18.568   6.845  0.00  0.00     0.087 H 
ATOM     41  H24 BEC d   1      15.127  20.072   3.087  0.00  0.00     0.084 H 
ATOM     42  H23 BEC d   1      16.038  18.741   5.980  0.00  0.00     0.084 H 
BRANCH  37  43
ATOM     43  O60 BEC d   1      19.075  19.848   5.419  0.00  0.00    -0.393 OA
ATOM     44  H28 BEC d   1      19.962  19.589   5.641  0.00  0.00     0.210 HD
ENDBRANCH  37  43
ENDBRANCH  24  26
ENDBRANCH   5  22
ENDBRANCH   3   5
BRANCH   3  45
ATOM     45  O8  BEC d   1      14.488  22.752   3.571  0.00  0.00    -0.390 OA
ATOM     46  H21 BEC d   1      13.794  22.918   2.944  0.00  0.00     0.210 HD
ENDBRANCH   3  45
ENDBRANCH   1   3
BRANCH   1  47
ATOM     47  C4  BEC d   1      12.152  24.665   4.334  0.00  0.00     0.142 C 
ATOM     48  H16 BEC d   1      12.169  25.626   3.799  0.00  0.00     0.102 H 
BRANCH  47  49
ATOM     49  C2  BEC d   1      11.008  24.713   5.348  0.00  0.00     0.250 C 
ATOM     50  O3  BEC d   1      10.746  23.686   5.988  0.00  0.00    -0.271 OA
ATOM     51  N1  BEC d   1      10.337  25.862   5.489  0.00  0.00    -0.345 N 
ATOM     52  H17 BEC d   1      10.613  26.644   4.930  0.00  0.00     0.163 HD
BRANCH  51  53
ATOM     53  C41 BEC d   1       9.223  26.033   6.417  0.00  0.00     0.092 C 
ATOM     54  H32 BEC d   1       8.734  25.049   6.458  0.00  0.00     0.088 H 
BRANCH  53  55
ATOM     55  C42 BEC d   1       9.391  26.424   7.954  0.00  0.00    -0.033 C 
ATOM     56  H33 BEC d   1       8.950  25.582   8.508  0.00  0.00     0.042 H 
BRANCH  55  57
ATOM     57  C43 BEC d   1       8.601  27.685   8.419  0.00  0.00    -0.071 C 
ATOM     58  H34 BEC d   1       8.788  27.861   9.489  0.00  0.00     0.028 H 
ATOM     59  H35 BEC d   1       7.525  27.524   8.257  0.00  0.00     0.028 H 
ATOM     60  H36 BEC d   1       8.932  28.559   7.840  0.00  0.00     0.028 H 
ENDBRANCH  55  57
BRANCH  55  61
ATOM     61  C44 BEC d   1      10.878  26.509   8.422  0.00  0.00    -0.071 C 
ATOM     62  H37 BEC d   1      11.420  25.613   8.086  0.00  0.00     0.028 H 
ATOM     63  H38 BEC d   1      10.914  26.569   9.520  0.00  0.00     0.028 H 
ATOM     64  H39 BEC d   1      11.348  27.405   7.990  0.00  0.00     0.028 H 
ENDBRANCH  55  61
ENDBRANCH  53  55
BRANCH  53  65
ATOM     65  C45 BEC d   1       8.284  26.976   5.673  0.00  0.00     0.240 C 
ATOM     66  O46 BEC d   1       8.746  28.003   5.126  0.00  0.00    -0.271 OA
ATOM     67  N47 BEC d   1       6.959  26.604   5.674  0.00  0.00    -0.364 N 
ATOM     68  H40 BEC d   1       6.657  25.769   6.133  0.00  0.00     0.161 HD
BRANCH  67  69
ATOM     69  C48 BEC d   1       6.016  27.465   4.986  0.00  0.00    -0.018 C 
ATOM     70  H41 BEC d   1       5.004  27.043   5.071  0.00  0.00     0.056 H 
ATOM     71  H42 BEC d   1       6.294  27.539   3.924  0.00  0.00     0.056 H 
ATOM     72  H43 BEC d   1       6.035  28.466   5.441  0.00  0.00     0.056 H 
ENDBRANCH  67  69
ENDBRANCH  53  65
ENDBRANCH  51  53
ENDBRANCH  47  49
BRANCH  47  73
ATOM     73  O21 BEC d   1      11.896  23.586   3.356  0.00  0.00    -0.369 OA
BRANCH  73  74
ATOM     74  C22 BEC d   1      11.260  24.012   2.129  0.00  0.00     0.044 C 
ATOM     75  H18 BEC d   1      11.719  24.959   1.810  0.00  0.00     0.081 H 
ATOM     76  H19 BEC d   1      11.434  23.243   1.362  0.00  0.00     0.081 H 
BRANCH  74  77
ATOM     77  C23 BEC d   1       9.761  24.226   2.263  0.00  0.00    -0.035 A 
ATOM     78  C24 BEC d   1       9.179  25.445   1.853  0.00  0.00    -0.075 A 
ATOM     79  C25 BEC d   1       7.778  25.649   1.989  0.00  0.00    -0.082 A 
ATOM     80  H1  BEC d   1       9.801  26.227   1.434  0.00  0.00     0.084 H 
ATOM     81  C26 BEC d   1       6.956  24.622   2.541  0.00  0.00    -0.083 A 
ATOM     82  H2  BEC d   1       7.334  26.586   1.673  0.00  0.00     0.083 H 
ATOM     83  C27 BEC d   1       7.537  23.392   2.957  0.00  0.00    -0.082 A 
ATOM     84  H3  BEC d   1       5.888  24.779   2.643  0.00  0.00     0.083 H 
ATOM     85  C28 BEC d   1       8.942  23.193   2.818  0.00  0.00    -0.075 A 
ATOM     86  H4  BEC d   1       6.915  22.610   3.377  0.00  0.00     0.083 H 
ATOM     87  H5  BEC d   1       9.390  22.258   3.133  0.00  0.00     0.084 H 
ENDBRANCH  74  77
ENDBRANCH  73  74
ENDBRANCH  47  73
ENDBRANCH   1  47
BRANCH   1  88
ATOM     88  O6  BEC d   1      14.629  25.194   4.331  0.00  0.00    -0.390 OA
ATOM     89  H20 BEC d   1      14.692  24.908   3.427  0.00  0.00     0.210 HD
ENDBRANCH   1  88
TORSDOF 21
