REMARK  17 active torsions:
REMARK  status: ('A' for Active; 'I' for Inactive)
REMARK    1  A    between atoms: C23_23  and  C01_1 
REMARK    2  A    between atoms: C13_13  and  C07_7 
REMARK    3  A    between atoms: O14_14  and  C13_13 
REMARK    4  A    between atoms: C15_15  and  O14_14 
REMARK    5  A    between atoms: C16_16  and  C15_15 
REMARK    6  A    between atoms: C15_15  and  C26_26 
REMARK    7  A    between atoms: C17_17  and  C16_16 
REMARK    8  A    between atoms: C16_16  and  O25_25 
REMARK    9  A    between atoms: C18_18  and  C17_17 
REMARK   10  A    between atoms: C17_17  and  O24_24 
REMARK   11  A    between atoms: C18_18  and  C19_19 
REMARK   12  A    between atoms: O22_22  and  C18_18 
REMARK       I    between atoms: C19_19  and  N21_21 
REMARK   13  A    between atoms: N21_21  and  C39_39 
REMARK   14  A    between atoms: C23_23  and  O22_22 
REMARK       I    between atoms: C26_26  and  N28_28 
REMARK   15  A    between atoms: N28_28  and  C29_29 
REMARK   16  A    between atoms: C35_35  and  O36_36 
REMARK   17  A    between atoms: C45_45  and  O46_46 
ROOT
ATOM      1  C16 BED d   1      12.955  23.976   5.586  0.00  0.00     0.096 C 
ATOM      2  H12 BED d   1      12.624  23.115   6.185  0.00  0.00     0.091 H 
ENDROOT
BRANCH   1   3
ATOM      3  C15 BED d   1      11.895  24.225   4.551  0.00  0.00     0.142 C 
ATOM      4  H11 BED d   1      12.082  25.159   4.001  0.00  0.00     0.102 H 
BRANCH   3   5
ATOM      5  O14 BED d   1      11.793  23.112   3.608  0.00  0.00    -0.369 OA
BRANCH   5   6
ATOM      6  C13 BED d   1      11.311  23.487   2.303  0.00  0.00     0.047 C 
ATOM      7  H9  BED d   1      11.896  24.349   1.948  0.00  0.00     0.082 H 
ATOM      8  H10 BED d   1      11.457  22.638   1.619  0.00  0.00     0.082 H 
BRANCH   6   9
ATOM      9  C07 BED d   1       9.830  23.868   2.296  0.00  0.00     0.004 A 
ATOM     10  C08 BED d   1       8.811  22.936   2.738  0.00  0.00     0.124 A 
ATOM     11  C09 BED d   1       7.425  23.329   2.733  0.00  0.00    -0.045 A 
ATOM     12  F50 BED d   1       9.131  21.732   3.153  0.00  0.00    -0.205 F 
ATOM     13  C10 BED d   1       7.050  24.644   2.288  0.00  0.00    -0.080 A 
ATOM     14  H5  BED d   1       6.664  22.632   3.065  0.00  0.00     0.088 H 
ATOM     15  C11 BED d   1       8.062  25.571   1.848  0.00  0.00    -0.082 A 
ATOM     16  H6  BED d   1       6.007  24.938   2.284  0.00  0.00     0.083 H 
ATOM     17  C12 BED d   1       9.434  25.185   1.855  0.00  0.00    -0.072 A 
ATOM     18  H7  BED d   1       7.780  26.562   1.512  0.00  0.00     0.083 H 
ATOM     19  H8  BED d   1      10.190  25.889   1.525  0.00  0.00     0.084 H 
ENDBRANCH   6   9
ENDBRANCH   5   6
ENDBRANCH   3   5
BRANCH   3  20
ATOM     20  C26 BED d   1      10.680  24.321   5.386  0.00  0.00     0.250 C 
ATOM     21  O27 BED d   1      10.295  23.331   6.010  0.00  0.00    -0.271 OA
ATOM     22  N28 BED d   1      10.042  25.514   5.409  0.00  0.00    -0.348 N 
ATOM     23  H20 BED d   1      10.409  26.273   4.872  0.00  0.00     0.163 HD
BRANCH  22  24
ATOM     24  C29 BED d   1       8.853  25.718   6.184  0.00  0.00     0.063 C 
ATOM     25  C30 BED d   1       9.142  26.445   7.468  0.00  0.00    -0.027 A 
ATOM     26  C31 BED d   1       8.041  27.285   7.816  0.00  0.00    -0.047 A 
ATOM     27  C32 BED d   1      10.315  26.396   8.319  0.00  0.00    -0.074 A 
ATOM     28  C37 BED d   1       8.059  28.092   8.999  0.00  0.00    -0.076 A 
ATOM     29  C38 BED d   1       6.969  27.158   6.782  0.00  0.00    -0.014 C 
ATOM     30  C34 BED d   1       9.227  28.044   9.848  0.00  0.00    -0.082 A 
ATOM     31  H27 BED d   1       7.216  28.724   9.252  0.00  0.00     0.084 H 
ATOM     32  C33 BED d   1      10.354  27.203   9.515  0.00  0.00    -0.082 A 
ATOM     33  H24 BED d   1       9.258  28.648  10.748  0.00  0.00     0.083 H 
ATOM     34  H23 BED d   1      11.225  27.178  10.160  0.00  0.00     0.083 H 
ATOM     35  C35 BED d   1       7.763  26.609   5.570  0.00  0.00     0.063 C 
ATOM     36  H28 BED d   1       6.514  28.133   6.554  0.00  0.00     0.044 H 
ATOM     37  H29 BED d   1       6.186  26.454   7.101  0.00  0.00     0.044 H 
ATOM     38  H25 BED d   1       7.108  26.043   4.892  0.00  0.00     0.087 H 
ATOM     39  H22 BED d   1      11.154  25.760   8.060  0.00  0.00     0.084 H 
ATOM     40  H21 BED d   1       8.430  24.725   6.396  0.00  0.00     0.084 H 
BRANCH  35  41
ATOM     41  O36 BED d   1       8.414  27.665   4.869  0.00  0.00    -0.393 OA
ATOM     42  H26 BED d   1       7.761  28.233   4.478  0.00  0.00     0.210 HD
ENDBRANCH  35  41
ENDBRANCH  22  24
ENDBRANCH   3  20
ENDBRANCH   1   3
BRANCH   1  43
ATOM     43  C17 BED d   1      14.257  23.622   4.980  0.00  0.00     0.096 C 
ATOM     44  H13 BED d   1      14.104  22.979   4.101  0.00  0.00     0.091 H 
BRANCH  43  45
ATOM     45  C18 BED d   1      15.132  22.849   6.000  0.00  0.00     0.142 C 
ATOM     46  H14 BED d   1      16.163  23.200   5.845  0.00  0.00     0.102 H 
BRANCH  45  47
ATOM     47  C19 BED d   1      15.141  21.347   5.831  0.00  0.00     0.250 C 
ATOM     48  O20 BED d   1      14.131  20.655   6.000  0.00  0.00    -0.271 OA
ATOM     49  N21 BED d   1      16.359  20.790   5.495  0.00  0.00    -0.348 N 
ATOM     50  H15 BED d   1      17.134  21.412   5.380  0.00  0.00     0.163 HD
BRANCH  49  51
ATOM     51  C39 BED d   1      16.603  19.370   5.296  0.00  0.00     0.063 C 
ATOM     52  C40 BED d   1      16.508  18.938   3.854  0.00  0.00    -0.027 A 
ATOM     53  C41 BED d   1      17.432  17.886   3.583  0.00  0.00    -0.047 A 
ATOM     54  C42 BED d   1      15.655  19.435   2.807  0.00  0.00    -0.074 A 
ATOM     55  C47 BED d   1      17.540  17.296   2.276  0.00  0.00    -0.076 A 
ATOM     56  C48 BED d   1      18.195  17.557   4.822  0.00  0.00    -0.014 C 
ATOM     57  C44 BED d   1      16.688  17.793   1.235  0.00  0.00    -0.082 A 
ATOM     58  H36 BED d   1      18.247  16.497   2.083  0.00  0.00     0.084 H 
ATOM     59  C43 BED d   1      15.755  18.848   1.488  0.00  0.00    -0.082 A 
ATOM     60  H33 BED d   1      16.752  17.363   0.242  0.00  0.00     0.083 H 
ATOM     61  H32 BED d   1      15.120  19.209   0.687  0.00  0.00     0.083 H 
ATOM     62  C45 BED d   1      18.003  18.855   5.663  0.00  0.00     0.063 C 
ATOM     63  H37 BED d   1      19.257  17.375   4.603  0.00  0.00     0.044 H 
ATOM     64  H38 BED d   1      17.771  16.681   5.334  0.00  0.00     0.044 H 
ATOM     65  H34 BED d   1      18.072  18.622   6.736  0.00  0.00     0.087 H 
ATOM     66  H31 BED d   1      14.950  20.235   3.003  0.00  0.00     0.084 H 
ATOM     67  H30 BED d   1      15.853  18.833   5.895  0.00  0.00     0.084 H 
BRANCH  62  68
ATOM     68  O46 BED d   1      18.946  19.889   5.335  0.00  0.00    -0.393 OA
ATOM     69  H35 BED d   1      19.823  19.596   5.552  0.00  0.00     0.210 HD
ENDBRANCH  62  68
ENDBRANCH  49  51
ENDBRANCH  45  47
BRANCH  45  70
ATOM     70  O22 BED d   1      14.777  23.125   7.384  0.00  0.00    -0.369 OA
BRANCH  70  71
ATOM     71  C23 BED d   1      15.890  23.353   8.252  0.00  0.00     0.047 C 
ATOM     72  H16 BED d   1      16.636  23.952   7.710  0.00  0.00     0.082 H 
ATOM     73  H17 BED d   1      15.537  23.914   9.130  0.00  0.00     0.082 H 
BRANCH  71  74
ATOM     74  C01 BED d   1      16.560  22.074   8.736  0.00  0.00     0.004 A 
ATOM     75  C02 BED d   1      17.971  21.882   8.481  0.00  0.00    -0.072 A 
ATOM     76  C03 BED d   1      18.660  20.712   8.898  0.00  0.00    -0.082 A 
ATOM     77  H1  BED d   1      18.520  22.655   7.955  0.00  0.00     0.084 H 
ATOM     78  C04 BED d   1      17.951  19.669   9.599  0.00  0.00    -0.080 A 
ATOM     79  H2  BED d   1      19.718  20.603   8.690  0.00  0.00     0.083 H 
ATOM     80  C05 BED d   1      16.551  19.816   9.872  0.00  0.00    -0.045 A 
ATOM     81  H3  BED d   1      18.476  18.776   9.919  0.00  0.00     0.083 H 
ATOM     82  C06 BED d   1      15.865  21.010   9.443  0.00  0.00     0.124 A 
ATOM     83  H4  BED d   1      16.012  19.035  10.397  0.00  0.00     0.088 H 
ATOM     84  F49 BED d   1      14.585  21.066   9.727  0.00  0.00    -0.205 F 
ENDBRANCH  71  74
ENDBRANCH  70  71
ENDBRANCH  45  70
ENDBRANCH  43  45
BRANCH  43  85
ATOM     85  O24 BED d   1      14.813  24.877   4.561  0.00  0.00    -0.390 OA
ATOM     86  H18 BED d   1      14.925  25.441   5.317  0.00  0.00     0.210 HD
ENDBRANCH  43  85
ENDBRANCH   1  43
BRANCH   1  87
ATOM     87  O25 BED d   1      13.117  25.102   6.493  0.00  0.00    -0.390 OA
ATOM     88  H19 BED d   1      13.729  24.868   7.181  0.00  0.00     0.210 HD
ENDBRANCH   1  87
TORSDOF 17
