REMARK  27 active torsions:
REMARK  status: ('A' for Active; 'I' for Inactive)
REMARK    1  A    between atoms: C31_31  and  C01_1 
REMARK    2  A    between atoms: C04_4  and  C45_45 
REMARK    3  A    between atoms: C13_13  and  C07_7 
REMARK    4  A    between atoms: C10_10  and  C51_51 
REMARK    5  A    between atoms: O14_14  and  C13_13 
REMARK    6  A    between atoms: C15_15  and  O14_14 
REMARK    7  A    between atoms: C16_16  and  C15_15 
REMARK    8  A    between atoms: C15_15  and  C34_34 
REMARK    9  A    between atoms: C17_17  and  C16_16 
REMARK   10  A    between atoms: C16_16  and  O33_33 
REMARK   11  A    between atoms: C18_18  and  C17_17 
REMARK   12  A    between atoms: C17_17  and  O32_32 
REMARK   13  A    between atoms: C18_18  and  C19_19 
REMARK   14  A    between atoms: O30_30  and  C18_18 
REMARK       I    between atoms: C19_19  and  N21_21 
REMARK   15  A    between atoms: N21_21  and  C22_22 
REMARK   16  A    between atoms: C22_22  and  C23_23 
REMARK   17  A    between atoms: C22_22  and  C26_26 
REMARK   18  A    between atoms: C23_23  and  C24_24 
REMARK   19  A    between atoms: C23_23  and  C25_25 
REMARK       I    between atoms: C26_26  and  N28_28 
REMARK   20  A    between atoms: N28_28  and  C29_29 
REMARK   21  A    between atoms: C31_31  and  O30_30 
REMARK       I    between atoms: C34_34  and  N36_36 
REMARK   22  A    between atoms: N36_36  and  C37_37 
REMARK   23  A    between atoms: C37_37  and  C38_38 
REMARK   24  A    between atoms: C37_37  and  C41_41 
REMARK   25  A    between atoms: C38_38  and  C39_39 
REMARK   26  A    between atoms: C38_38  and  C40_40 
REMARK       I    between atoms: C41_41  and  N43_43 
REMARK   27  A    between atoms: N43_43  and  C44_44 
ROOT
ATOM      1  C16 BEJ d   1      14.122  23.245   4.616  0.00  0.00     0.096 C 
ATOM      2  H12 BEJ d   1      13.210  22.646   4.758  0.00  0.00     0.091 H 
ENDROOT
BRANCH   1   3
ATOM      3  C15 BEJ d   1      15.084  22.860   5.730  0.00  0.00     0.142 C 
ATOM      4  H11 BEJ d   1      16.064  23.325   5.548  0.00  0.00     0.102 H 
BRANCH   3   5
ATOM      5  O14 BEJ d   1      14.601  23.314   7.007  0.00  0.00    -0.369 OA
BRANCH   5   6
ATOM      6  C13 BEJ d   1      15.668  23.708   7.925  0.00  0.00     0.044 C 
ATOM      7  H9  BEJ d   1      16.436  24.267   7.370  0.00  0.00     0.081 H 
ATOM      8  H10 BEJ d   1      15.248  24.348   8.715  0.00  0.00     0.081 H 
BRANCH   6   9
ATOM      9  C07 BEJ d   1      16.297  22.493   8.554  0.00  0.00    -0.035 A 
ATOM     10  C08 BEJ d   1      15.453  21.603   9.331  0.00  0.00    -0.074 A 
ATOM     11  C09 BEJ d   1      16.010  20.427   9.930  0.00  0.00    -0.072 A 
ATOM     12  H5  BEJ d   1      14.400  21.829   9.458  0.00  0.00     0.084 H 
ATOM     13  C10 BEJ d   1      17.417  20.123   9.761  0.00  0.00    -0.025 A 
ATOM     14  H6  BEJ d   1      15.379  19.764  10.510  0.00  0.00     0.084 H 
ATOM     15  C11 BEJ d   1      18.251  21.028   8.977  0.00  0.00    -0.072 A 
ATOM     16  C12 BEJ d   1      17.699  22.211   8.372  0.00  0.00    -0.074 A 
ATOM     17  H7  BEJ d   1      19.304  20.805   8.848  0.00  0.00     0.084 H 
ATOM     18  H8  BEJ d   1      18.326  22.878   7.790  0.00  0.00     0.084 H 
BRANCH  13  19
ATOM     19  C51 BEJ d   1      18.004  18.883  10.393  0.00  0.00    -0.008 A 
ATOM     20  C52 BEJ d   1      17.265  17.646  10.560  0.00  0.00    -0.070 A 
ATOM     21  C53 BEJ d   1      17.875  16.493  11.174  0.00  0.00    -0.065 A 
ATOM     22  H49 BEJ d   1      16.238  17.588  10.218  0.00  0.00     0.085 H 
ATOM     23  C54 BEJ d   1      19.229  16.634  11.602  0.00  0.00     0.002 A 
ATOM     24  H50 BEJ d   1      17.332  15.564  11.304  0.00  0.00     0.085 H 
ATOM     25  N55 BEJ d   1      19.966  17.800  11.457  0.00  0.00    -0.272 NA
ATOM     26  H51 BEJ d   1      19.709  15.781  12.067  0.00  0.00     0.114 H 
ATOM     27  C56 BEJ d   1      19.362  18.876  10.873  0.00  0.00     0.012 A 
ATOM     28  H52 BEJ d   1      19.943  19.785  10.763  0.00  0.00     0.116 H 
ENDBRANCH  13  19
ENDBRANCH   6   9
ENDBRANCH   5   6
ENDBRANCH   3   5
BRANCH   3  29
ATOM     29  C34 BEJ d   1      15.224  21.362   5.654  0.00  0.00     0.250 C 
ATOM     30  O35 BEJ d   1      14.294  20.658   6.057  0.00  0.00    -0.271 OA
ATOM     31  N36 BEJ d   1      16.424  20.899   5.136  0.00  0.00    -0.345 N 
ATOM     32  H32 BEJ d   1      17.098  21.579   4.848  0.00  0.00     0.163 HD
BRANCH  31  33
ATOM     33  C37 BEJ d   1      16.775  19.488   4.981  0.00  0.00     0.092 C 
ATOM     34  H33 BEJ d   1      16.061  18.856   5.529  0.00  0.00     0.088 H 
BRANCH  33  35
ATOM     35  C38 BEJ d   1      16.816  19.054   3.464  0.00  0.00    -0.033 C 
ATOM     36  H34 BEJ d   1      17.578  19.685   2.983  0.00  0.00     0.042 H 
BRANCH  35  37
ATOM     37  C39 BEJ d   1      17.255  17.564   3.243  0.00  0.00    -0.071 C 
ATOM     38  H35 BEJ d   1      17.259  17.339   2.166  0.00  0.00     0.028 H 
ATOM     39  H36 BEJ d   1      16.549  16.894   3.755  0.00  0.00     0.028 H 
ATOM     40  H37 BEJ d   1      18.265  17.415   3.652  0.00  0.00     0.028 H 
ENDBRANCH  35  37
BRANCH  35  41
ATOM     41  C40 BEJ d   1      15.490  19.321   2.741  0.00  0.00    -0.071 C 
ATOM     42  H38 BEJ d   1      15.189  20.367   2.901  0.00  0.00     0.028 H 
ATOM     43  H39 BEJ d   1      14.714  18.651   3.140  0.00  0.00     0.028 H 
ATOM     44  H40 BEJ d   1      15.616  19.136   1.664  0.00  0.00     0.028 H 
ENDBRANCH  35  41
ENDBRANCH  33  35
BRANCH  33  45
ATOM     45  C41 BEJ d   1      18.192  19.344   5.557  0.00  0.00     0.240 C 
ATOM     46  O42 BEJ d   1      19.118  20.083   5.164  0.00  0.00    -0.271 OA
ATOM     47  N43 BEJ d   1      18.331  18.347   6.516  0.00  0.00    -0.364 N 
ATOM     48  H41 BEJ d   1      17.546  17.791   6.787  0.00  0.00     0.161 HD
BRANCH  47  49
ATOM     49  C44 BEJ d   1      19.624  18.127   7.114  0.00  0.00    -0.018 C 
ATOM     50  H42 BEJ d   1      19.555  17.308   7.846  0.00  0.00     0.056 H 
ATOM     51  H43 BEJ d   1      19.954  19.045   7.622  0.00  0.00     0.056 H 
ATOM     52  H44 BEJ d   1      20.349  17.859   6.331  0.00  0.00     0.056 H 
ENDBRANCH  47  49
ENDBRANCH  33  45
ENDBRANCH  31  33
ENDBRANCH   3  29
ENDBRANCH   1   3
BRANCH   1  53
ATOM     53  C17 BEJ d   1      13.715  24.695   4.687  0.00  0.00     0.096 C 
ATOM     54  H13 BEJ d   1      13.576  24.960   5.745  0.00  0.00     0.091 H 
BRANCH  53  55
ATOM     55  C18 BEJ d   1      12.344  24.926   4.013  0.00  0.00     0.142 C 
ATOM     56  H14 BEJ d   1      12.341  25.941   3.590  0.00  0.00     0.102 H 
BRANCH  55  57
ATOM     57  C19 BEJ d   1      11.220  24.826   5.065  0.00  0.00     0.250 C 
ATOM     58  O20 BEJ d   1      10.983  23.756   5.642  0.00  0.00    -0.271 OA
ATOM     59  N21 BEJ d   1      10.491  25.992   5.317  0.00  0.00    -0.345 N 
ATOM     60  H15 BEJ d   1      10.758  26.804   4.797  0.00  0.00     0.163 HD
BRANCH  59  61
ATOM     61  C22 BEJ d   1       9.348  26.162   6.285  0.00  0.00     0.092 C 
ATOM     62  H16 BEJ d   1       8.805  25.224   6.471  0.00  0.00     0.088 H 
BRANCH  61  63
ATOM     63  C23 BEJ d   1       9.818  26.832   7.646  0.00  0.00    -0.033 C 
ATOM     64  H17 BEJ d   1      10.239  27.810   7.369  0.00  0.00     0.042 H 
BRANCH  63  65
ATOM     65  C24 BEJ d   1      10.939  26.046   8.394  0.00  0.00    -0.071 C 
ATOM     66  H18 BEJ d   1      11.203  26.577   9.320  0.00  0.00     0.028 H 
ATOM     67  H19 BEJ d   1      11.827  25.970   7.749  0.00  0.00     0.028 H 
ATOM     68  H20 BEJ d   1      10.578  25.037   8.640  0.00  0.00     0.028 H 
ENDBRANCH  63  65
BRANCH  63  69
ATOM     69  C25 BEJ d   1       8.668  27.100   8.658  0.00  0.00    -0.071 C 
ATOM     70  H21 BEJ d   1       7.861  27.655   8.157  0.00  0.00     0.028 H 
ATOM     71  H22 BEJ d   1       9.052  27.693   9.501  0.00  0.00     0.028 H 
ATOM     72  H23 BEJ d   1       8.278  26.142   9.032  0.00  0.00     0.028 H 
ENDBRANCH  63  69
ENDBRANCH  61  63
BRANCH  61  73
ATOM     73  C26 BEJ d   1       8.603  27.115   5.590  0.00  0.00     0.240 C 
ATOM     74  O27 BEJ d   1       8.696  28.142   5.014  0.00  0.00    -0.271 OA
ATOM     75  N28 BEJ d   1       6.987  26.644   5.553  0.00  0.00    -0.364 N 
ATOM     76  H24 BEJ d   1       6.724  25.788   5.997  0.00  0.00     0.161 HD
BRANCH  75  77
ATOM     77  C29 BEJ d   1       5.954  27.443   4.894  0.00  0.00    -0.018 C 
ATOM     78  H25 BEJ d   1       4.981  26.941   4.998  0.00  0.00     0.056 H 
ATOM     79  H26 BEJ d   1       6.199  27.551   3.827  0.00  0.00     0.056 H 
ATOM     80  H27 BEJ d   1       5.905  28.437   5.362  0.00  0.00     0.056 H 
ENDBRANCH  75  77
ENDBRANCH  61  73
ENDBRANCH  59  61
ENDBRANCH  55  57
BRANCH  55  81
ATOM     81  O30 BEJ d   1      12.075  23.973   2.918  0.00  0.00    -0.369 OA
BRANCH  81  82
ATOM     82  C31 BEJ d   1      11.304  24.467   1.816  0.00  0.00     0.044 C 
ATOM     83  H28 BEJ d   1      11.582  25.515   1.630  0.00  0.00     0.081 H 
ATOM     84  H29 BEJ d   1      11.531  23.864   0.925  0.00  0.00     0.081 H 
BRANCH  82  85
ATOM     85  C01 BEJ d   1       9.835  24.397   2.085  0.00  0.00    -0.035 A 
ATOM     86  C02 BEJ d   1       9.040  25.549   1.879  0.00  0.00    -0.074 A 
ATOM     87  C03 BEJ d   1       7.635  25.501   2.139  0.00  0.00    -0.072 A 
ATOM     88  H1  BEJ d   1       9.495  26.467   1.525  0.00  0.00     0.084 H 
ATOM     89  C04 BEJ d   1       7.007  24.279   2.615  0.00  0.00    -0.025 A 
ATOM     90  H2  BEJ d   1       7.030  26.387   1.979  0.00  0.00     0.084 H 
ATOM     91  C05 BEJ d   1       7.851  23.116   2.818  0.00  0.00    -0.072 A 
ATOM     92  C06 BEJ d   1       9.248  23.157   2.561  0.00  0.00    -0.074 A 
ATOM     93  H3  BEJ d   1       7.405  22.194   3.174  0.00  0.00     0.084 H 
ATOM     94  H4  BEJ d   1       9.864  22.279   2.717  0.00  0.00     0.084 H 
BRANCH  89  95
ATOM     95  C45 BEJ d   1       5.506  24.209   2.892  0.00  0.00    -0.008 A 
ATOM     96  C46 BEJ d   1       4.905  23.454   3.965  0.00  0.00    -0.070 A 
ATOM     97  C47 BEJ d   1       3.473  23.439   4.153  0.00  0.00    -0.065 A 
ATOM     98  H45 BEJ d   1       5.538  22.890   4.640  0.00  0.00     0.085 H 
ATOM     99  C48 BEJ d   1       2.685  24.205   3.227  0.00  0.00     0.002 A 
ATOM    100  H46 BEJ d   1       3.013  22.875   4.957  0.00  0.00     0.085 H 
ATOM    101  N49 BEJ d   1       3.217  24.942   2.185  0.00  0.00    -0.272 NA
ATOM    102  H47 BEJ d   1       1.608  24.205   3.353  0.00  0.00     0.114 H 
ATOM    103  C50 BEJ d   1       4.577  24.932   2.039  0.00  0.00     0.012 A 
ATOM    104  H48 BEJ d   1       4.995  25.509   1.222  0.00  0.00     0.116 H 
ENDBRANCH  89  95
ENDBRANCH  82  85
ENDBRANCH  81  82
ENDBRANCH  55  81
ENDBRANCH  53  55
BRANCH  53 105
ATOM    105  O32 BEJ d   1      14.834  25.448   4.220  0.00  0.00    -0.390 OA
ATOM    106  H30 BEJ d   1      14.979  25.261   3.300  0.00  0.00     0.210 HD
ENDBRANCH  53 105
ENDBRANCH   1  53
BRANCH   1 107
ATOM    107  O33 BEJ d   1      14.651  22.914   3.316  0.00  0.00    -0.390 OA
ATOM    108  H31 BEJ d   1      13.988  23.076   2.655  0.00  0.00     0.210 HD
ENDBRANCH   1 107
TORSDOF 27
