REMARK  27 active torsions:
REMARK  status: ('A' for Active; 'I' for Inactive)
REMARK    1  A    between atoms: C31_31  and  C01_1 
REMARK    2  A    between atoms: C13_13  and  C07_7 
REMARK    3  A    between atoms: O14_14  and  C13_13 
REMARK    4  A    between atoms: C15_15  and  O14_14 
REMARK    5  A    between atoms: C16_16  and  C15_15 
REMARK    6  A    between atoms: C15_15  and  C34_34 
REMARK    7  A    between atoms: C17_17  and  C16_16 
REMARK    8  A    between atoms: C16_16  and  O33_33 
REMARK    9  A    between atoms: C18_18  and  C17_17 
REMARK   10  A    between atoms: C17_17  and  O32_32 
REMARK   11  A    between atoms: C18_18  and  C19_19 
REMARK   12  A    between atoms: O30_30  and  C18_18 
REMARK       I    between atoms: C19_19  and  N21_21 
REMARK   13  A    between atoms: N21_21  and  C22_22 
REMARK   14  A    between atoms: C22_22  and  C23_23 
REMARK   15  A    between atoms: C22_22  and  C26_26 
REMARK   16  A    between atoms: C23_23  and  C24_24 
REMARK   17  A    between atoms: C23_23  and  C25_25 
REMARK       I    between atoms: C26_26  and  N28_28 
REMARK   18  A    between atoms: N28_28  and  C29_29 
REMARK   19  A    between atoms: C29_29  and  C51_51 
REMARK   20  A    between atoms: C31_31  and  O30_30 
REMARK       I    between atoms: C34_34  and  N36_36 
REMARK   21  A    between atoms: N36_36  and  C37_37 
REMARK   22  A    between atoms: C37_37  and  C38_38 
REMARK   23  A    between atoms: C37_37  and  C41_41 
REMARK   24  A    between atoms: C38_38  and  C39_39 
REMARK   25  A    between atoms: C38_38  and  C40_40 
REMARK       I    between atoms: C41_41  and  N43_43 
REMARK   26  A    between atoms: N43_43  and  C44_44 
REMARK   27  A    between atoms: C44_44  and  C45_45 
ROOT
ATOM      1  C16 MS3 d   1      13.331  24.143   5.668  0.00  0.00     0.096 C 
ATOM      2  H14 MS3 d   1      13.071  23.279   6.296  0.00  0.00     0.091 H 
ENDROOT
BRANCH   1   3
ATOM      3  C15 MS3 d   1      12.208  24.323   4.682  0.00  0.00     0.142 C 
ATOM      4  H13 MS3 d   1      12.371  25.224   4.072  0.00  0.00     0.102 H 
BRANCH   3   5
ATOM      5  O14 MS3 d   1      12.125  23.150   3.797  0.00  0.00    -0.369 OA
BRANCH   5   6
ATOM      6  C13 MS3 d   1      11.845  23.450   2.408  0.00  0.00     0.044 C 
ATOM      7  H11 MS3 d   1      12.473  24.293   2.083  0.00  0.00     0.081 H 
ATOM      8  H12 MS3 d   1      12.070  22.567   1.792  0.00  0.00     0.081 H 
BRANCH   6   9
ATOM      9  C07 MS3 d   1      10.410  23.813   2.245  0.00  0.00    -0.035 A 
ATOM     10  C08 MS3 d   1       9.404  22.820   2.631  0.00  0.00    -0.075 A 
ATOM     11  C09 MS3 d   1       8.021  23.135   2.504  0.00  0.00    -0.082 A 
ATOM     12  H6  MS3 d   1       9.710  21.852   3.011  0.00  0.00     0.084 H 
ATOM     13  C10 MS3 d   1       7.630  24.442   1.992  0.00  0.00    -0.083 A 
ATOM     14  H7  MS3 d   1       7.266  22.410   2.785  0.00  0.00     0.083 H 
ATOM     15  C11 MS3 d   1       8.619  25.444   1.605  0.00  0.00    -0.082 A 
ATOM     16  H8  MS3 d   1       6.576  24.677   1.896  0.00  0.00     0.083 H 
ATOM     17  C12 MS3 d   1      10.023  25.114   1.739  0.00  0.00    -0.075 A 
ATOM     18  H9  MS3 d   1       8.310  26.412   1.226  0.00  0.00     0.083 H 
ATOM     19  H10 MS3 d   1      10.781  25.838   1.462  0.00  0.00     0.084 H 
ENDBRANCH   6   9
ENDBRANCH   5   6
ENDBRANCH   3   5
BRANCH   3  20
ATOM     20  C34 MS3 d   1      10.983  24.483   5.514  0.00  0.00     0.250 C 
ATOM     21  O35 MS3 d   1      10.545  23.513   6.167  0.00  0.00    -0.271 OA
ATOM     22  N36 MS3 d   1      10.391  25.735   5.515  0.00  0.00    -0.345 N 
ATOM     23  H33 MS3 d   1      10.807  26.453   4.957  0.00  0.00     0.163 HD
BRANCH  22  24
ATOM     24  C37 MS3 d   1       9.176  26.073   6.296  0.00  0.00     0.092 C 
ATOM     25  H34 MS3 d   1       8.655  25.142   6.562  0.00  0.00     0.088 H 
BRANCH  24  26
ATOM     26  C38 MS3 d   1       9.493  26.871   7.647  0.00  0.00    -0.033 C 
ATOM     27  H35 MS3 d   1       9.955  27.823   7.345  0.00  0.00     0.042 H 
BRANCH  26  28
ATOM     28  C39 MS3 d   1       8.221  27.219   8.492  0.00  0.00    -0.071 C 
ATOM     29  H36 MS3 d   1       8.521  27.764   9.399  0.00  0.00     0.028 H 
ATOM     30  H37 MS3 d   1       7.704  26.291   8.776  0.00  0.00     0.028 H 
ATOM     31  H38 MS3 d   1       7.544  27.847   7.894  0.00  0.00     0.028 H 
ENDBRANCH  26  28
BRANCH  26  32
ATOM     32  C40 MS3 d   1      10.496  26.138   8.553  0.00  0.00    -0.071 C 
ATOM     33  H39 MS3 d   1      11.397  25.886   7.974  0.00  0.00     0.028 H 
ATOM     34  H40 MS3 d   1      10.037  25.215   8.937  0.00  0.00     0.028 H 
ATOM     35  H41 MS3 d   1      10.772  26.788   9.396  0.00  0.00     0.028 H 
ENDBRANCH  26  32
ENDBRANCH  24  26
BRANCH  24  36
ATOM     36  C41 MS3 d   1       8.283  26.913   5.382  0.00  0.00     0.241 C 
ATOM     37  O42 MS3 d   1       8.704  27.959   4.954  0.00  0.00    -0.271 OA
ATOM     38  N43 MS3 d   1       7.043  26.381   5.124  0.00  0.00    -0.354 N 
ATOM     39  H42 MS3 d   1       6.801  25.501   5.533  0.00  0.00     0.162 HD
BRANCH  38  40
ATOM     40  C44 MS3 d   1       6.061  27.057   4.270  0.00  0.00     0.035 C 
ATOM     41  H43 MS3 d   1       6.579  27.475   3.394  0.00  0.00     0.073 H 
ATOM     42  H44 MS3 d   1       5.593  27.871   4.842  0.00  0.00     0.073 H 
BRANCH  40  43
ATOM     43  C45 MS3 d   1       4.980  26.107   3.794  0.00  0.00     0.051 A 
ATOM     44  C46 MS3 d   1       4.559  26.122   2.413  0.00  0.00    -0.058 A 
ATOM     45  C47 MS3 d   1       3.506  25.175   2.004  0.00  0.00    -0.080 A 
ATOM     46  H45 MS3 d   1       5.003  26.807   1.700  0.00  0.00     0.086 H 
ATOM     47  C48 MS3 d   1       2.893  24.238   2.963  0.00  0.00    -0.066 A 
ATOM     48  H46 MS3 d   1       3.174  25.167   0.972  0.00  0.00     0.083 H 
ATOM     49  C49 MS3 d   1       3.402  24.320   4.331  0.00  0.00     0.003 A 
ATOM     50  H47 MS3 d   1       2.119  23.537   2.674  0.00  0.00     0.085 H 
ATOM     51  N50 MS3 d   1       4.405  25.222   4.719  0.00  0.00    -0.264 NA
ATOM     52  H48 MS3 d   1       2.986  23.655   5.079  0.00  0.00     0.114 H 
ENDBRANCH  40  43
ENDBRANCH  38  40
ENDBRANCH  24  36
ENDBRANCH  22  24
ENDBRANCH   3  20
ENDBRANCH   1   3
BRANCH   1  53
ATOM     53  C17 MS3 d   1      14.655  23.825   5.006  0.00  0.00     0.096 C 
ATOM     54  H15 MS3 d   1      14.474  23.168   4.143  0.00  0.00     0.091 H 
BRANCH  53  55
ATOM     55  C18 MS3 d   1      15.592  23.081   5.963  0.00  0.00     0.142 C 
ATOM     56  H16 MS3 d   1      16.622  23.362   5.697  0.00  0.00     0.102 H 
BRANCH  55  57
ATOM     57  C19 MS3 d   1      15.457  21.549   5.782  0.00  0.00     0.250 C 
ATOM     58  O20 MS3 d   1      14.440  20.942   6.109  0.00  0.00    -0.271 OA
ATOM     59  N21 MS3 d   1      16.582  20.929   5.232  0.00  0.00    -0.345 N 
ATOM     60  H17 MS3 d   1      17.352  21.526   5.009  0.00  0.00     0.163 HD
BRANCH  59  61
ATOM     61  C22 MS3 d   1      16.761  19.505   4.945  0.00  0.00     0.092 C 
ATOM     62  H18 MS3 d   1      16.035  18.927   5.535  0.00  0.00     0.088 H 
BRANCH  61  63
ATOM     63  C23 MS3 d   1      16.535  19.142   3.409  0.00  0.00    -0.033 C 
ATOM     64  H19 MS3 d   1      17.263  19.729   2.830  0.00  0.00     0.042 H 
BRANCH  63  65
ATOM     65  C24 MS3 d   1      16.732  17.634   3.059  0.00  0.00    -0.071 C 
ATOM     66  H20 MS3 d   1      16.556  17.481   1.984  0.00  0.00     0.028 H 
ATOM     67  H21 MS3 d   1      16.019  17.027   3.637  0.00  0.00     0.028 H 
ATOM     68  H22 MS3 d   1      17.759  17.331   3.309  0.00  0.00     0.028 H 
ENDBRANCH  63  65
BRANCH  63  69
ATOM     69  C25 MS3 d   1      15.119  19.496   2.927  0.00  0.00    -0.071 C 
ATOM     70  H23 MS3 d   1      14.912  20.554   3.144  0.00  0.00     0.028 H 
ATOM     71  H24 MS3 d   1      14.385  18.864   3.449  0.00  0.00     0.028 H 
ATOM     72  H25 MS3 d   1      15.047  19.323   1.843  0.00  0.00     0.028 H 
ENDBRANCH  63  69
ENDBRANCH  61  63
BRANCH  61  73
ATOM     73  C26 MS3 d   1      18.186  19.163   5.422  0.00  0.00     0.241 C 
ATOM     74  O27 MS3 d   1      19.153  19.758   4.957  0.00  0.00    -0.271 OA
ATOM     75  N28 MS3 d   1      18.268  18.163   6.379  0.00  0.00    -0.354 N 
ATOM     76  H26 MS3 d   1      17.446  17.712   6.728  0.00  0.00     0.162 HD
BRANCH  75  77
ATOM     77  C29 MS3 d   1      19.763  17.743   6.921  0.00  0.00     0.035 C 
ATOM     78  H27 MS3 d   1      20.511  18.303   6.340  0.00  0.00     0.073 H 
ATOM     79  H28 MS3 d   1      19.900  16.665   6.753  0.00  0.00     0.073 H 
BRANCH  77  80
ATOM     80  C51 MS3 d   1      19.998  18.034   8.420  0.00  0.00     0.051 A 
ATOM     81  C52 MS3 d   1      20.481  19.314   8.835  0.00  0.00    -0.058 A 
ATOM     82  C53 MS3 d   1      20.698  19.582  10.245  0.00  0.00    -0.080 A 
ATOM     83  H49 MS3 d   1      20.685  20.083   8.098  0.00  0.00     0.086 H 
ATOM     84  C54 MS3 d   1      20.422  18.551  11.198  0.00  0.00    -0.066 A 
ATOM     85  H50 MS3 d   1      21.064  20.549  10.571  0.00  0.00     0.083 H 
ATOM     86  C55 MS3 d   1      19.938  17.279  10.738  0.00  0.00     0.003 A 
ATOM     87  H51 MS3 d   1      20.576  18.728  12.256  0.00  0.00     0.085 H 
ATOM     88  N56 MS3 d   1      19.739  17.049   9.378  0.00  0.00    -0.264 NA
ATOM     89  H52 MS3 d   1      19.726  16.493  11.454  0.00  0.00     0.114 H 
ENDBRANCH  77  80
ENDBRANCH  75  77
ENDBRANCH  61  73
ENDBRANCH  59  61
ENDBRANCH  55  57
BRANCH  55  90
ATOM     90  O30 MS3 d   1      15.383  23.453   7.389  0.00  0.00    -0.369 OA
BRANCH  90  91
ATOM     91  C31 MS3 d   1      16.499  23.329   8.330  0.00  0.00     0.044 C 
ATOM     92  H29 MS3 d   1      17.459  23.301   7.793  0.00  0.00     0.081 H 
ATOM     93  H30 MS3 d   1      16.502  24.168   9.042  0.00  0.00     0.081 H 
BRANCH  91  94
ATOM     94  C01 MS3 d   1      16.258  22.069   9.020  0.00  0.00    -0.035 A 
ATOM     95  C02 MS3 d   1      17.204  20.962   8.878  0.00  0.00    -0.075 A 
ATOM     96  C03 MS3 d   1      16.914  19.704   9.581  0.00  0.00    -0.082 A 
ATOM     97  H1  MS3 d   1      18.096  21.067   8.270  0.00  0.00     0.084 H 
ATOM     98  C04 MS3 d   1      15.716  19.577  10.394  0.00  0.00    -0.083 A 
ATOM     99  H2  MS3 d   1      17.597  18.867   9.493  0.00  0.00     0.083 H 
ATOM    100  C05 MS3 d   1      14.777  20.680  10.538  0.00  0.00    -0.082 A 
ATOM    101  H3  MS3 d   1      15.518  18.641  10.904  0.00  0.00     0.083 H 
ATOM    102  C06 MS3 d   1      15.037  21.942   9.850  0.00  0.00    -0.075 A 
ATOM    103  H4  MS3 d   1      13.891  20.566  11.152  0.00  0.00     0.083 H 
ATOM    104  H5  MS3 d   1      14.347  22.773   9.945  0.00  0.00     0.084 H 
ENDBRANCH  91  94
ENDBRANCH  90  91
ENDBRANCH  55  90
ENDBRANCH  53  55
BRANCH  53 105
ATOM    105  O32 MS3 d   1      15.181  25.070   4.525  0.00  0.00    -0.390 OA
ATOM    106  H31 MS3 d   1      15.348  25.648   5.261  0.00  0.00     0.210 HD
ENDBRANCH  53 105
ENDBRANCH   1  53
BRANCH   1 107
ATOM    107  O33 MS3 d   1      13.449  25.319   6.562  0.00  0.00    -0.390 OA
ATOM    108  H32 MS3 d   1      14.091  25.138   7.238  0.00  0.00     0.210 HD
ENDBRANCH   1 107
TORSDOF 27
