REMARK  3 active torsions:
REMARK  status: ('A' for Active; 'I' for Inactive)
REMARK    1  A    between atoms: C3_3  and  N13_10 
REMARK    2  A    between atoms: C4_4  and  C10_7 
REMARK       I    between atoms: N13_10  and  C14_11 
REMARK    3  A    between atoms: C14_11  and  C16_13 
ROOT
ATOM      1  C1  878 d   1      12.580  45.095  19.191  0.00  0.00    -0.065 A 
ATOM      2  C2  878 d   1      11.647  45.712  20.021  0.00  0.00    -0.055 A 
ATOM      3  C3  878 d   1      10.305  45.696  19.629  0.00  0.00     0.052 A 
ATOM      4  C4  878 d   1       9.924  45.117  18.409  0.00  0.00     0.068 A 
ATOM      5  C5  878 d   1      10.844  44.461  17.603  0.00  0.00    -0.048 A 
ATOM      6  C6  878 d   1      12.169  44.431  18.019  0.00  0.00     0.007 A 
ATOM      7  I19 878 d   1      13.549  43.336  16.878  0.00  0.00    -0.045 I 
ATOM      8  H1  878 d   1      13.632  45.126  19.450  0.00  0.00     0.085 H 
ATOM      9  H2  878 d   1      11.953  46.191  20.944  0.00  0.00     0.087 H 
ATOM     10  H3  878 d   1      10.538  43.987  16.677  0.00  0.00     0.087 H 
ENDROOT
BRANCH   3  11
ATOM     11  N13 878 d   1       9.306  46.142  20.434  0.00  0.00    -0.317 N 
ATOM     12  C14 878 d   1       9.347  46.863  21.573  0.00  0.00     0.322 C 
ATOM     13  O15 878 d   1      10.389  47.134  22.173  0.00  0.00    -0.261 OA
ATOM     14  H4  878 d   1       8.386  45.894  20.131  0.00  0.00     0.169 HD
BRANCH  12  15
ATOM     15  C16 878 d   1       7.933  47.260  22.152  0.00  0.00     0.270 C 
ATOM     16  O18 878 d   1       7.861  48.417  22.781  0.00  0.00    -0.640 OA
ATOM     17  O17 878 d   1       6.981  46.536  22.149  0.00  0.00    -0.640 OA
ENDBRANCH  12  15
ENDBRANCH   3  11
BRANCH   4  18
ATOM     18  C10 878 d   1       8.499  45.142  17.981  0.00  0.00     0.211 C 
ATOM     19  O12 878 d   1       8.275  44.905  16.686  0.00  0.00    -0.644 OA
ATOM     20  O11 878 d   1       7.584  45.269  18.738  0.00  0.00    -0.644 OA
ENDBRANCH   4  18
TORSDOF 3
