REMARK  4 active torsions:
REMARK  status: ('A' for Active; 'I' for Inactive)
REMARK    1  A    between atoms: C3_3  and  C19_8 
REMARK    2  A    between atoms: C4_7  and  C8_11 
REMARK       I    between atoms: C8_11  and  N1_12 
REMARK    3  A    between atoms: C13_16  and  O2_17 
REMARK    4  A    between atoms: O2_17  and  C18_20 
ROOT
ATOM      1  C1  BZC d   1      40.679  22.662  21.837  0.00  0.00     0.101 A 
ATOM      2  N2  BZC d   1      39.928  22.869  20.729  0.00  0.00    -0.227 NA
ATOM      3  C3  BZC d   1      38.653  22.426  20.947  0.00  0.00     0.139 A 
ATOM      4  N4  BZC d   1      38.603  21.924  22.236  0.00  0.00    -0.338 N 
ATOM      5  C5  BZC d   1      39.831  22.057  22.802  0.00  0.00     0.064 A 
ATOM      6  C7  BZC d   1      40.360  21.732  24.048  0.00  0.00    -0.055 A 
ATOM      7  C4  BZC d   1      42.033  22.936  22.126  0.00  0.00     0.062 A 
ATOM      8  C2  BZC d   1      42.549  22.598  23.390  0.00  0.00    -0.065 A 
ATOM      9  C6  BZC d   1      41.708  22.001  24.336  0.00  0.00    -0.080 A 
ATOM     10  H1  BZC d   1      37.773  21.517  22.691  0.00  0.00     0.167 HD
ATOM     11  H2  BZC d   1      39.729  21.270  24.799  0.00  0.00     0.087 H 
ATOM     12  H3  BZC d   1      43.587  22.798  23.629  0.00  0.00     0.085 H 
ATOM     13  H4  BZC d   1      42.105  21.741  25.311  0.00  0.00     0.083 H 
ENDROOT
BRANCH   3  14
ATOM     14  C19 BZC d   1      37.571  22.507  19.891  0.00  0.00     0.013 A 
ATOM     15  C12 BZC d   1      36.206  22.529  20.240  0.00  0.00    -0.069 A 
ATOM     16  C17 BZC d   1      35.206  22.651  19.260  0.00  0.00    -0.079 A 
ATOM     17  H8  BZC d   1      35.922  22.450  21.283  0.00  0.00     0.085 H 
ATOM     18  C15 BZC d   1      35.588  22.747  17.918  0.00  0.00    -0.051 A 
ATOM     19  H10 BZC d   1      34.159  22.670  19.539  0.00  0.00     0.083 H 
ATOM     20  C13 BZC d   1      36.946  22.719  17.548  0.00  0.00     0.069 A 
ATOM     21  H9  BZC d   1      34.828  22.844  17.152  0.00  0.00     0.087 H 
ATOM     22  C11 BZC d   1      37.937  22.599  18.534  0.00  0.00    -0.037 A 
ATOM     23  H7  BZC d   1      38.983  22.577  18.252  0.00  0.00     0.089 H 
BRANCH  20  24
ATOM     24  O2  BZC d   1      37.266  22.780  16.160  0.00  0.00    -0.356 OA
BRANCH  24  25
ATOM     25  C18 BZC d   1      38.544  22.358  15.704  0.00  0.00     0.010 C 
ATOM     26  H11 BZC d   1      38.602  22.479  14.612  0.00  0.00     0.066 H 
ATOM     27  H12 BZC d   1      38.695  21.300  15.964  0.00  0.00     0.066 H 
ATOM     28  H13 BZC d   1      39.324  22.968  16.183  0.00  0.00     0.066 H 
ENDBRANCH  24  25
ENDBRANCH  20  24
ENDBRANCH   3  14
BRANCH   7  29
ATOM     29  C8  BZC d   1      42.886  23.585  21.152  0.00  0.00     0.251 C 
ATOM     30  O1  BZC d   1      44.064  23.807  21.410  0.00  0.00    -0.268 OA
ATOM     31  N1  BZC d   1      42.408  23.960  19.953  0.00  0.00    -0.366 N 
ATOM     32  H5  BZC d   1      43.011  24.407  19.292  0.00  0.00     0.159 HD
ATOM     33  H6  BZC d   1      41.450  23.792  19.722  0.00  0.00     0.159 HD
ENDBRANCH   7  29
TORSDOF 4
