REMARK  3 active torsions:
REMARK  status: ('A' for Active; 'I' for Inactive)
REMARK    1  A    between atoms: P_1  and  O1P_2 
REMARK    2  A    between atoms: O1P_2  and  C2_6 
REMARK    3  A    between atoms: C2_6  and  C1_7 
ROOT
ATOM      1  C2  PGA d   1      85.769 -14.346  66.554  0.00  0.00     0.112 C 
ATOM      2  H1  PGA d   1      84.895 -14.810  67.035  0.00  0.00     0.092 H 
ATOM      3  H2  PGA d   1      86.550 -14.167  67.307  0.00  0.00     0.092 H 
ENDROOT
BRANCH   1   4
ATOM      4  O1P PGA d   1      85.381 -13.110  65.994  0.00  0.00    -0.272 OA
BRANCH   4   5
ATOM      5  P   PGA d   1      84.183 -12.300  66.685  0.00  0.00     0.422 P 
ATOM      6  O4P PGA d   1      82.958 -13.110  66.504  0.00  0.00    -0.617 OA
ATOM      7  O3P PGA d   1      84.163 -11.026  65.895  0.00  0.00    -0.617 OA
ATOM      8  O2P PGA d   1      84.639 -12.218  68.079  0.00  0.00    -0.617 OA
ENDBRANCH   4   5
ENDBRANCH   1   4
BRANCH   1   9
ATOM      9  C1  PGA d   1      86.307 -15.287  65.505  0.00  0.00     0.198 C 
ATOM     10  O2  PGA d   1      87.478 -15.719  65.633  0.00  0.00    -0.646 OA
ATOM     11  O1  PGA d   1      85.559 -15.591  64.550  0.00  0.00    -0.646 OA
ENDBRANCH   1   9
TORSDOF 3
