REMARK  4 active torsions:
REMARK  status: ('A' for Active; 'I' for Inactive)
REMARK    1  A    between atoms: C10_10  and  N2_13 
REMARK       I    between atoms: C12_12  and  N1_11 
REMARK    2  A    between atoms: N1_11  and  C11_15 
REMARK       I    between atoms: N2_13  and  C12_12 
REMARK    3  A    between atoms: C11_15  and  C14_17 
REMARK    4  A    between atoms: C17_20  and  N3_22 
REMARK       I    between atoms: N3_22  and  C19_24 
REMARK       I    between atoms: C19_24  and  N4_23 
ROOT
ATOM      1  N1  AGB d   1      27.203   8.020  29.094  0.00  0.00    -0.339 N 
ATOM      2  C12 AGB d   1      26.083   8.532  28.549  0.00  0.00     0.317 C 
ATOM      3  N2  AGB d   1      25.856   9.863  28.707  0.00  0.00    -0.334 N 
ATOM      4  O1  AGB d   1      25.316   7.784  27.936  0.00  0.00    -0.247 OA
ATOM      5  H16 AGB d   1      27.777   8.592  29.680  0.00  0.00     0.164 HD
ATOM      6  H17 AGB d   1      26.644  10.445  28.909  0.00  0.00     0.165 HD
ENDROOT
BRANCH   3   7
ATOM      7  C10 AGB d   1      24.538  10.513  28.604  0.00  0.00     0.035 C 
ATOM      8  C8  AGB d   1      24.707  12.000  29.069  0.00  0.00    -0.038 C 
ATOM      9  C6  AGB d   1      23.345  12.757  29.031  0.00  0.00    -0.051 C 
ATOM     10  H12 AGB d   1      25.097  12.013  30.098  0.00  0.00     0.037 H 
ATOM     11  H13 AGB d   1      25.419  12.507  28.401  0.00  0.00     0.037 H 
ATOM     12  C2  AGB d   1      22.796  12.765  27.579  0.00  0.00    -0.058 C 
ATOM     13  C5  AGB d   1      22.330  12.040  29.973  0.00  0.00    -0.058 C 
ATOM     14  H10 AGB d   1      23.492  13.793  29.372  0.00  0.00     0.040 H 
ATOM     15  C1  AGB d   1      22.616  11.298  27.097  0.00  0.00    -0.051 C 
ATOM     16  H2  AGB d   1      21.826  13.283  27.555  0.00  0.00     0.034 H 
ATOM     17  H3  AGB d   1      23.506  13.285  26.919  0.00  0.00     0.034 H 
ATOM     18  C4  AGB d   1      21.600  10.570  28.028  0.00  0.00    -0.058 C 
ATOM     19  C3  AGB d   1      23.992  10.549  27.135  0.00  0.00    -0.038 C 
ATOM     20  H1  AGB d   1      22.232  11.299  26.066  0.00  0.00     0.040 H 
ATOM     21  C7  AGB d   1      22.140  10.570  29.491  0.00  0.00    -0.051 C 
ATOM     22  H6  AGB d   1      21.468   9.533  27.686  0.00  0.00     0.034 H 
ATOM     23  H7  AGB d   1      20.633  11.093  27.995  0.00  0.00     0.034 H 
ATOM     24  C9  AGB d   1      23.505   9.813  29.546  0.00  0.00    -0.038 C 
ATOM     25  H11 AGB d   1      21.417  10.063  30.147  0.00  0.00     0.040 H 
ATOM     26  H14 AGB d   1      23.887   9.823  30.578  0.00  0.00     0.037 H 
ATOM     27  H15 AGB d   1      23.359   8.773  29.219  0.00  0.00     0.037 H 
ATOM     28  H4  AGB d   1      24.712  11.075  26.491  0.00  0.00     0.037 H 
ATOM     29  H5  AGB d   1      23.858   9.520  26.770  0.00  0.00     0.037 H 
ATOM     30  H8  AGB d   1      21.364  12.566  29.943  0.00  0.00     0.034 H 
ATOM     31  H9  AGB d   1      22.717  12.043  31.003  0.00  0.00     0.034 H 
ENDBRANCH   3   7
BRANCH   1  32
ATOM     32  C11 AGB d   1      27.582   6.642  28.835  0.00  0.00     0.021 C 
ATOM     33  H18 AGB d   1      27.081   6.302  27.916  0.00  0.00     0.071 H 
ATOM     34  H19 AGB d   1      27.257   6.019  29.681  0.00  0.00     0.071 H 
BRANCH  32  35
ATOM     35  C14 AGB d   1      29.090   6.488  28.660  0.00  0.00    -0.040 C 
ATOM     36  C13 AGB d   1      29.779   5.499  29.381  0.00  0.00    -0.073 C 
ATOM     37  C18 AGB d   1      31.105   5.208  29.077  0.00  0.00    -0.056 C 
ATOM     38  H20 AGB d   1      29.276   4.961  30.177  0.00  0.00     0.084 H 
ATOM     39  C17 AGB d   1      31.792   5.996  28.148  0.00  0.00     0.049 C 
ATOM     40  H23 AGB d   1      31.604   4.374  29.558  0.00  0.00     0.086 H 
ATOM     41  C16 AGB d   1      31.162   7.074  27.510  0.00  0.00    -0.056 C 
ATOM     42  C15 AGB d   1      29.799   7.326  27.768  0.00  0.00    -0.073 C 
ATOM     43  H22 AGB d   1      31.717   7.706  26.826  0.00  0.00     0.086 H 
ATOM     44  H21 AGB d   1      29.297   8.157  27.286  0.00  0.00     0.084 H 
BRANCH  39  45
ATOM     45  N3  AGB d   1      33.196   5.899  27.639  0.00  0.00    -0.193 N 
ATOM     46  C19 AGB d   1      33.580   4.670  27.513  0.00  0.00     0.669 C 
ATOM     47  N4  AGB d   1      33.234   3.427  27.526  0.00  0.00    -0.235 N 
ATOM     48  N5  AGB d   1      34.851   4.876  27.281  0.00  0.00    -0.235 N 
ATOM     49  H25 AGB d   1      33.939   2.695  27.360  0.00  0.00     0.174 HD
ATOM     50  H26 AGB d   1      32.253   3.167  27.703  0.00  0.00     0.174 HD
ATOM     51  H27 AGB d   1      35.220   5.837  27.252  0.00  0.00     0.174 HD
ATOM     52  H28 AGB d   1      35.483   4.077  27.128  0.00  0.00     0.174 HD
ATOM     53  H24 AGB d   1      33.786   6.713  27.416  0.00  0.00     0.184 HD
ENDBRANCH  39  45
ENDBRANCH  32  35
ENDBRANCH   1  32
TORSDOF 4
