REMARK  13 active torsions:
REMARK  status: ('A' for Active; 'I' for Inactive)
REMARK    1  A    between atoms: C_1  and  CT_3 
REMARK       I    between atoms: N_7  and  C_1 
REMARK    2  A    between atoms: N_7  and  CA_8 
REMARK    3  A    between atoms: CA_8  and  CB_11 
REMARK    4  A    between atoms: CA_8  and  C_9 
REMARK       I    between atoms: C_9  and  N_16 
REMARK    5  A    between atoms: CB_11  and  CG_12 
REMARK    6  A    between atoms: CG_12  and  CD_13 
REMARK    7  A    between atoms: CD_13  and  CE_14 
REMARK    8  A    between atoms: CE_14  and  NZ_15 
REMARK    9  A    between atoms: CA_17  and  C_18 
REMARK       I    between atoms: C_18  and  N1_23 
REMARK   10  A    between atoms: N1_23  and  C1_24 
REMARK   11  A    between atoms: C4_27  and  C1'_30 
REMARK   12  A    between atoms: C1'_30  and  C2'_31 
REMARK   13  A    between atoms: C1'_30  and  C3'_32 
ROOT
ATOM      1  C   0Z1 d   1      39.424  20.959  37.385  0.00  0.00     0.243 C 
ATOM      2  O   0Z1 d   1      38.700  21.374  38.277  0.00  0.00    -0.271 OA
ATOM      3  N   0Z1 d   1      38.836  20.590  36.235  0.00  0.00    -0.337 N 
ATOM      4  CA  0Z1 d   1      37.382  20.377  36.114  0.00  0.00     0.092 C 
ATOM      5  CB  0Z1 d   1      37.146  20.459  34.608  0.00  0.00    -0.036 C 
ATOM      6  CG  0Z1 d   1      38.448  19.987  33.986  0.00  0.00    -0.048 C 
ATOM      7  CD  0Z1 d   1      39.543  20.435  34.962  0.00  0.00    -0.001 C 
ATOM      8  H14 0Z1 d   1      36.845  21.201  36.606  0.00  0.00     0.087 H 
ATOM      9  H15 0Z1 d   1      36.925  21.493  34.306  0.00  0.00     0.036 H 
ATOM     10  H16 0Z1 d   1      36.314  19.804  34.310  0.00  0.00     0.036 H 
ATOM     11  H17 0Z1 d   1      38.450  18.892  33.879  0.00  0.00     0.035 H 
ATOM     12  H18 0Z1 d   1      38.596  20.452  33.000  0.00  0.00     0.035 H 
ATOM     13  H19 0Z1 d   1      40.332  19.673  35.042  0.00  0.00     0.064 H 
ATOM     14  H20 0Z1 d   1      39.987  21.389  34.642  0.00  0.00     0.064 H 
ENDROOT
BRANCH   4  15
ATOM     15  C   0Z1 d   1      36.925  19.066  36.788  0.00  0.00     0.245 C 
ATOM     16  O   0Z1 d   1      36.944  17.956  36.222  0.00  0.00    -0.271 OA
ATOM     17  N1  0Z1 d   1      36.585  19.363  38.067  0.00  0.00    -0.325 N 
ATOM     18  H21 0Z1 d   1      36.601  20.325  38.341  0.00  0.00     0.169 HD
BRANCH  17  19
ATOM     19  C1  0Z1 d   1      36.223  18.444  39.004  0.00  0.00     0.034 A 
ATOM     20  C2  0Z1 d   1      36.670  17.106  38.964  0.00  0.00    -0.057 A 
ATOM     21  C3  0Z1 d   1      36.375  16.227  40.016  0.00  0.00    -0.074 A 
ATOM     22  H22 0Z1 d   1      37.245  16.756  38.115  0.00  0.00     0.086 H 
ATOM     23  C4  0Z1 d   1      35.630  16.670  41.126  0.00  0.00    -0.055 A 
ATOM     24  H23 0Z1 d   1      36.722  15.201  39.975  0.00  0.00     0.084 H 
ATOM     25  C5  0Z1 d   1      35.181  17.995  41.162  0.00  0.00    -0.074 A 
ATOM     26  C6  0Z1 d   1      35.470  18.869  40.108  0.00  0.00    -0.057 A 
ATOM     27  H24 0Z1 d   1      34.606  18.346  42.011  0.00  0.00     0.084 H 
ATOM     28  H25 0Z1 d   1      35.106  19.890  40.145  0.00  0.00     0.086 H 
BRANCH  23  29
ATOM     29  C1' 0Z1 d   1      35.334  15.738  42.312  0.00  0.00    -0.036 C 
ATOM     30  H26 0Z1 d   1      35.607  16.245  43.249  0.00  0.00     0.046 H 
BRANCH  29  31
ATOM     31  C2' 0Z1 d   1      36.111  14.405  42.232  0.00  0.00    -0.069 C 
ATOM     32  H27 0Z1 d   1      35.860  13.782  43.103  0.00  0.00     0.028 H 
ATOM     33  H28 0Z1 d   1      37.192  14.610  42.227  0.00  0.00     0.028 H 
ATOM     34  H29 0Z1 d   1      35.834  13.874  41.309  0.00  0.00     0.028 H 
ENDBRANCH  29  31
BRANCH  29  35
ATOM     35  C3' 0Z1 d   1      33.864  15.485  42.285  0.00  0.00    -0.069 C 
ATOM     36  H30 0Z1 d   1      33.326  16.443  42.343  0.00  0.00     0.028 H 
ATOM     37  H31 0Z1 d   1      33.584  14.855  43.142  0.00  0.00     0.028 H 
ATOM     38  H32 0Z1 d   1      33.598  14.970  41.350  0.00  0.00     0.028 H 
ENDBRANCH  29  35
ENDBRANCH  23  29
ENDBRANCH  17  19
ENDBRANCH   4  15
BRANCH   1  39
ATOM     39  CA  0Z1 d   1      40.950  20.967  37.624  0.00  0.00     0.090 C 
ATOM     40  H2  0Z1 d   1      41.455  20.733  36.675  0.00  0.00     0.087 H 
BRANCH  39  41
ATOM     41  N   0Z1 d   1      41.355  22.273  38.107  0.00  0.00    -0.340 N 
ATOM     42  C   0Z1 d   1      41.026  23.457  37.552  0.00  0.00     0.326 C 
ATOM     43  O   0Z1 d   1      40.508  23.491  36.429  0.00  0.00    -0.263 OA
ATOM     44  H1  0Z1 d   1      41.930  22.298  38.925  0.00  0.00     0.163 HD
BRANCH  42  45
ATOM     45  CT  0Z1 d   1      41.357  24.777  38.354  0.00  0.00     0.472 C 
ATOM     46  F1  0Z1 d   1      40.321  25.610  38.369  0.00  0.00    -0.162 F 
ATOM     47  F2  0Z1 d   1      41.655  24.614  39.651  0.00  0.00    -0.162 F 
ATOM     48  F3  0Z1 d   1      42.364  25.482  37.848  0.00  0.00    -0.162 F 
ENDBRANCH  42  45
ENDBRANCH  39  41
BRANCH  39  49
ATOM     49  CB  0Z1 d   1      41.424  19.985  38.716  0.00  0.00    -0.038 C 
ATOM     50  H3  0Z1 d   1      41.362  20.515  39.678  0.00  0.00     0.036 H 
ATOM     51  H4  0Z1 d   1      42.474  19.740  38.499  0.00  0.00     0.036 H 
BRANCH  49  52
ATOM     52  CG  0Z1 d   1      40.682  18.670  38.880  0.00  0.00    -0.061 C 
ATOM     53  H5  0Z1 d   1      39.896  18.614  38.113  0.00  0.00     0.033 H 
ATOM     54  H6  0Z1 d   1      40.222  18.651  39.879  0.00  0.00     0.033 H 
BRANCH  52  55
ATOM     55  CD  0Z1 d   1      41.588  17.443  38.738  0.00  0.00    -0.043 C 
ATOM     56  H7  0Z1 d   1      42.158  17.286  39.665  0.00  0.00     0.035 H 
ATOM     57  H8  0Z1 d   1      42.285  17.583  37.898  0.00  0.00     0.035 H 
BRANCH  55  58
ATOM     58  CE  0Z1 d   1      40.676  16.238  38.470  0.00  0.00     0.080 C 
ATOM     59  H9  0Z1 d   1      40.206  16.361  37.483  0.00  0.00     0.075 H 
ATOM     60  H10 0Z1 d   1      39.897  16.203  39.245  0.00  0.00     0.075 H 
BRANCH  58  61
ATOM     61  NZ  0Z1 d   1      41.407  14.990  38.487  0.00  0.00    -0.079 N 
ATOM     62  H11 0Z1 d   1      40.773  14.227  38.307  0.00  0.00     0.274 HD
ATOM     63  H12 0Z1 d   1      41.837  14.864  39.390  0.00  0.00     0.274 HD
ATOM     64  H13 0Z1 d   1      42.120  15.009  37.775  0.00  0.00     0.274 HD
ENDBRANCH  58  61
ENDBRANCH  55  58
ENDBRANCH  52  55
ENDBRANCH  49  52
ENDBRANCH  39  49
ENDBRANCH   1  39
TORSDOF 13
