REMARK  18 active torsions:
REMARK  status: ('A' for Active; 'I' for Inactive)
REMARK    1  A    between atoms: C_1  and  CT_3 
REMARK       I    between atoms: N_7  and  C_1 
REMARK    2  A    between atoms: CA_8  and  N_7 
REMARK    3  A    between atoms: C_9  and  CA_8 
REMARK    4  A    between atoms: CA_8  and  CB_11 
REMARK       I    between atoms: N_16  and  C_9 
REMARK    5  A    between atoms: CB_11  and  CG_12 
REMARK    6  A    between atoms: CG_12  and  CD_13 
REMARK    7  A    between atoms: CD_13  and  CE_14 
REMARK    8  A    between atoms: CE_14  and  NZ_15 
REMARK    9  A    between atoms: CA_17  and  N_16 
REMARK   10  A    between atoms: C_18  and  CA_17 
REMARK   11  A    between atoms: CA_17  and  CB_20 
REMARK       I    between atoms: C_18  and  N1_24 
REMARK   12  A    between atoms: CB_20  and  CG_21 
REMARK   13  A    between atoms: CG_21  and  CD2_23 
REMARK   14  A    between atoms: CG_21  and  CD1_22 
REMARK   15  A    between atoms: N1_24  and  C1_25 
REMARK   16  A    between atoms: C4_28  and  C1'_31 
REMARK   17  A    between atoms: C1'_31  and  C3'_33 
REMARK   18  A    between atoms: C1'_31  and  C2'_32 
ROOT
ATOM      1  CA  0Z4 d   1      39.714  22.442  38.017  0.00  0.00     0.090 C 
ATOM      2  H15 0Z4 d   1      39.600  22.550  39.106  0.00  0.00     0.087 H 
ENDROOT
BRANCH   1   3
ATOM      3  C   0Z4 d   1      38.590  21.615  37.397  0.00  0.00     0.245 C 
ATOM      4  O   0Z4 d   1      38.191  21.740  36.242  0.00  0.00    -0.271 OA
ATOM      5  N1  0Z4 d   1      38.076  20.872  38.395  0.00  0.00    -0.325 N 
ATOM      6  H25 0Z4 d   1      38.118  21.228  39.328  0.00  0.00     0.169 HD
BRANCH   5   7
ATOM      7  C1  0Z4 d   1      37.507  19.669  38.188  0.00  0.00     0.034 A 
ATOM      8  C6  0Z4 d   1      37.860  18.699  39.098  0.00  0.00    -0.057 A 
ATOM      9  C5  0Z4 d   1      37.504  17.389  38.922  0.00  0.00    -0.074 A 
ATOM     10  H29 0Z4 d   1      38.433  18.979  39.974  0.00  0.00     0.086 H 
ATOM     11  C4  0Z4 d   1      36.779  17.018  37.824  0.00  0.00    -0.055 A 
ATOM     12  H28 0Z4 d   1      37.797  16.645  39.654  0.00  0.00     0.084 H 
ATOM     13  C3  0Z4 d   1      36.394  17.983  36.896  0.00  0.00    -0.074 A 
ATOM     14  C2  0Z4 d   1      36.750  19.315  37.076  0.00  0.00    -0.057 A 
ATOM     15  H27 0Z4 d   1      35.813  17.694  36.028  0.00  0.00     0.084 H 
ATOM     16  H26 0Z4 d   1      36.442  20.068  36.359  0.00  0.00     0.086 H 
BRANCH  11  17
ATOM     17  C1' 0Z4 d   1      36.470  15.528  37.648  0.00  0.00    -0.036 C 
ATOM     18  H30 0Z4 d   1      37.181  14.951  38.257  0.00  0.00     0.046 H 
BRANCH  17  19
ATOM     19  C3' 0Z4 d   1      35.087  15.285  38.224  0.00  0.00    -0.069 C 
ATOM     20  H34 0Z4 d   1      35.058  15.632  39.267  0.00  0.00     0.028 H 
ATOM     21  H35 0Z4 d   1      34.859  14.210  38.189  0.00  0.00     0.028 H 
ATOM     22  H36 0Z4 d   1      34.342  15.838  37.633  0.00  0.00     0.028 H 
ENDBRANCH  17  19
BRANCH  17  23
ATOM     23  C2' 0Z4 d   1      36.697  15.105  36.196  0.00  0.00    -0.069 C 
ATOM     24  H31 0Z4 d   1      36.471  14.034  36.087  0.00  0.00     0.028 H 
ATOM     25  H32 0Z4 d   1      37.746  15.289  35.920  0.00  0.00     0.028 H 
ATOM     26  H33 0Z4 d   1      36.037  15.688  35.537  0.00  0.00     0.028 H 
ENDBRANCH  17  23
ENDBRANCH  11  17
ENDBRANCH   5   7
ENDBRANCH   1   3
BRANCH   1  27
ATOM     27  CB  0Z4 d   1      39.983  23.848  37.374  0.00  0.00    -0.035 C 
ATOM     28  H16 0Z4 d   1      39.023  24.385  37.385  0.00  0.00     0.037 H 
ATOM     29  H17 0Z4 d   1      40.287  23.662  36.333  0.00  0.00     0.037 H 
BRANCH  27  30
ATOM     30  CG  0Z4 d   1      41.041  24.820  37.977  0.00  0.00    -0.059 C 
ATOM     31  H18 0Z4 d   1      41.880  24.948  37.277  0.00  0.00     0.038 H 
BRANCH  30  32
ATOM     32  CD2 0Z4 d   1      41.461  24.404  39.333  0.00  0.00    -0.073 C 
ATOM     33  H22 0Z4 d   1      41.963  23.427  39.278  0.00  0.00     0.028 H 
ATOM     34  H23 0Z4 d   1      40.577  24.326  39.983  0.00  0.00     0.028 H 
ATOM     35  H24 0Z4 d   1      42.156  25.150  39.747  0.00  0.00     0.028 H 
ENDBRANCH  30  32
BRANCH  30  36
ATOM     36  CD1 0Z4 d   1      40.436  26.106  38.418  0.00  0.00    -0.073 C 
ATOM     37  H19 0Z4 d   1      41.219  26.756  38.835  0.00  0.00     0.028 H 
ATOM     38  H20 0Z4 d   1      39.676  25.909  39.188  0.00  0.00     0.028 H 
ATOM     39  H21 0Z4 d   1      39.966  26.604  37.557  0.00  0.00     0.028 H 
ENDBRANCH  30  36
ENDBRANCH  27  30
ENDBRANCH   1  27
BRANCH   1  40
ATOM     40  N   0Z4 d   1      40.766  21.538  37.627  0.00  0.00    -0.346 N 
ATOM     41  C   0Z4 d   1      41.060  20.381  38.260  0.00  0.00     0.241 C 
ATOM     42  O   0Z4 d   1      40.628  20.057  39.369  0.00  0.00    -0.271 OA
ATOM     43  H14 0Z4 d   1      41.318  21.785  36.831  0.00  0.00     0.163 HD
BRANCH  41  44
ATOM     44  CA  0Z4 d   1      42.063  19.523  37.501  0.00  0.00     0.089 C 
ATOM     45  H2  0Z4 d   1      41.612  19.019  36.634  0.00  0.00     0.087 H 
BRANCH  44  46
ATOM     46  CB  0Z4 d   1      42.642  18.486  38.452  0.00  0.00    -0.038 C 
ATOM     47  H3  0Z4 d   1      42.121  18.567  39.417  0.00  0.00     0.036 H 
ATOM     48  H4  0Z4 d   1      43.712  18.700  38.593  0.00  0.00     0.036 H 
BRANCH  46  49
ATOM     49  CG  0Z4 d   1      42.498  17.067  37.946  0.00  0.00    -0.061 C 
ATOM     50  H5  0Z4 d   1      43.178  16.413  38.511  0.00  0.00     0.033 H 
ATOM     51  H6  0Z4 d   1      42.763  17.037  36.879  0.00  0.00     0.033 H 
BRANCH  49  52
ATOM     52  CD  0Z4 d   1      41.075  16.568  38.117  0.00  0.00    -0.043 C 
ATOM     53  H7  0Z4 d   1      40.426  17.079  37.390  0.00  0.00     0.035 H 
ATOM     54  H8  0Z4 d   1      40.735  16.798  39.138  0.00  0.00     0.035 H 
BRANCH  52  55
ATOM     55  CE  0Z4 d   1      40.983  15.062  37.891  0.00  0.00     0.080 C 
ATOM     56  H9  0Z4 d   1      41.624  14.544  38.619  0.00  0.00     0.075 H 
ATOM     57  H10 0Z4 d   1      41.321  14.825  36.871  0.00  0.00     0.075 H 
BRANCH  55  58
ATOM     58  NZ  0Z4 d   1      39.606  14.618  38.059  0.00  0.00    -0.079 N 
ATOM     59  H11 0Z4 d   1      39.553  13.623  37.908  0.00  0.00     0.274 HD
ATOM     60  H12 0Z4 d   1      39.017  15.091  37.392  0.00  0.00     0.274 HD
ATOM     61  H13 0Z4 d   1      39.295  14.833  38.993  0.00  0.00     0.274 HD
ENDBRANCH  55  58
ENDBRANCH  52  55
ENDBRANCH  49  52
ENDBRANCH  46  49
ENDBRANCH  44  46
BRANCH  44  62
ATOM     62  N   0Z4 d   1      43.013  20.540  37.085  0.00  0.00    -0.340 N 
ATOM     63  C   0Z4 d   1      43.235  20.814  35.778  0.00  0.00     0.326 C 
ATOM     64  O   0Z4 d   1      42.908  19.972  34.916  0.00  0.00    -0.263 OA
ATOM     65  H1  0Z4 d   1      43.516  21.051  37.782  0.00  0.00     0.163 HD
BRANCH  63  66
ATOM     66  CT  0Z4 d   1      44.010  22.154  35.449  0.00  0.00     0.472 C 
ATOM     67  F3  0Z4 d   1      43.285  23.171  35.859  0.00  0.00    -0.162 F 
ATOM     68  F2  0Z4 d   1      44.265  22.401  34.175  0.00  0.00    -0.162 F 
ATOM     69  F1  0Z4 d   1      45.159  22.325  36.045  0.00  0.00    -0.162 F 
ENDBRANCH  63  66
ENDBRANCH  44  62
ENDBRANCH  41  44
ENDBRANCH   1  40
TORSDOF 18
