REMARK  16 active torsions:
REMARK  status: ('A' for Active; 'I' for Inactive)
REMARK    1  A    between atoms: C_1  and  CT_3 
REMARK       I    between atoms: N_7  and  C_1 
REMARK    2  A    between atoms: N_7  and  CA_8 
REMARK    3  A    between atoms: CA_8  and  CB_11 
REMARK    4  A    between atoms: CA_8  and  C_9 
REMARK       I    between atoms: C_9  and  N_16 
REMARK    5  A    between atoms: CB_11  and  CG_12 
REMARK    6  A    between atoms: CG_12  and  CD_13 
REMARK    7  A    between atoms: CD_13  and  CE_14 
REMARK    8  A    between atoms: CE_14  and  NZ_15 
REMARK    9  A    between atoms: N_16  and  CA_17 
REMARK   10  A    between atoms: CA_17  and  CB_20 
REMARK   11  A    between atoms: CA_17  and  C_18 
REMARK       I    between atoms: C_18  and  N1_27 
REMARK   12  A    between atoms: CB_20  and  CG_21 
REMARK   13  A    between atoms: N1_27  and  C1_28 
REMARK   14  A    between atoms: C4_31  and  C1'_34 
REMARK   15  A    between atoms: C1'_34  and  C2'_35 
REMARK   16  A    between atoms: C1'_34  and  C3'_36 
ROOT
ATOM      1  CA  0Z3 d   1      38.309  21.899  37.487  0.00  0.00     0.093 C 
ATOM      2  H15 0Z3 d   1      38.205  22.196  38.541  0.00  0.00     0.088 H 
ENDROOT
BRANCH   1   3
ATOM      3  N   0Z3 d   1      39.282  20.849  37.371  0.00  0.00    -0.346 N 
ATOM      4  C   0Z3 d   1      39.935  20.247  38.359  0.00  0.00     0.241 C 
ATOM      5  O   0Z3 d   1      39.550  20.135  39.514  0.00  0.00    -0.271 OA
ATOM      6  H14 0Z3 d   1      39.491  20.537  36.444  0.00  0.00     0.163 HD
BRANCH   4   7
ATOM      7  CA  0Z3 d   1      41.147  19.547  37.739  0.00  0.00     0.089 C 
ATOM      8  H2  0Z3 d   1      40.879  18.938  36.863  0.00  0.00     0.087 H 
BRANCH   7   9
ATOM      9  N   0Z3 d   1      41.985  20.712  37.311  0.00  0.00    -0.340 N 
ATOM     10  C   0Z3 d   1      42.805  20.757  36.212  0.00  0.00     0.326 C 
ATOM     11  O   0Z3 d   1      43.222  19.660  35.785  0.00  0.00    -0.263 OA
ATOM     12  H1  0Z3 d   1      41.943  21.534  37.879  0.00  0.00     0.163 HD
BRANCH  10  13
ATOM     13  CT  0Z3 d   1      43.335  22.169  35.598  0.00  0.00     0.472 C 
ATOM     14  F1  0Z3 d   1      44.576  22.588  35.904  0.00  0.00    -0.162 F 
ATOM     15  F2  0Z3 d   1      43.340  22.138  34.231  0.00  0.00    -0.162 F 
ATOM     16  F3  0Z3 d   1      42.545  23.236  35.907  0.00  0.00    -0.162 F 
ENDBRANCH  10  13
ENDBRANCH   7   9
BRANCH   7  17
ATOM     17  CB  0Z3 d   1      41.695  18.634  38.836  0.00  0.00    -0.038 C 
ATOM     18  H3  0Z3 d   1      41.044  18.688  39.721  0.00  0.00     0.036 H 
ATOM     19  H4  0Z3 d   1      42.712  18.953  39.109  0.00  0.00     0.036 H 
BRANCH  17  20
ATOM     20  CG  0Z3 d   1      41.731  17.193  38.309  0.00  0.00    -0.061 C 
ATOM     21  H5  0Z3 d   1      42.501  17.120  37.527  0.00  0.00     0.033 H 
ATOM     22  H6  0Z3 d   1      40.748  16.947  37.881  0.00  0.00     0.033 H 
BRANCH  20  23
ATOM     23  CD  0Z3 d   1      42.052  16.194  39.409  0.00  0.00    -0.043 C 
ATOM     24  H7  0Z3 d   1      41.172  16.091  40.061  0.00  0.00     0.035 H 
ATOM     25  H8  0Z3 d   1      42.900  16.576  39.996  0.00  0.00     0.035 H 
BRANCH  23  26
ATOM     26  CE  0Z3 d   1      42.419  14.810  38.854  0.00  0.00     0.080 C 
ATOM     27  H9  0Z3 d   1      41.705  14.545  38.060  0.00  0.00     0.075 H 
ATOM     28  H10 0Z3 d   1      42.353  14.073  39.667  0.00  0.00     0.075 H 
BRANCH  26  29
ATOM     29  NZ  0Z3 d   1      43.764  14.782  38.303  0.00  0.00    -0.079 N 
ATOM     30  H11 0Z3 d   1      43.964  13.859  37.951  0.00  0.00     0.274 HD
ATOM     31  H12 0Z3 d   1      44.428  15.017  39.024  0.00  0.00     0.274 HD
ATOM     32  H13 0Z3 d   1      43.833  15.450  37.552  0.00  0.00     0.274 HD
ENDBRANCH  26  29
ENDBRANCH  23  26
ENDBRANCH  20  23
ENDBRANCH  17  20
ENDBRANCH   7  17
ENDBRANCH   4   7
ENDBRANCH   1   3
BRANCH   1  33
ATOM     33  CB  0Z3 d   1      39.071  22.963  36.731  0.00  0.00    -0.014 C 
ATOM     34  H16 0Z3 d   1      38.420  23.373  35.945  0.00  0.00     0.043 H 
ATOM     35  H17 0Z3 d   1      39.958  22.503  36.270  0.00  0.00     0.043 H 
BRANCH  33  36
ATOM     36  CG  0Z3 d   1      39.510  24.067  37.606  0.00  0.00    -0.056 A 
ATOM     37  CD1 0Z3 d   1      40.413  23.839  38.629  0.00  0.00    -0.077 A 
ATOM     38  CE1 0Z3 d   1      40.789  24.885  39.452  0.00  0.00    -0.082 A 
ATOM     39  H18 0Z3 d   1      40.823  22.848  38.784  0.00  0.00     0.084 H 
ATOM     40  CZ  0Z3 d   1      40.246  26.145  39.232  0.00  0.00    -0.083 A 
ATOM     41  H20 0Z3 d   1      41.497  24.724  40.257  0.00  0.00     0.083 H 
ATOM     42  CE2 0Z3 d   1      39.347  26.355  38.216  0.00  0.00    -0.082 A 
ATOM     43  H22 0Z3 d   1      40.536  26.972  39.870  0.00  0.00     0.083 H 
ATOM     44  CD2 0Z3 d   1      38.975  25.311  37.390  0.00  0.00    -0.077 A 
ATOM     45  H21 0Z3 d   1      38.928  27.343  38.061  0.00  0.00     0.083 H 
ATOM     46  H19 0Z3 d   1      38.270  25.473  36.583  0.00  0.00     0.084 H 
ENDBRANCH  33  36
ENDBRANCH   1  33
BRANCH   1  47
ATOM     47  C   0Z3 d   1      36.888  21.576  36.992  0.00  0.00     0.245 C 
ATOM     48  O   0Z3 d   1      36.186  20.730  37.586  0.00  0.00    -0.271 OA
ATOM     49  N1  0Z3 d   1      36.546  22.481  36.005  0.00  0.00    -0.325 N 
ATOM     50  H23 0Z3 d   1      37.109  23.305  35.946  0.00  0.00     0.169 HD
BRANCH  49  51
ATOM     51  C1  0Z3 d   1      35.544  22.381  35.115  0.00  0.00     0.034 A 
ATOM     52  C2  0Z3 d   1      35.229  21.147  34.542  0.00  0.00    -0.057 A 
ATOM     53  C3  0Z3 d   1      34.376  21.089  33.453  0.00  0.00    -0.074 A 
ATOM     54  H24 0Z3 d   1      35.652  20.236  34.949  0.00  0.00     0.086 H 
ATOM     55  C4  0Z3 d   1      33.809  22.258  32.915  0.00  0.00    -0.055 A 
ATOM     56  H25 0Z3 d   1      34.142  20.128  33.009  0.00  0.00     0.084 H 
ATOM     57  C5  0Z3 d   1      34.107  23.502  33.497  0.00  0.00    -0.074 A 
ATOM     58  C6  0Z3 d   1      34.969  23.558  34.592  0.00  0.00    -0.057 A 
ATOM     59  H26 0Z3 d   1      33.670  24.410  33.098  0.00  0.00     0.084 H 
ATOM     60  H27 0Z3 d   1      35.199  24.515  35.045  0.00  0.00     0.086 H 
BRANCH  55  61
ATOM     61  C1' 0Z3 d   1      32.905  22.125  31.665  0.00  0.00    -0.036 C 
ATOM     62  H28 0Z3 d   1      32.056  21.471  31.913  0.00  0.00     0.046 H 
BRANCH  61  63
ATOM     63  C2' 0Z3 d   1      33.741  21.437  30.571  0.00  0.00    -0.069 C 
ATOM     64  H29 0Z3 d   1      33.132  21.323  29.662  0.00  0.00     0.028 H 
ATOM     65  H30 0Z3 d   1      34.062  20.446  30.924  0.00  0.00     0.028 H 
ATOM     66  H31 0Z3 d   1      34.626  22.050  30.346  0.00  0.00     0.028 H 
ENDBRANCH  61  63
BRANCH  61  67
ATOM     67  C3' 0Z3 d   1      32.337  23.462  31.243  0.00  0.00    -0.069 C 
ATOM     68  H32 0Z3 d   1      31.755  23.891  32.072  0.00  0.00     0.028 H 
ATOM     69  H33 0Z3 d   1      31.683  23.323  30.369  0.00  0.00     0.028 H 
ATOM     70  H34 0Z3 d   1      33.160  24.144  30.981  0.00  0.00     0.028 H 
ENDBRANCH  61  67
ENDBRANCH  55  61
ENDBRANCH  49  51
ENDBRANCH   1  47
TORSDOF 16
