REMARK  10 active torsions:
REMARK  status: ('A' for Active; 'I' for Inactive)
REMARK    1  A    between atoms: C1_1  and  C2_2 
REMARK       I    between atoms: N_7  and  C1_1 
REMARK    2  A    between atoms: CA_8  and  N_7 
REMARK    3  A    between atoms: C_9  and  CA_8 
REMARK    4  A    between atoms: CA_8  and  CB_11 
REMARK       I    between atoms: N_18  and  C_9 
REMARK    5  A    between atoms: CB_11  and  CG_12 
REMARK    6  A    between atoms: CA_19  and  N_18 
REMARK    7  A    between atoms: C_20  and  CA_19 
REMARK    8  A    between atoms: CA_19  and  CB_22 
REMARK       I    between atoms: C_20  and  N_23 
REMARK    9  A    between atoms: N_23  and  C1_24 
REMARK   10  A    between atoms: C4_27  and  C7_30 
ROOT
ATOM      1  C   0Z0 d   1      39.094  21.472  37.376  0.00  0.00     0.241 C 
ATOM      2  O   0Z0 d   1      38.475  21.632  38.442  0.00  0.00    -0.271 OA
ATOM      3  N   0Z0 d   1      38.518  21.040  36.234  0.00  0.00    -0.346 N 
ATOM      4  H10 0Z0 d   1      39.099  20.888  35.434  0.00  0.00     0.163 HD
ENDROOT
BRANCH   1   5
ATOM      5  CA  0Z0 d   1      40.609  21.770  37.292  0.00  0.00     0.093 C 
ATOM      6  H2  0Z0 d   1      40.925  21.486  36.277  0.00  0.00     0.088 H 
BRANCH   5   7
ATOM      7  CB  0Z0 d   1      41.511  21.128  38.294  0.00  0.00    -0.014 C 
ATOM      8  H3  0Z0 d   1      41.484  21.765  39.191  0.00  0.00     0.043 H 
ATOM      9  H4  0Z0 d   1      42.522  21.147  37.861  0.00  0.00     0.043 H 
BRANCH   7  10
ATOM     10  CG  0Z0 d   1      41.275  19.722  38.763  0.00  0.00    -0.056 A 
ATOM     11  CD2 0Z0 d   1      41.713  19.417  40.048  0.00  0.00    -0.077 A 
ATOM     12  CE2 0Z0 d   1      41.582  18.107  40.510  0.00  0.00    -0.082 A 
ATOM     13  H6  0Z0 d   1      42.148  20.183  40.679  0.00  0.00     0.084 H 
ATOM     14  CZ  0Z0 d   1      41.015  17.103  39.721  0.00  0.00    -0.083 A 
ATOM     15  H8  0Z0 d   1      41.929  17.862  41.507  0.00  0.00     0.083 H 
ATOM     16  CE1 0Z0 d   1      40.566  17.402  38.432  0.00  0.00    -0.082 A 
ATOM     17  H9  0Z0 d   1      40.924  16.095  40.108  0.00  0.00     0.083 H 
ATOM     18  CD1 0Z0 d   1      40.701  18.719  37.948  0.00  0.00    -0.077 A 
ATOM     19  H7  0Z0 d   1      40.120  16.632  37.813  0.00  0.00     0.083 H 
ATOM     20  H5  0Z0 d   1      40.364  18.964  36.947  0.00  0.00     0.084 H 
ENDBRANCH   7  10
ENDBRANCH   5   7
BRANCH   5  21
ATOM     21  N   0Z0 d   1      40.970  23.142  37.563  0.00  0.00    -0.340 N 
ATOM     22  C1  0Z0 d   1      40.566  23.989  37.155  0.00  0.00     0.326 C 
ATOM     23  O   0Z0 d   1      39.862  24.265  36.184  0.00  0.00    -0.263 OA
ATOM     24  H1  0Z0 d   1      41.703  23.281  38.229  0.00  0.00     0.163 HD
BRANCH  22  25
ATOM     25  C2  0Z0 d   1      41.079  25.044  38.194  0.00  0.00     0.472 C 
ATOM     26  F3  0Z0 d   1      41.347  24.493  39.384  0.00  0.00    -0.162 F 
ATOM     27  F2  0Z0 d   1      42.188  25.712  37.814  0.00  0.00    -0.162 F 
ATOM     28  F1  0Z0 d   1      40.168  26.013  38.455  0.00  0.00    -0.162 F 
ENDBRANCH  22  25
ENDBRANCH   5  21
ENDBRANCH   1   5
BRANCH   3  29
ATOM     29  CA  0Z0 d   1      37.074  20.783  36.113  0.00  0.00     0.086 C 
ATOM     30  H11 0Z0 d   1      36.556  21.649  36.550  0.00  0.00     0.086 H 
BRANCH  29  31
ATOM     31  C   0Z0 d   1      36.567  19.541  36.841  0.00  0.00     0.244 C 
ATOM     32  O   0Z0 d   1      36.406  18.449  36.281  0.00  0.00    -0.271 OA
ATOM     33  N   0Z0 d   1      36.359  19.801  38.143  0.00  0.00    -0.325 N 
ATOM     34  H15 0Z0 d   1      36.509  20.722  38.503  0.00  0.00     0.169 HD
BRANCH  33  35
ATOM     35  C1  0Z0 d   1      35.948  18.816  38.957  0.00  0.00     0.034 A 
ATOM     36  C6  0Z0 d   1      36.222  17.482  38.643  0.00  0.00    -0.056 A 
ATOM     37  C5  0Z0 d   1      35.883  16.473  39.535  0.00  0.00    -0.066 A 
ATOM     38  H19 0Z0 d   1      36.700  17.235  37.702  0.00  0.00     0.086 H 
ATOM     39  C4  0Z0 d   1      35.273  16.771  40.761  0.00  0.00     0.048 A 
ATOM     40  H18 0Z0 d   1      36.093  15.441  39.279  0.00  0.00     0.084 H 
ATOM     41  C3  0Z0 d   1      34.997  18.119  41.061  0.00  0.00    -0.066 A 
ATOM     42  C2  0Z0 d   1      35.328  19.123  40.168  0.00  0.00    -0.056 A 
ATOM     43  H17 0Z0 d   1      34.520  18.373  42.001  0.00  0.00     0.084 H 
ATOM     44  H16 0Z0 d   1      35.104  20.155  40.411  0.00  0.00     0.086 H 
BRANCH  39  45
ATOM     45  C7  0Z0 d   1      34.985  15.630  41.821  0.00  0.00     0.417 C 
ATOM     46  F3  0Z0 d   1      36.081  15.646  42.602  0.00  0.00    -0.166 F 
ATOM     47  F2  0Z0 d   1      33.939  15.847  42.648  0.00  0.00    -0.166 F 
ATOM     48  F1  0Z0 d   1      34.842  14.328  41.405  0.00  0.00    -0.166 F 
ENDBRANCH  39  45
ENDBRANCH  33  35
ENDBRANCH  29  31
BRANCH  29  49
ATOM     49  CB  0Z0 d   1      36.684  20.688  34.627  0.00  0.00    -0.049 C 
ATOM     50  H12 0Z0 d   1      35.604  20.496  34.543  0.00  0.00     0.030 H 
ATOM     51  H13 0Z0 d   1      37.241  19.866  34.154  0.00  0.00     0.030 H 
ATOM     52  H14 0Z0 d   1      36.928  21.634  34.123  0.00  0.00     0.030 H 
ENDBRANCH  29  49
ENDBRANCH   3  29
TORSDOF 10
