REMARK  11 active torsions:
REMARK  status: ('A' for Active; 'I' for Inactive)
REMARK    1  A    between atoms: C1_1  and  C2_2 
REMARK       I    between atoms: N_7  and  C1_1 
REMARK    2  A    between atoms: CA_8  and  N_7 
REMARK    3  A    between atoms: C_9  and  CA_8 
REMARK    4  A    between atoms: CA_8  and  CB_11 
REMARK       I    between atoms: N_14  and  C_9 
REMARK    5  A    between atoms: CB_11  and  CG1_12 
REMARK    6  A    between atoms: CB_11  and  CG2_13 
REMARK    7  A    between atoms: CA_15  and  N_14 
REMARK    8  A    between atoms: C_16  and  CA_15 
REMARK    9  A    between atoms: CA_15  and  CB_18 
REMARK       I    between atoms: C_16  and  N_19 
REMARK   10  A    between atoms: N_19  and  C1_20 
REMARK   11  A    between atoms: C4_23  and  C7_26 
ROOT
ATOM      1  C   0QN d   1      39.295  20.854  37.319  0.00  0.00     0.241 C 
ATOM      2  O   0QN d   1      38.617  21.153  38.305  0.00  0.00    -0.271 OA
ATOM      3  N   0QN d   1      38.736  20.548  36.129  0.00  0.00    -0.346 N 
ATOM      4  H10 0QN d   1      39.314  20.467  35.317  0.00  0.00     0.163 HD
ENDROOT
BRANCH   3   5
ATOM      5  CA  0QN d   1      37.291  20.334  36.016  0.00  0.00     0.086 C 
ATOM      6  H11 0QN d   1      36.752  21.137  36.541  0.00  0.00     0.086 H 
BRANCH   5   7
ATOM      7  C   0QN d   1      37.026  18.983  36.667  0.00  0.00     0.244 C 
ATOM      8  O   0QN d   1      37.497  17.929  36.208  0.00  0.00    -0.271 OA
ATOM      9  N   0QN d   1      36.339  19.208  37.808  0.00  0.00    -0.325 N 
ATOM     10  H15 0QN d   1      36.064  20.147  38.014  0.00  0.00     0.169 HD
BRANCH   9  11
ATOM     11  C1  0QN d   1      36.000  18.237  38.690  0.00  0.00     0.034 A 
ATOM     12  C6  0QN d   1      36.275  16.888  38.489  0.00  0.00    -0.056 A 
ATOM     13  C5  0QN d   1      35.950  15.968  39.450  0.00  0.00    -0.066 A 
ATOM     14  H19 0QN d   1      36.748  16.564  37.569  0.00  0.00     0.086 H 
ATOM     15  C4  0QN d   1      35.342  16.372  40.636  0.00  0.00     0.048 A 
ATOM     16  H18 0QN d   1      36.167  14.919  39.286  0.00  0.00     0.084 H 
ATOM     17  C3  0QN d   1      35.057  17.724  40.823  0.00  0.00    -0.066 A 
ATOM     18  C2  0QN d   1      35.385  18.637  39.861  0.00  0.00    -0.056 A 
ATOM     19  H17 0QN d   1      34.573  18.052  41.736  0.00  0.00     0.084 H 
ATOM     20  H16 0QN d   1      35.160  19.686  40.018  0.00  0.00     0.086 H 
BRANCH  15  21
ATOM     21  C7  0QN d   1      35.037  15.326  41.780  0.00  0.00     0.417 C 
ATOM     22  F3  0QN d   1      33.733  15.316  42.082  0.00  0.00    -0.166 F 
ATOM     23  F2  0QN d   1      35.650  15.727  42.894  0.00  0.00    -0.166 F 
ATOM     24  F1  0QN d   1      35.418  14.014  41.614  0.00  0.00    -0.166 F 
ENDBRANCH  15  21
ENDBRANCH   9  11
ENDBRANCH   5   7
BRANCH   5  25
ATOM     25  CB  0QN d   1      36.806  20.258  34.564  0.00  0.00    -0.049 C 
ATOM     26  H12 0QN d   1      35.718  20.097  34.549  0.00  0.00     0.030 H 
ATOM     27  H13 0QN d   1      37.307  19.423  34.053  0.00  0.00     0.030 H 
ATOM     28  H14 0QN d   1      37.045  21.200  34.048  0.00  0.00     0.030 H 
ENDBRANCH   5  25
ENDBRANCH   3   5
BRANCH   1  29
ATOM     29  CA  0QN d   1      40.820  21.012  37.332  0.00  0.00     0.092 C 
ATOM     30  H2  0QN d   1      41.161  21.107  36.291  0.00  0.00     0.088 H 
BRANCH  29  31
ATOM     31  CB  0QN d   1      41.694  19.901  38.052  0.00  0.00    -0.033 C 
ATOM     32  H3  0QN d   1      42.643  20.362  38.362  0.00  0.00     0.042 H 
BRANCH  31  33
ATOM     33  CG1 0QN d   1      41.033  19.351  39.286  0.00  0.00    -0.071 C 
ATOM     34  H4  0QN d   1      41.682  18.588  39.741  0.00  0.00     0.028 H 
ATOM     35  H5  0QN d   1      40.069  18.897  39.014  0.00  0.00     0.028 H 
ATOM     36  H6  0QN d   1      40.865  20.166  40.006  0.00  0.00     0.028 H 
ENDBRANCH  31  33
BRANCH  31  37
ATOM     37  CG2 0QN d   1      42.002  18.802  37.056  0.00  0.00    -0.071 C 
ATOM     38  H7  0QN d   1      42.483  19.237  36.168  0.00  0.00     0.028 H 
ATOM     39  H8  0QN d   1      41.067  18.303  36.759  0.00  0.00     0.028 H 
ATOM     40  H9  0QN d   1      42.679  18.068  37.518  0.00  0.00     0.028 H 
ENDBRANCH  31  37
ENDBRANCH  29  31
BRANCH  29  41
ATOM     41  N   0QN d   1      41.111  22.203  38.083  0.00  0.00    -0.340 N 
ATOM     42  C1  0QN d   1      40.859  23.454  37.632  0.00  0.00     0.326 C 
ATOM     43  O   0QN d   1      40.222  23.639  36.576  0.00  0.00    -0.263 OA
ATOM     44  H1  0QN d   1      41.522  22.102  38.989  0.00  0.00     0.163 HD
BRANCH  42  45
ATOM     45  C2  0QN d   1      41.306  24.644  38.565  0.00  0.00     0.472 C 
ATOM     46  F3  0QN d   1      40.234  25.342  38.941  0.00  0.00    -0.162 F 
ATOM     47  F2  0QN d   1      42.128  25.511  37.941  0.00  0.00    -0.162 F 
ATOM     48  F1  0QN d   1      41.971  24.317  39.695  0.00  0.00    -0.162 F 
ENDBRANCH  42  45
ENDBRANCH  29  41
ENDBRANCH   1  29
TORSDOF 11
