REMARK  1 active torsions:
REMARK  status: ('A' for Active; 'I' for Inactive)
REMARK    1  A    between atoms: C9_7  and  N13_13 
ROOT
ATOM      1  N10 APZ d   1      15.857  17.017  23.900  0.00  0.00    -0.263 N 
ATOM      2  C5  APZ d   1      15.418  16.808  22.654  0.00  0.00     0.271 A 
ATOM      3  O11 APZ d   1      14.255  16.450  22.463  0.00  0.00    -0.266 OA
ATOM      4  C2  APZ d   1      16.327  16.993  21.517  0.00  0.00     0.049 A 
ATOM      5  C6  APZ d   1      15.913  16.794  20.185  0.00  0.00    -0.065 A 
ATOM      6  C12 APZ d   1      16.818  16.995  19.133  0.00  0.00    -0.057 A 
ATOM      7  C9  APZ d   1      18.139  17.402  19.408  0.00  0.00     0.026 A 
ATOM      8  C4  APZ d   1      18.552  17.607  20.733  0.00  0.00    -0.041 A 
ATOM      9  C1  APZ d   1      17.649  17.411  21.790  0.00  0.00     0.051 A 
ATOM     10  C3  APZ d   1      18.056  17.617  23.186  0.00  0.00     0.271 A 
ATOM     11  O8  APZ d   1      19.202  17.973  23.450  0.00  0.00    -0.266 OA
ATOM     12  N7  APZ d   1      17.167  17.420  24.164  0.00  0.00    -0.263 N 
ATOM     13  H1  APZ d   1      15.228  16.881  24.665  0.00  0.00     0.190 HD
ATOM     14  H2  APZ d   1      14.896  16.486  19.974  0.00  0.00     0.085 H 
ATOM     15  H3  APZ d   1      16.502  16.837  18.108  0.00  0.00     0.086 H 
ATOM     16  H4  APZ d   1      19.570  17.917  20.941  0.00  0.00     0.088 H 
ATOM     17  H5  APZ d   1      17.448  17.566  25.113  0.00  0.00     0.190 HD
ENDROOT
BRANCH   7  18
ATOM     18  N13 APZ d   1      19.014  17.598  18.390  0.00  0.00    -0.399 N 
ATOM     19  H6  APZ d   1      18.713  17.448  17.416  0.00  0.00     0.156 HD
ATOM     20  H7  APZ d   1      19.979  17.897  18.591  0.00  0.00     0.156 HD
ENDBRANCH   7  18
TORSDOF 1
