REMARK  3 active torsions:
REMARK  status: ('A' for Active; 'I' for Inactive)
REMARK    1  A    between atoms: C1_1  and  O7_7 
REMARK    2  A    between atoms: C2_2  and  O8_8 
REMARK    3  A    between atoms: C4_4  and  N9_9 
ROOT
ATOM      1  C1  4NC d   1       9.914 -13.047  41.284  0.00  0.00     0.098 A 
ATOM      2  C2  4NC d   1       9.606 -14.139  40.503  0.00  0.00     0.101 A 
ATOM      3  C3  4NC d   1      10.598 -14.968  40.026  0.00  0.00    -0.016 A 
ATOM      4  C4  4NC d   1      11.915 -14.695  40.343  0.00  0.00     0.105 A 
ATOM      5  C5  4NC d   1      12.235 -13.602  41.131  0.00  0.00    -0.048 A 
ATOM      6  C6  4NC d   1      11.230 -12.781  41.596  0.00  0.00    -0.046 A 
ATOM      7  H1  4NC d   1      10.348 -15.824  39.410  0.00  0.00     0.091 H 
ATOM      8  H2  4NC d   1      13.269 -13.393  41.380  0.00  0.00     0.087 H 
ATOM      9  H3  4NC d   1      11.476 -11.922  42.210  0.00  0.00     0.087 H 
ENDROOT
BRANCH   4  10
ATOM     10  N9  4NC d   1      12.968 -15.556  39.837  0.00  0.00    -0.116 N 
ATOM     11  O11 4NC d   1      14.173 -15.343  40.094  0.00  0.00    -0.532 OA
ATOM     12  O10 4NC d   1      12.705 -16.540  39.114  0.00  0.00    -0.532 OA
ENDBRANCH   4  10
BRANCH   2  13
ATOM     13  O8  4NC d   1       8.272 -14.383  40.215  0.00  0.00    -0.358 OA
ATOM     14  H5  4NC d   1       7.794 -14.517  41.025  0.00  0.00     0.217 HD
ENDBRANCH   2  13
BRANCH   1  15
ATOM     15  O7  4NC d   1       8.899 -12.227  41.755  0.00  0.00    -0.358 OA
ATOM     16  H4  4NC d   1       8.062 -12.553  41.447  0.00  0.00     0.217 HD
ENDBRANCH   1  15
TORSDOF 3
