REMARK  19 active torsions:
REMARK  status: ('A' for Active; 'I' for Inactive)
REMARK       I    between atoms: C_7  and  N4_4 
REMARK       I    between atoms: N_9  and  C_7 
REMARK    1  A    between atoms: CA_10  and  N_9 
REMARK    2  A    between atoms: CA_10  and  CB_13 
REMARK    3  A    between atoms: C_11  and  CA_10 
REMARK       I    between atoms: N_20  and  C_11 
REMARK    4  A    between atoms: CB_13  and  CG_14 
REMARK    5  A    between atoms: CA_21  and  N_20 
REMARK    6  A    between atoms: C_22  and  CA_21 
REMARK    7  A    between atoms: CA_21  and  CB_24 
REMARK       I    between atoms: N_28  and  C_22 
REMARK    8  A    between atoms: CB_24  and  CG_25 
REMARK    9  A    between atoms: CG_25  and  CD_26 
REMARK   10  A    between atoms: CD_26  and  CE_27 
REMARK   11  A    between atoms: CA_29  and  N_28 
REMARK   12  A    between atoms: CA_29  and  CB_30 
REMARK   13  A    between atoms: CH_37  and  CA_29 
REMARK   14  A    between atoms: CB_30  and  CG_31 
REMARK   15  A    between atoms: CH_37  and  OH1_38 
REMARK   16  A    between atoms: CH_37  and  OH2_39 
REMARK   17  A    between atoms: CM_40  and  CH_37 
REMARK   18  A    between atoms: C_43  and  CM_40 
REMARK       I    between atoms: C_43  and  N_45 
REMARK   19  A    between atoms: N_45  and  CH3_46 
ROOT
ATOM      1  CA  2Z3 d   1      34.424  -9.612   0.295  0.00  0.00     0.089 C 
ATOM      2  H19 2Z3 d   1      33.419  -9.447   0.710  0.00  0.00     0.087 H 
ENDROOT
BRANCH   1   3
ATOM      3  N   2Z3 d   1      34.824  -8.526  -0.640  0.00  0.00    -0.346 N 
ATOM      4  C   2Z3 d   1      33.858  -7.898  -1.378  0.00  0.00     0.241 C 
ATOM      5  O   2Z3 d   1      32.732  -8.185  -1.268  0.00  0.00    -0.271 OA
ATOM      6  H18 2Z3 d   1      35.784  -8.259  -0.728  0.00  0.00     0.163 HD
BRANCH   4   7
ATOM      7  CA  2Z3 d   1      34.432  -6.805  -2.325  0.00  0.00     0.095 C 
ATOM      8  H10 2Z3 d   1      35.490  -6.992  -2.560  0.00  0.00     0.088 H 
BRANCH   7   9
ATOM      9  N   2Z3 d   1      33.617  -6.707  -3.578  0.00  0.00    -0.329 N 
ATOM     10  C   2Z3 d   1      33.637  -7.620  -4.527  0.00  0.00     0.319 C 
ATOM     11  N4  2Z3 d   1      32.837  -7.466  -5.629  0.00  0.00    -0.330 N 
ATOM     12  O   2Z3 d   1      34.359  -8.599  -4.453  0.00  0.00    -0.247 OA
ATOM     13  C3  2Z3 d   1      32.009  -6.310  -5.715  0.00  0.00     0.019 C 
ATOM     14  C5  2Z3 d   1      32.862  -8.465  -6.683  0.00  0.00     0.019 C 
ATOM     15  C2  2Z3 d   1      30.777  -6.553  -6.356  0.00  0.00     0.034 C 
ATOM     16  H3  2Z3 d   1      31.807  -5.949  -4.696  0.00  0.00     0.067 H 
ATOM     17  H4  2Z3 d   1      32.549  -5.535  -6.279  0.00  0.00     0.067 H 
ATOM     18  O1  2Z3 d   1      30.972  -7.322  -7.567  0.00  0.00    -0.388 OA
ATOM     19  H1  2Z3 d   1      30.120  -7.113  -5.675  0.00  0.00     0.076 H 
ATOM     20  H2  2Z3 d   1      30.307  -5.592  -6.611  0.00  0.00     0.076 H 
ATOM     21  C6  2Z3 d   1      31.486  -8.641  -7.188  0.00  0.00     0.034 C 
ATOM     22  H7  2Z3 d   1      31.492  -9.306  -8.065  0.00  0.00     0.076 H 
ATOM     23  H8  2Z3 d   1      30.852  -9.077  -6.402  0.00  0.00     0.076 H 
ATOM     24  H5  2Z3 d   1      33.236  -9.419  -6.283  0.00  0.00     0.067 H 
ATOM     25  H6  2Z3 d   1      33.517  -8.128  -7.500  0.00  0.00     0.067 H 
ATOM     26  H9  2Z3 d   1      33.028  -5.908  -3.700  0.00  0.00     0.165 HD
ENDBRANCH   7   9
BRANCH   7  27
ATOM     27  CB  2Z3 d   1      34.226  -5.456  -1.528  0.00  0.00    -0.014 C 
ATOM     28  H11 2Z3 d   1      34.585  -5.566  -0.494  0.00  0.00     0.043 H 
ATOM     29  H12 2Z3 d   1      33.162  -5.177  -1.520  0.00  0.00     0.043 H 
BRANCH  27  30
ATOM     30  CG  2Z3 d   1      35.045  -4.395  -2.262  0.00  0.00    -0.056 A 
ATOM     31  CD1 2Z3 d   1      36.383  -4.538  -2.441  0.00  0.00    -0.077 A 
ATOM     32  CE1 2Z3 d   1      37.165  -3.605  -3.106  0.00  0.00    -0.082 A 
ATOM     33  H13 2Z3 d   1      36.864  -5.425  -2.045  0.00  0.00     0.084 H 
ATOM     34  CZ  2Z3 d   1      36.499  -2.473  -3.638  0.00  0.00    -0.083 A 
ATOM     35  H15 2Z3 d   1      38.236  -3.736  -3.214  0.00  0.00     0.083 H 
ATOM     36  CE2 2Z3 d   1      35.144  -2.349  -3.473  0.00  0.00    -0.082 A 
ATOM     37  H17 2Z3 d   1      37.057  -1.711  -4.171  0.00  0.00     0.083 H 
ATOM     38  CD2 2Z3 d   1      34.363  -3.267  -2.811  0.00  0.00    -0.077 A 
ATOM     39  H16 2Z3 d   1      34.658  -1.474  -3.890  0.00  0.00     0.083 H 
ATOM     40  H14 2Z3 d   1      33.291  -3.142  -2.712  0.00  0.00     0.084 H 
ENDBRANCH  27  30
ENDBRANCH   7  27
ENDBRANCH   4   7
ENDBRANCH   1   3
BRANCH   1  41
ATOM     41  C   2Z3 d   1      35.527  -9.638   1.414  0.00  0.00     0.240 C 
ATOM     42  O   2Z3 d   1      36.596 -10.145   1.175  0.00  0.00    -0.271 OA
ATOM     43  N   2Z3 d   1      35.196  -9.045   2.509  0.00  0.00    -0.349 N 
ATOM     44  H29 2Z3 d   1      34.244  -8.770   2.647  0.00  0.00     0.163 HD
BRANCH  43  45
ATOM     45  CA  2Z3 d   1      36.207  -8.756   3.586  0.00  0.00     0.073 C 
ATOM     46  H30 2Z3 d   1      37.104  -9.343   3.339  0.00  0.00     0.081 H 
BRANCH  45  47
ATOM     47  CB  2Z3 d   1      36.666  -7.354   3.636  0.00  0.00    -0.038 C 
ATOM     48  H31 2Z3 d   1      37.586  -7.345   4.239  0.00  0.00     0.036 H 
ATOM     49  H32 2Z3 d   1      35.881  -6.784   4.155  0.00  0.00     0.036 H 
BRANCH  47  50
ATOM     50  CG  2Z3 d   1      36.975  -6.604   2.370  0.00  0.00    -0.052 C 
ATOM     51  CD1 2Z3 d   1      38.207  -7.016   1.690  0.00  0.00    -0.062 C 
ATOM     52  CE1 2Z3 d   1      38.676  -6.270   0.453  0.00  0.00    -0.065 C 
ATOM     53  H34 2Z3 d   1      38.071  -8.067   1.395  0.00  0.00     0.033 H 
ATOM     54  H35 2Z3 d   1      39.018  -6.945   2.430  0.00  0.00     0.033 H 
ATOM     55  CZ  2Z3 d   1      38.602  -4.758   0.724  0.00  0.00    -0.065 C 
ATOM     56  H38 2Z3 d   1      38.029  -6.524  -0.399  0.00  0.00     0.033 H 
ATOM     57  H39 2Z3 d   1      39.714  -6.553   0.222  0.00  0.00     0.033 H 
ATOM     58  CE2 2Z3 d   1      37.310  -4.343   1.273  0.00  0.00    -0.065 C 
ATOM     59  H42 2Z3 d   1      38.770  -4.223  -0.222  0.00  0.00     0.033 H 
ATOM     60  H43 2Z3 d   1      39.391  -4.490   1.442  0.00  0.00     0.033 H 
ATOM     61  CD2 2Z3 d   1      36.810  -5.114   2.484  0.00  0.00    -0.062 C 
ATOM     62  H40 2Z3 d   1      37.394  -3.285   1.561  0.00  0.00     0.033 H 
ATOM     63  H41 2Z3 d   1      36.559  -4.448   0.476  0.00  0.00     0.033 H 
ATOM     64  H36 2Z3 d   1      37.368  -4.771   3.368  0.00  0.00     0.033 H 
ATOM     65  H37 2Z3 d   1      35.741  -4.893   2.617  0.00  0.00     0.033 H 
ATOM     66  H33 2Z3 d   1      36.176  -6.910   1.679  0.00  0.00     0.040 H 
ENDBRANCH  47  50
ENDBRANCH  45  47
BRANCH  45  67
ATOM     67  CH  2Z3 d   1      35.675  -9.317   4.905  0.00  0.00     0.258 C 
BRANCH  67  68
ATOM     68  OH1 2Z3 d   1      34.364  -8.757   5.247  0.00  0.00    -0.359 OA
ATOM     69  H44 2Z3 d   1      34.430  -7.811   5.305  0.00  0.00     0.213 HD
ENDBRANCH  67  68
BRANCH  67  70
ATOM     70  OH2 2Z3 d   1      36.507  -8.924   5.936  0.00  0.00    -0.359 OA
ATOM     71  H45 2Z3 d   1      36.529  -7.975   5.979  0.00  0.00     0.213 HD
ENDBRANCH  67  70
BRANCH  67  72
ATOM     72  CM  2Z3 d   1      35.591 -10.848   4.937  0.00  0.00     0.379 C 
ATOM     73  F1  2Z3 d   1      35.104 -11.296   3.841  0.00  0.00    -0.189 F 
ATOM     74  F2  2Z3 d   1      34.710 -11.281   5.853  0.00  0.00    -0.189 F 
BRANCH  72  75
ATOM     75  C   2Z3 d   1      36.910 -11.465   5.260  0.00  0.00     0.295 C 
ATOM     76  O   2Z3 d   1      37.781 -11.821   4.416  0.00  0.00    -0.267 OA
ATOM     77  N   2Z3 d   1      37.172 -11.783   6.555  0.00  0.00    -0.360 N 
ATOM     78  H46 2Z3 d   1      36.517 -11.605   7.290  0.00  0.00     0.162 HD
BRANCH  77  79
ATOM     79  CH3 2Z3 d   1      38.509 -12.419   6.812  0.00  0.00    -0.018 C 
ATOM     80  H47 2Z3 d   1      38.613 -12.632   7.886  0.00  0.00     0.056 H 
ATOM     81  H48 2Z3 d   1      39.308 -11.733   6.495  0.00  0.00     0.056 H 
ATOM     82  H49 2Z3 d   1      38.584 -13.357   6.243  0.00  0.00     0.056 H 
ENDBRANCH  77  79
ENDBRANCH  72  75
ENDBRANCH  67  72
ENDBRANCH  45  67
ENDBRANCH  43  45
ENDBRANCH   1  41
BRANCH   1  83
ATOM     83  CB  2Z3 d   1      34.511 -10.962  -0.472  0.00  0.00    -0.038 C 
ATOM     84  H20 2Z3 d   1      35.529 -11.075  -0.872  0.00  0.00     0.036 H 
ATOM     85  H21 2Z3 d   1      33.790 -10.943  -1.303  0.00  0.00     0.036 H 
BRANCH  83  86
ATOM     86  CG  2Z3 d   1      34.202 -12.149   0.411  0.00  0.00    -0.063 C 
ATOM     87  H22 2Z3 d   1      33.591 -11.781   1.249  0.00  0.00     0.033 H 
ATOM     88  H23 2Z3 d   1      35.161 -12.528   0.795  0.00  0.00     0.033 H 
BRANCH  86  89
ATOM     89  CD  2Z3 d   1      33.471 -13.318  -0.194  0.00  0.00    -0.068 C 
ATOM     90  H24 2Z3 d   1      32.431 -13.011  -0.379  0.00  0.00     0.032 H 
ATOM     91  H25 2Z3 d   1      33.486 -14.143   0.534  0.00  0.00     0.032 H 
BRANCH  89  92
ATOM     92  CE  2Z3 d   1      34.033 -13.821  -1.467  0.00  0.00    -0.077 C 
ATOM     93  H26 2Z3 d   1      33.431 -14.670  -1.824  0.00  0.00     0.027 H 
ATOM     94  H27 2Z3 d   1      35.070 -14.150  -1.306  0.00  0.00     0.027 H 
ATOM     95  H28 2Z3 d   1      34.016 -13.018  -2.218  0.00  0.00     0.027 H 
ENDBRANCH  89  92
ENDBRANCH  86  89
ENDBRANCH  83  86
ENDBRANCH   1  83
TORSDOF 19
