REMARK  14 active torsions:
REMARK  status: ('A' for Active; 'I' for Inactive)
REMARK    1  A    between atoms: C1_1  and  C17_19 
REMARK    2  A    between atoms: C1_1  and  C16_18 
REMARK    3  A    between atoms: C5_5  and  C18_20 
REMARK    4  A    between atoms: C6_6  and  C7_7 
REMARK    5  A    between atoms: C8_8  and  C9_9 
REMARK    6  A    between atoms: C9_9  and  C19_21 
REMARK    7  A    between atoms: C9_9  and  C10_10 
REMARK    8  A    between atoms: C10_10  and  C11_11 
REMARK    9  A    between atoms: C11_11  and  C12_12 
REMARK   10  A    between atoms: C13_13  and  C20_22 
REMARK   11  A    between atoms: C13_13  and  C14_14 
REMARK   12  A    between atoms: C14_14  and  C15_15 
REMARK       I    between atoms: C15_15  and  N_17 
REMARK   13  A    between atoms: N_17  and  C21_23 
REMARK   14  A    between atoms: C21_23  and  C22_24 
ROOT
ATOM      1  C9  ETR d   1      31.672  19.186  49.163  0.00  0.00    -0.062 C 
ENDROOT
BRANCH   1   2
ATOM      2  C8  ETR d   1      31.613  19.515  47.741  0.00  0.00    -0.077 C 
ATOM      3  C7  ETR d   1      30.343  19.508  47.255  0.00  0.00    -0.075 C 
ATOM      4  H7  ETR d   1      29.486  19.117  47.801  0.00  0.00     0.084 H 
ATOM      5  H8  ETR d   1      32.490  19.741  47.136  0.00  0.00     0.084 H 
BRANCH   3   6
ATOM      6  C6  ETR d   1      30.262  20.088  45.910  0.00  0.00    -0.048 C 
ATOM      7  C1  ETR d   1      30.035  21.496  45.351  0.00  0.00    -0.020 C 
ATOM      8  C2  ETR d   1      29.536  21.549  43.900  0.00  0.00    -0.054 C 
ATOM      9  C3  ETR d   1      30.000  20.384  43.034  0.00  0.00    -0.061 C 
ATOM     10  H1  ETR d   1      29.899  22.482  43.445  0.00  0.00     0.034 H 
ATOM     11  H2  ETR d   1      28.436  21.551  43.914  0.00  0.00     0.034 H 
ATOM     12  C4  ETR d   1      31.268  19.784  43.606  0.00  0.00    -0.044 C 
ATOM     13  H3  ETR d   1      30.196  20.745  42.014  0.00  0.00     0.033 H 
ATOM     14  H4  ETR d   1      29.214  19.615  43.007  0.00  0.00     0.033 H 
ATOM     15  C5  ETR d   1      30.970  19.316  45.028  0.00  0.00    -0.077 C 
ATOM     16  H5  ETR d   1      32.065  20.542  43.622  0.00  0.00     0.039 H 
ATOM     17  H6  ETR d   1      31.587  18.929  42.991  0.00  0.00     0.039 H 
BRANCH   7  18
ATOM     18  C17 ETR d   1      30.783  22.787  45.675  0.00  0.00    -0.065 C 
ATOM     19  H17 ETR d   1      31.142  22.752  46.714  0.00  0.00     0.028 H 
ATOM     20  H18 ETR d   1      30.106  23.645  45.550  0.00  0.00     0.028 H 
ATOM     21  H19 ETR d   1      31.640  22.895  44.995  0.00  0.00     0.028 H 
ENDBRANCH   7  18
BRANCH   7  22
ATOM     22  C16 ETR d   1      28.599  21.606  45.810  0.00  0.00    -0.065 C 
ATOM     23  H14 ETR d   1      28.564  21.599  46.909  0.00  0.00     0.028 H 
ATOM     24  H15 ETR d   1      28.023  20.754  45.419  0.00  0.00     0.028 H 
ATOM     25  H16 ETR d   1      28.165  22.545  45.436  0.00  0.00     0.028 H 
ENDBRANCH   7  22
BRANCH  15  26
ATOM     26  C18 ETR d   1      31.560  17.933  45.219  0.00  0.00    -0.054 C 
ATOM     27  H20 ETR d   1      31.352  17.584  46.241  0.00  0.00     0.033 H 
ATOM     28  H21 ETR d   1      32.648  17.973  45.059  0.00  0.00     0.033 H 
ATOM     29  H22 ETR d   1      31.108  17.239  44.495  0.00  0.00     0.033 H 
ENDBRANCH  15  26
ENDBRANCH   3   6
ENDBRANCH   1   2
BRANCH   1  30
ATOM     30  C19 ETR d   1      30.305  18.937  49.790  0.00  0.00    -0.051 C 
ATOM     31  H23 ETR d   1      29.519  19.136  49.047  0.00  0.00     0.033 H 
ATOM     32  H24 ETR d   1      30.171  19.605  50.654  0.00  0.00     0.033 H 
ATOM     33  H25 ETR d   1      30.239  17.890  50.122  0.00  0.00     0.033 H 
ENDBRANCH   1  30
BRANCH   1  34
ATOM     34  C10 ETR d   1      32.977  19.130  49.511  0.00  0.00    -0.077 C 
ATOM     35  H9  ETR d   1      33.817  19.212  48.823  0.00  0.00     0.084 H 
BRANCH  34  36
ATOM     36  C11 ETR d   1      33.079  18.947  50.923  0.00  0.00    -0.082 C 
ATOM     37  H10 ETR d   1      32.266  18.904  51.647  0.00  0.00     0.083 H 
BRANCH  36  38
ATOM     38  C12 ETR d   1      34.498  18.831  51.183  0.00  0.00    -0.077 C 
ATOM     39  C13 ETR d   1      35.044  18.647  52.465  0.00  0.00    -0.058 C 
ATOM     40  H11 ETR d   1      35.181  18.890  50.337  0.00  0.00     0.084 H 
BRANCH  39  41
ATOM     41  C20 ETR d   1      34.083  18.764  53.524  0.00  0.00    -0.051 C 
ATOM     42  H26 ETR d   1      33.081  18.911  53.095  0.00  0.00     0.033 H 
ATOM     43  H27 ETR d   1      34.340  19.625  54.159  0.00  0.00     0.033 H 
ATOM     44  H28 ETR d   1      34.091  17.846  54.130  0.00  0.00     0.033 H 
ENDBRANCH  39  41
BRANCH  39  45
ATOM     45  C14 ETR d   1      36.171  18.487  52.617  0.00  0.00    -0.026 C 
ATOM     46  H12 ETR d   1      36.882  18.487  51.792  0.00  0.00     0.091 H 
BRANCH  45  47
ATOM     47  C15 ETR d   1      36.572  18.285  53.997  0.00  0.00     0.175 C 
ATOM     48  N   ETR d   1      37.627  17.991  54.130  0.00  0.00    -0.369 N 
ATOM     49  H13 ETR d   1      38.353  18.517  53.687  0.00  0.00     0.161 HD
ATOM     50  O   ETR d   1      35.607  18.350  54.985  0.00  0.00    -0.172 OA
BRANCH  48  51
ATOM     51  C21 ETR d   1      37.990  16.739  55.020  0.00  0.00    -0.009 C 
ATOM     52  H29 ETR d   1      38.837  16.167  54.612  0.00  0.00     0.063 H 
ATOM     53  H30 ETR d   1      37.131  16.067  55.168  0.00  0.00     0.063 H 
BRANCH  51  54
ATOM     54  C22 ETR d   1      38.352  17.481  56.265  0.00  0.00    -0.061 C 
ATOM     55  H31 ETR d   1      38.648  16.765  57.046  0.00  0.00     0.029 H 
ATOM     56  H32 ETR d   1      37.485  18.062  56.611  0.00  0.00     0.029 H 
ATOM     57  H33 ETR d   1      39.190  18.162  56.055  0.00  0.00     0.029 H 
ENDBRANCH  51  54
ENDBRANCH  48  51
ENDBRANCH  45  47
ENDBRANCH  39  45
ENDBRANCH  36  38
ENDBRANCH  34  36
ENDBRANCH   1  34
TORSDOF 14
