REMARK  2 active torsions:
REMARK  status: ('A' for Active; 'I' for Inactive)
REMARK    1  A    between atoms: P_1  and  C1P_5 
REMARK    2  A    between atoms: C1P_5  and  C1_6 
ROOT
ATOM      1  C1P PAE d   1      75.208  37.927  43.238  0.00  0.00     0.118 C 
ATOM      2  H1  PAE d   1      76.242  38.288  43.140  0.00  0.00     0.070 H 
ATOM      3  H2  PAE d   1      75.086  37.002  42.656  0.00  0.00     0.070 H 
ENDROOT
BRANCH   1   4
ATOM      4  P   PAE d   1      74.008  39.208  42.700  0.00  0.00     0.269 P 
ATOM      5  O1P PAE d   1      74.596  40.581  43.035  0.00  0.00    -0.639 OA
ATOM      6  O2P PAE d   1      72.771  39.064  43.580  0.00  0.00    -0.639 OA
ATOM      7  O3P PAE d   1      73.685  39.114  41.276  0.00  0.00    -0.639 OA
ENDBRANCH   1   4
BRANCH   1   8
ATOM      8  C1  PAE d   1      74.834  37.700  44.735  0.00  0.00     0.185 C 
ATOM      9  O1  PAE d   1      74.109  38.624  45.183  0.00  0.00    -0.647 OA
ATOM     10  O2  PAE d   1      74.969  36.580  45.208  0.00  0.00    -0.647 OA
ENDBRANCH   1   8
TORSDOF 2
