REMARK  2 active torsions:
REMARK  status: ('A' for Active; 'I' for Inactive)
REMARK    1  A    between atoms: C1P_6  and  S1_1 
REMARK    2  A    between atoms: P_2  and  C1P_6 
ROOT
ATOM      1  C1P MMQ d   1      75.111  37.952  43.836  0.00  0.00     0.077 C 
ATOM      2  H2  MMQ d   1      76.010  38.575  43.952  0.00  0.00     0.069 H 
ATOM      3  H3  MMQ d   1      75.255  37.252  43.000  0.00  0.00     0.069 H 
ENDROOT
BRANCH   1   4
ATOM      4  S1  MMQ d   1      73.667  39.011  43.509  0.00  0.00    -0.169 SA
ATOM      5  H1  MMQ d   1      73.820  39.534  42.661  0.00  0.00     0.102 HD
ENDBRANCH   1   4
BRANCH   1   6
ATOM      6  P   MMQ d   1      74.805  37.022  45.371  0.00  0.00     0.268 P 
ATOM      7  O1P MMQ d   1      75.965  37.318  46.339  0.00  0.00    -0.639 OA
ATOM      8  O2P MMQ d   1      74.814  35.537  44.998  0.00  0.00    -0.639 OA
ATOM      9  O3P MMQ d   1      73.546  37.423  45.982  0.00  0.00    -0.639 OA
ENDBRANCH   1   6
TORSDOF 2
