REMARK  16 active torsions:
REMARK  status: ('A' for Active; 'I' for Inactive)
REMARK    1  A    between atoms: N9R_1  and  C1R_8 
REMARK    2  A    between atoms: C5'_13  and  O5'_12 
REMARK    3  A    between atoms: O5'_12  and  PA_20 
REMARK    4  A    between atoms: C4'_14  and  C5'_13 
REMARK    5  A    between atoms: C3'_16  and  O3'_17 
REMARK    6  A    between atoms: C2'_18  and  O2'_19 
REMARK    7  A    between atoms: PA_20  and  O3A_23 
REMARK    8  A    between atoms: O3A_23  and  PB_24 
REMARK    9  A    between atoms: PB_24  and  O3B_27 
REMARK   10  A    between atoms: O3B_27  and  PG_28 
REMARK   11  A    between atoms: PG_28  and  O3G_31 
REMARK   12  A    between atoms: O3G_31  and  PD_32 
REMARK   13  A    between atoms: PD_32  and  O3D_35 
REMARK   14  A    between atoms: O3D_35  and  C6A_44 
REMARK   15  A    between atoms: C2_37  and  N2_38 
REMARK   16  A    between atoms: C6A_44  and  C6_43 
ROOT
ATOM      1  PA  A4P d   1       3.731  17.847  23.459  0.00  0.00     0.417 P 
ATOM      2  O1A A4P d   1       3.901  18.216  22.028  0.00  0.00    -0.624 OA
ATOM      3  O2A A4P d   1       4.889  17.053  24.022  0.00  0.00    -0.624 OA
ENDROOT
BRANCH   1   4
ATOM      4  O5' A4P d   1       2.338  17.056  23.485  0.00  0.00    -0.287 OA
BRANCH   4   5
ATOM      5  C5' A4P d   1       1.679  16.748  24.797  0.00  0.00     0.058 C 
ATOM      6  H6  A4P d   1       2.386  16.234  25.465  0.00  0.00     0.079 H 
ATOM      7  H7  A4P d   1       1.332  17.676  25.274  0.00  0.00     0.079 H 
BRANCH   5   8
ATOM      8  C4' A4P d   1       0.524  15.864  24.495  0.00  0.00     0.089 C 
ATOM      9  O4' A4P d   1      -0.383  16.552  23.604  0.00  0.00    -0.353 OA
ATOM     10  C1R A4P d   1      -1.250  15.581  23.085  0.00  0.00     0.139 C 
ATOM     11  C2' A4P d   1      -0.526  14.243  23.143  0.00  0.00     0.105 C 
ATOM     12  H4  A4P d   1      -2.133  15.506  23.737  0.00  0.00     0.122 H 
ATOM     13  C3' A4P d   1       0.811  14.606  23.774  0.00  0.00     0.091 C 
ATOM     14  H11 A4P d   1      -0.389  13.819  22.138  0.00  0.00     0.093 H 
ATOM     15  H9  A4P d   1       1.552  14.793  22.983  0.00  0.00     0.091 H 
ATOM     16  H8  A4P d   1       0.026  15.625  25.446  0.00  0.00     0.090 H 
BRANCH  10  17
ATOM     17  N9R A4P d   1      -1.731  16.020  21.745  0.00  0.00    -0.294 N 
ATOM     18  C4R A4P d   1      -1.312  15.894  20.434  0.00  0.00     0.167 A 
ATOM     19  C5R A4P d   1      -2.338  16.440  19.667  0.00  0.00     0.149 A 
ATOM     20  N3R A4P d   1      -0.122  15.345  19.891  0.00  0.00    -0.222 NA
ATOM     21  N7R A4P d   1      -3.421  16.922  20.450  0.00  0.00    -0.236 NA
ATOM     22  C6R A4P d   1      -2.244  16.479  18.243  0.00  0.00     0.155 A 
ATOM     23  C8R A4P d   1      -3.008  16.649  21.661  0.00  0.00     0.071 A 
ATOM     24  H1  A4P d   1      -3.599  16.886  22.544  0.00  0.00     0.144 H 
ATOM     25  N1R A4P d   1      -1.014  15.912  17.670  0.00  0.00    -0.222 NA
ATOM     26  N6R A4P d   1      -3.075  16.934  17.408  0.00  0.00    -0.382 N 
ATOM     27  C2R A4P d   1      -0.102  15.418  18.498  0.00  0.00     0.091 A 
ATOM     28  H5  A4P d   1       0.785  15.014  18.024  0.00  0.00     0.146 H 
ATOM     29  H2  A4P d   1      -2.867  16.893  16.400  0.00  0.00     0.157 HD
ATOM     30  H3  A4P d   1      -3.960  17.346  17.735  0.00  0.00     0.157 HD
ENDBRANCH  10  17
BRANCH  11  31
ATOM     31  O2' A4P d   1      -1.261  13.305  23.974  0.00  0.00    -0.388 OA
ATOM     32  H12 A4P d   1      -0.750  12.511  24.081  0.00  0.00     0.210 HD
ENDBRANCH  11  31
BRANCH  13  33
ATOM     33  O3' A4P d   1       1.324  13.604  24.613  0.00  0.00    -0.390 OA
ATOM     34  H10 A4P d   1       0.711  13.439  25.320  0.00  0.00     0.210 HD
ENDBRANCH  13  33
ENDBRANCH   5   8
ENDBRANCH   4   5
ENDBRANCH   1   4
BRANCH   1  35
ATOM     35  O3A A4P d   1       3.503  19.032  24.417  0.00  0.00    -0.180 OA
BRANCH  35  36
ATOM     36  PB  A4P d   1       2.852  20.442  23.871  0.00  0.00     0.427 P 
ATOM     37  O2B A4P d   1       2.468  20.334  22.420  0.00  0.00    -0.624 OA
ATOM     38  O1B A4P d   1       1.855  21.008  24.850  0.00  0.00    -0.624 OA
BRANCH  36  39
ATOM     39  O3B A4P d   1       4.132  21.466  23.999  0.00  0.00    -0.180 OA
BRANCH  39  40
ATOM     40  PG  A4P d   1       5.002  21.847  22.869  0.00  0.00     0.427 P 
ATOM     41  O2G A4P d   1       6.298  22.301  23.461  0.00  0.00    -0.624 OA
ATOM     42  O1G A4P d   1       5.137  20.691  21.874  0.00  0.00    -0.624 OA
BRANCH  40  43
ATOM     43  O3G A4P d   1       4.272  23.014  22.102  0.00  0.00    -0.180 OA
BRANCH  43  44
ATOM     44  PD  A4P d   1       3.682  22.874  20.610  0.00  0.00     0.418 P 
ATOM     45  O2D A4P d   1       3.060  21.494  20.588  0.00  0.00    -0.624 OA
ATOM     46  O1D A4P d   1       2.547  23.875  20.595  0.00  0.00    -0.624 OA
BRANCH  44  47
ATOM     47  O3D A4P d   1       4.704  22.997  19.523  0.00  0.00    -0.283 OA
BRANCH  47  48
ATOM     48  C6A A4P d   1       6.012  23.266  19.904  0.00  0.00     0.072 C 
ATOM     49  H16 A4P d   1       6.585  22.329  19.969  0.00  0.00     0.085 H 
ATOM     50  H17 A4P d   1       6.022  23.770  20.881  0.00  0.00     0.085 H 
BRANCH  48  51
ATOM     51  C6  A4P d   1       6.601  24.146  18.877  0.00  0.00     0.077 A 
ATOM     52  C7  A4P d   1       7.016  25.534  19.335  0.00  0.00     0.030 A 
ATOM     53  N8  A4P d   1       7.543  26.268  18.333  0.00  0.00    -0.237 NA
ATOM     54  H18 A4P d   1       6.902  25.894  20.351  0.00  0.00     0.118 H 
ATOM     55  C9  A4P d   1       7.749  25.957  17.027  0.00  0.00     0.202 A 
ATOM     56  C10 A4P d   1       7.326  24.591  16.635  0.00  0.00     0.174 A 
ATOM     57  N1  A4P d   1       8.299  26.822  16.133  0.00  0.00    -0.043 NA
ATOM     58  N5  A4P d   1       6.756  23.708  17.580  0.00  0.00    -0.240 NA
ATOM     59  C4  A4P d   1       7.535  24.230  15.242  0.00  0.00     0.292 A 
ATOM     60  N3  A4P d   1       8.104  25.211  14.451  0.00  0.00    -0.152 N 
ATOM     61  O4  A4P d   1       7.248  23.110  14.683  0.00  0.00    -0.265 OA
ATOM     62  C2  A4P d   1       8.494  26.505  14.862  0.00  0.00     0.703 A 
ATOM     63  H15 A4P d   1       8.255  24.981  13.490  0.00  0.00     0.187 HD
BRANCH  62  64
ATOM     64  N2  A4P d   1       9.022  27.320  13.981  0.00  0.00    -0.233 N 
ATOM     65  H13 A4P d   1       9.312  28.267  14.264  0.00  0.00     0.174 HD
ATOM     66  H14 A4P d   1       9.147  27.013  13.006  0.00  0.00     0.174 HD
ENDBRANCH  62  64
ENDBRANCH  48  51
ENDBRANCH  47  48
ENDBRANCH  44  47
ENDBRANCH  43  44
ENDBRANCH  40  43
ENDBRANCH  39  40
ENDBRANCH  36  39
ENDBRANCH  35  36
ENDBRANCH   1  35
TORSDOF 16
