REMARK  29 active torsions:
REMARK  status: ('A' for Active; 'I' for Inactive)
REMARK    1  A    between atoms: C1_1  and  O1_7 
REMARK    2  A    between atoms: C2_2  and  C1_1 
REMARK    3  A    between atoms: C2_2  and  O2_8 
REMARK    4  A    between atoms: C3_3  and  C2_2 
REMARK    5  A    between atoms: C3_3  and  O3_9 
REMARK    6  A    between atoms: C4_4  and  C3_3 
REMARK    7  A    between atoms: O4_10  and  C4_4 
REMARK    8  A    between atoms: C4_4  and  C5_5 
REMARK    9  A    between atoms: C5_5  and  O5_11 
REMARK   10  A    between atoms: C5_5  and  C6_6 
REMARK   11  A    between atoms: C6_6  and  O6_12 
REMARK   12  A    between atoms: C1_13  and  O4_10 
REMARK   13  A    between atoms: C2_14  and  O2_19 
REMARK   14  A    between atoms: C3_15  and  O3_20 
REMARK   15  A    between atoms: O4_21  and  C4_16 
REMARK   16  A    between atoms: C5_17  and  C6_18 
REMARK   17  A    between atoms: C6_18  and  O6_23 
REMARK   18  A    between atoms: C1_24  and  O4_21 
REMARK   19  A    between atoms: C2_25  and  O2_30 
REMARK   20  A    between atoms: C3_26  and  O3_31 
REMARK   21  A    between atoms: O4_32  and  C4_27 
REMARK   22  A    between atoms: C5_28  and  C6_29 
REMARK   23  A    between atoms: C6_29  and  O6_34 
REMARK   24  A    between atoms: O4_32  and  C1_35 
REMARK   25  A    between atoms: C2_36  and  O2_41 
REMARK   26  A    between atoms: C3_37  and  O3_42 
REMARK   27  A    between atoms: C4_38  and  O4_43 
REMARK   28  A    between atoms: C5_39  and  C6_40 
REMARK   29  A    between atoms: C6_40  and  O6_45 
ROOT
ATOM      1  H14 GLO d   1      -3.653  -3.097   4.202  0.00  0.00     0.133 H 
ATOM      2  H15 GLO d   1      -2.734  -2.635   2.072  0.00  0.00     0.094 H 
ATOM      3  H16 GLO d   1      -5.558  -2.226   0.969  0.00  0.00     0.091 H 
ATOM      4  H17 GLO d   1      -3.703  -4.595   0.414  0.00  0.00     0.091 H 
ATOM      5  H18 GLO d   1      -6.258  -4.487   2.081  0.00  0.00     0.090 H 
ATOM      6  C1  GLC d   1      -4.367  -3.176   3.369  0.00  0.00     0.159 C 
ATOM      7  C2  GLC d   1      -3.793  -2.368   2.206  0.00  0.00     0.110 C 
ATOM      8  C3  GLC d   1      -4.552  -2.666   0.901  0.00  0.00     0.092 C 
ATOM      9  C4  GLC d   1      -4.689  -4.174   0.658  0.00  0.00     0.096 C 
ATOM     10  C5  GLC d   1      -5.240  -4.863   1.903  0.00  0.00     0.089 C 
ATOM     11  O5  GLC d   1      -4.412  -4.558   3.040  0.00  0.00    -0.348 OA
ENDROOT
BRANCH   9  12
ATOM     12  O4  GLC d   1      -5.594  -4.397  -0.437  0.00  0.00    -0.348 OA
BRANCH  12  13
ATOM     13  C1  GLC d   1      -5.001  -4.682  -1.671  0.00  0.00     0.159 C 
ATOM     14  O5  GLC d   1      -4.888  -6.087  -1.915  0.00  0.00    -0.348 OA
ATOM     15  C5  GLC d   1      -6.144  -6.804  -2.011  0.00  0.00     0.089 C 
ATOM     16  C4  GLC d   1      -7.036  -6.184  -3.102  0.00  0.00     0.096 C 
ATOM     17  H28 GLO d   1      -6.674  -6.754  -1.049  0.00  0.00     0.090 H 
ATOM     18  C3  GLC d   1      -7.184  -4.674  -2.867  0.00  0.00     0.092 C 
ATOM     19  H27 GLO d   1      -6.576  -6.354  -4.087  0.00  0.00     0.091 H 
ATOM     20  C2  GLC d   1      -5.807  -4.015  -2.786  0.00  0.00     0.110 C 
ATOM     21  H26 GLO d   1      -7.711  -4.513  -1.915  0.00  0.00     0.091 H 
ATOM     22  H25 GLO d   1      -5.283  -4.139  -3.745  0.00  0.00     0.094 H 
ATOM     23  H24 GLO d   1      -3.987  -4.256  -1.669  0.00  0.00     0.133 H 
BRANCH  15  24
ATOM     24  C6  GLC d   1      -5.801  -8.255  -2.329  0.00  0.00     0.043 C 
ATOM     25  H29 GLO d   1      -4.871  -8.280  -2.916  0.00  0.00     0.078 H 
ATOM     26  H30 GLO d   1      -6.619  -8.693  -2.920  0.00  0.00     0.078 H 
BRANCH  24  27
ATOM     27  O6  GLC d   1      -5.622  -9.027  -1.151  0.00  0.00    -0.398 OA
ATOM     28  H33 GLO d   1      -6.423  -9.015  -0.641  0.00  0.00     0.209 HD
ENDBRANCH  24  27
ENDBRANCH  15  24
BRANCH  16  29
ATOM     29  O4  GLC d   1      -8.334  -6.807  -3.067  0.00  0.00    -0.348 OA
BRANCH  29  30
ATOM     30  C1  GLC d   1      -8.794  -7.345  -4.277  0.00  0.00     0.159 C 
ATOM     31  O5  GLC d   1      -8.839  -8.771  -4.250  0.00  0.00    -0.348 OA
ATOM     32  C5  GLC d   1      -9.755  -9.330  -3.275  0.00  0.00     0.089 C 
ATOM     33  C4  GLC d   1     -11.182  -8.829  -3.542  0.00  0.00     0.090 C 
ATOM     34  H38 GLO d   1      -9.458  -9.007  -2.266  0.00  0.00     0.090 H 
ATOM     35  C3  GLC d   1     -11.197  -7.302  -3.558  0.00  0.00     0.092 C 
ATOM     36  H37 GLO d   1     -11.519  -9.204  -4.519  0.00  0.00     0.091 H 
ATOM     37  C2  GLC d   1     -10.189  -6.794  -4.596  0.00  0.00     0.110 C 
ATOM     38  H36 GLO d   1     -10.914  -6.926  -2.564  0.00  0.00     0.091 H 
ATOM     39  H35 GLO d   1     -10.493  -7.147  -5.592  0.00  0.00     0.094 H 
ATOM     40  H34 GLO d   1      -8.102  -7.037  -5.075  0.00  0.00     0.133 H 
BRANCH  32  41
ATOM     41  C6  GLC d   1      -9.638 -10.843  -3.362  0.00  0.00     0.043 C 
ATOM     42  H39 GLO d   1      -9.410 -11.125  -4.400  0.00  0.00     0.078 H 
ATOM     43  H40 GLO d   1     -10.595 -11.294  -3.061  0.00  0.00     0.078 H 
BRANCH  41  44
ATOM     44  O6  GLC d   1      -8.607 -11.333  -2.512  0.00  0.00    -0.398 OA
ATOM     45  H44 GLO d   1      -8.800 -11.096  -1.613  0.00  0.00     0.209 HD
ENDBRANCH  41  44
ENDBRANCH  32  41
BRANCH  33  46
ATOM     46  O4  GLC d   1     -12.057  -9.307  -2.533  0.00  0.00    -0.390 OA
ATOM     47  H43 GLO d   1     -11.772  -8.980  -1.688  0.00  0.00     0.210 HD
ENDBRANCH  33  46
BRANCH  35  48
ATOM     48  O3  GLC d   1     -12.500  -6.837  -3.877  0.00  0.00    -0.390 OA
ATOM     49  H42 GLO d   1     -13.117  -7.157  -3.229  0.00  0.00     0.210 HD
ENDBRANCH  35  48
BRANCH  37  50
ATOM     50  O2  GLC d   1     -10.166  -5.375  -4.599  0.00  0.00    -0.388 OA
ATOM     51  H41 GLO d   1      -9.895  -5.062  -3.744  0.00  0.00     0.210 HD
ENDBRANCH  37  50
ENDBRANCH  29  30
ENDBRANCH  16  29
BRANCH  18  52
ATOM     52  O3  GLC d   1      -7.941  -4.088  -3.916  0.00  0.00    -0.390 OA
ATOM     53  H32 GLO d   1      -8.794  -4.503  -3.959  0.00  0.00     0.210 HD
ENDBRANCH  18  52
BRANCH  20  54
ATOM     54  O2  GLC d   1      -5.951  -2.629  -2.502  0.00  0.00    -0.388 OA
ATOM     55  H31 GLO d   1      -6.405  -2.522  -1.675  0.00  0.00     0.210 HD
ENDBRANCH  20  54
ENDBRANCH  12  13
ENDBRANCH   9  12
BRANCH   8  56
ATOM     56  O3  GLC d   1      -3.859  -2.082  -0.191  0.00  0.00    -0.390 OA
ATOM     57  H22 GLO d   1      -3.803  -1.142  -0.063  0.00  0.00     0.210 HD
ENDBRANCH   8  56
BRANCH  10  58
ATOM     58  C6  GLC d   1      -5.294  -6.369   1.778  0.00  0.00     0.043 C 
ATOM     59  H19 GLO d   1      -4.278  -6.777   1.884  0.00  0.00     0.078 H 
ATOM     60  H20 GLO d   1      -5.695  -6.636   0.789  0.00  0.00     0.078 H 
BRANCH  58  61
ATOM     61  O6  GLC d   1      -6.125  -6.923   2.782  0.00  0.00    -0.398 OA
ATOM     62  H23 GLO d   1      -5.780  -6.697   3.638  0.00  0.00     0.209 HD
ENDBRANCH  58  61
ENDBRANCH  10  58
BRANCH   7  63
ATOM     63  O2  GLC d   1      -3.893  -0.983   2.509  0.00  0.00    -0.388 OA
ATOM     64  H21 GLO d   1      -4.806  -0.753   2.639  0.00  0.00     0.210 HD
ENDBRANCH   7  63
BRANCH   6  65
ATOM     65  O4  GLO d   1      -5.542  -2.568   3.821  0.00  0.00    -0.348 OA
BRANCH  65  66
ATOM     66  C4  GLO d   1      -5.918  -2.766   5.196  0.00  0.00     0.095 C 
ATOM     67  H5  GLO d   1      -5.012  -2.836   5.816  0.00  0.00     0.091 H 
BRANCH  66  68
ATOM     68  C3  GLO d   1      -6.751  -1.572   5.674  0.00  0.00     0.089 C 
ATOM     69  H4  GLO d   1      -7.059  -1.754   6.714  0.00  0.00     0.091 H 
BRANCH  68  70
ATOM     70  C2  GLO d   1      -5.937  -0.277   5.627  0.00  0.00     0.083 C 
ATOM     71  H3  GLO d   1      -4.972  -0.468   6.120  0.00  0.00     0.090 H 
BRANCH  70  72
ATOM     72  C1  GLO d   1      -6.614   0.865   6.355  0.00  0.00     0.043 C 
ATOM     73  H1  GLO d   1      -6.124   1.810   6.077  0.00  0.00     0.078 H 
ATOM     74  H2  GLO d   1      -7.673   0.901   6.061  0.00  0.00     0.078 H 
BRANCH  72  75
ATOM     75  O1  GLO d   1      -6.528   0.693   7.762  0.00  0.00    -0.398 OA
ATOM     76  H9  GLO d   1      -6.959   1.420   8.196  0.00  0.00     0.209 HD
ENDBRANCH  72  75
ENDBRANCH  70  72
BRANCH  70  77
ATOM     77  O2  GLO d   1      -5.686   0.093   4.280  0.00  0.00    -0.391 OA
ATOM     78  H10 GLO d   1      -5.261  -0.627   3.829  0.00  0.00     0.210 HD
ENDBRANCH  70  77
ENDBRANCH  68  70
BRANCH  68  79
ATOM     79  O3  GLO d   1      -7.914  -1.443   4.869  0.00  0.00    -0.390 OA
ATOM     80  H11 GLO d   1      -8.413  -2.251   4.904  0.00  0.00     0.210 HD
ENDBRANCH  68  79
ENDBRANCH  66  68
BRANCH  66  81
ATOM     81  C5  GLO d   1      -6.695  -4.077   5.305  0.00  0.00     0.083 C 
ATOM     82  H6  GLO d   1      -5.971  -4.893   5.164  0.00  0.00     0.090 H 
BRANCH  81  83
ATOM     83  O5  GLO d   1      -7.650  -4.150   4.259  0.00  0.00    -0.391 OA
ATOM     84  H12 GLO d   1      -8.252  -3.418   4.329  0.00  0.00     0.210 HD
ENDBRANCH  81  83
BRANCH  81  85
ATOM     85  C6  GLO d   1      -7.374  -4.314   6.638  0.00  0.00     0.043 C 
ATOM     86  H7  GLO d   1      -8.167  -3.565   6.778  0.00  0.00     0.078 H 
ATOM     87  H8  GLO d   1      -6.631  -4.217   7.444  0.00  0.00     0.078 H 
BRANCH  85  88
ATOM     88  O6  GLO d   1      -7.947  -5.614   6.686  0.00  0.00    -0.398 OA
ATOM     89  H13 GLO d   1      -8.591  -5.701   5.993  0.00  0.00     0.209 HD
ENDBRANCH  85  88
ENDBRANCH  81  85
ENDBRANCH  66  81
ENDBRANCH  65  66
ENDBRANCH   6  65
TORSDOF 29
