REMARK  14 active torsions:
REMARK  status: ('A' for Active; 'I' for Inactive)
REMARK    1  A    between atoms: C2_2  and  C11_11 
REMARK    2  A    between atoms: C6_6  and  C21_21 
REMARK    3  A    between atoms: C8_8  and  C13_13 
REMARK       I    between atoms: C13_13  and  N14_14 
REMARK    4  A    between atoms: N14_14  and  C15_15 
REMARK    5  A    between atoms: C15_15  and  C17_17 
REMARK    6  A    between atoms: C15_15  and  C16_16 
REMARK    7  A    between atoms: C17_17  and  C20_20 
REMARK    8  A    between atoms: C17_17  and  C18_18 
REMARK    9  A    between atoms: C18_18  and  O19_19 
REMARK   10  A    between atoms: O19_19  and  C34_34 
REMARK   11  A    between atoms: C20_20  and  C28_28 
REMARK   12  A    between atoms: C21_21  and  N22_22 
REMARK   13  A    between atoms: C24_24  and  C29_29 
REMARK   14  A    between atoms: C29_29  and  N30_30 
ROOT
ATOM      1  C15 RPR d   1       4.913   6.941  23.124  0.00  0.00     0.021 C 
ATOM      2  H10 RPR d   1       4.041   6.552  23.670  0.00  0.00     0.073 H 
ENDROOT
BRANCH   1   3
ATOM      3  N14 RPR d   1       5.485   5.874  22.293  0.00  0.00    -0.352 N 
ATOM      4  C13 RPR d   1       5.273   4.535  22.531  0.00  0.00     0.252 C 
ATOM      5  O33 RPR d   1       4.577   4.147  23.476  0.00  0.00    -0.268 OA
ATOM      6  H9  RPR d   1       6.057   6.133  21.515  0.00  0.00     0.163 HD
BRANCH   4   7
ATOM      7  C8  RPR d   1       5.942   3.598  21.586  0.00  0.00     0.032 A 
ATOM      8  C9  RPR d   1       5.412   2.294  21.334  0.00  0.00    -0.067 A 
ATOM      9  C10 RPR d   1       6.062   1.408  20.432  0.00  0.00    -0.071 A 
ATOM     10  H6  RPR d   1       4.505   1.978  21.836  0.00  0.00     0.085 H 
ATOM     11  C11 RPR d   1       7.249   1.784  19.755  0.00  0.00    -0.026 A 
ATOM     12  H7  RPR d   1       5.641   0.424  20.258  0.00  0.00     0.084 H 
ATOM     13  C12 RPR d   1       7.770   3.080  20.009  0.00  0.00    -0.071 A 
ATOM     14  C7  RPR d   1       7.136   3.972  20.903  0.00  0.00    -0.067 A 
ATOM     15  H8  RPR d   1       8.677   3.393  19.505  0.00  0.00     0.084 H 
ATOM     16  H5  RPR d   1       7.563   4.954  21.072  0.00  0.00     0.085 H 
BRANCH  11  17
ATOM     17  C2  RPR d   1       7.943   0.841  18.792  0.00  0.00    -0.025 A 
ATOM     18  C1  RPR d   1       7.226   0.187  17.759  0.00  0.00    -0.065 A 
ATOM     19  C6  RPR d   1       7.880  -0.701  16.848  0.00  0.00    -0.032 A 
ATOM     20  H1  RPR d   1       6.161   0.363  17.657  0.00  0.00     0.085 H 
ATOM     21  C5  RPR d   1       9.275  -0.942  16.970  0.00  0.00    -0.075 A 
ATOM     22  C4  RPR d   1       9.999  -0.293  17.998  0.00  0.00    -0.082 A 
ATOM     23  H4  RPR d   1       9.778  -1.614  16.284  0.00  0.00     0.084 H 
ATOM     24  C3  RPR d   1       9.333   0.583  18.892  0.00  0.00    -0.072 A 
ATOM     25  H3  RPR d   1      11.064  -0.466  18.102  0.00  0.00     0.083 H 
ATOM     26  H2  RPR d   1       9.904   1.070  19.675  0.00  0.00     0.084 H 
BRANCH  19  27
ATOM     27  C21 RPR d   1       7.091  -1.380  15.764  0.00  0.00     0.103 C 
ATOM     28  H17 RPR d   1       6.173  -1.802  16.200  0.00  0.00     0.082 H 
ATOM     29  H18 RPR d   1       7.698  -2.190  15.333  0.00  0.00     0.082 H 
BRANCH  27  30
ATOM     30  N22 RPR d   1       6.726  -0.438  14.700  0.00  0.00    -0.075 N 
ATOM     31  H19 RPR d   1       6.199  -0.921  13.989  0.00  0.00     0.274 HD
ATOM     32  H20 RPR d   1       7.563  -0.051  14.293  0.00  0.00     0.274 HD
ATOM     33  H21 RPR d   1       6.165   0.305  15.087  0.00  0.00     0.274 HD
ENDBRANCH  27  30
ENDBRANCH  19  27
ENDBRANCH  11  17
ENDBRANCH   4   7
ENDBRANCH   1   3
BRANCH   1  34
ATOM     34  C17 RPR d   1       5.991   7.410  24.173  0.00  0.00     0.053 C 
ATOM     35  H14 RPR d   1       6.259   6.558  24.815  0.00  0.00     0.059 H 
BRANCH  34  36
ATOM     36  C20 RPR d   1       7.293   7.922  23.454  0.00  0.00    -0.027 C 
ATOM     37  H15 RPR d   1       7.050   8.885  22.981  0.00  0.00     0.041 H 
ATOM     38  H16 RPR d   1       7.550   7.186  22.677  0.00  0.00     0.041 H 
BRANCH  36  39
ATOM     39  C28 RPR d   1       8.536   8.136  24.306  0.00  0.00    -0.056 A 
ATOM     40  C27 RPR d   1       9.458   9.141  23.914  0.00  0.00    -0.077 A 
ATOM     41  C26 RPR d   1      10.626   9.384  24.663  0.00  0.00    -0.082 A 
ATOM     42  H25 RPR d   1       9.261   9.730  23.026  0.00  0.00     0.084 H 
ATOM     43  C25 RPR d   1      10.893   8.626  25.819  0.00  0.00    -0.069 A 
ATOM     44  H24 RPR d   1      11.320  10.155  24.349  0.00  0.00     0.083 H 
ATOM     45  C24 RPR d   1       9.987   7.613  26.234  0.00  0.00     0.007 A 
ATOM     46  H23 RPR d   1      11.792   8.816  26.394  0.00  0.00     0.085 H 
ATOM     47  C23 RPR d   1       8.814   7.376  25.475  0.00  0.00    -0.063 A 
ATOM     48  H22 RPR d   1       8.120   6.605  25.790  0.00  0.00     0.085 H 
BRANCH  45  49
ATOM     49  C29 RPR d   1      10.269   6.828  27.441  0.00  0.00     0.102 C 
ATOM     50  N31 RPR d   1       9.264   6.276  28.136  0.00  0.00    -0.385 N 
ATOM     51  H28 RPR d   1       8.291   6.400  27.821  0.00  0.00     0.157 HD
ATOM     52  H29 RPR d   1       9.465   5.728  28.985  0.00  0.00     0.157 HD
BRANCH  49  53
ATOM     53  N30 RPR d   1      11.537   6.657  27.865  0.00  0.00    -0.385 N 
ATOM     54  H26 RPR d   1      11.726   6.104  28.713  0.00  0.00     0.157 HD
ATOM     55  H27 RPR d   1      12.317   7.079  27.341  0.00  0.00     0.157 HD
ENDBRANCH  49  53
ENDBRANCH  45  49
ENDBRANCH  36  39
ENDBRANCH  34  36
BRANCH  34  56
ATOM     56  C18 RPR d   1       5.371   8.530  25.053  0.00  0.00     0.265 C 
ATOM     57  O32 RPR d   1       5.833   9.628  25.193  0.00  0.00    -0.265 OA
BRANCH  56  58
ATOM     58  O19 RPR d   1       4.105   8.152  25.593  0.00  0.00    -0.326 OA
BRANCH  58  59
ATOM     59  C34 RPR d   1       3.321   9.116  26.312  0.00  0.00     0.013 C 
ATOM     60  H30 RPR d   1       2.385   8.648  26.651  0.00  0.00     0.067 H 
ATOM     61  H31 RPR d   1       3.089   9.965  25.652  0.00  0.00     0.067 H 
ATOM     62  H32 RPR d   1       3.889   9.473  27.184  0.00  0.00     0.067 H 
ENDBRANCH  58  59
ENDBRANCH  56  58
ENDBRANCH  34  56
ENDBRANCH   1  34
BRANCH   1  63
ATOM     63  C16 RPR d   1       4.446   8.075  22.197  0.00  0.00    -0.057 C 
ATOM     64  H11 RPR d   1       4.013   8.887  22.800  0.00  0.00     0.030 H 
ATOM     65  H12 RPR d   1       3.686   7.690  21.501  0.00  0.00     0.030 H 
ATOM     66  H13 RPR d   1       5.304   8.460  21.627  0.00  0.00     0.030 H 
ENDBRANCH   1  63
TORSDOF 14
