REMARK  6 active torsions:
REMARK  status: ('A' for Active; 'I' for Inactive)
REMARK    1  A    between atoms: C6_6  and  C43_31 
REMARK    2  A    between atoms: C13_10  and  N42_30 
REMARK    3  A    between atoms: S38_26  and  C26_18 
REMARK    4  A    between atoms: C43_31  and  N28_20 
REMARK    5  A    between atoms: C30_22  and  N37_25 
REMARK    6  A    between atoms: N37_25  and  S38_26 
ROOT
ATOM      1  N28 815 d   1       5.545   6.538  22.624  0.00  0.00    -0.346 N 
ATOM      2  C29 815 d   1       5.064   5.365  23.092  0.00  0.00     0.243 C 
ATOM      3  C30 815 d   1       5.212   4.318  22.002  0.00  0.00     0.098 C 
ATOM      4  C31 815 d   1       5.424   5.165  20.741  0.00  0.00    -0.022 C 
ATOM      5  C32 815 d   1       6.040   6.455  21.245  0.00  0.00     0.000 C 
ATOM      6  O41 815 d   1       4.591   5.149  24.202  0.00  0.00    -0.271 OA
ATOM      7  H10 815 d   1       6.083   3.674  22.190  0.00  0.00     0.088 H 
ATOM      8  H11 815 d   1       4.465   5.363  20.240  0.00  0.00     0.039 H 
ATOM      9  H12 815 d   1       6.105   4.657  20.042  0.00  0.00     0.039 H 
ATOM     10  H13 815 d   1       7.139   6.405  21.221  0.00  0.00     0.064 H 
ATOM     11  H14 815 d   1       5.699   7.315  20.650  0.00  0.00     0.064 H 
ENDROOT
BRANCH   1  12
ATOM     12  C43 815 d   1       5.599   7.797  23.385  0.00  0.00     0.021 C 
ATOM     13  H18 815 d   1       5.109   8.590  22.800  0.00  0.00     0.071 H 
ATOM     14  H19 815 d   1       5.066   7.662  24.338  0.00  0.00     0.071 H 
BRANCH  12  15
ATOM     15  C6  815 d   1       7.017   8.206  23.671  0.00  0.00    -0.039 A 
ATOM     16  C1  815 d   1       7.741   9.124  22.848  0.00  0.00    -0.074 A 
ATOM     17  C2  815 d   1       9.088   9.459  23.141  0.00  0.00    -0.071 A 
ATOM     18  H1  815 d   1       7.254   9.570  21.988  0.00  0.00     0.084 H 
ATOM     19  C3  815 d   1       9.755   8.881  24.272  0.00  0.00    -0.021 A 
ATOM     20  H2  815 d   1       9.618  10.158  22.505  0.00  0.00     0.084 H 
ATOM     21  C10 815 d   1      11.109   9.226  24.546  0.00  0.00    -0.055 A 
ATOM     22  C4  815 d   1       9.068   7.936  25.149  0.00  0.00     0.020 A 
ATOM     23  C11 815 d   1      11.721   8.629  25.665  0.00  0.00     0.005 A 
ATOM     24  H4  815 d   1      11.649   9.923  23.916  0.00  0.00     0.087 H 
ATOM     25  N12 815 d   1      11.081   7.738  26.496  0.00  0.00    -0.243 NA
ATOM     26  H5  815 d   1      12.751   8.885  25.884  0.00  0.00     0.114 H 
ATOM     27  C13 815 d   1       9.772   7.388  26.254  0.00  0.00     0.132 A 
ATOM     28  C5  815 d   1       7.730   7.587  24.881  0.00  0.00    -0.061 A 
ATOM     29  H3  815 d   1       7.208   6.887  25.524  0.00  0.00     0.086 H 
BRANCH  27  30
ATOM     30  N42 815 d   1       9.224   6.513  27.114  0.00  0.00    -0.383 N 
ATOM     31  H16 815 d   1       9.780   6.146  27.900  0.00  0.00     0.157 HD
ATOM     32  H17 815 d   1       8.248   6.209  26.988  0.00  0.00     0.157 HD
ENDBRANCH  27  30
ENDBRANCH  12  15
ENDBRANCH   1  12
BRANCH   3  33
ATOM     33  N37 815 d   1       4.025   3.498  21.911  0.00  0.00    -0.301 N 
ATOM     34  H15 815 d   1       3.113   3.908  21.910  0.00  0.00     0.173 HD
BRANCH  33  35
ATOM     35  S38 815 d   1       4.236   1.779  21.803  0.00  0.00     0.266 S 
ATOM     36  O40 815 d   1       4.508   1.377  23.158  0.00  0.00    -0.200 OA
ATOM     37  O39 815 d   1       2.991   1.409  21.164  0.00  0.00    -0.200 OA
BRANCH  35  38
ATOM     38  C26 815 d   1       5.616   1.440  20.782  0.00  0.00     0.123 A 
ATOM     39  S27 815 d   1       7.285   1.667  21.122  0.00  0.00    -0.074 SA
ATOM     40  C16 815 d   1       7.785   1.092  19.612  0.00  0.00     0.035 A 
ATOM     41  C21 815 d   1       6.674   0.700  18.780  0.00  0.00     0.075 A 
ATOM     42  C17 815 d   1       9.061   0.952  19.084  0.00  0.00    -0.063 A 
ATOM     43  C25 815 d   1       5.416   0.914  19.496  0.00  0.00    -0.025 A 
ATOM     44  N20 815 d   1       6.878   0.204  17.505  0.00  0.00    -0.260 NA
ATOM     45  H9  815 d   1       4.435   0.691  19.078  0.00  0.00     0.090 H 
ATOM     46  C19 815 d   1       8.140   0.076  17.003  0.00  0.00     0.003 A 
ATOM     47  C18 815 d   1       9.271   0.442  17.774  0.00  0.00    -0.065 A 
ATOM     48  H8  815 d   1       8.280  -0.311  16.000  0.00  0.00     0.114 H 
ATOM     49  H7  815 d   1      10.273   0.336  17.374  0.00  0.00     0.085 H 
ATOM     50  H6  815 d   1       9.917   1.238  19.684  0.00  0.00     0.085 H 
ENDBRANCH  35  38
ENDBRANCH  33  35
ENDBRANCH   3  33
TORSDOF 6
