REMARK  5 active torsions:
REMARK  status: ('A' for Active; 'I' for Inactive)
REMARK    1  A    between atoms: C26_8  and  S38_16 
REMARK    2  A    between atoms: N28_10  and  C1_20 
REMARK    3  A    between atoms: N37_15  and  C30_12 
REMARK    4  A    between atoms: S38_16  and  N37_15 
REMARK    5  A    between atoms: C1_20  and  C28_28 
ROOT
ATOM      1  N28 PR2 d   1       5.436   6.689  22.361  0.00  0.00    -0.345 N 
ATOM      2  C29 PR2 d   1       4.853   5.524  22.729  0.00  0.00     0.243 C 
ATOM      3  C30 PR2 d   1       5.198   4.504  21.670  0.00  0.00     0.098 C 
ATOM      4  C31 PR2 d   1       5.691   5.329  20.478  0.00  0.00    -0.022 C 
ATOM      5  C32 PR2 d   1       6.176   6.613  21.104  0.00  0.00     0.000 C 
ATOM      6  O41 PR2 d   1       4.184   5.326  23.737  0.00  0.00    -0.271 OA
ATOM      7  H5  PR2 d   1       5.982   3.824  22.035  0.00  0.00     0.088 H 
ATOM      8  H6  PR2 d   1       4.872   5.523  19.770  0.00  0.00     0.039 H 
ATOM      9  H7  PR2 d   1       6.511   4.813  19.957  0.00  0.00     0.039 H 
ATOM     10  H8  PR2 d   1       7.260   6.574  21.289  0.00  0.00     0.064 H 
ATOM     11  H9  PR2 d   1       5.945   7.474  20.460  0.00  0.00     0.064 H 
ENDROOT
BRANCH   3  12
ATOM     12  N37 PR2 d   1       4.038   3.731  21.246  0.00  0.00    -0.301 N 
ATOM     13  H10 PR2 d   1       3.218   4.193  20.908  0.00  0.00     0.173 HD
BRANCH  12  14
ATOM     14  S38 PR2 d   1       4.094   2.100  21.329  0.00  0.00     0.266 S 
ATOM     15  O40 PR2 d   1       4.366   1.809  22.710  0.00  0.00    -0.200 OA
ATOM     16  O39 PR2 d   1       2.817   1.798  20.762  0.00  0.00    -0.200 OA
BRANCH  14  17
ATOM     17  C26 PR2 d   1       5.417   1.585  20.358  0.00  0.00     0.123 A 
ATOM     18  C25 PR2 d   1       5.224   1.083  19.041  0.00  0.00    -0.025 A 
ATOM     19  C21 PR2 d   1       6.523   0.821  18.514  0.00  0.00     0.075 A 
ATOM     20  H4  PR2 d   1       4.272   0.929  18.535  0.00  0.00     0.090 H 
ATOM     21  C16 PR2 d   1       7.606   1.094  19.354  0.00  0.00     0.035 A 
ATOM     22  N20 PR2 d   1       6.731   0.314  17.228  0.00  0.00    -0.260 NA
ATOM     23  S27 PR2 d   1       7.060   1.695  20.824  0.00  0.00    -0.074 SA
ATOM     24  C17 PR2 d   1       8.938   0.856  18.918  0.00  0.00    -0.063 A 
ATOM     25  C18 PR2 d   1       9.156   0.332  17.601  0.00  0.00    -0.065 A 
ATOM     26  H1  PR2 d   1       9.777   1.067  19.572  0.00  0.00     0.085 H 
ATOM     27  C19 PR2 d   1       8.009   0.076  16.781  0.00  0.00     0.003 A 
ATOM     28  H2  PR2 d   1      10.158   0.136  17.237  0.00  0.00     0.085 H 
ATOM     29  H3  PR2 d   1       8.153  -0.316  15.781  0.00  0.00     0.114 H 
ENDBRANCH  14  17
ENDBRANCH  12  14
ENDBRANCH   3  12
BRANCH   1  30
ATOM     30  C1  PR2 d   1       5.397   7.956  23.094  0.00  0.00     0.035 C 
ATOM     31  H11 PR2 d   1       4.588   7.939  23.839  0.00  0.00     0.073 H 
ATOM     32  H12 PR2 d   1       5.237   8.793  22.398  0.00  0.00     0.073 H 
BRANCH  30  33
ATOM     33  C28 PR2 d   1       6.739   8.099  23.783  0.00  0.00     0.028 A 
ATOM     34  N29 PR2 d   1       7.001   7.433  24.923  0.00  0.00    -0.356 N 
ATOM     35  C5  PR2 d   1       8.287   7.737  25.313  0.00  0.00     0.060 A 
ATOM     36  H17 PR2 d   1       6.352   6.805  25.418  0.00  0.00     0.166 HD
ATOM     37  C2  PR2 d   1       8.834   8.658  24.327  0.00  0.00    -0.005 A 
ATOM     38  C6  PR2 d   1       9.103   7.343  26.415  0.00  0.00     0.028 A 
ATOM     39  C27 PR2 d   1       7.836   8.877  23.364  0.00  0.00    -0.047 A 
ATOM     40  C3  PR2 d   1      10.164   9.155  24.465  0.00  0.00    -0.054 A 
ATOM     41  H16 PR2 d   1       7.897   9.512  22.482  0.00  0.00     0.087 H 
ATOM     42  C4  PR2 d   1      10.916   8.711  25.594  0.00  0.00     0.003 A 
ATOM     43  H13 PR2 d   1      10.587   9.842  23.741  0.00  0.00     0.087 H 
ATOM     44  N5  PR2 d   1      10.361   7.844  26.498  0.00  0.00    -0.271 NA
ATOM     45  H14 PR2 d   1      11.932   9.062  25.737  0.00  0.00     0.114 H 
ATOM     46  H15 PR2 d   1       8.727   6.660  27.168  0.00  0.00     0.118 H 
ENDBRANCH  30  33
ENDBRANCH   1  30
TORSDOF 5
