REMARK  9 active torsions:
REMARK  status: ('A' for Active; 'I' for Inactive)
REMARK    1  A    between atoms: C3_3  and  O44_11 
REMARK    2  A    between atoms: C4_4  and  C13_10 
REMARK    3  A    between atoms: C6_6  and  C10_7 
REMARK    4  A    between atoms: C10_7  and  N12_9 
REMARK    5  A    between atoms: C10_7  and  N11_8 
REMARK    6  A    between atoms: C13_10  and  N28_21 
REMARK    7  A    between atoms: S38_27  and  C26_19 
REMARK    8  A    between atoms: C30_23  and  N37_26 
REMARK    9  A    between atoms: N37_26  and  S38_27 
ROOT
ATOM      1  N28 PR1 d   1      11.090  -6.751  22.217  0.00  0.00    -0.346 N 
ATOM      2  C29 PR1 d   1      10.001  -7.552  22.319  0.00  0.00     0.243 C 
ATOM      3  C30 PR1 d   1      10.484  -8.976  22.311  0.00  0.00     0.098 C 
ATOM      4  C31 PR1 d   1      11.778  -8.886  21.517  0.00  0.00    -0.022 C 
ATOM      5  C32 PR1 d   1      12.314  -7.501  21.851  0.00  0.00     0.000 C 
ATOM      6  O41 PR1 d   1       8.843  -7.199  22.395  0.00  0.00    -0.271 OA
ATOM      7  H15 PR1 d   1      10.614  -9.307  23.352  0.00  0.00     0.088 H 
ATOM      8  H16 PR1 d   1      11.583  -8.981  20.439  0.00  0.00     0.039 H 
ATOM      9  H17 PR1 d   1      12.486  -9.667  21.832  0.00  0.00     0.039 H 
ATOM     10  H18 PR1 d   1      13.019  -7.543  22.694  0.00  0.00     0.064 H 
ATOM     11  H19 PR1 d   1      12.810  -7.048  20.980  0.00  0.00     0.064 H 
ENDROOT
BRANCH   1  12
ATOM     12  C13 PR1 d   1      11.048  -5.279  22.225  0.00  0.00     0.024 C 
ATOM     13  H8  PR1 d   1      11.284  -4.924  21.211  0.00  0.00     0.071 H 
ATOM     14  H9  PR1 d   1      10.028  -4.967  22.495  0.00  0.00     0.071 H 
BRANCH  12  15
ATOM     15  C4  PR1 d   1      12.044  -4.601  23.221  0.00  0.00    -0.006 A 
ATOM     16  C3  PR1 d   1      13.300  -4.134  22.822  0.00  0.00     0.073 A 
ATOM     17  C2  PR1 d   1      14.156  -3.544  23.751  0.00  0.00    -0.050 A 
ATOM     18  C1  PR1 d   1      13.772  -3.411  25.088  0.00  0.00    -0.067 A 
ATOM     19  H2  PR1 d   1      15.128  -3.185  23.433  0.00  0.00     0.087 H 
ATOM     20  C6  PR1 d   1      12.510  -3.868  25.527  0.00  0.00     0.008 A 
ATOM     21  H1  PR1 d   1      14.451  -2.951  25.797  0.00  0.00     0.085 H 
ATOM     22  C5  PR1 d   1      11.670  -4.462  24.563  0.00  0.00    -0.059 A 
ATOM     23  H3  PR1 d   1      10.697  -4.825  24.873  0.00  0.00     0.086 H 
BRANCH  16  24
ATOM     24  O44 PR1 d   1      13.683  -4.257  21.551  0.00  0.00    -0.360 OA
ATOM     25  H10 PR1 d   1      14.471  -4.786  21.509  0.00  0.00     0.217 HD
ENDBRANCH  16  24
BRANCH  20  26
ATOM     26  C10 PR1 d   1      12.042  -3.698  27.027  0.00  0.00     0.102 C 
BRANCH  26  27
ATOM     27  N12 PR1 d   1      12.909  -3.296  27.969  0.00  0.00    -0.385 N 
ATOM     28  H6  PR1 d   1      13.888  -3.099  27.717  0.00  0.00     0.157 HD
ATOM     29  H7  PR1 d   1      12.595  -3.184  28.944  0.00  0.00     0.157 HD
ENDBRANCH  26  27
BRANCH  26  30
ATOM     30  N11 PR1 d   1      10.764  -3.951  27.377  0.00  0.00    -0.385 N 
ATOM     31  H4  PR1 d   1      10.466  -3.838  28.357  0.00  0.00     0.157 HD
ATOM     32  H5  PR1 d   1      10.086  -4.257  26.665  0.00  0.00     0.157 HD
ENDBRANCH  26  30
ENDBRANCH  20  26
ENDBRANCH  12  15
ENDBRANCH   1  12
BRANCH   3  33
ATOM     33  N37 PR1 d   1       9.895 -10.012  21.557  0.00  0.00    -0.301 N 
ATOM     34  H20 PR1 d   1       9.731  -9.877  20.580  0.00  0.00     0.173 HD
BRANCH  33  35
ATOM     35  S38 PR1 d   1       9.480 -11.417  22.247  0.00  0.00     0.266 S 
ATOM     36  O40 PR1 d   1       8.938 -12.176  21.167  0.00  0.00    -0.200 OA
ATOM     37  O39 PR1 d   1       8.680 -11.028  23.366  0.00  0.00    -0.200 OA
BRANCH  35  38
ATOM     38  C26 PR1 d   1      10.967 -12.159  22.815  0.00  0.00     0.123 A 
ATOM     39  S27 PR1 d   1      11.372 -12.288  24.485  0.00  0.00    -0.074 SA
ATOM     40  C16 PR1 d   1      12.872 -13.039  24.135  0.00  0.00     0.035 A 
ATOM     41  C21 PR1 d   1      13.065 -13.194  22.623  0.00  0.00     0.075 A 
ATOM     42  C17 PR1 d   1      13.897 -13.494  24.952  0.00  0.00    -0.063 A 
ATOM     43  C25 PR1 d   1      11.969 -12.688  21.920  0.00  0.00    -0.025 A 
ATOM     44  N20 PR1 d   1      14.289 -13.793  22.154  0.00  0.00    -0.260 NA
ATOM     45  H14 PR1 d   1      11.881 -12.692  20.834  0.00  0.00     0.090 H 
ATOM     46  C19 PR1 d   1      15.243 -14.211  23.027  0.00  0.00     0.003 A 
ATOM     47  C18 PR1 d   1      15.064 -14.069  24.421  0.00  0.00    -0.065 A 
ATOM     48  H13 PR1 d   1      16.154 -14.660  22.648  0.00  0.00     0.114 H 
ATOM     49  H12 PR1 d   1      15.842 -14.410  25.094  0.00  0.00     0.085 H 
ATOM     50  H11 PR1 d   1      13.795 -13.404  26.027  0.00  0.00     0.085 H 
ENDBRANCH  35  38
ENDBRANCH  33  35
ENDBRANCH   3  33
TORSDOF 9
