REMARK  14 active torsions:
REMARK  status: ('A' for Active; 'I' for Inactive)
REMARK    1  A    between atoms: C2_2  and  C11_11 
REMARK    2  A    between atoms: C6_6  and  C21_21 
REMARK    3  A    between atoms: C8_8  and  C13_13 
REMARK       I    between atoms: C13_13  and  N14_14 
REMARK    4  A    between atoms: N14_14  and  C15_15 
REMARK    5  A    between atoms: C15_15  and  C17_17 
REMARK    6  A    between atoms: C15_15  and  C16_16 
REMARK    7  A    between atoms: C17_17  and  C20_20 
REMARK    8  A    between atoms: C17_17  and  C18_18 
REMARK    9  A    between atoms: C18_18  and  O19_19 
REMARK   10  A    between atoms: O19_19  and  C34_34 
REMARK   11  A    between atoms: C20_20  and  C28_28 
REMARK   12  A    between atoms: C21_21  and  N22_22 
REMARK   13  A    between atoms: C24_24  and  C29_29 
REMARK   14  A    between atoms: C29_29  and  N30_30 
ROOT
ATOM      1  C15 RPR d   1      10.284  -6.678  21.006  0.00  0.00     0.021 C 
ATOM      2  H10 RPR d   1       9.184  -6.699  20.987  0.00  0.00     0.073 H 
ENDROOT
BRANCH   1   3
ATOM      3  N14 RPR d   1      10.780  -8.000  21.388  0.00  0.00    -0.352 N 
ATOM      4  C13 RPR d   1      10.060  -8.868  22.145  0.00  0.00     0.252 C 
ATOM      5  O33 RPR d   1       8.892  -8.652  22.435  0.00  0.00    -0.268 OA
ATOM      6  H9  RPR d   1      11.690  -8.277  21.078  0.00  0.00     0.163 HD
BRANCH   4   7
ATOM      7  C8  RPR d   1      10.782 -10.077  22.586  0.00  0.00     0.032 A 
ATOM      8  C9  RPR d   1      12.173 -10.112  22.643  0.00  0.00    -0.067 A 
ATOM      9  C10 RPR d   1      12.840 -11.249  23.075  0.00  0.00    -0.071 A 
ATOM     10  H6  RPR d   1      12.742  -9.239  22.346  0.00  0.00     0.085 H 
ATOM     11  C11 RPR d   1      12.155 -12.387  23.459  0.00  0.00    -0.026 A 
ATOM     12  H7  RPR d   1      13.923 -11.245  23.112  0.00  0.00     0.084 H 
ATOM     13  C12 RPR d   1      10.771 -12.355  23.414  0.00  0.00    -0.071 A 
ATOM     14  C7  RPR d   1      10.085 -11.218  22.983  0.00  0.00    -0.067 A 
ATOM     15  H8  RPR d   1      10.209 -13.230  23.720  0.00  0.00     0.084 H 
ATOM     16  H5  RPR d   1       9.001 -11.222  22.957  0.00  0.00     0.085 H 
BRANCH  11  17
ATOM     17  C2  RPR d   1      12.909 -13.611  23.881  0.00  0.00    -0.025 A 
ATOM     18  C1  RPR d   1      12.505 -14.871  23.483  0.00  0.00    -0.065 A 
ATOM     19  C6  RPR d   1      13.217 -16.013  23.857  0.00  0.00    -0.032 A 
ATOM     20  H1  RPR d   1      11.618 -14.975  22.869  0.00  0.00     0.085 H 
ATOM     21  C5  RPR d   1      14.350 -15.894  24.655  0.00  0.00    -0.075 A 
ATOM     22  C4  RPR d   1      14.769 -14.636  25.046  0.00  0.00    -0.082 A 
ATOM     23  H4  RPR d   1      14.897 -16.776  24.966  0.00  0.00     0.084 H 
ATOM     24  C3  RPR d   1      14.053 -13.515  24.654  0.00  0.00    -0.072 A 
ATOM     25  H3  RPR d   1      15.656 -14.526  25.659  0.00  0.00     0.083 H 
ATOM     26  H2  RPR d   1      14.399 -12.535  24.962  0.00  0.00     0.084 H 
BRANCH  19  27
ATOM     27  C21 RPR d   1      12.784 -17.363  23.361  0.00  0.00     0.103 C 
ATOM     28  H17 RPR d   1      11.685 -17.406  23.351  0.00  0.00     0.082 H 
ATOM     29  H18 RPR d   1      13.175 -18.137  24.038  0.00  0.00     0.082 H 
BRANCH  27  30
ATOM     30  N22 RPR d   1      13.285 -17.615  22.006  0.00  0.00    -0.075 N 
ATOM     31  H19 RPR d   1      12.980 -18.526  21.699  0.00  0.00     0.274 HD
ATOM     32  H20 RPR d   1      14.292 -17.581  22.009  0.00  0.00     0.274 HD
ATOM     33  H21 RPR d   1      12.927 -16.912  21.379  0.00  0.00     0.274 HD
ENDBRANCH  27  30
ENDBRANCH  19  27
ENDBRANCH  11  17
ENDBRANCH   4   7
ENDBRANCH   1   3
BRANCH   1  34
ATOM     34  C17 RPR d   1      10.731  -5.635  22.059  0.00  0.00     0.053 C 
ATOM     35  H14 RPR d   1      10.366  -5.951  23.047  0.00  0.00     0.059 H 
BRANCH  34  36
ATOM     36  C20 RPR d   1      12.273  -5.516  22.131  0.00  0.00    -0.027 C 
ATOM     37  H15 RPR d   1      12.622  -5.122  21.165  0.00  0.00     0.041 H 
ATOM     38  H16 RPR d   1      12.678  -6.527  22.282  0.00  0.00     0.041 H 
BRANCH  36  39
ATOM     39  C28 RPR d   1      12.839  -4.630  23.217  0.00  0.00    -0.056 A 
ATOM     40  C27 RPR d   1      14.018  -3.936  22.964  0.00  0.00    -0.077 A 
ATOM     41  C26 RPR d   1      14.629  -3.183  23.956  0.00  0.00    -0.082 A 
ATOM     42  H25 RPR d   1      14.465  -3.984  21.978  0.00  0.00     0.084 H 
ATOM     43  C25 RPR d   1      14.061  -3.096  25.217  0.00  0.00    -0.069 A 
ATOM     44  H24 RPR d   1      15.555  -2.660  23.744  0.00  0.00     0.083 H 
ATOM     45  C24 RPR d   1      12.860  -3.752  25.486  0.00  0.00     0.007 A 
ATOM     46  H23 RPR d   1      14.550  -2.519  25.994  0.00  0.00     0.085 H 
ATOM     47  C23 RPR d   1      12.257  -4.518  24.481  0.00  0.00    -0.063 A 
ATOM     48  H22 RPR d   1      11.325  -5.031  24.687  0.00  0.00     0.085 H 
BRANCH  45  49
ATOM     49  C29 RPR d   1      12.242  -3.632  26.817  0.00  0.00     0.102 C 
ATOM     50  N31 RPR d   1      10.935  -3.912  26.963  0.00  0.00    -0.385 N 
ATOM     51  H28 RPR d   1      10.376  -4.202  26.148  0.00  0.00     0.157 HD
ATOM     52  H29 RPR d   1      10.492  -3.836  27.890  0.00  0.00     0.157 HD
BRANCH  49  53
ATOM     53  N30 RPR d   1      12.949  -3.259  27.879  0.00  0.00    -0.385 N 
ATOM     54  H26 RPR d   1      12.494  -3.182  28.800  0.00  0.00     0.157 HD
ATOM     55  H27 RPR d   1      13.952  -3.047  27.781  0.00  0.00     0.157 HD
ENDBRANCH  49  53
ENDBRANCH  45  49
ENDBRANCH  36  39
ENDBRANCH  34  36
BRANCH  34  56
ATOM     56  C18 RPR d   1      10.081  -4.289  21.697  0.00  0.00     0.265 C 
ATOM     57  O32 RPR d   1      10.679  -3.286  21.443  0.00  0.00    -0.265 OA
BRANCH  56  58
ATOM     58  O19 RPR d   1       8.655  -4.363  21.668  0.00  0.00    -0.326 OA
BRANCH  58  59
ATOM     59  C34 RPR d   1       7.904  -3.253  21.165  0.00  0.00     0.013 C 
ATOM     60  H30 RPR d   1       6.830  -3.483  21.217  0.00  0.00     0.067 H 
ATOM     61  H31 RPR d   1       8.188  -3.062  20.119  0.00  0.00     0.067 H 
ATOM     62  H32 RPR d   1       8.118  -2.361  21.772  0.00  0.00     0.067 H 
ENDBRANCH  58  59
ENDBRANCH  56  58
ENDBRANCH  34  56
ENDBRANCH   1  34
BRANCH   1  63
ATOM     63  C16 RPR d   1      10.787  -6.351  19.594  0.00  0.00    -0.057 C 
ATOM     64  H11 RPR d   1      10.420  -5.358  19.295  0.00  0.00     0.030 H 
ATOM     65  H12 RPR d   1      10.414  -7.107  18.888  0.00  0.00     0.030 H 
ATOM     66  H13 RPR d   1      11.887  -6.353  19.587  0.00  0.00     0.030 H 
ENDBRANCH   1  63
TORSDOF 14
