REMARK  4 active torsions:
REMARK  status: ('A' for Active; 'I' for Inactive)
REMARK    1  A    between atoms: C2_2  and  C7_7 
REMARK    2  A    between atoms: C5_5  and  S8_8 
REMARK    3  A    between atoms: S8_8  and  N_11 
REMARK    4  A    between atoms: CA_15  and  C_16 
ROOT
ATOM      1  S8  TPR d   1      36.863  59.501  82.119  0.00  0.00     0.261 S 
ATOM      2  O9  TPR d   1      37.495  60.615  83.049  0.00  0.00    -0.200 OA
ATOM      3  O10 TPR d   1      37.203  58.069  82.710  0.00  0.00    -0.200 OA
ENDROOT
BRANCH   1   4
ATOM      4  C5  TPR d   1      37.476  59.634  80.479  0.00  0.00     0.079 A 
ATOM      5  C4  TPR d   1      37.839  58.491  79.777  0.00  0.00    -0.060 A 
ATOM      6  C3  TPR d   1      38.303  58.636  78.464  0.00  0.00    -0.076 A 
ATOM      7  H3  TPR d   1      37.765  57.511  80.235  0.00  0.00     0.085 H 
ATOM      8  C2  TPR d   1      38.390  59.901  77.863  0.00  0.00    -0.062 A 
ATOM      9  H2  TPR d   1      38.600  57.757  77.903  0.00  0.00     0.084 H 
ATOM     10  C1  TPR d   1      38.005  61.035  78.588  0.00  0.00    -0.076 A 
ATOM     11  C6  TPR d   1      37.544  60.897  79.899  0.00  0.00    -0.060 A 
ATOM     12  H1  TPR d   1      38.065  62.017  78.133  0.00  0.00     0.084 H 
ATOM     13  H4  TPR d   1      37.240  61.771  80.463  0.00  0.00     0.085 H 
BRANCH   8  14
ATOM     14  C7  TPR d   1      38.908  60.006  76.433  0.00  0.00    -0.051 C 
ATOM     15  H5  TPR d   1      38.911  61.061  76.121  0.00  0.00     0.033 H 
ATOM     16  H6  TPR d   1      38.255  59.427  75.763  0.00  0.00     0.033 H 
ATOM     17  H7  TPR d   1      39.932  59.606  76.383  0.00  0.00     0.033 H 
ENDBRANCH   8  14
ENDBRANCH   1   4
BRANCH   1  18
ATOM     18  N   TPR d   1      35.121  59.752  82.144  0.00  0.00    -0.292 N 
ATOM     19  CA  TPR d   1      34.297  58.868  82.976  0.00  0.00     0.106 C 
ATOM     20  CB  TPR d   1      33.044  58.610  82.110  0.00  0.00    -0.034 C 
ATOM     21  H14 TPR d   1      34.824  57.911  83.103  0.00  0.00     0.090 H 
ATOM     22  CG  TPR d   1      33.472  58.920  80.677  0.00  0.00    -0.047 C 
ATOM     23  H12 TPR d   1      32.724  57.561  82.198  0.00  0.00     0.036 H 
ATOM     24  H13 TPR d   1      32.221  59.271  82.418  0.00  0.00     0.036 H 
ATOM     25  CD  TPR d   1      34.512  60.017  80.828  0.00  0.00     0.006 C 
ATOM     26  H10 TPR d   1      33.909  58.031  80.200  0.00  0.00     0.035 H 
ATOM     27  H11 TPR d   1      32.617  59.273  80.082  0.00  0.00     0.035 H 
ATOM     28  H8  TPR d   1      35.265  59.954  80.029  0.00  0.00     0.065 H 
ATOM     29  H9  TPR d   1      34.039  61.010  80.809  0.00  0.00     0.065 H 
BRANCH  19  30
ATOM     30  C   TPR d   1      34.059  59.418  84.398  0.00  0.00     0.197 C 
ATOM     31  OXT TPR d   1      34.116  60.772  84.576  0.00  0.00    -0.646 OA
ATOM     32  O   TPR d   1      33.835  58.681  85.364  0.00  0.00    -0.646 OA
ENDBRANCH  19  30
ENDBRANCH   1  18
TORSDOF 4
