REMARK  9 active torsions:
REMARK  status: ('A' for Active; 'I' for Inactive)
REMARK    1  A    between atoms: N3_3  and  S9_9 
REMARK    2  A    between atoms: C4_4  and  C6_6 
REMARK    3  A    between atoms: S9_9  and  C10_10 
REMARK    4  A    between atoms: C15_15  and  C18_18 
REMARK       I    between atoms: C18_18  and  N19_19 
REMARK    5  A    between atoms: N19_19  and  C20_20 
REMARK    6  A    between atoms: C20_20  and  C25_25 
REMARK    7  A    between atoms: C20_20  and  C21_21 
REMARK    8  A    between atoms: C21_21  and  C22_22 
REMARK    9  A    between atoms: C22_22  and  C23_23 
ROOT
ATOM      1  C10 TP3 d   1      16.554  15.403  33.873  0.00  0.00     0.079 A 
ATOM      2  C13 TP3 d   1      15.284  15.935  33.835  0.00  0.00    -0.059 A 
ATOM      3  C14 TP3 d   1      14.364  15.509  34.777  0.00  0.00    -0.066 A 
ATOM      4  C15 TP3 d   1      14.761  14.544  35.722  0.00  0.00     0.032 A 
ATOM      5  C16 TP3 d   1      16.070  14.018  35.726  0.00  0.00    -0.066 A 
ATOM      6  C17 TP3 d   1      16.989  14.454  34.779  0.00  0.00    -0.059 A 
ATOM      7  H8  TP3 d   1      15.012  16.669  33.086  0.00  0.00     0.085 H 
ATOM      8  H9  TP3 d   1      13.357  15.911  34.787  0.00  0.00     0.085 H 
ATOM      9  H10 TP3 d   1      16.358  13.278  36.464  0.00  0.00     0.085 H 
ATOM     10  H11 TP3 d   1      18.001  14.067  34.752  0.00  0.00     0.085 H 
ENDROOT
BRANCH   1  11
ATOM     11  S9  TP3 d   1      17.718  15.966  32.662  0.00  0.00     0.261 S 
ATOM     12  O12 TP3 d   1      17.638  17.555  32.613  0.00  0.00    -0.200 OA
ATOM     13  O11 TP3 d   1      19.117  15.463  33.136  0.00  0.00    -0.200 OA
BRANCH  11  14
ATOM     14  N3  TP3 d   1      17.222  15.293  31.159  0.00  0.00    -0.292 N 
ATOM     15  C2  TP3 d   1      17.453  13.873  30.897  0.00  0.00     0.006 C 
ATOM     16  C1  TP3 d   1      16.083  13.517  30.251  0.00  0.00    -0.047 C 
ATOM     17  H3  TP3 d   1      18.291  13.713  30.202  0.00  0.00     0.065 H 
ATOM     18  H4  TP3 d   1      17.632  13.307  31.823  0.00  0.00     0.065 H 
ATOM     19  C5  TP3 d   1      15.895  14.731  29.317  0.00  0.00    -0.034 C 
ATOM     20  H1  TP3 d   1      16.132  12.574  29.688  0.00  0.00     0.035 H 
ATOM     21  H2  TP3 d   1      15.283  13.454  31.003  0.00  0.00     0.035 H 
ATOM     22  C4  TP3 d   1      16.291  15.927  30.234  0.00  0.00     0.106 C 
ATOM     23  H6  TP3 d   1      14.851  14.816  28.981  0.00  0.00     0.036 H 
ATOM     24  H7  TP3 d   1      16.558  14.665  28.441  0.00  0.00     0.036 H 
ATOM     25  H5  TP3 d   1      15.411  16.207  30.832  0.00  0.00     0.090 H 
BRANCH  22  26
ATOM     26  C6  TP3 d   1      16.625  17.198  29.452  0.00  0.00     0.197 C 
ATOM     27  O8  TP3 d   1      15.660  18.030  29.384  0.00  0.00    -0.646 OA
ATOM     28  O7  TP3 d   1      17.697  17.475  28.889  0.00  0.00    -0.646 OA
ENDBRANCH  22  26
ENDBRANCH  11  14
ENDBRANCH   1  11
BRANCH   4  29
ATOM     29  C18 TP3 d   1      13.699  14.106  36.707  0.00  0.00     0.252 C 
ATOM     30  O24 TP3 d   1      12.499  14.167  36.409  0.00  0.00    -0.268 OA
ATOM     31  N19 TP3 d   1      14.041  13.375  37.783  0.00  0.00    -0.342 N 
ATOM     32  H12 TP3 d   1      15.002  13.204  38.002  0.00  0.00     0.163 HD
BRANCH  31  33
ATOM     33  C20 TP3 d   1      12.954  12.827  38.639  0.00  0.00     0.097 C 
ATOM     34  H13 TP3 d   1      12.023  13.373  38.428  0.00  0.00     0.089 H 
BRANCH  33  35
ATOM     35  C25 TP3 d   1      13.498  13.236  40.052  0.00  0.00     0.196 C 
ATOM     36  O27 TP3 d   1      14.734  13.343  40.193  0.00  0.00    -0.646 OA
ATOM     37  O26 TP3 d   1      12.634  13.432  40.923  0.00  0.00    -0.646 OA
ENDBRANCH  33  35
BRANCH  33  38
ATOM     38  C21 TP3 d   1      12.619  11.341  38.496  0.00  0.00    -0.028 C 
ATOM     39  H14 TP3 d   1      11.561  11.258  38.206  0.00  0.00     0.037 H 
ATOM     40  H15 TP3 d   1      12.769  10.863  39.475  0.00  0.00     0.037 H 
BRANCH  38  41
ATOM     41  C22 TP3 d   1      13.452  10.578  37.466  0.00  0.00     0.018 C 
ATOM     42  H16 TP3 d   1      14.494  10.923  37.537  0.00  0.00     0.049 H 
ATOM     43  H17 TP3 d   1      13.058  10.805  36.464  0.00  0.00     0.049 H 
BRANCH  41  44
ATOM     44  C23 TP3 d   1      13.431   9.067  37.661  0.00  0.00     0.172 C 
ATOM     45  O29 TP3 d   1      12.871   8.329  36.830  0.00  0.00    -0.648 OA
ATOM     46  O28 TP3 d   1      14.010   8.623  38.677  0.00  0.00    -0.648 OA
ENDBRANCH  41  44
ENDBRANCH  38  41
ENDBRANCH  33  38
ENDBRANCH  31  33
ENDBRANCH   4  29
TORSDOF 9
