REMARK  12 active torsions:
REMARK  status: ('A' for Active; 'I' for Inactive)
REMARK    1  A    between atoms: N3_3  and  S9_9 
REMARK    2  A    between atoms: C4_4  and  C6_6 
REMARK       I    between atoms: C6_6  and  N8_8 
REMARK    3  A    between atoms: N8_8  and  C30_30 
REMARK    4  A    between atoms: S9_9  and  C10_10 
REMARK    5  A    between atoms: C15_15  and  C18_18 
REMARK       I    between atoms: C18_18  and  N19_19 
REMARK    6  A    between atoms: N19_19  and  C20_20 
REMARK    7  A    between atoms: C20_20  and  C25_25 
REMARK    8  A    between atoms: C20_20  and  C21_21 
REMARK    9  A    between atoms: C21_21  and  C22_22 
REMARK   10  A    between atoms: C22_22  and  C23_23 
REMARK   11  A    between atoms: C30_30  and  C31_31 
REMARK   12  A    between atoms: C31_31  and  C32_32 
ROOT
ATOM      1  C10 TP4 d   1      16.053  15.027  34.330  0.00  0.00     0.079 A 
ATOM      2  C13 TP4 d   1      14.699  15.139  34.075  0.00  0.00    -0.059 A 
ATOM      3  C14 TP4 d   1      13.823  14.548  34.970  0.00  0.00    -0.066 A 
ATOM      4  C15 TP4 d   1      14.338  13.884  36.104  0.00  0.00     0.032 A 
ATOM      5  C16 TP4 d   1      15.717  13.799  36.329  0.00  0.00    -0.066 A 
ATOM      6  C17 TP4 d   1      16.605  14.386  35.431  0.00  0.00    -0.059 A 
ATOM      7  H9  TP4 d   1      14.335  15.671  33.204  0.00  0.00     0.085 H 
ATOM      8  H10 TP4 d   1      12.753  14.595  34.801  0.00  0.00     0.085 H 
ATOM      9  H11 TP4 d   1      16.093  13.277  37.201  0.00  0.00     0.085 H 
ATOM     10  H12 TP4 d   1      17.677  14.344  35.584  0.00  0.00     0.085 H 
ENDROOT
BRANCH   1  11
ATOM     11  S9  TP4 d   1      17.096  15.863  33.193  0.00  0.00     0.261 S 
ATOM     12  O12 TP4 d   1      16.669  17.375  33.268  0.00  0.00    -0.200 OA
ATOM     13  O11 TP4 d   1      18.605  15.642  33.564  0.00  0.00    -0.200 OA
BRANCH  11  14
ATOM     14  N3  TP4 d   1      16.837  15.384  31.564  0.00  0.00    -0.293 N 
ATOM     15  C2  TP4 d   1      16.992  13.970  31.185  0.00  0.00     0.006 C 
ATOM     16  C1  TP4 d   1      15.862  13.779  30.158  0.00  0.00    -0.047 C 
ATOM     17  H3  TP4 d   1      17.977  13.785  30.732  0.00  0.00     0.065 H 
ATOM     18  H4  TP4 d   1      16.857  13.308  32.053  0.00  0.00     0.065 H 
ATOM     19  C5  TP4 d   1      15.759  15.163  29.493  0.00  0.00    -0.036 C 
ATOM     20  H1  TP4 d   1      16.124  13.005  29.421  0.00  0.00     0.035 H 
ATOM     21  H2  TP4 d   1      14.919  13.508  30.654  0.00  0.00     0.035 H 
ATOM     22  C4  TP4 d   1      15.829  16.088  30.734  0.00  0.00     0.099 C 
ATOM     23  H6  TP4 d   1      14.809  15.283  28.952  0.00  0.00     0.036 H 
ATOM     24  H7  TP4 d   1      16.598  15.345  28.805  0.00  0.00     0.036 H 
ATOM     25  H5  TP4 d   1      14.858  16.079  31.252  0.00  0.00     0.088 H 
BRANCH  22  26
ATOM     26  C6  TP4 d   1      16.161  17.586  30.422  0.00  0.00     0.241 C 
ATOM     27  N8  TP4 d   1      15.201  18.494  30.184  0.00  0.00    -0.359 N 
ATOM     28  H8  TP4 d   1      14.282  18.111  30.091  0.00  0.00     0.162 HD
ATOM     29  O7  TP4 d   1      17.360  17.892  30.370  0.00  0.00    -0.271 OA
BRANCH  27  30
ATOM     30  C30 TP4 d   1      15.270  19.948  30.037  0.00  0.00     0.004 C 
ATOM     31  H19 TP4 d   1      14.473  20.284  29.358  0.00  0.00     0.064 H 
ATOM     32  H20 TP4 d   1      16.249  20.226  29.619  0.00  0.00     0.064 H 
BRANCH  30  33
ATOM     33  C31 TP4 d   1      15.090  20.627  31.412  0.00  0.00     0.030 C 
ATOM     34  H21 TP4 d   1      15.767  20.166  32.147  0.00  0.00     0.051 H 
ATOM     35  H22 TP4 d   1      14.049  20.514  31.750  0.00  0.00     0.051 H 
BRANCH  33  36
ATOM     36  C32 TP4 d   1      15.430  22.125  31.254  0.00  0.00     0.174 C 
ATOM     37  O34 TP4 d   1      16.581  22.408  30.877  0.00  0.00    -0.648 OA
ATOM     38  O33 TP4 d   1      14.532  22.956  31.502  0.00  0.00    -0.648 OA
ENDBRANCH  33  36
ENDBRANCH  30  33
ENDBRANCH  27  30
ENDBRANCH  22  26
ENDBRANCH  11  14
ENDBRANCH   1  11
BRANCH   4  39
ATOM     39  C18 TP4 d   1      13.349  13.227  37.048  0.00  0.00     0.252 C 
ATOM     40  O24 TP4 d   1      12.181  13.039  36.677  0.00  0.00    -0.268 OA
ATOM     41  N19 TP4 d   1      13.821  12.721  38.201  0.00  0.00    -0.342 N 
ATOM     42  H13 TP4 d   1      14.790  12.798  38.437  0.00  0.00     0.163 HD
BRANCH  41  43
ATOM     43  C20 TP4 d   1      12.847  12.033  39.131  0.00  0.00     0.097 C 
ATOM     44  H14 TP4 d   1      11.819  12.175  38.767  0.00  0.00     0.089 H 
BRANCH  43  45
ATOM     45  C25 TP4 d   1      13.043  12.798  40.488  0.00  0.00     0.196 C 
ATOM     46  O27 TP4 d   1      14.140  13.379  40.625  0.00  0.00    -0.646 OA
ATOM     47  O26 TP4 d   1      12.132  12.746  41.315  0.00  0.00    -0.646 OA
ENDBRANCH  43  45
BRANCH  43  48
ATOM     48  C21 TP4 d   1      13.106  10.513  39.251  0.00  0.00    -0.028 C 
ATOM     49  H15 TP4 d   1      12.134  10.001  39.202  0.00  0.00     0.037 H 
ATOM     50  H16 TP4 d   1      13.570  10.327  40.231  0.00  0.00     0.037 H 
BRANCH  48  51
ATOM     51  C22 TP4 d   1      14.019   9.895  38.172  0.00  0.00     0.018 C 
ATOM     52  H17 TP4 d   1      14.798  10.618  37.888  0.00  0.00     0.049 H 
ATOM     53  H18 TP4 d   1      13.421   9.633  37.287  0.00  0.00     0.049 H 
BRANCH  51  54
ATOM     54  C23 TP4 d   1      14.672   8.631  38.746  0.00  0.00     0.172 C 
ATOM     55  O29 TP4 d   1      14.683   7.593  38.058  0.00  0.00    -0.648 OA
ATOM     56  O28 TP4 d   1      15.184   8.640  39.887  0.00  0.00    -0.648 OA
ENDBRANCH  51  54
ENDBRANCH  48  51
ENDBRANCH  43  48
ENDBRANCH  41  43
ENDBRANCH   4  39
TORSDOF 12
