REMARK  12 active torsions:
REMARK  status: ('A' for Active; 'I' for Inactive)
REMARK    1  A    between atoms: C1_1  and  O1_2 
REMARK    2  A    between atoms: O1_2  and  C7_3 
REMARK    3  A    between atoms: C2_4  and  O2_5 
REMARK    4  A    between atoms: O2_5  and  C8_6 
REMARK    5  A    between atoms: C3_7  and  O3_8 
REMARK    6  A    between atoms: C4_9  and  N4_10 
REMARK       I    between atoms: N4_10  and  C9_11 
REMARK    7  A    between atoms: C9_11  and  C10_19 
REMARK    8  A    between atoms: C5_13  and  C6_15 
REMARK    9  A    between atoms: C11_18  and  C12_16 
REMARK   10  A    between atoms: C12_16  and  O12_17 
REMARK   11  A    between atoms: C10_19  and  C11_18 
REMARK   12  A    between atoms: C10_19  and  O10_20 
ROOT
ATOM      1  C1  MGS d   1      -7.807 -21.735  18.311  0.00  0.00     0.158 C 
ATOM      2  C2  MGS d   1      -8.233 -20.447  17.630  0.00  0.00     0.112 C 
ATOM      3  C3  MGS d   1      -9.753 -20.431  17.362  0.00  0.00     0.087 C 
ATOM      4  C4  MGS d   1     -10.111 -21.719  16.625  0.00  0.00     0.064 C 
ATOM      5  C5  MGS d   1      -9.541 -22.981  17.283  0.00  0.00     0.060 C 
ATOM      6  O5  MGS d   1      -8.093 -22.895  17.525  0.00  0.00    -0.352 OA
ATOM      7  H1  MGS d   1      -6.713 -21.693  18.422  0.00  0.00     0.133 H 
ATOM      8  H5  MGS d   1      -7.976 -19.606  18.291  0.00  0.00     0.095 H 
ATOM      9  H9  MGS d   1     -10.306 -20.366  18.311  0.00  0.00     0.090 H 
ATOM     10  H11 MGS d   1      -9.646 -21.638  15.631  0.00  0.00     0.080 H 
ATOM     11  H13 MGS d   1     -10.037 -23.097  18.258  0.00  0.00     0.086 H 
ENDROOT
BRANCH   4  12
ATOM     12  N4  MGS d   1     -11.586 -21.905  16.402  0.00  0.00    -0.349 N 
ATOM     13  C9  MGS d   1     -11.890 -21.668  15.141  0.00  0.00     0.247 C 
ATOM     14  O9  MGS d   1     -10.945 -21.386  14.422  0.00  0.00    -0.271 OA
ATOM     15  H12 MGS d   1     -12.242 -22.170  17.108  0.00  0.00     0.163 HD
BRANCH  13  16
ATOM     16  C10 MGS d   1     -13.131 -21.691  14.241  0.00  0.00     0.114 C 
ATOM     17  H22 MGS d   1     -12.736 -21.753  13.216  0.00  0.00     0.098 H 
BRANCH  16  18
ATOM     18  O10 MGS d   1     -13.857 -20.494  14.214  0.00  0.00    -0.386 OA
ATOM     19  H23 MGS d   1     -13.299 -19.794  13.896  0.00  0.00     0.210 HD
ENDBRANCH  16  18
BRANCH  16  20
ATOM     20  C11 MGS d   1     -13.846 -23.038  14.439  0.00  0.00    -0.013 C 
ATOM     21  H20 MGS d   1     -14.041 -23.199  15.509  0.00  0.00     0.040 H 
ATOM     22  H21 MGS d   1     -13.213 -23.852  14.056  0.00  0.00     0.040 H 
BRANCH  20  23
ATOM     23  C12 MGS d   1     -15.128 -23.014  13.698  0.00  0.00     0.019 C 
ATOM     24  H17 MGS d   1     -15.291 -23.939  13.125  0.00  0.00     0.074 H 
ATOM     25  H18 MGS d   1     -15.199 -22.147  13.024  0.00  0.00     0.074 H 
BRANCH  23  26
ATOM     26  O12 MGS d   1     -16.024 -22.906  14.807  0.00  0.00    -0.401 OA
ATOM     27  H19 MGS d   1     -16.919 -22.878  14.488  0.00  0.00     0.209 HD
ENDBRANCH  23  26
ENDBRANCH  20  23
ENDBRANCH  16  20
ENDBRANCH  13  16
ENDBRANCH   4  12
BRANCH   3  28
ATOM     28  O3  MGS d   1     -10.082 -19.301  16.518  0.00  0.00    -0.391 OA
ATOM     29  H10 MGS d   1      -9.587 -19.357  15.709  0.00  0.00     0.210 HD
ENDBRANCH   3  28
BRANCH   5  30
ATOM     30  C6  MGS d   1      -9.851 -24.236  16.434  0.00  0.00    -0.050 C 
ATOM     31  H14 MGS d   1      -9.432 -25.125  16.928  0.00  0.00     0.031 H 
ATOM     32  H15 MGS d   1      -9.401 -24.124  15.436  0.00  0.00     0.031 H 
ATOM     33  H16 MGS d   1     -10.940 -24.351  16.334  0.00  0.00     0.031 H 
ENDBRANCH   5  30
BRANCH   2  34
ATOM     34  O2  MGS d   1      -7.569 -20.270  16.369  0.00  0.00    -0.383 OA
BRANCH  34  35
ATOM     35  C8  MGS d   1      -6.185 -19.998  16.649  0.00  0.00     0.005 C 
ATOM     36  H6  MGS d   1      -5.641 -19.856  15.704  0.00  0.00     0.066 H 
ATOM     37  H7  MGS d   1      -5.749 -20.845  17.199  0.00  0.00     0.066 H 
ATOM     38  H8  MGS d   1      -6.107 -19.085  17.258  0.00  0.00     0.066 H 
ENDBRANCH  34  35
ENDBRANCH   2  34
BRANCH   1  39
ATOM     39  O1  MGS d   1      -8.347 -21.812  19.604  0.00  0.00    -0.363 OA
BRANCH  39  40
ATOM     40  C7  MGS d   1      -8.254 -23.153  20.144  0.00  0.00     0.007 C 
ATOM     41  H2  MGS d   1      -8.686 -23.172  21.155  0.00  0.00     0.066 H 
ATOM     42  H3  MGS d   1      -7.198 -23.457  20.191  0.00  0.00     0.066 H 
ATOM     43  H4  MGS d   1      -8.807 -23.849  19.496  0.00  0.00     0.066 H 
ENDBRANCH  39  40
ENDBRANCH   1  39
TORSDOF 12
