REMARK  4 active torsions:
REMARK  status: ('A' for Active; 'I' for Inactive)
REMARK    1  A    between atoms: N_1  and  CA_2 
REMARK    2  A    between atoms: CA_2  and  CB_5 
REMARK    3  A    between atoms: CA_2  and  C_3 
REMARK    4  A    between atoms: CB_5  and  SG_6 
ROOT
ATOM      1  CA  DCY d   1       9.835  -9.750  23.203  0.00  0.00     0.190 C 
ATOM      2  H4  DCY d   1       8.825  -9.740  22.767  0.00  0.00     0.102 H 
ENDROOT
BRANCH   1   3
ATOM      3  N   DCY d   1      10.380 -11.139  23.139  0.00  0.00    -0.065 N 
ATOM      4  H1  DCY d   1      10.424 -11.438  22.178  0.00  0.00     0.275 HD
ATOM      5  H2  DCY d   1       9.778 -11.760  23.657  0.00  0.00     0.275 HD
ATOM      6  H3  DCY d   1      11.305 -11.156  23.539  0.00  0.00     0.275 HD
ENDBRANCH   1   3
BRANCH   1   7
ATOM      7  CB  DCY d   1      10.742  -8.821  22.398  0.00  0.00     0.010 C 
ATOM      8  H5  DCY d   1      10.258  -7.834  22.354  0.00  0.00     0.052 H 
ATOM      9  H6  DCY d   1      10.828  -9.233  21.382  0.00  0.00     0.052 H 
BRANCH   7  10
ATOM     10  SG  DCY d   1      12.422  -8.587  23.046  0.00  0.00    -0.180 SA
ATOM     11  H7  DCY d   1      12.894  -9.477  23.082  0.00  0.00     0.101 HD
ENDBRANCH   7  10
ENDBRANCH   1   7
BRANCH   1  12
ATOM     12  C   DCY d   1       9.754  -9.262  24.656  0.00  0.00     0.205 C 
ATOM     13  OXT DCY d   1      10.282  -9.969  25.533  0.00  0.00    -0.646 OA
ATOM     14  O   DCY d   1       9.179  -8.183  24.900  0.00  0.00    -0.646 OA
ENDBRANCH   1  12
TORSDOF 4
