REMARK  2 active torsions:
REMARK  status: ('A' for Active; 'I' for Inactive)
REMARK    1  A    between atoms: C1_1  and  C_7 
REMARK    2  A    between atoms: C_7  and  N1_8 
ROOT
ATOM      1  C1  BAM d   1      31.641   5.193  28.171  0.00  0.00     0.007 A 
ATOM      2  C2  BAM d   1      30.516   4.739  28.917  0.00  0.00    -0.069 A 
ATOM      3  C3  BAM d   1      29.431   5.586  29.206  0.00  0.00    -0.082 A 
ATOM      4  C4  BAM d   1      29.431   6.922  28.757  0.00  0.00    -0.083 A 
ATOM      5  C5  BAM d   1      30.530   7.398  28.018  0.00  0.00    -0.082 A 
ATOM      6  C6  BAM d   1      31.615   6.547  27.731  0.00  0.00    -0.069 A 
ATOM      7  H1  BAM d   1      30.495   3.715  29.271  0.00  0.00     0.085 H 
ATOM      8  H2  BAM d   1      28.590   5.209  29.777  0.00  0.00     0.083 H 
ATOM      9  H3  BAM d   1      28.595   7.575  28.978  0.00  0.00     0.083 H 
ATOM     10  H4  BAM d   1      30.541   8.424  27.668  0.00  0.00     0.083 H 
ATOM     11  H5  BAM d   1      32.452   6.933  27.160  0.00  0.00     0.085 H 
ENDROOT
BRANCH   1  12
ATOM     12  C   BAM d   1      32.741   4.333  27.877  0.00  0.00     0.102 C 
ATOM     13  N2  BAM d   1      32.778   3.068  28.273  0.00  0.00    -0.385 N 
ATOM     14  H8  BAM d   1      31.995   2.675  28.814  0.00  0.00     0.157 HD
ATOM     15  H9  BAM d   1      33.590   2.479  28.040  0.00  0.00     0.157 HD
BRANCH  12  16
ATOM     16  N1  BAM d   1      33.796   4.745  27.187  0.00  0.00    -0.385 N 
ATOM     17  H6  BAM d   1      34.571   4.095  26.994  0.00  0.00     0.157 HD
ATOM     18  H7  BAM d   1      33.840   5.715  26.844  0.00  0.00     0.157 HD
ENDBRANCH  12  16
ENDBRANCH   1  12
TORSDOF 2
