REMARK  16 active torsions:
REMARK  status: ('A' for Active; 'I' for Inactive)
REMARK    1  A    between atoms: C1_1  and  C2_4 
REMARK    2  A    between atoms: C2_4  and  C3_6 
REMARK    3  A    between atoms: C2_4  and  O2_5 
REMARK    4  A    between atoms: C3_6  and  C4_7 
REMARK    5  A    between atoms: C4_7  and  C5_9 
REMARK    6  A    between atoms: C4_7  and  O4_8 
REMARK    7  A    between atoms: C5_9  and  C6_14 
REMARK    8  A    between atoms: C5_9  and  N2_10 
REMARK       I    between atoms: N2_10  and  C10_11 
REMARK    9  A    between atoms: C10_11  and  C11_13 
REMARK   10  A    between atoms: C6_14  and  C7_16 
REMARK   11  A    between atoms: C6_14  and  O6_15 
REMARK   12  A    between atoms: C7_16  and  C8_18 
REMARK   13  A    between atoms: C7_16  and  O7_17 
REMARK   14  A    between atoms: C8_18  and  C9_20 
REMARK   15  A    between atoms: C8_18  and  O8_19 
REMARK   16  A    between atoms: C9_20  and  O9_21 
ROOT
ATOM      1  C5  HMN d   1      -5.373  44.843  51.195  0.00  0.00     0.064 C 
ATOM      2  H7  HMN d   1      -6.073  43.997  51.262  0.00  0.00     0.080 H 
ENDROOT
BRANCH   1   3
ATOM      3  C4  HMN d   1      -6.145  46.156  51.272  0.00  0.00     0.060 C 
ATOM      4  H5  HMN d   1      -6.649  46.232  52.247  0.00  0.00     0.086 H 
BRANCH   3   5
ATOM      5  C3  HMN d   1      -7.179  46.186  50.151  0.00  0.00    -0.006 C 
ATOM      6  H3  HMN d   1      -6.693  46.464  49.204  0.00  0.00     0.041 H 
ATOM      7  H4  HMN d   1      -7.644  45.195  50.047  0.00  0.00     0.041 H 
BRANCH   5   8
ATOM      8  C2  HMN d   1      -8.232  47.211  50.506  0.00  0.00     0.121 C 
ATOM      9  H1  HMN d   1      -8.518  47.037  51.554  0.00  0.00     0.100 H 
BRANCH   8  10
ATOM     10  C1  HMN d   1      -9.474  47.030  49.675  0.00  0.00     0.203 C 
ATOM     11  O1B HMN d   1      -9.674  47.844  48.732  0.00  0.00    -0.646 OA
ATOM     12  O1A HMN d   1     -10.272  46.100  49.996  0.00  0.00    -0.646 OA
ENDBRANCH   8  10
BRANCH   8  13
ATOM     13  O2  HMN d   1      -7.701  48.542  50.431  0.00  0.00    -0.385 OA
ATOM     14  H2  HMN d   1      -6.976  48.627  51.038  0.00  0.00     0.210 HD
ENDBRANCH   8  13
ENDBRANCH   5   8
ENDBRANCH   3   5
BRANCH   3  15
ATOM     15  O4  HMN d   1      -5.255  47.254  51.107  0.00  0.00    -0.393 OA
ATOM     16  H6  HMN d   1      -4.600  47.235  51.795  0.00  0.00     0.210 HD
ENDBRANCH   3  15
ENDBRANCH   1   3
BRANCH   1  17
ATOM     17  C6  HMN d   1      -4.308  44.708  52.297  0.00  0.00     0.084 C 
ATOM     18  H12 HMN d   1      -3.537  45.479  52.150  0.00  0.00     0.090 H 
BRANCH  17  19
ATOM     19  C7  HMN d   1      -3.661  43.329  52.224  0.00  0.00     0.089 C 
ATOM     20  H14 HMN d   1      -3.056  43.280  51.307  0.00  0.00     0.091 H 
BRANCH  19  21
ATOM     21  C8  HMN d   1      -2.760  43.107  53.426  0.00  0.00     0.083 C 
ATOM     22  H16 HMN d   1      -3.342  43.093  54.359  0.00  0.00     0.090 H 
BRANCH  21  23
ATOM     23  C9  HMN d   1      -2.081  41.768  53.214  0.00  0.00     0.043 C 
ATOM     24  H18 HMN d   1      -2.825  41.042  52.855  0.00  0.00     0.078 H 
ATOM     25  H19 HMN d   1      -1.664  41.423  54.171  0.00  0.00     0.078 H 
BRANCH  23  26
ATOM     26  O9  HMN d   1      -1.034  41.864  52.262  0.00  0.00    -0.398 OA
ATOM     27  H20 HMN d   1      -0.385  42.487  52.568  0.00  0.00     0.209 HD
ENDBRANCH  23  26
ENDBRANCH  21  23
BRANCH  21  28
ATOM     28  O8  HMN d   1      -1.827  44.173  53.454  0.00  0.00    -0.391 OA
ATOM     29  H17 HMN d   1      -1.211  44.035  54.164  0.00  0.00     0.210 HD
ENDBRANCH  21  28
ENDBRANCH  19  21
BRANCH  19  30
ATOM     30  O7  HMN d   1      -4.626  42.282  52.190  0.00  0.00    -0.390 OA
ATOM     31  H15 HMN d   1      -5.138  42.299  52.990  0.00  0.00     0.210 HD
ENDBRANCH  19  30
ENDBRANCH  17  19
BRANCH  17  32
ATOM     32  O6  HMN d   1      -4.905  44.882  53.577  0.00  0.00    -0.391 OA
ATOM     33  H13 HMN d   1      -4.238  44.808  54.249  0.00  0.00     0.210 HD
ENDBRANCH  17  32
ENDBRANCH   1  17
BRANCH   1  34
ATOM     34  N2  HMN d   1      -4.685  44.848  49.886  0.00  0.00    -0.352 N 
ATOM     35  C10 HMN d   1      -4.806  43.790  49.084  0.00  0.00     0.214 C 
ATOM     36  O10 HMN d   1      -5.205  42.701  49.508  0.00  0.00    -0.274 OA
ATOM     37  H8  HMN d   1      -4.136  45.635  49.606  0.00  0.00     0.163 HD
BRANCH  35  38
ATOM     38  C11 HMN d   1      -4.432  43.916  47.616  0.00  0.00    -0.003 C 
ATOM     39  H9  HMN d   1      -4.595  42.952  47.112  0.00  0.00     0.040 H 
ATOM     40  H10 HMN d   1      -3.373  44.200  47.531  0.00  0.00     0.040 H 
ATOM     41  H11 HMN d   1      -5.058  44.687  47.143  0.00  0.00     0.040 H 
ENDBRANCH  35  38
ENDBRANCH   1  34
TORSDOF 16
