REMARK  14 active torsions:
REMARK  status: ('A' for Active; 'I' for Inactive)
REMARK    1  A    between atoms: C1_1  and  C2_4 
REMARK    2  A    between atoms: C2_4  and  C3_6 
REMARK    3  A    between atoms: C3_6  and  C4_7 
REMARK    4  A    between atoms: C4_7  and  C5_8 
REMARK    5  A    between atoms: C5_8  and  C6_14 
REMARK    6  A    between atoms: C5_8  and  N_9 
REMARK       I    between atoms: N_9  and  C10_10 
REMARK    7  A    between atoms: C10_10  and  C11_11 
REMARK    8  A    between atoms: C6_14  and  O6_13 
REMARK    9  A    between atoms: C6_14  and  C7_15 
REMARK   10  A    between atoms: C7_15  and  C8_17 
REMARK   11  A    between atoms: C7_15  and  O7_16 
REMARK   12  A    between atoms: C8_17  and  C9_19 
REMARK   13  A    between atoms: C8_17  and  O8_18 
REMARK   14  A    between atoms: C9_19  and  O9_20 
ROOT
ATOM      1  C5  NAY d   1       0.209  15.806  10.330  0.00  0.00     0.040 C 
ATOM      2  H5  NAY d   1      -0.523  15.802   9.509  0.00  0.00     0.076 H 
ENDROOT
BRANCH   1   3
ATOM      3  C4  NAY d   1       1.629  16.005   9.701  0.00  0.00    -0.037 C 
ATOM      4  H3  NAY d   1       2.064  16.949  10.061  0.00  0.00     0.036 H 
ATOM      5  H4  NAY d   1       2.282  15.167   9.988  0.00  0.00     0.036 H 
BRANCH   3   6
ATOM      6  C3  NAY d   1       1.484  16.052   8.121  0.00  0.00     0.003 C 
ATOM      7  H1  NAY d   1       0.486  15.675   7.854  0.00  0.00     0.045 H 
ATOM      8  H2  NAY d   1       1.579  17.099   7.796  0.00  0.00     0.045 H 
BRANCH   6   9
ATOM      9  C2  NAY d   1       2.534  15.215   7.370  0.00  0.00     0.225 C 
ATOM     10  O2  NAY d   1       3.768  15.195   7.544  0.00  0.00    -0.286 OA
BRANCH   9  11
ATOM     11  C1  NAY d   1       1.979  14.300   6.248  0.00  0.00     0.246 C 
ATOM     12  O1B NAY d   1       0.891  14.583   5.719  0.00  0.00    -0.642 OA
ATOM     13  O1A NAY d   1       2.717  13.341   5.970  0.00  0.00    -0.642 OA
ENDBRANCH   9  11
ENDBRANCH   6   9
ENDBRANCH   3   6
ENDBRANCH   1   3
BRANCH   1  14
ATOM     14  C6  NAY d   1      -0.174  16.955  11.334  0.00  0.00     0.082 C 
ATOM     15  H11 NAY d   1       0.548  16.992  12.163  0.00  0.00     0.090 H 
BRANCH  14  16
ATOM     16  O6  NAY d   1      -0.145  18.181  10.570  0.00  0.00    -0.391 OA
ATOM     17  H10 NAY d   1      -0.371  18.910  11.135  0.00  0.00     0.210 HD
ENDBRANCH  14  16
BRANCH  14  18
ATOM     18  C7  NAY d   1      -1.617  16.765  11.898  0.00  0.00     0.089 C 
ATOM     19  H12 NAY d   1      -1.639  15.872  12.540  0.00  0.00     0.091 H 
BRANCH  18  20
ATOM     20  C8  NAY d   1      -2.058  17.990  12.734  0.00  0.00     0.083 C 
ATOM     21  H14 NAY d   1      -2.178  18.850  12.058  0.00  0.00     0.090 H 
BRANCH  20  22
ATOM     22  C9  NAY d   1      -3.386  17.767  13.423  0.00  0.00     0.043 C 
ATOM     23  H16 NAY d   1      -4.135  17.488  12.668  0.00  0.00     0.078 H 
ATOM     24  H17 NAY d   1      -3.692  18.702  13.915  0.00  0.00     0.078 H 
BRANCH  22  25
ATOM     25  O9  NAY d   1      -3.314  16.729  14.408  0.00  0.00    -0.398 OA
ATOM     26  H18 NAY d   1      -3.056  15.915  13.991  0.00  0.00     0.209 HD
ENDBRANCH  22  25
ENDBRANCH  20  22
BRANCH  20  27
ATOM     27  O8  NAY d   1      -0.984  18.283  13.662  0.00  0.00    -0.391 OA
ATOM     28  H15 NAY d   1      -1.194  19.071  14.149  0.00  0.00     0.210 HD
ENDBRANCH  20  27
ENDBRANCH  18  20
BRANCH  18  29
ATOM     29  O7  NAY d   1      -2.503  16.578  10.799  0.00  0.00    -0.390 OA
ATOM     30  H13 NAY d   1      -2.491  17.352  10.249  0.00  0.00     0.210 HD
ENDBRANCH  18  29
ENDBRANCH  14  18
ENDBRANCH   1  14
BRANCH   1  31
ATOM     31  N   NAY d   1       0.113  14.513  11.061  0.00  0.00    -0.354 N 
ATOM     32  C10 NAY d   1      -0.971  13.735  10.958  0.00  0.00     0.214 C 
ATOM     33  O10 NAY d   1      -2.074  14.013  10.433  0.00  0.00    -0.274 OA
ATOM     34  H6  NAY d   1       0.874  14.220  11.640  0.00  0.00     0.162 HD
BRANCH  32  35
ATOM     35  C11 NAY d   1      -0.759  12.372  11.612  0.00  0.00    -0.003 C 
ATOM     36  H7  NAY d   1      -1.672  11.768  11.504  0.00  0.00     0.040 H 
ATOM     37  H8  NAY d   1      -0.534  12.509  12.680  0.00  0.00     0.040 H 
ATOM     38  H9  NAY d   1       0.081  11.857  11.123  0.00  0.00     0.040 H 
ENDBRANCH  32  35
ENDBRANCH   1  31
TORSDOF 14
