REMARK  10 active torsions:
REMARK  status: ('A' for Active; 'I' for Inactive)
REMARK    1  A    between atoms: C2_4  and  C1_1 
REMARK    2  A    between atoms: C4_6  and  N4_7 
REMARK    3  A    between atoms: C5_8  and  N5_9 
REMARK       I    between atoms: N5_9  and  C10_10 
REMARK    4  A    between atoms: C10_10  and  C11_12 
REMARK    5  A    between atoms: C6_13  and  C7_15 
REMARK    6  A    between atoms: C7_15  and  C8_17 
REMARK    7  A    between atoms: C7_15  and  O7_16 
REMARK    8  A    between atoms: C8_17  and  C9_19 
REMARK    9  A    between atoms: C8_17  and  O8_18 
REMARK   10  A    between atoms: C9_19  and  O9_20 
ROOT
ATOM      1  C2  4AM d   1      24.221  18.831  63.984  0.00  0.00     0.144 C 
ATOM      2  C3  4AM d   1      23.560  17.682  63.570  0.00  0.00    -0.033 C 
ATOM      3  C4  4AM d   1      24.201  16.643  62.604  0.00  0.00     0.141 C 
ATOM      4  C5  4AM d   1      25.731  16.704  62.689  0.00  0.00     0.070 C 
ATOM      5  C6  4AM d   1      26.199  18.192  62.595  0.00  0.00     0.094 C 
ATOM      6  O6  4AM d   1      25.590  18.982  63.686  0.00  0.00    -0.335 OA
ATOM      7  H1  4AM d   1      22.551  17.500  63.937  0.00  0.00     0.084 H 
ATOM      8  H2  4AM d   1      23.881  16.839  61.570  0.00  0.00     0.093 H 
ATOM      9  H6  4AM d   1      26.068  16.273  63.643  0.00  0.00     0.080 H 
ATOM     10  H11 4AM d   1      25.875  18.595  61.624  0.00  0.00     0.091 H 
ENDROOT
BRANCH   5  11
ATOM     11  C7  4AM d   1      27.765  18.364  62.724  0.00  0.00     0.089 C 
ATOM     12  H12 4AM d   1      28.275  17.767  61.954  0.00  0.00     0.091 H 
BRANCH  11  13
ATOM     13  C8  4AM d   1      28.125  19.850  62.553  0.00  0.00     0.083 C 
ATOM     14  H14 4AM d   1      27.576  20.424  63.314  0.00  0.00     0.090 H 
BRANCH  13  15
ATOM     15  C9  4AM d   1      29.627  20.130  62.732  0.00  0.00     0.043 C 
ATOM     16  H16 4AM d   1      29.917  19.848  63.755  0.00  0.00     0.078 H 
ATOM     17  H17 4AM d   1      29.803  21.206  62.585  0.00  0.00     0.078 H 
BRANCH  15  18
ATOM     18  O9  4AM d   1      30.430  19.415  61.824  0.00  0.00    -0.398 OA
ATOM     19  H18 4AM d   1      30.194  19.657  60.936  0.00  0.00     0.209 HD
ENDBRANCH  15  18
ENDBRANCH  13  15
BRANCH  13  20
ATOM     20  O8  4AM d   1      27.728  20.283  61.289  0.00  0.00    -0.391 OA
ATOM     21  H15 4AM d   1      27.892  21.215  61.209  0.00  0.00     0.210 HD
ENDBRANCH  13  20
ENDBRANCH  11  13
BRANCH  11  22
ATOM     22  O7  4AM d   1      28.162  17.913  64.043  0.00  0.00    -0.390 OA
ATOM     23  H13 4AM d   1      27.708  18.425  64.702  0.00  0.00     0.210 HD
ENDBRANCH  11  22
ENDBRANCH   5  11
BRANCH   4  24
ATOM     24  N5  4AM d   1      26.292  15.928  61.568  0.00  0.00    -0.352 N 
ATOM     25  C10 4AM d   1      26.950  14.793  61.773  0.00  0.00     0.214 C 
ATOM     26  O10 4AM d   1      27.152  14.330  62.895  0.00  0.00    -0.274 OA
ATOM     27  H7  4AM d   1      26.174  16.264  60.633  0.00  0.00     0.163 HD
BRANCH  25  28
ATOM     28  C11 4AM d   1      27.464  14.082  60.544  0.00  0.00    -0.003 C 
ATOM     29  H8  4AM d   1      27.987  13.162  60.844  0.00  0.00     0.040 H 
ATOM     30  H9  4AM d   1      28.160  14.740  60.004  0.00  0.00     0.040 H 
ATOM     31  H10 4AM d   1      26.619  13.826  59.888  0.00  0.00     0.040 H 
ENDBRANCH  25  28
ENDBRANCH   4  24
BRANCH   3  32
ATOM     32  N4  4AM d   1      23.739  15.323  63.039  0.00  0.00    -0.070 N 
ATOM     33  H3  4AM d   1      22.733  15.284  62.983  0.00  0.00     0.275 HD
ATOM     34  H4  4AM d   1      24.029  15.162  63.991  0.00  0.00     0.275 HD
ATOM     35  H5  4AM d   1      24.137  14.614  62.443  0.00  0.00     0.275 HD
ENDBRANCH   3  32
BRANCH   1  36
ATOM     36  C1  4AM d   1      23.622  19.843  64.731  0.00  0.00     0.233 C 
ATOM     37  O1B 4AM d   1      22.485  19.669  65.224  0.00  0.00    -0.642 OA
ATOM     38  O1A 4AM d   1      24.257  20.916  64.886  0.00  0.00    -0.642 OA
ENDBRANCH   1  36
TORSDOF 10
