REMARK  10 active torsions:
REMARK  status: ('A' for Active; 'I' for Inactive)
REMARK    1  A    between atoms: C1_1  and  C2_2 
REMARK    2  A    between atoms: C4_4  and  N4_15 
REMARK    3  A    between atoms: C5_5  and  N5_12 
REMARK    4  A    between atoms: C6_6  and  C7_7 
REMARK    5  A    between atoms: C7_7  and  O7_17 
REMARK    6  A    between atoms: C7_7  and  C8_8 
REMARK    7  A    between atoms: C8_8  and  O8_18 
REMARK    8  A    between atoms: C8_8  and  C9_9 
REMARK    9  A    between atoms: C9_9  and  N9_19 
REMARK       I    between atoms: N5_12  and  C10_10 
REMARK   10  A    between atoms: C10_10  and  C11_11 
ROOT
ATOM      1  C2  49A d   1      24.125  18.773  64.058  0.00  0.00     0.144 C 
ATOM      2  C3  49A d   1      23.452  17.649  63.622  0.00  0.00    -0.033 C 
ATOM      3  C4  49A d   1      24.113  16.652  62.649  0.00  0.00     0.141 C 
ATOM      4  C5  49A d   1      25.629  16.684  62.742  0.00  0.00     0.070 C 
ATOM      5  C6  49A d   1      26.079  18.169  62.685  0.00  0.00     0.094 C 
ATOM      6  O6  49A d   1      25.480  18.898  63.787  0.00  0.00    -0.335 OA
ATOM      7  H1  49A d   1      22.437  17.463  63.971  0.00  0.00     0.084 H 
ATOM      8  H2  49A d   1      23.805  16.890  61.620  0.00  0.00     0.093 H 
ATOM      9  H3  49A d   1      25.948  16.238  63.696  0.00  0.00     0.080 H 
ATOM     10  H4  49A d   1      25.735  18.593  61.730  0.00  0.00     0.091 H 
ENDROOT
BRANCH   5  11
ATOM     11  C7  49A d   1      27.642  18.386  62.800  0.00  0.00     0.089 C 
ATOM     12  H5  49A d   1      28.153  17.784  62.034  0.00  0.00     0.091 H 
BRANCH  11  13
ATOM     13  O7  49A d   1      28.111  17.978  64.102  0.00  0.00    -0.390 OA
ATOM     14  H16 49A d   1      27.676  18.494  64.770  0.00  0.00     0.210 HD
ENDBRANCH  11  13
BRANCH  11  15
ATOM     15  C8  49A d   1      27.927  19.871  62.551  0.00  0.00     0.085 C 
ATOM     16  H6  49A d   1      27.196  20.466  63.118  0.00  0.00     0.089 H 
BRANCH  15  17
ATOM     17  O8  49A d   1      27.780  20.139  61.189  0.00  0.00    -0.391 OA
ATOM     18  H17 49A d   1      27.955  21.059  61.028  0.00  0.00     0.210 HD
ENDBRANCH  15  17
BRANCH  15  19
ATOM     19  C9  49A d   1      29.333  20.282  62.992  0.00  0.00     0.105 C 
ATOM     20  H7  49A d   1      29.466  20.010  64.050  0.00  0.00     0.079 H 
ATOM     21  H8  49A d   1      29.436  21.371  62.878  0.00  0.00     0.079 H 
BRANCH  19  22
ATOM     22  N9  49A d   1      30.393  19.615  62.190  0.00  0.00    -0.077 N 
ATOM     23  H18 49A d   1      31.299  19.915  62.515  0.00  0.00     0.274 HD
ATOM     24  H19 49A d   1      30.285  19.863  61.219  0.00  0.00     0.274 HD
ATOM     25  H20 49A d   1      30.313  18.615  62.293  0.00  0.00     0.274 HD
ENDBRANCH  19  22
ENDBRANCH  15  19
ENDBRANCH  11  15
ENDBRANCH   5  11
BRANCH   4  26
ATOM     26  N5  49A d   1      26.237  15.927  61.627  0.00  0.00    -0.352 N 
ATOM     27  C10 49A d   1      26.963  14.826  61.803  0.00  0.00     0.214 C 
ATOM     28  O10 49A d   1      27.187  14.339  62.911  0.00  0.00    -0.274 OA
ATOM     29  H12 49A d   1      26.096  16.259  60.694  0.00  0.00     0.163 HD
BRANCH  27  30
ATOM     30  C11 49A d   1      27.506  14.184  60.553  0.00  0.00    -0.003 C 
ATOM     31  H9  49A d   1      28.085  13.289  60.823  0.00  0.00     0.040 H 
ATOM     32  H10 49A d   1      28.158  14.898  60.028  0.00  0.00     0.040 H 
ATOM     33  H11 49A d   1      26.672  13.897  59.896  0.00  0.00     0.040 H 
ENDBRANCH  27  30
ENDBRANCH   4  26
BRANCH   3  34
ATOM     34  N4  49A d   1      23.678  15.299  63.006  0.00  0.00    -0.070 N 
ATOM     35  H13 49A d   1      22.673  15.245  62.954  0.00  0.00     0.275 HD
ATOM     36  H14 49A d   1      23.978  15.086  63.945  0.00  0.00     0.275 HD
ATOM     37  H15 49A d   1      24.084  14.635  62.365  0.00  0.00     0.275 HD
ENDBRANCH   3  34
BRANCH   1  38
ATOM     38  C1  49A d   1      23.537  19.841  64.738  0.00  0.00     0.233 C 
ATOM     39  O1B 49A d   1      22.357  19.765  65.134  0.00  0.00    -0.642 OA
ATOM     40  O1A 49A d   1      24.241  20.858  64.927  0.00  0.00    -0.642 OA
ENDBRANCH   1  38
TORSDOF 10
