REMARK  10 active torsions:
REMARK  status: ('A' for Active; 'I' for Inactive)
REMARK    1  A    between atoms: C1_1  and  O1_2 
REMARK    2  A    between atoms: O1_2  and  P1_13 
REMARK    3  A    between atoms: C2_3  and  O2_4 
REMARK    4  A    between atoms: C3_5  and  O3_6 
REMARK    5  A    between atoms: O3_6  and  P3_17 
REMARK    6  A    between atoms: C4_7  and  O4_8 
REMARK    7  A    between atoms: O4_8  and  P4_21 
REMARK    8  A    between atoms: C5_9  and  O5_10 
REMARK    9  A    between atoms: O5_10  and  P5_25 
REMARK   10  A    between atoms: C6_11  and  O6_12 
ROOT
ATOM      1  C1  4IP d   1      25.928   6.544   8.243  0.00  0.00     0.106 C 
ATOM      2  C2  4IP d   1      24.941   7.092   9.260  0.00  0.00     0.091 C 
ATOM      3  C3  4IP d   1      24.045   5.975   9.751  0.00  0.00     0.106 C 
ATOM      4  C4  4IP d   1      24.845   4.864  10.426  0.00  0.00     0.107 C 
ATOM      5  C5  4IP d   1      26.002   4.349   9.572  0.00  0.00     0.106 C 
ATOM      6  C6  4IP d   1      26.796   5.444   8.848  0.00  0.00     0.091 C 
ATOM      7  H1  4IP d   1      25.362   6.120   7.401  0.00  0.00     0.092 H 
ATOM      8  H2  4IP d   1      24.326   7.870   8.785  0.00  0.00     0.091 H 
ATOM      9  H4  4IP d   1      23.523   5.544   8.883  0.00  0.00     0.092 H 
ATOM     10  H5  4IP d   1      25.267   5.273  11.356  0.00  0.00     0.092 H 
ATOM     11  H6  4IP d   1      25.574   3.692   8.800  0.00  0.00     0.092 H 
ATOM     12  H7  4IP d   1      27.468   5.912   9.583  0.00  0.00     0.091 H 
ENDROOT
BRANCH   1  13
ATOM     13  O1  4IP d   1      26.763   7.603   7.754  0.00  0.00    -0.272 OA
BRANCH  13  14
ATOM     14  P1  4IP d   1      26.381   8.417   6.398  0.00  0.00     0.422 P 
ATOM     15  OP3 4IP d   1      26.804   7.535   5.242  0.00  0.00    -0.617 OA
ATOM     16  OP2 4IP d   1      24.878   8.628   6.455  0.00  0.00    -0.617 OA
ATOM     17  OP1 4IP d   1      27.189   9.701   6.481  0.00  0.00    -0.617 OA
ENDBRANCH  13  14
ENDBRANCH   1  13
BRANCH   6  18
ATOM     18  O6  4IP d   1      27.583   4.855   7.821  0.00  0.00    -0.390 OA
ATOM     19  H8  4IP d   1      28.184   4.227   8.205  0.00  0.00     0.210 HD
ENDBRANCH   6  18
BRANCH   2  20
ATOM     20  O2  4IP d   1      25.641   7.655  10.360  0.00  0.00    -0.390 OA
ATOM     21  H3  4IP d   1      25.017   8.001  10.987  0.00  0.00     0.210 HD
ENDBRANCH   2  20
BRANCH   5  22
ATOM     22  O5  4IP d   1      26.883   3.566  10.391  0.00  0.00    -0.272 OA
BRANCH  22  23
ATOM     23  P5  4IP d   1      27.643   2.253   9.803  0.00  0.00     0.422 P 
ATOM     24  OP9 4IP d   1      28.809   2.797   8.993  0.00  0.00    -0.617 OA
ATOM     25  OP8 4IP d   1      26.609   1.520   8.961  0.00  0.00    -0.617 OA
ATOM     26  OP7 4IP d   1      28.064   1.483  11.042  0.00  0.00    -0.617 OA
ENDBRANCH  22  23
ENDBRANCH   5  22
BRANCH   3  27
ATOM     27  O3  4IP d   1      23.066   6.501  10.658  0.00  0.00    -0.272 OA
BRANCH  27  28
ATOM     28  P3  4IP d   1      21.483   6.359  10.330  0.00  0.00     0.422 P 
ATOM     29  O12 4IP d   1      21.228   4.856  10.269  0.00  0.00    -0.617 OA
ATOM     30  O11 4IP d   1      21.252   7.041   8.993  0.00  0.00    -0.617 OA
ATOM     31  O10 4IP d   1      20.763   7.013  11.496  0.00  0.00    -0.617 OA
ENDBRANCH  27  28
ENDBRANCH   3  27
BRANCH   4  32
ATOM     32  O4  4IP d   1      23.978   3.767  10.762  0.00  0.00    -0.272 OA
BRANCH  32  33
ATOM     33  P4  4IP d   1      23.502   3.496  12.294  0.00  0.00     0.422 P 
ATOM     34  OP6 4IP d   1      23.873   2.054  12.608  0.00  0.00    -0.617 OA
ATOM     35  OP5 4IP d   1      22.004   3.718  12.281  0.00  0.00    -0.617 OA
ATOM     36  OP4 4IP d   1      24.233   4.492  13.177  0.00  0.00    -0.617 OA
ENDBRANCH  32  33
ENDBRANCH   4  32
TORSDOF 10
