REMARK  8 active torsions:
REMARK  status: ('A' for Active; 'I' for Inactive)
REMARK    1  A    between atoms: C1_1  and  C2_2 
REMARK    2  A    between atoms: C16_9  and  C24_15 
REMARK    3  A    between atoms: C16_9  and  C23_14 
REMARK    4  A    between atoms: C19_12  and  C26_17 
REMARK    5  A    between atoms: C19_12  and  C25_16 
REMARK    6  A    between atoms: C7_21  and  C12_28 
REMARK    7  A    between atoms: C12_28  and  C13_24 
REMARK    8  A    between atoms: C12_28  and  O3_29 
ROOT
ATOM      1  C15 184 d   1      42.682  13.849  81.685  0.00  0.00    -0.043 A 
ATOM      2  C16 184 d   1      43.040  13.218  80.356  0.00  0.00    -0.020 C 
ATOM      3  C17 184 d   1      44.477  13.572  79.967  0.00  0.00    -0.054 C 
ATOM      4  C18 184 d   1      44.922  14.944  80.275  0.00  0.00    -0.054 C 
ATOM      5  C19 184 d   1      44.820  15.295  81.739  0.00  0.00    -0.020 C 
ATOM      6  C20 184 d   1      43.499  14.797  82.309  0.00  0.00    -0.043 A 
ATOM      7  C13 184 d   1      41.170  14.073  83.550  0.00  0.00    -0.025 A 
ATOM      8  C14 184 d   1      41.492  13.488  82.329  0.00  0.00    -0.067 A 
ATOM      9  C21 184 d   1      43.131  15.350  83.527  0.00  0.00    -0.075 A 
ATOM     10  C22 184 d   1      41.987  14.998  84.147  0.00  0.00    -0.073 A 
ATOM     11  H4  184 d   1      44.576  13.424  78.882  0.00  0.00     0.034 H 
ATOM     12  H5  184 d   1      45.147  12.877  80.494  0.00  0.00     0.034 H 
ATOM     13  H6  184 d   1      44.300  15.649  79.704  0.00  0.00     0.034 H 
ATOM     14  H7  184 d   1      45.972  15.047  79.965  0.00  0.00     0.034 H 
ATOM     15  H23 184 d   1      40.827  12.759  81.880  0.00  0.00     0.085 H 
ATOM     16  H24 184 d   1      43.780  16.084  83.992  0.00  0.00     0.084 H 
ATOM     17  H25 184 d   1      41.718  15.438  85.100  0.00  0.00     0.084 H 
ENDROOT
BRANCH   7  18
ATOM     18  C12 184 d   1      39.836  13.548  84.092  0.00  0.00     0.086 C 
ATOM     19  H26 184 d   1      39.292  13.136  83.229  0.00  0.00     0.098 H 
BRANCH  18  20
ATOM     20  C7  184 d   1      38.952  14.693  84.734  0.00  0.00    -0.024 A 
ATOM     21  C8  184 d   1      38.866  15.989  84.203  0.00  0.00    -0.073 A 
ATOM     22  C9  184 d   1      38.052  16.982  84.778  0.00  0.00    -0.072 A 
ATOM     23  H21 184 d   1      39.446  16.233  83.320  0.00  0.00     0.084 H 
ATOM     24  C10 184 d   1      37.292  16.666  85.917  0.00  0.00    -0.025 A 
ATOM     25  H22 184 d   1      38.012  17.977  84.349  0.00  0.00     0.084 H 
ATOM     26  C5  184 d   1      37.359  15.382  86.452  0.00  0.00    -0.025 A 
ATOM     27  C11 184 d   1      36.448  17.641  86.526  0.00  0.00    -0.056 A 
ATOM     28  C4  184 d   1      36.576  15.088  87.606  0.00  0.00    -0.071 A 
ATOM     29  C6  184 d   1      38.186  14.402  85.860  0.00  0.00    -0.063 A 
ATOM     30  C3  184 d   1      35.754  16.048  88.190  0.00  0.00    -0.066 A 
ATOM     31  H2  184 d   1      36.621  14.095  88.038  0.00  0.00     0.084 H 
ATOM     32  C2  184 d   1      35.688  17.362  87.637  0.00  0.00     0.041 A 
ATOM     33  H1  184 d   1      35.164  15.797  89.064  0.00  0.00     0.085 H 
ATOM     34  H20 184 d   1      38.225  13.407  86.289  0.00  0.00     0.085 H 
ATOM     35  H3  184 d   1      36.404  18.636  86.098  0.00  0.00     0.086 H 
BRANCH  32  36
ATOM     36  C1  184 d   1      34.812  18.302  88.310  0.00  0.00     0.209 C 
ATOM     37  O2  184 d   1      34.472  19.325  87.570  0.00  0.00    -0.644 OA
ATOM     38  O1  184 d   1      34.421  18.173  89.420  0.00  0.00    -0.644 OA
ENDBRANCH  32  36
ENDBRANCH  18  20
BRANCH  18  39
ATOM     39  O3  184 d   1      39.928  12.517  85.074  0.00  0.00    -0.386 OA
ATOM     40  H27 184 d   1      40.453  11.802  84.733  0.00  0.00     0.210 HD
ENDBRANCH  18  39
ENDBRANCH   7  18
BRANCH   2  41
ATOM     41  C24 184 d   1      43.055  11.687  80.424  0.00  0.00    -0.065 C 
ATOM     42  H11 184 d   1      42.055  11.322  80.700  0.00  0.00     0.028 H 
ATOM     43  H12 184 d   1      43.786  11.361  81.179  0.00  0.00     0.028 H 
ATOM     44  H13 184 d   1      43.335  11.279  79.442  0.00  0.00     0.028 H 
ENDBRANCH   2  41
BRANCH   2  45
ATOM     45  C23 184 d   1      42.023  13.660  79.305  0.00  0.00    -0.065 C 
ATOM     46  H8  184 d   1      41.011  13.382  79.634  0.00  0.00     0.028 H 
ATOM     47  H9  184 d   1      42.246  13.165  78.348  0.00  0.00     0.028 H 
ATOM     48  H10 184 d   1      42.080  14.751  79.176  0.00  0.00     0.028 H 
ENDBRANCH   2  45
BRANCH   5  49
ATOM     49  C26 184 d   1      45.995  14.861  82.660  0.00  0.00    -0.065 C 
ATOM     50  H17 184 d   1      46.024  13.763  82.724  0.00  0.00     0.028 H 
ATOM     51  H18 184 d   1      45.848  15.283  83.665  0.00  0.00     0.028 H 
ATOM     52  H19 184 d   1      46.944  15.229  82.242  0.00  0.00     0.028 H 
ENDBRANCH   5  49
BRANCH   5  53
ATOM     53  C25 184 d   1      44.816  16.822  81.678  0.00  0.00    -0.065 C 
ATOM     54  H14 184 d   1      44.744  17.230  82.697  0.00  0.00     0.028 H 
ATOM     55  H15 184 d   1      43.955  17.163  81.085  0.00  0.00     0.028 H 
ATOM     56  H16 184 d   1      45.746  17.173  81.208  0.00  0.00     0.028 H 
ENDBRANCH   5  53
TORSDOF 8
