REMARK  7 active torsions:
REMARK  status: ('A' for Active; 'I' for Inactive)
REMARK    1  A    between atoms: C1_1  and  C2_2 
REMARK    2  A    between atoms: C16_9  and  C24_15 
REMARK    3  A    between atoms: C16_9  and  C23_14 
REMARK    4  A    between atoms: C19_12  and  C26_17 
REMARK    5  A    between atoms: C19_12  and  C25_16 
REMARK    6  A    between atoms: C7_21  and  C12_28 
REMARK    7  A    between atoms: C12_28  and  C13_24 
ROOT
ATOM      1  C15 564 d   1      42.780  13.863  81.847  0.00  0.00    -0.042 A 
ATOM      2  C16 564 d   1      43.192  13.000  80.664  0.00  0.00    -0.020 C 
ATOM      3  C17 564 d   1      44.605  13.308  80.211  0.00  0.00    -0.054 C 
ATOM      4  C18 564 d   1      45.002  14.727  80.269  0.00  0.00    -0.054 C 
ATOM      5  C19 564 d   1      44.877  15.337  81.641  0.00  0.00    -0.020 C 
ATOM      6  C20 564 d   1      43.540  14.940  82.310  0.00  0.00    -0.043 A 
ATOM      7  C13 564 d   1      41.155  14.329  83.598  0.00  0.00     0.015 A 
ATOM      8  C14 564 d   1      41.588  13.566  82.499  0.00  0.00    -0.062 A 
ATOM      9  C21 564 d   1      43.115  15.696  83.400  0.00  0.00    -0.075 A 
ATOM     10  C22 564 d   1      41.966  15.378  84.003  0.00  0.00    -0.069 A 
ATOM     11  H4  564 d   1      44.706  12.972  79.169  0.00  0.00     0.034 H 
ATOM     12  H5  564 d   1      45.296  12.738  80.849  0.00  0.00     0.034 H 
ATOM     13  H6  564 d   1      44.362  15.295  79.577  0.00  0.00     0.034 H 
ATOM     14  H7  564 d   1      46.051  14.807  79.948  0.00  0.00     0.034 H 
ATOM     15  H23 564 d   1      40.984  12.734  82.155  0.00  0.00     0.085 H 
ATOM     16  H24 564 d   1      43.709  16.531  83.754  0.00  0.00     0.084 H 
ATOM     17  H25 564 d   1      41.651  15.972  84.854  0.00  0.00     0.085 H 
ENDROOT
BRANCH   7  18
ATOM     18  C12 564 d   1      39.917  13.991  84.245  0.00  0.00     0.192 C 
ATOM     19  O3  564 d   1      39.514  12.797  84.310  0.00  0.00    -0.287 OA
BRANCH  18  20
ATOM     20  C7  564 d   1      39.009  14.988  84.870  0.00  0.00     0.016 A 
ATOM     21  C8  564 d   1      38.887  16.313  84.390  0.00  0.00    -0.068 A 
ATOM     22  C9  564 d   1      38.031  17.234  84.956  0.00  0.00    -0.071 A 
ATOM     23  H21 564 d   1      39.491  16.617  83.543  0.00  0.00     0.085 H 
ATOM     24  C10 564 d   1      37.234  16.870  86.053  0.00  0.00    -0.025 A 
ATOM     25  H22 564 d   1      37.973  18.239  84.554  0.00  0.00     0.084 H 
ATOM     26  C5  564 d   1      37.313  15.574  86.559  0.00  0.00    -0.025 A 
ATOM     27  C11 564 d   1      36.356  17.805  86.630  0.00  0.00    -0.056 A 
ATOM     28  C4  564 d   1      36.506  15.212  87.669  0.00  0.00    -0.071 A 
ATOM     29  C6  564 d   1      38.200  14.650  85.949  0.00  0.00    -0.058 A 
ATOM     30  C3  564 d   1      35.622  16.112  88.253  0.00  0.00    -0.066 A 
ATOM     31  H2  564 d   1      36.581  14.208  88.072  0.00  0.00     0.084 H 
ATOM     32  C2  564 d   1      35.552  17.441  87.713  0.00  0.00     0.041 A 
ATOM     33  H1  564 d   1      35.002  15.819  89.093  0.00  0.00     0.085 H 
ATOM     34  H20 564 d   1      38.249  13.640  86.340  0.00  0.00     0.086 H 
ATOM     35  H3  564 d   1      36.303  18.812  86.233  0.00  0.00     0.086 H 
BRANCH  32  36
ATOM     36  C1  564 d   1      34.633  18.379  88.337  0.00  0.00     0.209 C 
ATOM     37  O2  564 d   1      34.340  19.452  87.662  0.00  0.00    -0.644 OA
ATOM     38  O1  564 d   1      34.188  18.116  89.416  0.00  0.00    -0.644 OA
ENDBRANCH  32  36
ENDBRANCH  18  20
ENDBRANCH   7  18
BRANCH   2  39
ATOM     39  C24 564 d   1      43.164  11.534  81.031  0.00  0.00    -0.065 C 
ATOM     40  H11 564 d   1      42.154  11.260  81.368  0.00  0.00     0.028 H 
ATOM     41  H12 564 d   1      43.885  11.345  81.840  0.00  0.00     0.028 H 
ATOM     42  H13 564 d   1      43.433  10.931  80.152  0.00  0.00     0.028 H 
ENDBRANCH   2  39
BRANCH   2  43
ATOM     43  C23 564 d   1      42.211  13.296  79.520  0.00  0.00    -0.065 C 
ATOM     44  H8  564 d   1      41.186  13.072  79.849  0.00  0.00     0.028 H 
ATOM     45  H9  564 d   1      42.462  12.670  78.651  0.00  0.00     0.028 H 
ATOM     46  H10 564 d   1      42.283  14.357  79.241  0.00  0.00     0.028 H 
ENDBRANCH   2  43
BRANCH   5  47
ATOM     47  C26 564 d   1      46.030  15.021  82.606  0.00  0.00    -0.065 C 
ATOM     48  H17 564 d   1      46.039  13.943  82.826  0.00  0.00     0.028 H 
ATOM     49  H18 564 d   1      45.891  15.585  83.540  0.00  0.00     0.028 H 
ATOM     50  H19 564 d   1      46.985  15.308  82.143  0.00  0.00     0.028 H 
ENDBRANCH   5  47
BRANCH   5  51
ATOM     51  C25 564 d   1      44.857  16.825  81.331  0.00  0.00    -0.065 C 
ATOM     52  H14 564 d   1      44.767  17.394  82.268  0.00  0.00     0.028 H 
ATOM     53  H15 564 d   1      44.000  17.053  80.680  0.00  0.00     0.028 H 
ATOM     54  H16 564 d   1      45.790  17.106  80.820  0.00  0.00     0.028 H 
ENDBRANCH   5  51
TORSDOF 7
