REMARK  8 active torsions:
REMARK  status: ('A' for Active; 'I' for Inactive)
REMARK    1  A    between atoms: C1_1  and  C2_2 
REMARK    2  A    between atoms: C16_9  and  C24_15 
REMARK    3  A    between atoms: C16_9  and  C23_14 
REMARK    4  A    between atoms: C19_12  and  C26_17 
REMARK    5  A    between atoms: C19_12  and  C25_16 
REMARK    6  A    between atoms: C7_21  and  C12_28 
REMARK    7  A    between atoms: C12_28  and  C13_24 
REMARK    8  A    between atoms: N1_29  and  O3_30 
ROOT
ATOM      1  C15 254 d   1      42.834  14.103  82.050  0.00  0.00    -0.042 A 
ATOM      2  C16 254 d   1      43.238  13.371  80.771  0.00  0.00    -0.020 C 
ATOM      3  C17 254 d   1      44.668  13.745  80.347  0.00  0.00    -0.054 C 
ATOM      4  C18 254 d   1      44.987  15.189  80.483  0.00  0.00    -0.054 C 
ATOM      5  C19 254 d   1      44.875  15.698  81.934  0.00  0.00    -0.020 C 
ATOM      6  C20 254 d   1      43.602  15.170  82.571  0.00  0.00    -0.043 A 
ATOM      7  C13 254 d   1      41.303  14.398  83.943  0.00  0.00    -0.004 A 
ATOM      8  C14 254 d   1      41.695  13.734  82.751  0.00  0.00    -0.063 A 
ATOM      9  C21 254 d   1      43.192  15.804  83.747  0.00  0.00    -0.075 A 
ATOM     10  C22 254 d   1      42.087  15.427  84.409  0.00  0.00    -0.070 A 
ATOM     11  H4  254 d   1      44.800  13.461  79.293  0.00  0.00     0.034 H 
ATOM     12  H5  254 d   1      45.373  13.176  80.972  0.00  0.00     0.034 H 
ATOM     13  H6  254 d   1      44.289  15.763  79.856  0.00  0.00     0.034 H 
ATOM     14  H7  254 d   1      46.016  15.355  80.132  0.00  0.00     0.034 H 
ATOM     15  H23 254 d   1      41.088  12.917  82.379  0.00  0.00     0.085 H 
ATOM     16  H24 254 d   1      43.784  16.625  84.136  0.00  0.00     0.084 H 
ATOM     17  H25 254 d   1      41.809  15.940  85.323  0.00  0.00     0.084 H 
ENDROOT
BRANCH   7  18
ATOM     18  C12 254 d   1      40.098  13.898  84.546  0.00  0.00     0.104 C 
ATOM     19  N1  254 d   1      39.929  12.575  84.477  0.00  0.00    -0.135 NA
BRANCH  18  20
ATOM     20  C7  254 d   1      39.098  14.797  85.208  0.00  0.00    -0.004 A 
ATOM     21  C8  254 d   1      38.940  16.113  84.706  0.00  0.00    -0.070 A 
ATOM     22  C9  254 d   1      38.080  17.057  85.176  0.00  0.00    -0.071 A 
ATOM     23  H21 254 d   1      39.565  16.395  83.866  0.00  0.00     0.084 H 
ATOM     24  C10 254 d   1      37.245  16.727  86.260  0.00  0.00    -0.025 A 
ATOM     25  H22 254 d   1      38.039  18.042  84.725  0.00  0.00     0.084 H 
ATOM     26  C5  254 d   1      37.345  15.423  86.808  0.00  0.00    -0.025 A 
ATOM     27  C11 254 d   1      36.327  17.640  86.801  0.00  0.00    -0.056 A 
ATOM     28  C4  254 d   1      36.513  15.079  87.892  0.00  0.00    -0.071 A 
ATOM     29  C6  254 d   1      38.261  14.485  86.271  0.00  0.00    -0.060 A 
ATOM     30  C3  254 d   1      35.597  15.969  88.440  0.00  0.00    -0.066 A 
ATOM     31  H2  254 d   1      36.590  14.084  88.314  0.00  0.00     0.084 H 
ATOM     32  C2  254 d   1      35.505  17.284  87.874  0.00  0.00     0.041 A 
ATOM     33  H1  254 d   1      34.968  15.677  89.273  0.00  0.00     0.085 H 
ATOM     34  H20 254 d   1      38.310  13.492  86.704  0.00  0.00     0.086 H 
ATOM     35  H3  254 d   1      36.254  18.636  86.380  0.00  0.00     0.086 H 
BRANCH  32  36
ATOM     36  C1  254 d   1      34.529  18.207  88.474  0.00  0.00     0.209 C 
ATOM     37  O2  254 d   1      34.344  19.301  87.849  0.00  0.00    -0.644 OA
ATOM     38  O1  254 d   1      33.946  17.899  89.496  0.00  0.00    -0.644 OA
ENDBRANCH  32  36
ENDBRANCH  18  20
BRANCH  19  39
ATOM     39  O3  254 d   1      38.816  12.006  85.015  0.00  0.00    -0.266 OA
ATOM     40  H26 254 d   1      38.044  12.361  84.591  0.00  0.00     0.247 HD
ENDBRANCH  19  39
ENDBRANCH   7  18
BRANCH   2  41
ATOM     41  C24 254 d   1      43.218  11.857  81.048  0.00  0.00    -0.065 C 
ATOM     42  H11 254 d   1      42.206  11.554  81.355  0.00  0.00     0.028 H 
ATOM     43  H12 254 d   1      43.931  11.622  81.852  0.00  0.00     0.028 H 
ATOM     44  H13 254 d   1      43.502  11.313  80.135  0.00  0.00     0.028 H 
ENDBRANCH   2  41
BRANCH   2  45
ATOM     45  C23 254 d   1      42.253  13.700  79.671  0.00  0.00    -0.065 C 
ATOM     46  H8  254 d   1      41.238  13.425  79.994  0.00  0.00     0.028 H 
ATOM     47  H9  254 d   1      42.515  13.136  78.764  0.00  0.00     0.028 H 
ATOM     48  H10 254 d   1      42.290  14.778  79.456  0.00  0.00     0.028 H 
ENDBRANCH   2  45
BRANCH   5  49
ATOM     49  C26 254 d   1      46.092  15.397  82.823  0.00  0.00    -0.065 C 
ATOM     50  H17 254 d   1      46.185  14.310  82.961  0.00  0.00     0.028 H 
ATOM     51  H18 254 d   1      45.959  15.880  83.802  0.00  0.00     0.028 H 
ATOM     52  H19 254 d   1      47.002  15.785  82.343  0.00  0.00     0.028 H 
ENDBRANCH   5  49
BRANCH   5  53
ATOM     53  C25 254 d   1      44.761  17.223  81.753  0.00  0.00    -0.065 C 
ATOM     54  H14 254 d   1      44.674  17.704  82.739  0.00  0.00     0.028 H 
ATOM     55  H15 254 d   1      43.870  17.455  81.152  0.00  0.00     0.028 H 
ATOM     56  H16 254 d   1      45.658  17.599  81.239  0.00  0.00     0.028 H 
ENDBRANCH   5  53
TORSDOF 8
