REMARK  7 active torsions:
REMARK  status: ('A' for Active; 'I' for Inactive)
REMARK    1  A    between atoms: O4_16  and  C1_1 
REMARK    2  A    between atoms: C2_2  and  O2_6 
REMARK    3  A    between atoms: C3_3  and  O3_7 
REMARK    4  A    between atoms: C4_4  and  O4_8 
REMARK    5  A    between atoms: C2_11  and  O2_12 
REMARK    6  A    between atoms: C3_13  and  O3_14 
REMARK    7  A    between atoms: O4_16  and  C4_15 
ROOT
ATOM      1  H10 XYP d   1      20.643  68.811  34.980  0.00  0.00     0.079 H 
ATOM      2  H11 XYP d   1      21.536  67.599  35.960  0.00  0.00     0.079 H 
ATOM      3  H12 XYP d   1      19.332  69.407  36.739  0.00  0.00     0.089 H 
ATOM      4  H14 XYP d   1      20.594  67.390  38.625  0.00  0.00     0.091 H 
ATOM      5  H16 XYP d   1      17.778  67.417  37.379  0.00  0.00     0.090 H 
ATOM      6  H17 XYP d   1      18.555  65.460  36.040  0.00  0.00     0.079 H 
ATOM      7  H18 XYP d   1      20.196  65.601  36.756  0.00  0.00     0.079 H 
ATOM      8  H19 XYP d   1      20.091  66.595  34.644  0.00  0.00     0.277 HD
ATOM      9  H20 XYP d   1      18.834  67.564  35.081  0.00  0.00     0.277 HD
ATOM     10  C1  XDN d   1      20.560  68.080  35.798  0.00  0.00     0.107 C 
ATOM     11  C2  XDN d   1      20.213  68.811  37.019  0.00  0.00     0.086 C 
ATOM     12  C3  XDN d   1      19.732  67.920  38.195  0.00  0.00     0.088 C 
ATOM     13  C4  XDN d   1      18.704  66.900  37.670  0.00  0.00     0.091 C 
ATOM     14  C5  XDN d   1      19.303  66.160  36.441  0.00  0.00     0.108 C 
ATOM     15  N5  XDN d   1      19.674  67.109  35.404  0.00  0.00    -0.070 N 
ENDROOT
BRANCH  13  16
ATOM     16  O4  XDN d   1      18.429  65.956  38.696  0.00  0.00    -0.349 OA
BRANCH  16  17
ATOM     17  C1  XYP d   1      17.122  65.379  38.506  0.00  0.00     0.158 C 
ATOM     18  O5  XYP d   1      16.133  66.411  38.521  0.00  0.00    -0.356 OA
ATOM     19  C5  XYP d   1      14.799  65.916  38.355  0.00  0.00     0.049 C 
ATOM     20  C4  XYP d   1      14.453  65.035  39.562  0.00  0.00     0.083 C 
ATOM     21  H5  XYP d   1      14.095  66.759  38.297  0.00  0.00     0.078 H 
ATOM     22  H6  XYP d   1      14.736  65.322  37.432  0.00  0.00     0.078 H 
ATOM     23  C3  XYP d   1      15.411  63.856  39.612  0.00  0.00     0.091 C 
ATOM     24  H4  XYP d   1      14.564  65.630  40.480  0.00  0.00     0.090 H 
ATOM     25  C2  XYP d   1      16.866  64.370  39.642  0.00  0.00     0.110 C 
ATOM     26  H3  XYP d   1      15.264  63.226  38.722  0.00  0.00     0.091 H 
ATOM     27  H2  XYP d   1      17.061  64.854  40.610  0.00  0.00     0.094 H 
ATOM     28  H1  XYP d   1      17.086  64.858  37.538  0.00  0.00     0.133 H 
BRANCH  20  29
ATOM     29  O4  XYP d   1      13.110  64.559  39.482  0.00  0.00    -0.391 OA
ATOM     30  H9  XYP d   1      13.007  64.035  38.696  0.00  0.00     0.210 HD
ENDBRANCH  20  29
BRANCH  23  31
ATOM     31  O3  XYP d   1      15.152  63.091  40.784  0.00  0.00    -0.390 OA
ATOM     32  H8  XYP d   1      14.256  62.776  40.763  0.00  0.00     0.210 HD
ENDBRANCH  23  31
BRANCH  25  33
ATOM     33  O2  XYP d   1      17.744  63.264  39.470  0.00  0.00    -0.388 OA
ATOM     34  H7  XYP d   1      17.597  62.633  40.165  0.00  0.00     0.210 HD
ENDBRANCH  25  33
ENDBRANCH  16  17
ENDBRANCH  13  16
BRANCH  12  35
ATOM     35  O3  XDN d   1      19.113  68.708  39.201  0.00  0.00    -0.390 OA
ATOM     36  H15 XYP d   1      19.737  69.342  39.534  0.00  0.00     0.210 HD
ENDBRANCH  12  35
BRANCH  11  37
ATOM     37  O2  XDN d   1      21.155  69.740  37.421  0.00  0.00    -0.391 OA
ATOM     38  H13 XYP d   1      21.910  69.289  37.779  0.00  0.00     0.210 HD
ENDBRANCH  11  37
TORSDOF 7
