REMARK  6 active torsions:
REMARK  status: ('A' for Active; 'I' for Inactive)
REMARK    1  A    between atoms: O4_15  and  C1_1 
REMARK    2  A    between atoms: C2_2  and  O2_6 
REMARK    3  A    between atoms: C3_3  and  O3_7 
REMARK    4  A    between atoms: C4_4  and  O4_8 
REMARK    5  A    between atoms: C3_12  and  O3_13 
REMARK    6  A    between atoms: O4_15  and  C4_14 
ROOT
ATOM      1  O4  XIF d   1     -63.206  18.275  57.489  0.00  0.00    -0.351 OA
ENDROOT
BRANCH   1   2
ATOM      2  C4  XIF d   1     -63.976  18.583  56.335  0.00  0.00     0.069 C 
ATOM      3  C3  XIF d   1     -65.079  19.582  56.760  0.00  0.00     0.083 C 
ATOM      4  C2  XIF d   1     -65.952  19.943  55.511  0.00  0.00     0.107 C 
ATOM      5  H14 XYP d   1     -64.594  20.500  57.124  0.00  0.00     0.089 H 
ATOM      6  N1  XIF d   1     -65.007  20.466  54.473  0.00  0.00    -0.073 N 
ATOM      7  H12 XYP d   1     -66.470  19.048  55.137  0.00  0.00     0.079 H 
ATOM      8  H13 XYP d   1     -66.693  20.713  55.774  0.00  0.00     0.079 H 
ATOM      9  C6  XIF d   1     -64.045  19.472  54.061  0.00  0.00     0.084 C 
ATOM     10  H10 XYP d   1     -65.538  20.757  53.667  0.00  0.00     0.277 HD
ATOM     11  H11 XYP d   1     -64.513  21.258  54.853  0.00  0.00     0.277 HD
ATOM     12  C5  XIF d   1     -63.118  19.178  55.202  0.00  0.00    -0.016 C 
ATOM     13  H19 XYP d   1     -63.467  19.852  53.206  0.00  0.00     0.075 H 
ATOM     14  H20 XYP d   1     -64.570  18.551  53.768  0.00  0.00     0.075 H 
ATOM     15  H17 XYP d   1     -62.351  18.455  54.889  0.00  0.00     0.039 H 
ATOM     16  H18 XYP d   1     -62.632  20.104  55.542  0.00  0.00     0.039 H 
ATOM     17  H16 XYP d   1     -64.446  17.660  55.964  0.00  0.00     0.087 H 
BRANCH   3  18
ATOM     18  O3  XIF d   1     -65.880  19.061  57.814  0.00  0.00    -0.391 OA
ATOM     19  H15 XYP d   1     -66.545  19.698  58.049  0.00  0.00     0.210 HD
ENDBRANCH   3  18
ENDBRANCH   1   2
BRANCH   1  20
ATOM     20  C1  XYP d   1     -62.584  16.981  57.362  0.00  0.00     0.158 C 
ATOM     21  O5  XYP d   1     -63.604  15.979  57.472  0.00  0.00    -0.356 OA
ATOM     22  C5  XYP d   1     -63.067  14.655  57.298  0.00  0.00     0.049 C 
ATOM     23  C4  XYP d   1     -62.083  14.344  58.422  0.00  0.00     0.083 C 
ATOM     24  H5  XYP d   1     -63.888  13.923  57.318  0.00  0.00     0.078 H 
ATOM     25  H6  XYP d   1     -62.547  14.596  56.331  0.00  0.00     0.078 H 
ATOM     26  C3  XYP d   1     -60.954  15.392  58.470  0.00  0.00     0.091 C 
ATOM     27  H4  XYP d   1     -62.625  14.374  59.379  0.00  0.00     0.090 H 
ATOM     28  C2  XYP d   1     -61.523  16.809  58.466  0.00  0.00     0.110 C 
ATOM     29  H3  XYP d   1     -60.306  15.263  57.591  0.00  0.00     0.091 H 
ATOM     30  H2  XYP d   1     -61.999  16.997  59.440  0.00  0.00     0.094 H 
ATOM     31  H1  XYP d   1     -62.097  16.900  56.379  0.00  0.00     0.133 H 
BRANCH  23  32
ATOM     32  O4  XYP d   1     -61.543  13.035  58.246  0.00  0.00    -0.391 OA
ATOM     33  H9  XYP d   1     -62.251  12.402  58.219  0.00  0.00     0.210 HD
ENDBRANCH  23  32
BRANCH  26  34
ATOM     34  O3  XYP d   1     -60.192  15.195  59.652  0.00  0.00    -0.390 OA
ATOM     35  H8  XYP d   1     -59.837  14.314  59.656  0.00  0.00     0.210 HD
ENDBRANCH  26  34
BRANCH  28  36
ATOM     36  O2  XYP d   1     -60.471  17.751  58.281  0.00  0.00    -0.388 OA
ATOM     37  H7  XYP d   1     -59.822  17.638  58.965  0.00  0.00     0.210 HD
ENDBRANCH  28  36
ENDBRANCH   1  20
TORSDOF 6
