REMARK  8 active torsions:
REMARK  status: ('A' for Active; 'I' for Inactive)
REMARK    1  A    between atoms: O4_20  and  C1_1 
REMARK    2  A    between atoms: C2_2  and  O2_6 
REMARK    3  A    between atoms: C3_3  and  O3_7 
REMARK    4  A    between atoms: C4_4  and  O4_8 
REMARK    5  A    between atoms: C2_11  and  O2_18 
REMARK    6  A    between atoms: C3_12  and  O3_19 
REMARK    7  A    between atoms: O4_20  and  C4_13 
REMARK    8  A    between atoms: N2_17  and  O22_16 
ROOT
ATOM      1  H10 XYP d   1      19.248  69.615  36.811  0.00  0.00     0.099 H 
ATOM      2  H11 XYP d   1      20.708  67.513  38.521  0.00  0.00     0.091 H 
ATOM      3  H12 XYP d   1      17.890  67.370  37.313  0.00  0.00     0.090 H 
ATOM      4  H13 XYP d   1      18.693  65.170  36.434  0.00  0.00     0.068 H 
ATOM      5  H14 XYP d   1      20.268  65.382  37.271  0.00  0.00     0.068 H 
ATOM      6  H15 XYP d   1      20.032  66.231  34.738  0.00  0.00     0.161 HD
ATOM      7  C1  LOX d   1      20.284  68.092  35.637  0.00  0.00     0.158 C 
ATOM      8  C2  LOX d   1      20.108  68.945  36.963  0.00  0.00     0.121 C 
ATOM      9  C3  LOX d   1      19.776  67.994  38.189  0.00  0.00     0.093 C 
ATOM     10  C4  LOX d   1      18.768  66.901  37.782  0.00  0.00     0.084 C 
ATOM     11  C5  LOX d   1      19.432  65.906  36.785  0.00  0.00     0.020 C 
ATOM     12  N1  LOX d   1      19.932  66.724  35.637  0.00  0.00    -0.372 N 
ATOM     13  N2  LOX d   1      20.774  68.606  34.516  0.00  0.00    -0.120 NA
ENDROOT
BRANCH  10  14
ATOM     14  O4  LOX d   1      18.366  66.161  38.928  0.00  0.00    -0.349 OA
BRANCH  14  15
ATOM     15  C1  XYP d   1      17.024  65.654  38.772  0.00  0.00     0.158 C 
ATOM     16  O5  XYP d   1      16.109  66.756  38.864  0.00  0.00    -0.356 OA
ATOM     17  C5  XYP d   1      14.730  66.348  38.716  0.00  0.00     0.049 C 
ATOM     18  C4  XYP d   1      14.345  65.382  39.841  0.00  0.00     0.083 C 
ATOM     19  H5  XYP d   1      14.081  67.235  38.760  0.00  0.00     0.078 H 
ATOM     20  H6  XYP d   1      14.601  65.847  37.745  0.00  0.00     0.078 H 
ATOM     21  C3  XYP d   1      15.293  64.180  39.851  0.00  0.00     0.091 C 
ATOM     22  H4  XYP d   1      14.419  65.906  40.805  0.00  0.00     0.090 H 
ATOM     23  C2  XYP d   1      16.750  64.645  39.889  0.00  0.00     0.110 C 
ATOM     24  H3  XYP d   1      15.129  63.585  38.940  0.00  0.00     0.091 H 
ATOM     25  H2  XYP d   1      16.947  65.123  40.860  0.00  0.00     0.094 H 
ATOM     26  H1  XYP d   1      16.917  65.163  37.794  0.00  0.00     0.133 H 
BRANCH  18  27
ATOM     27  O4  XYP d   1      13.008  64.933  39.655  0.00  0.00    -0.391 OA
ATOM     28  H9  XYP d   1      12.942  64.471  38.827  0.00  0.00     0.210 HD
ENDBRANCH  18  27
BRANCH  21  29
ATOM     29  O3  XYP d   1      15.025  63.377  40.991  0.00  0.00    -0.390 OA
ATOM     30  H8  XYP d   1      14.120  63.088  40.968  0.00  0.00     0.210 HD
ENDBRANCH  21  29
BRANCH  23  31
ATOM     31  O2  XYP d   1      17.614  63.528  39.734  0.00  0.00    -0.388 OA
ATOM     32  H7  XYP d   1      17.445  62.900  40.427  0.00  0.00     0.210 HD
ENDBRANCH  23  31
ENDBRANCH  14  15
ENDBRANCH  10  14
BRANCH   9  33
ATOM     33  O3  LOX d   1      19.228  68.749  39.279  0.00  0.00    -0.390 OA
ATOM     34  H18 XYP d   1      19.858  69.403  39.558  0.00  0.00     0.210 HD
ENDBRANCH   9  33
BRANCH   8  35
ATOM     35  O2  LOX d   1      21.212  69.745  37.252  0.00  0.00    -0.385 OA
ATOM     36  H17 XYP d   1      21.979  69.196  37.363  0.00  0.00     0.210 HD
ENDBRANCH   8  35
BRANCH  13  37
ATOM     37  O22 LOX d   1      20.896  67.693  33.538  0.00  0.00    -0.265 OA
ATOM     38  H16 XYP d   1      20.043  67.325  33.342  0.00  0.00     0.247 HD
ENDBRANCH  13  37
TORSDOF 8
