REMARK  7 active torsions:
REMARK  status: ('A' for Active; 'I' for Inactive)
REMARK    1  A    between atoms: O4_21  and  C1_1 
REMARK    2  A    between atoms: C2_2  and  O2_6 
REMARK    3  A    between atoms: C3_3  and  O3_7 
REMARK    4  A    between atoms: C4_4  and  O4_8 
REMARK    5  A    between atoms: C2_11  and  O2_19 
REMARK    6  A    between atoms: C3_12  and  O3_20 
REMARK    7  A    between atoms: O4_21  and  C4_13 
ROOT
ATOM      1  H10 XYP d   1     -66.501  18.886  55.219  0.00  0.00     0.099 H 
ATOM      2  H11 XYP d   1     -64.360  20.503  56.665  0.00  0.00     0.091 H 
ATOM      3  H12 XYP d   1     -64.182  17.584  55.760  0.00  0.00     0.090 H 
ATOM      4  H13 XYP d   1     -62.046  18.280  54.713  0.00  0.00     0.069 H 
ATOM      5  H14 XYP d   1     -62.250  19.951  55.339  0.00  0.00     0.069 H 
ATOM      6  H15 XYP d   1     -62.346  19.238  52.111  0.00  0.00     0.113 H 
ATOM      7  H16 XYP d   1     -64.469  19.866  50.744  0.00  0.00     0.117 H 
ATOM      8  C1  XIM d   1     -64.977  19.679  53.893  0.00  0.00     0.137 A 
ATOM      9  C2  XIM d   1     -65.795  19.730  55.236  0.00  0.00     0.119 C 
ATOM     10  C3  XIM d   1     -64.827  19.536  56.428  0.00  0.00     0.093 C 
ATOM     11  C4  XIM d   1     -63.719  18.524  56.095  0.00  0.00     0.085 C 
ATOM     12  C5  XIM d   1     -62.779  19.051  54.993  0.00  0.00     0.027 C 
ATOM     13  N1  XIM d   1     -63.624  19.365  53.880  0.00  0.00    -0.339 N 
ATOM     14  C17 XIM d   1     -63.329  19.426  52.539  0.00  0.00    -0.002 A 
ATOM     15  C18 XIM d   1     -64.429  19.752  51.826  0.00  0.00     0.019 A 
ATOM     16  N21 XIM d   1     -65.462  19.912  52.661  0.00  0.00    -0.243 NA
ENDROOT
BRANCH  11  17
ATOM     17  O4  XIM d   1     -62.937  18.288  57.248  0.00  0.00    -0.349 OA
BRANCH  17  18
ATOM     18  C1  XYP d   1     -62.340  16.976  57.164  0.00  0.00     0.158 C 
ATOM     19  O5  XYP d   1     -63.376  15.988  57.257  0.00  0.00    -0.356 OA
ATOM     20  C5  XYP d   1     -62.866  14.649  57.097  0.00  0.00     0.049 C 
ATOM     21  C4  XYP d   1     -61.905  14.328  58.245  0.00  0.00     0.083 C 
ATOM     22  H5  XYP d   1     -63.702  13.934  57.108  0.00  0.00     0.078 H 
ATOM     23  H6  XYP d   1     -62.331  14.572  56.139  0.00  0.00     0.078 H 
ATOM     24  C3  XYP d   1     -60.770  15.361  58.297  0.00  0.00     0.091 C 
ATOM     25  H4  XYP d   1     -62.461  14.366  59.194  0.00  0.00     0.090 H 
ATOM     26  C2  XYP d   1     -61.324  16.796  58.288  0.00  0.00     0.110 C 
ATOM     27  H3  XYP d   1     -60.118  15.223  57.422  0.00  0.00     0.091 H 
ATOM     28  H2  XYP d   1     -61.813  16.996  59.252  0.00  0.00     0.094 H 
ATOM     29  H1  XYP d   1     -61.826  16.871  56.197  0.00  0.00     0.133 H 
BRANCH  21  30
ATOM     30  O4  XYP d   1     -61.373  13.020  58.077  0.00  0.00    -0.391 OA
ATOM     31  H9  XYP d   1     -62.085  12.391  58.046  0.00  0.00     0.210 HD
ENDBRANCH  21  30
BRANCH  24  32
ATOM     32  O3  XYP d   1     -60.017  15.162  59.483  0.00  0.00    -0.390 OA
ATOM     33  H8  XYP d   1     -60.578  15.294  60.239  0.00  0.00     0.210 HD
ENDBRANCH  24  32
BRANCH  26  34
ATOM     34  O2  XYP d   1     -60.262  17.720  58.098  0.00  0.00    -0.388 OA
ATOM     35  H7  XYP d   1     -59.624  17.615  58.794  0.00  0.00     0.210 HD
ENDBRANCH  26  34
ENDBRANCH  17  18
ENDBRANCH  11  17
BRANCH  10  36
ATOM     36  O3  XIM d   1     -65.556  19.087  57.552  0.00  0.00    -0.390 OA
ATOM     37  H18 XYP d   1     -66.216  19.732  57.779  0.00  0.00     0.210 HD
ENDBRANCH  10  36
BRANCH   9  38
ATOM     38  O2  XIM d   1     -66.553  20.904  55.446  0.00  0.00    -0.385 OA
ATOM     39  H17 XYP d   1     -65.973  21.656  55.458  0.00  0.00     0.210 HD
ENDBRANCH   9  38
TORSDOF 7
