REMARK  13 active torsions:
REMARK  status: ('A' for Active; 'I' for Inactive)
REMARK    1  A    between atoms: C2_2  and  N31_31 
REMARK    2  A    between atoms: C4_4  and  O2_18 
REMARK    3  A    between atoms: C6_6  and  O1_8 
REMARK    4  A    between atoms: C16_14  and  O11_7 
REMARK    5  A    between atoms: O1_8  and  C11_9 
REMARK    6  A    between atoms: C13_11  and  C17_15 
REMARK    7  A    between atoms: C17_15  and  N11_16 
REMARK    8  A    between atoms: O2_18  and  C21_19 
REMARK    9  A    between atoms: C25_23  and  C27_25 
REMARK   10  A    between atoms: N21_26  and  C30_27 
REMARK   11  A    between atoms: N31_31  and  C36_36 
REMARK   12  A    between atoms: N31_31  and  C32_32 
REMARK   13  A    between atoms: C32_32  and  C33_33 
ROOT
ATOM      1  C1  Z34 d   1       5.167   9.498  22.684  0.00  0.00     0.199 A 
ATOM      2  C2  Z34 d   1       4.731   8.998  21.434  0.00  0.00     0.117 A 
ATOM      3  C3  Z34 d   1       5.449   7.916  20.857  0.00  0.00     0.199 A 
ATOM      4  C4  Z34 d   1       6.552   7.373  21.529  0.00  0.00     0.214 A 
ATOM      5  N5  Z34 d   1       6.908   7.876  22.698  0.00  0.00    -0.194 NA
ATOM      6  C6  Z34 d   1       6.279   8.893  23.308  0.00  0.00     0.214 A 
ATOM      7  F1  Z34 d   1       4.558  10.497  23.265  0.00  0.00    -0.199 F 
ATOM      8  F2  Z34 d   1       5.109   7.418  19.716  0.00  0.00    -0.199 F 
ENDROOT
BRANCH   4   9
ATOM      9  O2  Z34 d   1       7.212   6.389  20.976  0.00  0.00    -0.289 OA
BRANCH   9  10
ATOM     10  C21 Z34 d   1       6.916   5.132  20.663  0.00  0.00     0.079 A 
ATOM     11  C26 Z34 d   1       7.447   4.446  19.570  0.00  0.00    -0.037 A 
ATOM     12  C25 Z34 d   1       7.091   3.121  19.315  0.00  0.00     0.012 A 
ATOM     13  H12 Z34 d   1       8.145   4.949  18.910  0.00  0.00     0.089 H 
ATOM     14  C24 Z34 d   1       6.177   2.466  20.190  0.00  0.00    -0.069 A 
ATOM     15  C23 Z34 d   1       5.630   3.140  21.294  0.00  0.00    -0.079 A 
ATOM     16  H11 Z34 d   1       5.901   1.435  20.001  0.00  0.00     0.085 H 
ATOM     17  C22 Z34 d   1       6.002   4.476  21.534  0.00  0.00    -0.050 A 
ATOM     18  H10 Z34 d   1       4.931   2.638  21.953  0.00  0.00     0.083 H 
ATOM     19  H9  Z34 d   1       5.591   5.007  22.385  0.00  0.00     0.087 H 
BRANCH  12  20
ATOM     20  C27 Z34 d   1       7.622   2.462  18.209  0.00  0.00     0.130 A 
ATOM     21  N22 Z34 d   1       7.006   2.547  17.021  0.00  0.00    -0.271 NA
ATOM     22  C29 Z34 d   1       7.677   1.823  16.021  0.00  0.00     0.032 A 
ATOM     23  C28 Z34 d   1       8.878   1.222  16.779  0.00  0.00     0.013 A 
ATOM     24  H18 Z34 d   1       7.035   1.032  15.606  0.00  0.00     0.069 H 
ATOM     25  H19 Z34 d   1       8.012   2.486  15.210  0.00  0.00     0.069 H 
ATOM     26  N21 Z34 d   1       8.721   1.696  18.109  0.00  0.00    -0.368 N 
ATOM     27  H16 Z34 d   1       8.848   0.123  16.750  0.00  0.00     0.066 H 
ATOM     28  H17 Z34 d   1       9.827   1.574  16.349  0.00  0.00     0.066 H 
BRANCH  26  29
ATOM     29  C30 Z34 d   1       9.646   1.353  19.130  0.00  0.00    -0.017 C 
ATOM     30  H13 Z34 d   1      10.433   0.709  18.710  0.00  0.00     0.056 H 
ATOM     31  H14 Z34 d   1       9.122   0.815  19.934  0.00  0.00     0.056 H 
ATOM     32  H15 Z34 d   1      10.099   2.269  19.537  0.00  0.00     0.056 H 
ENDBRANCH  26  29
ENDBRANCH  12  20
ENDBRANCH   9  10
ENDBRANCH   4   9
BRANCH   2  33
ATOM     33  N31 Z34 d   1       3.649   9.556  20.800  0.00  0.00    -0.370 N 
BRANCH  33  34
ATOM     34  C36 Z34 d   1       3.858  10.543  19.763  0.00  0.00    -0.018 C 
ATOM     35  H22 Z34 d   1       4.936  10.717  19.635  0.00  0.00     0.056 H 
ATOM     36  H23 Z34 d   1       3.366  11.485  20.048  0.00  0.00     0.056 H 
ATOM     37  H24 Z34 d   1       3.431  10.178  18.818  0.00  0.00     0.056 H 
ENDBRANCH  33  34
BRANCH  33  38
ATOM     38  C32 Z34 d   1       2.290   9.145  21.165  0.00  0.00     0.075 C 
ATOM     39  H20 Z34 d   1       2.168   8.095  20.860  0.00  0.00     0.080 H 
ATOM     40  H21 Z34 d   1       1.590   9.776  20.598  0.00  0.00     0.080 H 
BRANCH  38  41
ATOM     41  C33 Z34 d   1       1.908   9.241  22.624  0.00  0.00     0.191 C 
ATOM     42  O35 Z34 d   1       2.152   8.185  23.459  0.00  0.00    -0.647 OA
ATOM     43  O34 Z34 d   1       1.348  10.266  23.125  0.00  0.00    -0.647 OA
ENDBRANCH  38  41
ENDBRANCH  33  38
ENDBRANCH   2  33
BRANCH   6  44
ATOM     44  O1  Z34 d   1       6.727   9.314  24.484  0.00  0.00    -0.287 OA
BRANCH  44  45
ATOM     45  C11 Z34 d   1       7.997   9.307  24.890  0.00  0.00     0.112 A 
ATOM     46  C16 Z34 d   1       9.024   9.981  24.210  0.00  0.00     0.099 A 
ATOM     47  C15 Z34 d   1      10.351   9.921  24.700  0.00  0.00    -0.047 A 
ATOM     48  C14 Z34 d   1      10.640   9.183  25.860  0.00  0.00    -0.067 A 
ATOM     49  H4  Z34 d   1      11.145  10.445  24.180  0.00  0.00     0.087 H 
ATOM     50  C13 Z34 d   1       9.604   8.485  26.553  0.00  0.00     0.010 A 
ATOM     51  H3  Z34 d   1      11.657   9.143  26.232  0.00  0.00     0.085 H 
ATOM     52  C12 Z34 d   1       8.288   8.568  26.039  0.00  0.00    -0.034 A 
ATOM     53  H2  Z34 d   1       7.487   8.046  26.549  0.00  0.00     0.089 H 
BRANCH  46  54
ATOM     54  O11 Z34 d   1       8.769  10.652  23.146  0.00  0.00    -0.358 OA
ATOM     55  H1  Z34 d   1       9.269  10.296  22.421  0.00  0.00     0.217 HD
ENDBRANCH  46  54
BRANCH  50  56
ATOM     56  C17 Z34 d   1       9.848   7.743  27.704  0.00  0.00     0.102 C 
ATOM     57  N12 Z34 d   1      11.068   7.515  28.171  0.00  0.00    -0.385 N 
ATOM     58  H7  Z34 d   1      11.886   7.917  27.692  0.00  0.00     0.157 HD
ATOM     59  H8  Z34 d   1      11.197   6.936  29.013  0.00  0.00     0.157 HD
BRANCH  56  60
ATOM     60  N11 Z34 d   1       8.845   7.171  28.404  0.00  0.00    -0.385 N 
ATOM     61  H5  Z34 d   1       9.055   6.627  29.253  0.00  0.00     0.157 HD
ATOM     62  H6  Z34 d   1       7.870   7.279  28.089  0.00  0.00     0.157 HD
ENDBRANCH  56  60
ENDBRANCH  50  56
ENDBRANCH  44  45
ENDBRANCH   6  44
TORSDOF 13
