REMARK  19 active torsions:
REMARK  status: ('A' for Active; 'I' for Inactive)
REMARK    1  A    between atoms: C10_9  and  O6_51 
REMARK    2  A    between atoms: C11_10  and  C35_34 
REMARK    3  A    between atoms: C13_12  and  O7_52 
REMARK    4  A    between atoms: C15_14  and  O8_53 
REMARK    5  A    between atoms: C17_16  and  C36_35 
REMARK    6  A    between atoms: C19_18  and  C37_36 
REMARK    7  A    between atoms: C21_20  and  C38_37 
REMARK    8  A    between atoms: C24_23  and  O10_55 
REMARK    9  A    between atoms: C25_24  and  C41_40 
REMARK   10  A    between atoms: C26_25  and  C27_26 
REMARK   11  A    between atoms: C27_26  and  C42_41 
REMARK   12  A    between atoms: C28_27  and  C29_28 
REMARK   13  A    between atoms: C31_30  and  O11_56 
REMARK   14  A    between atoms: C32_31  and  O12_57 
REMARK   15  A    between atoms: C38_37  and  C39_38 
REMARK   16  A    between atoms: C39_38  and  C40_39 
REMARK   17  A    between atoms: O7_52  and  C43_42 
REMARK   18  A    between atoms: O8_53  and  C44_43 
REMARK   19  A    between atoms: O11_56  and  C45_44 
ROOT
ATOM      1  C1  FK5 d   1      19.964  28.622  21.793  0.00  0.00     0.282 C 
ATOM      2  C2  FK5 d   1      18.591  29.242  21.936  0.00  0.00     0.099 C 
ATOM      3  C3  FK5 d   1      17.938  29.352  20.560  0.00  0.00    -0.037 C 
ATOM      4  C4  FK5 d   1      18.516  30.510  19.760  0.00  0.00    -0.061 C 
ATOM      5  C5  FK5 d   1      18.261  31.813  20.491  0.00  0.00    -0.050 C 
ATOM      6  C6  FK5 d   1      18.979  31.722  21.823  0.00  0.00    -0.001 C 
ATOM      7  C8  FK5 d   1      17.895  30.641  23.795  0.00  0.00     0.296 C 
ATOM      8  C9  FK5 d   1      17.727  31.953  24.508  0.00  0.00     0.278 C 
ATOM      9  C10 FK5 d   1      18.806  32.419  25.509  0.00  0.00     0.238 C 
ATOM     10  C11 FK5 d   1      19.432  31.287  26.330  0.00  0.00     0.007 C 
ATOM     11  C12 FK5 d   1      20.773  31.749  26.905  0.00  0.00    -0.030 C 
ATOM     12  C13 FK5 d   1      21.707  32.472  25.896  0.00  0.00     0.066 C 
ATOM     13  C14 FK5 d   1      20.879  33.641  25.251  0.00  0.00     0.092 C 
ATOM     14  C15 FK5 d   1      21.566  34.517  24.194  0.00  0.00     0.066 C 
ATOM     15  C16 FK5 d   1      22.406  33.682  23.214  0.00  0.00    -0.035 C 
ATOM     16  C17 FK5 d   1      22.926  34.397  21.940  0.00  0.00    -0.052 C 
ATOM     17  C18 FK5 d   1      24.321  34.971  22.243  0.00  0.00    -0.042 C 
ATOM     18  C19 FK5 d   1      25.408  33.947  22.060  0.00  0.00    -0.086 C 
ATOM     19  C20 FK5 d   1      25.899  33.336  23.130  0.00  0.00    -0.087 C 
ATOM     20  C21 FK5 d   1      26.951  32.237  23.120  0.00  0.00     0.037 C 
ATOM     21  C22 FK5 d   1      26.218  30.910  23.254  0.00  0.00     0.140 C 
ATOM     22  C23 FK5 d   1      25.840  30.225  21.947  0.00  0.00     0.015 C 
ATOM     23  C24 FK5 d   1      24.769  29.174  22.098  0.00  0.00     0.048 C 
ATOM     24  C25 FK5 d   1      23.324  29.818  22.186  0.00  0.00    -0.003 C 
ATOM     25  C26 FK5 d   1      22.261  28.687  22.383  0.00  0.00     0.074 C 
ATOM     26  N7  FK5 d   1      18.477  30.555  22.581  0.00  0.00    -0.331 N 
ATOM     27  O1  FK5 d   1      20.924  29.273  22.460  0.00  0.00    -0.309 OA
ATOM     28  O2  FK5 d   1      20.122  27.647  21.071  0.00  0.00    -0.263 OA
ATOM     29  O3  FK5 d   1      17.458  29.628  24.376  0.00  0.00    -0.264 OA
ATOM     30  O4  FK5 d   1      16.719  32.625  24.281  0.00  0.00    -0.281 OA
ATOM     31  O5  FK5 d   1      19.773  33.000  24.604  0.00  0.00    -0.338 OA
ATOM     32  O9  FK5 d   1      25.931  30.441  24.364  0.00  0.00    -0.297 OA
ATOM     33  H1  FK5 d   1      18.001  28.542  22.545  0.00  0.00     0.088 H 
ATOM     34  H2  FK5 d   1      16.857  29.511  20.689  0.00  0.00     0.036 H 
ATOM     35  H3  FK5 d   1      18.108  28.416  20.008  0.00  0.00     0.036 H 
ATOM     36  H4  FK5 d   1      18.037  30.546  18.770  0.00  0.00     0.033 H 
ATOM     37  H5  FK5 d   1      19.600  30.365  19.638  0.00  0.00     0.033 H 
ATOM     38  H6  FK5 d   1      17.182  31.951  20.652  0.00  0.00     0.035 H 
ATOM     39  H7  FK5 d   1      18.655  32.657  19.907  0.00  0.00     0.035 H 
ATOM     40  H8  FK5 d   1      18.796  32.640  22.401  0.00  0.00     0.064 H 
ATOM     41  H9  FK5 d   1      20.059  31.608  21.649  0.00  0.00     0.064 H 
ATOM     42  H10 FK5 d   1      19.610  30.434  25.659  0.00  0.00     0.048 H 
ATOM     43  H11 FK5 d   1      21.303  30.864  27.287  0.00  0.00     0.037 H 
ATOM     44  H12 FK5 d   1      20.568  32.440  27.736  0.00  0.00     0.037 H 
ATOM     45  H13 FK5 d   1      22.005  31.760  25.112  0.00  0.00     0.087 H 
ATOM     46  H14 FK5 d   1      20.526  34.299  26.058  0.00  0.00     0.091 H 
ATOM     47  H15 FK5 d   1      20.793  35.045  23.616  0.00  0.00     0.087 H 
ATOM     48  H16 FK5 d   1      21.787  32.833  22.888  0.00  0.00     0.037 H 
ATOM     49  H17 FK5 d   1      23.282  33.308  23.764  0.00  0.00     0.037 H 
ATOM     50  H18 FK5 d   1      22.998  33.665  21.122  0.00  0.00     0.040 H 
ATOM     51  H19 FK5 d   1      24.340  35.326  23.284  0.00  0.00     0.040 H 
ATOM     52  H20 FK5 d   1      24.512  35.816  21.564  0.00  0.00     0.040 H 
ATOM     53  H21 FK5 d   1      25.516  33.648  24.100  0.00  0.00     0.078 H 
ATOM     54  H22 FK5 d   1      27.506  32.260  22.171  0.00  0.00     0.064 H 
ATOM     55  H23 FK5 d   1      26.740  29.746  21.534  0.00  0.00     0.048 H 
ATOM     56  H24 FK5 d   1      25.477  30.991  21.246  0.00  0.00     0.048 H 
ATOM     57  H25 FK5 d   1      24.956  28.605  23.021  0.00  0.00     0.084 H 
ATOM     58  H26 FK5 d   1      23.292  30.506  23.044  0.00  0.00     0.047 H 
ATOM     59  H27 FK5 d   1      22.297  28.024  21.506  0.00  0.00     0.092 H 
ENDROOT
BRANCH  25  60
ATOM     60  C27 FK5 d   1      22.570  27.848  23.620  0.00  0.00    -0.058 C 
ATOM     61  C28 FK5 d   1      22.881  26.576  23.404  0.00  0.00    -0.095 C 
ATOM     62  H28 FK5 d   1      22.814  26.204  22.383  0.00  0.00     0.077 H 
BRANCH  61  63
ATOM     63  C29 FK5 d   1      23.321  25.611  24.474  0.00  0.00    -0.035 C 
ATOM     64  C30 FK5 d   1      22.438  24.356  24.477  0.00  0.00    -0.032 C 
ATOM     65  C31 FK5 d   1      22.975  23.133  25.206  0.00  0.00     0.063 C 
ATOM     66  H30 FK5 d   1      22.267  24.069  23.429  0.00  0.00     0.037 H 
ATOM     67  H31 FK5 d   1      21.480  24.626  24.944  0.00  0.00     0.037 H 
ATOM     68  C32 FK5 d   1      24.410  22.910  24.788  0.00  0.00     0.060 C 
ATOM     69  H32 FK5 d   1      22.947  23.346  26.285  0.00  0.00     0.087 H 
ATOM     70  C33 FK5 d   1      25.235  24.158  25.032  0.00  0.00    -0.038 C 
ATOM     71  H33 FK5 d   1      24.454  22.649  23.720  0.00  0.00     0.086 H 
ATOM     72  C34 FK5 d   1      24.735  25.229  24.086  0.00  0.00    -0.056 C 
ATOM     73  H34 FK5 d   1      26.297  23.950  24.835  0.00  0.00     0.036 H 
ATOM     74  H35 FK5 d   1      25.113  24.491  26.073  0.00  0.00     0.036 H 
ATOM     75  H36 FK5 d   1      25.387  26.113  24.152  0.00  0.00     0.034 H 
ATOM     76  H37 FK5 d   1      24.743  24.844  23.056  0.00  0.00     0.034 H 
ATOM     77  H29 FK5 d   1      23.297  26.088  25.465  0.00  0.00     0.046 H 
BRANCH  65  78
ATOM     78  O11 FK5 d   1      22.231  21.923  24.979  0.00  0.00    -0.388 OA
BRANCH  78  79
ATOM     79  C45 FK5 d   1      21.177  21.679  25.923  0.00  0.00     0.005 C 
ATOM     80  H64 FK5 d   1      20.668  20.737  25.669  0.00  0.00     0.066 H 
ATOM     81  H65 FK5 d   1      20.454  22.507  25.888  0.00  0.00     0.066 H 
ATOM     82  H66 FK5 d   1      21.601  21.605  26.935  0.00  0.00     0.066 H 
ENDBRANCH  78  79
ENDBRANCH  65  78
BRANCH  68  83
ATOM     83  O12 FK5 d   1      24.898  21.836  25.570  0.00  0.00    -0.393 OA
ATOM     84  H69 FK5 d   1      24.847  22.067  26.490  0.00  0.00     0.210 HD
ENDBRANCH  68  83
ENDBRANCH  61  63
BRANCH  60  85
ATOM     85  C42 FK5 d   1      22.499  28.517  25.001  0.00  0.00    -0.052 C 
ATOM     86  H55 FK5 d   1      22.748  27.780  25.779  0.00  0.00     0.033 H 
ATOM     87  H56 FK5 d   1      21.482  28.900  25.171  0.00  0.00     0.033 H 
ATOM     88  H57 FK5 d   1      23.216  29.350  25.042  0.00  0.00     0.033 H 
ENDBRANCH  60  85
ENDBRANCH  25  60
BRANCH  24  89
ATOM     89  C41 FK5 d   1      22.972  30.605  20.888  0.00  0.00    -0.068 C 
ATOM     90  H52 FK5 d   1      23.710  31.406  20.733  0.00  0.00     0.028 H 
ATOM     91  H53 FK5 d   1      21.969  31.045  20.987  0.00  0.00     0.028 H 
ATOM     92  H54 FK5 d   1      22.989  29.920  20.028  0.00  0.00     0.028 H 
ENDBRANCH  24  89
BRANCH  23  93
ATOM     93  O10 FK5 d   1      24.845  28.287  20.973  0.00  0.00    -0.395 OA
ATOM     94  H68 FK5 d   1      24.707  28.780  20.173  0.00  0.00     0.210 HD
ENDBRANCH  23  93
BRANCH  20  95
ATOM     95  C38 FK5 d   1      27.951  32.440  24.303  0.00  0.00    -0.093 C 
ATOM     96  H47 FK5 d   1      27.902  33.330  24.928  0.00  0.00     0.078 H 
BRANCH  95  97
ATOM     97  C39 FK5 d   1      29.006  31.351  24.563  0.00  0.00    -0.109 C 
ATOM     98  H48 FK5 d   1      29.150  31.033  25.595  0.00  0.00     0.075 H 
BRANCH  97  99
ATOM     99  C40 FK5 d   1      29.752  30.769  23.642  0.00  0.00    -0.060 C 
ATOM    100  H49 FK5 d   1      30.415  30.032  24.119  0.00  0.00     0.032 H 
ATOM    101  H50 FK5 d   1      30.359  31.529  23.128  0.00  0.00     0.032 H 
ATOM    102  H51 FK5 d   1      29.104  30.262  22.912  0.00  0.00     0.032 H 
ENDBRANCH  97  99
ENDBRANCH  95  97
ENDBRANCH  20  95
BRANCH  18 103
ATOM    103  C37 FK5 d   1      25.817  33.733  20.588  0.00  0.00    -0.055 C 
ATOM    104  H44 FK5 d   1      26.612  32.974  20.535  0.00  0.00     0.033 H 
ATOM    105  H45 FK5 d   1      26.186  34.681  20.169  0.00  0.00     0.033 H 
ATOM    106  H46 FK5 d   1      24.945  33.391  20.011  0.00  0.00     0.033 H 
ENDBRANCH  18 103
BRANCH   9 107
ATOM    107  O6  FK5 d   1      18.330  33.425  26.371  0.00  0.00    -0.359 OA
ATOM    108  H67 FK5 d   1      17.920  34.112  25.858  0.00  0.00     0.213 HD
ENDBRANCH   9 107
BRANCH  10 109
ATOM    109  C35 FK5 d   1      18.523  30.823  27.459  0.00  0.00    -0.067 C 
ATOM    110  H38 FK5 d   1      17.560  30.492  27.042  0.00  0.00     0.028 H 
ATOM    111  H39 FK5 d   1      18.353  31.655  28.158  0.00  0.00     0.028 H 
ATOM    112  H40 FK5 d   1      18.999  29.987  27.993  0.00  0.00     0.028 H 
ENDBRANCH  10 109
BRANCH  16 113
ATOM    113  C36 FK5 d   1      21.996  35.541  21.502  0.00  0.00    -0.073 C 
ATOM    114  H41 FK5 d   1      20.996  35.138  21.284  0.00  0.00     0.028 H 
ATOM    115  H42 FK5 d   1      22.403  36.020  20.599  0.00  0.00     0.028 H 
ATOM    116  H43 FK5 d   1      21.923  36.284  22.310  0.00  0.00     0.028 H 
ENDBRANCH  16 113
BRANCH  12 117
ATOM    117  O7  FK5 d   1      22.913  32.990  26.524  0.00  0.00    -0.388 OA
BRANCH 117 118
ATOM    118  C43 FK5 d   1      24.048  32.094  26.508  0.00  0.00     0.005 C 
ATOM    119  H58 FK5 d   1      24.903  32.577  27.004  0.00  0.00     0.066 H 
ATOM    120  H59 FK5 d   1      24.314  31.857  25.467  0.00  0.00     0.066 H 
ATOM    121  H60 FK5 d   1      23.791  31.167  27.041  0.00  0.00     0.066 H 
ENDBRANCH 117 118
ENDBRANCH  12 117
BRANCH  14 122
ATOM    122  O8  FK5 d   1      22.375  35.486  24.880  0.00  0.00    -0.388 OA
BRANCH 122 123
ATOM    123  C44 FK5 d   1      21.649  36.654  25.316  0.00  0.00     0.005 C 
ATOM    124  H61 FK5 d   1      22.336  37.343  25.829  0.00  0.00     0.066 H 
ATOM    125  H62 FK5 d   1      20.849  36.352  26.008  0.00  0.00     0.066 H 
ATOM    126  H63 FK5 d   1      21.208  37.159  24.444  0.00  0.00     0.066 H 
ENDBRANCH 122 123
ENDBRANCH  14 122
TORSDOF 19
