REMARK  13 active torsions:
REMARK  status: ('A' for Active; 'I' for Inactive)
REMARK    1  A    between atoms: C1_1  and  C2_4 
REMARK    2  A    between atoms: C1_1  and  O1_2 
REMARK    3  A    between atoms: O1_2  and  C15_19 
REMARK       I    between atoms: N7_9  and  C8_10 
REMARK    4  A    between atoms: C8_10  and  C9_12 
REMARK    5  A    between atoms: C9_12  and  C10_14 
REMARK    6  A    between atoms: C10_14  and  C14_18 
REMARK    7  A    between atoms: C10_14  and  C13_17 
REMARK    8  A    between atoms: C10_14  and  C11_15 
REMARK    9  A    between atoms: C11_15  and  C12_16 
REMARK   10  A    between atoms: C15_19  and  C24_28 
REMARK   11  A    between atoms: C15_19  and  C16_20 
REMARK   12  A    between atoms: C16_20  and  C17_21 
REMARK   13  A    between atoms: C17_21  and  C18_22 
ROOT
ATOM      1  C2  SB3 d   1     -25.748  26.054   3.961  0.00  0.00     0.099 C 
ATOM      2  C3  SB3 d   1     -25.387  25.423   2.620  0.00  0.00    -0.037 C 
ATOM      3  C4  SB3 d   1     -25.789  26.216   1.383  0.00  0.00    -0.061 C 
ATOM      4  C5  SB3 d   1     -27.297  26.370   1.388  0.00  0.00    -0.050 C 
ATOM      5  C6  SB3 d   1     -27.657  26.983   2.743  0.00  0.00    -0.001 C 
ATOM      6  N7  SB3 d   1     -27.202  26.128   3.884  0.00  0.00    -0.332 N 
ATOM      7  C8  SB3 d   1     -27.948  25.896   4.987  0.00  0.00     0.291 C 
ATOM      8  O3  SB3 d   1     -27.389  25.426   5.980  0.00  0.00    -0.264 OA
ATOM      9  H1  SB3 d   1     -25.488  25.350   4.765  0.00  0.00     0.088 H 
ATOM     10  H2  SB3 d   1     -25.880  24.441   2.566  0.00  0.00     0.036 H 
ATOM     11  H3  SB3 d   1     -24.296  25.288   2.594  0.00  0.00     0.036 H 
ATOM     12  H4  SB3 d   1     -25.473  25.678   0.477  0.00  0.00     0.033 H 
ATOM     13  H5  SB3 d   1     -25.314  27.208   1.406  0.00  0.00     0.033 H 
ATOM     14  H6  SB3 d   1     -27.781  25.389   1.272  0.00  0.00     0.035 H 
ATOM     15  H7  SB3 d   1     -27.616  27.035   0.572  0.00  0.00     0.035 H 
ATOM     16  H8  SB3 d   1     -28.749  27.100   2.801  0.00  0.00     0.064 H 
ATOM     17  H9  SB3 d   1     -27.177  27.970   2.825  0.00  0.00     0.064 H 
ENDROOT
BRANCH   1  18
ATOM     18  C1  SB3 d   1     -24.969  27.348   4.271  0.00  0.00     0.282 C 
ATOM     19  O2  SB3 d   1     -23.806  27.477   3.993  0.00  0.00    -0.263 OA
BRANCH  18  20
ATOM     20  O1  SB3 d   1     -25.677  28.336   4.779  0.00  0.00    -0.310 OA
BRANCH  20  21
ATOM     21  C15 SB3 d   1     -25.134  29.656   4.960  0.00  0.00     0.073 C 
ATOM     22  H21 SB3 d   1     -24.311  29.838   4.253  0.00  0.00     0.091 H 
BRANCH  21  23
ATOM     23  C24 SB3 d   1     -26.281  30.654   4.678  0.00  0.00    -0.029 A 
ATOM     24  C29 SB3 d   1     -27.075  31.138   5.643  0.00  0.00    -0.074 A 
ATOM     25  C28 SB3 d   1     -28.005  32.038   5.348  0.00  0.00    -0.082 A 
ATOM     26  H35 SB3 d   1     -26.958  30.794   6.664  0.00  0.00     0.084 H 
ATOM     27  C27 SB3 d   1     -28.156  32.459   4.098  0.00  0.00    -0.083 A 
ATOM     28  H34 SB3 d   1     -28.644  32.431   6.131  0.00  0.00     0.083 H 
ATOM     29  C26 SB3 d   1     -27.379  31.984   3.136  0.00  0.00    -0.082 A 
ATOM     30  H33 SB3 d   1     -28.918  33.194   3.864  0.00  0.00     0.083 H 
ATOM     31  C25 SB3 d   1     -26.453  31.088   3.427  0.00  0.00    -0.074 A 
ATOM     32  H32 SB3 d   1     -27.502  32.329   2.116  0.00  0.00     0.083 H 
ATOM     33  H31 SB3 d   1     -25.822  30.698   2.636  0.00  0.00     0.084 H 
ENDBRANCH  21  23
BRANCH  21  34
ATOM     34  C16 SB3 d   1     -24.594  29.724   6.392  0.00  0.00    -0.033 C 
ATOM     35  H22 SB3 d   1     -24.003  28.812   6.563  0.00  0.00     0.037 H 
ATOM     36  H23 SB3 d   1     -25.461  29.732   7.069  0.00  0.00     0.037 H 
BRANCH  34  37
ATOM     37  C17 SB3 d   1     -23.713  30.914   6.767  0.00  0.00    -0.038 C 
ATOM     38  H24 SB3 d   1     -24.332  31.644   7.309  0.00  0.00     0.040 H 
ATOM     39  H25 SB3 d   1     -23.336  31.370   5.840  0.00  0.00     0.040 H 
BRANCH  37  40
ATOM     40  C18 SB3 d   1     -22.524  30.557   7.639  0.00  0.00    -0.058 A 
ATOM     41  C23 SB3 d   1     -21.466  29.972   7.102  0.00  0.00    -0.077 A 
ATOM     42  C22 SB3 d   1     -20.531  29.419   7.866  0.00  0.00    -0.082 A 
ATOM     43  H30 SB3 d   1     -21.361  29.944   6.024  0.00  0.00     0.084 H 
ATOM     44  C21 SB3 d   1     -20.652  29.465   9.179  0.00  0.00    -0.083 A 
ATOM     45  H29 SB3 d   1     -19.674  28.933   7.414  0.00  0.00     0.083 H 
ATOM     46  C20 SB3 d   1     -21.702  30.069   9.721  0.00  0.00    -0.082 A 
ATOM     47  H28 SB3 d   1     -19.898  29.012   9.812  0.00  0.00     0.083 H 
ATOM     48  C19 SB3 d   1     -22.626  30.613   8.956  0.00  0.00    -0.077 A 
ATOM     49  H27 SB3 d   1     -21.800  30.115  10.800  0.00  0.00     0.083 H 
ATOM     50  H26 SB3 d   1     -23.476  31.110   9.409  0.00  0.00     0.084 H 
ENDBRANCH  37  40
ENDBRANCH  34  37
ENDBRANCH  21  34
ENDBRANCH  20  21
ENDBRANCH  18  20
ENDBRANCH   1  18
BRANCH   7  51
ATOM     51  C9  SB3 d   1     -29.478  26.097   5.056  0.00  0.00     0.224 C 
ATOM     52  O4  SB3 d   1     -30.203  25.286   4.468  0.00  0.00    -0.286 OA
BRANCH  51  53
ATOM     53  C10 SB3 d   1     -30.113  27.193   5.925  0.00  0.00     0.022 C 
BRANCH  53  54
ATOM     54  C14 SB3 d   1     -31.654  27.208   5.816  0.00  0.00    -0.062 C 
ATOM     55  H18 SB3 d   1     -32.052  26.228   6.116  0.00  0.00     0.029 H 
ATOM     56  H19 SB3 d   1     -31.946  27.420   4.777  0.00  0.00     0.029 H 
ATOM     57  H20 SB3 d   1     -32.061  27.987   6.477  0.00  0.00     0.029 H 
ENDBRANCH  53  54
BRANCH  53  58
ATOM     58  C13 SB3 d   1     -29.751  27.054   7.448  0.00  0.00    -0.062 C 
ATOM     59  H15 SB3 d   1     -30.087  26.073   7.817  0.00  0.00     0.029 H 
ATOM     60  H16 SB3 d   1     -30.251  27.851   8.018  0.00  0.00     0.029 H 
ATOM     61  H17 SB3 d   1     -28.662  27.140   7.575  0.00  0.00     0.029 H 
ENDBRANCH  53  58
BRANCH  53  62
ATOM     62  C11 SB3 d   1     -29.618  28.564   5.501  0.00  0.00    -0.055 C 
ATOM     63  H10 SB3 d   1     -28.518  28.546   5.489  0.00  0.00     0.034 H 
ATOM     64  H11 SB3 d   1     -29.964  29.301   6.241  0.00  0.00     0.034 H 
BRANCH  62  65
ATOM     65  C12 SB3 d   1     -30.112  29.007   4.107  0.00  0.00    -0.075 C 
ATOM     66  H12 SB3 d   1     -29.711  30.005   3.876  0.00  0.00     0.027 H 
ATOM     67  H13 SB3 d   1     -31.211  29.043   4.102  0.00  0.00     0.027 H 
ATOM     68  H14 SB3 d   1     -29.765  28.288   3.350  0.00  0.00     0.027 H 
ENDBRANCH  62  65
ENDBRANCH  53  62
ENDBRANCH  51  53
ENDBRANCH   7  51
TORSDOF 13
