REMARK  13 active torsions:
REMARK  status: ('A' for Active; 'I' for Inactive)
REMARK    1  A    between atoms: C1_1  and  C2_4 
REMARK    2  A    between atoms: C1_1  and  O1_2 
REMARK    3  A    between atoms: O1_2  and  C15_19 
REMARK       I    between atoms: N7_9  and  C8_10 
REMARK    4  A    between atoms: C8_10  and  C9_12 
REMARK    5  A    between atoms: C9_12  and  C10_14 
REMARK    6  A    between atoms: C10_14  and  C14_18 
REMARK    7  A    between atoms: C10_14  and  C13_17 
REMARK    8  A    between atoms: C10_14  and  C11_15 
REMARK    9  A    between atoms: C11_15  and  C12_16 
REMARK   10  A    between atoms: C15_19  and  C24_28 
REMARK   11  A    between atoms: C15_19  and  C16_20 
REMARK   12  A    between atoms: C16_20  and  C17_21 
REMARK   13  A    between atoms: C17_21  and  C18_22 
ROOT
ATOM      1  C1  SBX d   1     -24.934  27.202  42.806  0.00  0.00     0.282 C 
ATOM      2  O2  SBX d   1     -23.745  27.125  42.522  0.00  0.00    -0.263 OA
ENDROOT
BRANCH   1   3
ATOM      3  C2  SBX d   1     -25.849  25.998  42.617  0.00  0.00     0.099 C 
ATOM      4  N7  SBX d   1     -27.302  26.186  42.585  0.00  0.00    -0.332 N 
ATOM      5  C6  SBX d   1     -27.786  26.993  41.460  0.00  0.00    -0.001 C 
ATOM      6  C8  SBX d   1     -28.055  25.794  43.631  0.00  0.00     0.291 C 
ATOM      7  C5  SBX d   1     -27.435  26.196  40.214  0.00  0.00    -0.050 C 
ATOM      8  H8  SBX d   1     -28.874  27.139  41.530  0.00  0.00     0.064 H 
ATOM      9  H9  SBX d   1     -27.285  27.972  41.445  0.00  0.00     0.064 H 
ATOM     10  C4  SBX d   1     -25.924  26.031  40.082  0.00  0.00    -0.061 C 
ATOM     11  H6  SBX d   1     -27.902  25.202  40.279  0.00  0.00     0.035 H 
ATOM     12  H7  SBX d   1     -27.819  26.724  39.329  0.00  0.00     0.035 H 
ATOM     13  C3  SBX d   1     -25.491  25.272  41.325  0.00  0.00    -0.037 C 
ATOM     14  H4  SBX d   1     -25.677  25.458  39.176  0.00  0.00     0.033 H 
ATOM     15  H5  SBX d   1     -25.432  27.014  40.040  0.00  0.00     0.033 H 
ATOM     16  H2  SBX d   1     -25.985  24.289  41.326  0.00  0.00     0.036 H 
ATOM     17  H3  SBX d   1     -24.400  25.134  41.290  0.00  0.00     0.036 H 
ATOM     18  O3  SBX d   1     -27.485  25.304  44.607  0.00  0.00    -0.264 OA
ATOM     19  H1  SBX d   1     -25.640  25.328  43.464  0.00  0.00     0.088 H 
BRANCH   6  20
ATOM     20  C9  SBX d   1     -29.575  25.816  43.695  0.00  0.00     0.224 C 
ATOM     21  O4  SBX d   1     -30.139  24.821  43.236  0.00  0.00    -0.286 OA
BRANCH  20  22
ATOM     22  C10 SBX d   1     -30.388  26.908  44.381  0.00  0.00     0.022 C 
BRANCH  22  23
ATOM     23  C14 SBX d   1     -31.379  27.552  43.457  0.00  0.00    -0.062 C 
ATOM     24  H18 SBX d   1     -31.994  26.775  42.980  0.00  0.00     0.029 H 
ATOM     25  H19 SBX d   1     -30.843  28.121  42.683  0.00  0.00     0.029 H 
ATOM     26  H20 SBX d   1     -32.026  28.232  44.030  0.00  0.00     0.029 H 
ENDBRANCH  22  23
BRANCH  22  27
ATOM     27  C13 SBX d   1     -31.280  26.297  45.414  0.00  0.00    -0.062 C 
ATOM     28  H15 SBX d   1     -31.897  25.514  44.949  0.00  0.00     0.029 H 
ATOM     29  H16 SBX d   1     -31.933  27.073  45.840  0.00  0.00     0.029 H 
ATOM     30  H17 SBX d   1     -30.667  25.854  46.213  0.00  0.00     0.029 H 
ENDBRANCH  22  27
BRANCH  22  31
ATOM     31  C11 SBX d   1     -29.540  27.989  45.037  0.00  0.00    -0.055 C 
ATOM     32  H10 SBX d   1     -30.180  28.867  45.209  0.00  0.00     0.034 H 
ATOM     33  H11 SBX d   1     -28.730  28.256  44.342  0.00  0.00     0.034 H 
BRANCH  31  34
ATOM     34  C12 SBX d   1     -28.897  27.587  46.397  0.00  0.00    -0.075 C 
ATOM     35  H12 SBX d   1     -28.308  28.430  46.788  0.00  0.00     0.027 H 
ATOM     36  H13 SBX d   1     -28.239  26.718  46.249  0.00  0.00     0.027 H 
ATOM     37  H14 SBX d   1     -29.689  27.329  47.115  0.00  0.00     0.027 H 
ENDBRANCH  31  34
ENDBRANCH  22  31
ENDBRANCH  20  22
ENDBRANCH   6  20
ENDBRANCH   1   3
BRANCH   1  38
ATOM     38  O1  SBX d   1     -25.556  28.270  43.291  0.00  0.00    -0.314 OA
BRANCH  38  39
ATOM     39  C15 SBX d   1     -24.912  29.576  43.348  0.00  0.00     0.052 C 
ATOM     40  H21 SBX d   1     -24.075  29.592  42.635  0.00  0.00     0.084 H 
BRANCH  39  41
ATOM     41  C24 SBX d   1     -25.919  30.634  42.967  0.00  0.00    -0.028 C 
ATOM     42  C29 SBX d   1     -27.215  30.518  43.758  0.00  0.00    -0.059 C 
ATOM     43  C28 SBX d   1     -28.019  31.807  43.612  0.00  0.00    -0.065 C 
ATOM     44  H40 SBX d   1     -26.982  30.350  44.820  0.00  0.00     0.033 H 
ATOM     45  H41 SBX d   1     -27.805  29.673  43.373  0.00  0.00     0.033 H 
ATOM     46  C27 SBX d   1     -28.230  32.054  42.133  0.00  0.00    -0.065 C 
ATOM     47  H38 SBX d   1     -28.991  31.701  44.116  0.00  0.00     0.033 H 
ATOM     48  H39 SBX d   1     -27.465  32.647  44.056  0.00  0.00     0.033 H 
ATOM     49  C26 SBX d   1     -26.924  32.103  41.352  0.00  0.00    -0.065 C 
ATOM     50  H36 SBX d   1     -28.853  31.244  41.727  0.00  0.00     0.033 H 
ATOM     51  H37 SBX d   1     -28.751  33.015  42.008  0.00  0.00     0.033 H 
ATOM     52  C25 SBX d   1     -26.171  30.815  41.487  0.00  0.00    -0.059 C 
ATOM     53  H34 SBX d   1     -27.146  32.280  40.289  0.00  0.00     0.033 H 
ATOM     54  H35 SBX d   1     -26.304  32.925  41.739  0.00  0.00     0.033 H 
ATOM     55  H32 SBX d   1     -26.770  29.979  41.096  0.00  0.00     0.033 H 
ATOM     56  H33 SBX d   1     -25.218  30.870  40.941  0.00  0.00     0.033 H 
ATOM     57  H31 SBX d   1     -25.462  31.581  43.290  0.00  0.00     0.043 H 
ENDBRANCH  39  41
BRANCH  39  58
ATOM     58  C16 SBX d   1     -24.381  29.882  44.740  0.00  0.00    -0.036 C 
ATOM     59  H22 SBX d   1     -24.311  28.937  45.299  0.00  0.00     0.037 H 
ATOM     60  H23 SBX d   1     -25.093  30.553  45.242  0.00  0.00     0.037 H 
BRANCH  58  61
ATOM     61  C17 SBX d   1     -23.010  30.546  44.748  0.00  0.00    -0.039 C 
ATOM     62  H24 SBX d   1     -23.182  31.631  44.805  0.00  0.00     0.040 H 
ATOM     63  H25 SBX d   1     -22.532  30.300  43.788  0.00  0.00     0.040 H 
BRANCH  61  64
ATOM     64  C18 SBX d   1     -22.015  30.205  45.831  0.00  0.00    -0.058 A 
ATOM     65  C23 SBX d   1     -20.917  29.541  45.537  0.00  0.00    -0.077 A 
ATOM     66  C22 SBX d   1     -20.132  29.103  46.502  0.00  0.00    -0.082 A 
ATOM     67  H30 SBX d   1     -20.658  29.354  44.501  0.00  0.00     0.084 H 
ATOM     68  C21 SBX d   1     -20.439  29.331  47.765  0.00  0.00    -0.083 A 
ATOM     69  H29 SBX d   1     -19.231  28.553  46.257  0.00  0.00     0.083 H 
ATOM     70  C20 SBX d   1     -21.529  30.009  48.071  0.00  0.00    -0.082 A 
ATOM     71  H28 SBX d   1     -19.794  28.960  48.553  0.00  0.00     0.083 H 
ATOM     72  C19 SBX d   1     -22.310  30.447  47.101  0.00  0.00    -0.077 A 
ATOM     73  H27 SBX d   1     -21.780  30.204  49.107  0.00  0.00     0.083 H 
ATOM     74  H26 SBX d   1     -23.203  31.011  47.346  0.00  0.00     0.084 H 
ENDBRANCH  61  64
ENDBRANCH  58  61
ENDBRANCH  39  58
ENDBRANCH  38  39
ENDBRANCH   1  38
TORSDOF 13
