REMARK  2 active torsions:
REMARK  status: ('A' for Active; 'I' for Inactive)
REMARK    1  A    between atoms: C4_6  and  C27_31 
REMARK    2  A    between atoms: C4_6  and  C26_30 
ROOT
ATOM      1  N1  SB1 d   1       8.200 -38.372   0.877  0.00  0.00    -0.332 N 
ATOM      2  C2  SB1 d   1       8.783 -39.384   1.549  0.00  0.00     0.291 C 
ATOM      3  O2  SB1 d   1       9.495 -39.146   2.542  0.00  0.00    -0.264 OA
ATOM      4  C3  SB1 d   1       8.557 -40.841   1.126  0.00  0.00     0.226 C 
ATOM      5  O3  SB1 d   1       9.003 -41.219   0.039  0.00  0.00    -0.286 OA
ATOM      6  C4  SB1 d   1       7.751 -41.817   2.015  0.00  0.00     0.045 C 
ATOM      7  C5  SB1 d   1       7.098 -42.936   1.222  0.00  0.00     0.042 C 
ATOM      8  O6  SB1 d   1       6.313 -42.204   0.275  0.00  0.00    -0.320 OA
ATOM      9  C7  SB1 d   1       5.449 -42.809  -0.501  0.00  0.00     0.258 C 
ATOM     10  O7  SB1 d   1       5.303 -44.024  -0.461  0.00  0.00    -0.265 OA
ATOM     11  C8  SB1 d   1       4.720 -41.923  -1.477  0.00  0.00     0.016 C 
ATOM     12  C9  SB1 d   1       3.401 -42.460  -1.957  0.00  0.00    -0.057 C 
ATOM     13  C10 SB1 d   1       2.831 -41.556  -3.058  0.00  0.00    -0.065 C 
ATOM     14  C11 SB1 d   1       2.190 -40.262  -2.534  0.00  0.00    -0.065 C 
ATOM     15  C12 SB1 d   1       1.374 -40.438  -1.261  0.00  0.00    -0.065 C 
ATOM     16  C13 SB1 d   1       1.128 -39.091  -0.627  0.00  0.00    -0.065 C 
ATOM     17  C14 SB1 d   1       2.313 -38.672   0.217  0.00  0.00    -0.065 C 
ATOM     18  C15 SB1 d   1       2.055 -37.273   0.752  0.00  0.00    -0.065 C 
ATOM     19  C16 SB1 d   1       3.296 -36.725   1.430  0.00  0.00    -0.063 C 
ATOM     20  C17 SB1 d   1       3.695 -37.512   2.681  0.00  0.00    -0.045 C 
ATOM     21  C18 SB1 d   1       4.939 -36.937   3.345  0.00  0.00     0.029 C 
ATOM     22  O19 SB1 d   1       6.073 -37.352   2.518  0.00  0.00    -0.320 OA
ATOM     23  C20 SB1 d   1       7.091 -36.526   2.258  0.00  0.00     0.282 C 
ATOM     24  O20 SB1 d   1       7.131 -35.372   2.674  0.00  0.00    -0.263 OA
ATOM     25  C21 SB1 d   1       8.258 -37.016   1.419  0.00  0.00     0.099 C 
ATOM     26  C22 SB1 d   1       8.483 -36.078   0.249  0.00  0.00    -0.037 C 
ATOM     27  C23 SB1 d   1       7.465 -36.233  -0.849  0.00  0.00    -0.061 C 
ATOM     28  C24 SB1 d   1       7.391 -37.691  -1.256  0.00  0.00    -0.050 C 
ATOM     29  C25 SB1 d   1       7.081 -38.570  -0.056  0.00  0.00    -0.001 C 
ATOM     30  H1  SB1 d   1       6.465 -43.566   1.865  0.00  0.00     0.077 H 
ATOM     31  H2  SB1 d   1       7.850 -43.563   0.720  0.00  0.00     0.077 H 
ATOM     32  H3  SB1 d   1       5.368 -41.775  -2.354  0.00  0.00     0.048 H 
ATOM     33  H4  SB1 d   1       4.537 -40.955  -0.988  0.00  0.00     0.048 H 
ATOM     34  H5  SB1 d   1       2.695 -42.496  -1.114  0.00  0.00     0.033 H 
ATOM     35  H6  SB1 d   1       3.546 -43.474  -2.358  0.00  0.00     0.033 H 
ATOM     36  H7  SB1 d   1       2.066 -42.122  -3.609  0.00  0.00     0.033 H 
ATOM     37  H8  SB1 d   1       3.649 -41.285  -3.741  0.00  0.00     0.033 H 
ATOM     38  H9  SB1 d   1       1.526 -39.865  -3.316  0.00  0.00     0.033 H 
ATOM     39  H10 SB1 d   1       2.993 -39.538  -2.331  0.00  0.00     0.033 H 
ATOM     40  H11 SB1 d   1       1.927 -41.078  -0.558  0.00  0.00     0.033 H 
ATOM     41  H12 SB1 d   1       0.410 -40.909  -1.506  0.00  0.00     0.033 H 
ATOM     42  H13 SB1 d   1       0.234 -39.150   0.011  0.00  0.00     0.033 H 
ATOM     43  H14 SB1 d   1       0.966 -38.344  -1.418  0.00  0.00     0.033 H 
ATOM     44  H15 SB1 d   1       3.225 -38.671  -0.398  0.00  0.00     0.033 H 
ATOM     45  H16 SB1 d   1       2.437 -39.373   1.056  0.00  0.00     0.033 H 
ATOM     46  H17 SB1 d   1       1.232 -37.310   1.480  0.00  0.00     0.033 H 
ATOM     47  H18 SB1 d   1       1.777 -36.612  -0.082  0.00  0.00     0.033 H 
ATOM     48  H19 SB1 d   1       3.105 -35.681   1.720  0.00  0.00     0.033 H 
ATOM     49  H20 SB1 d   1       4.130 -36.760   0.714  0.00  0.00     0.033 H 
ATOM     50  H21 SB1 d   1       3.895 -38.555   2.395  0.00  0.00     0.036 H 
ATOM     51  H22 SB1 d   1       2.863 -37.482   3.400  0.00  0.00     0.036 H 
ATOM     52  H23 SB1 d   1       5.045 -37.335   4.365  0.00  0.00     0.075 H 
ATOM     53  H24 SB1 d   1       4.877 -35.839   3.384  0.00  0.00     0.075 H 
ATOM     54  H25 SB1 d   1       9.143 -36.974   2.072  0.00  0.00     0.088 H 
ATOM     55  H26 SB1 d   1       9.480 -36.277  -0.170  0.00  0.00     0.036 H 
ATOM     56  H27 SB1 d   1       8.441 -35.043   0.619  0.00  0.00     0.036 H 
ATOM     57  H28 SB1 d   1       7.762 -35.624  -1.715  0.00  0.00     0.033 H 
ATOM     58  H29 SB1 d   1       6.480 -35.901  -0.488  0.00  0.00     0.033 H 
ATOM     59  H30 SB1 d   1       8.357 -37.995  -1.686  0.00  0.00     0.035 H 
ATOM     60  H31 SB1 d   1       6.599 -37.816  -2.009  0.00  0.00     0.035 H 
ATOM     61  H32 SB1 d   1       6.133 -38.263   0.410  0.00  0.00     0.064 H 
ATOM     62  H33 SB1 d   1       7.016 -39.625  -0.359  0.00  0.00     0.064 H 
ENDROOT
BRANCH   6  63
ATOM     63  C27 SB1 d   1       8.663 -42.462   3.096  0.00  0.00    -0.060 C 
ATOM     64  H37 SB1 d   1       9.149 -41.671   3.686  0.00  0.00     0.029 H 
ATOM     65  H38 SB1 d   1       9.431 -43.079   2.607  0.00  0.00     0.029 H 
ATOM     66  H39 SB1 d   1       8.054 -43.093   3.760  0.00  0.00     0.029 H 
ENDBRANCH   6  63
BRANCH   6  67
ATOM     67  C26 SB1 d   1       6.581 -41.127   2.774  0.00  0.00    -0.060 C 
ATOM     68  H34 SB1 d   1       6.975 -40.297   3.378  0.00  0.00     0.029 H 
ATOM     69  H35 SB1 d   1       6.089 -41.858   3.432  0.00  0.00     0.029 H 
ATOM     70  H36 SB1 d   1       5.852 -40.738   2.048  0.00  0.00     0.029 H 
ENDBRANCH   6  67
TORSDOF 2
