REMARK WARNING: 32 MAX_TORS EXCEEDED!!!
REMARK  37 active torsions:
REMARK  status: ('A' for Active; 'I' for Inactive)
REMARK    1  A    between atoms: CA_2  and  N_1 
REMARK    2  A    between atoms: C_3  and  CA_2 
REMARK    3  A    between atoms: CA_2  and  CB_5 
REMARK       I    between atoms: N_10  and  C_3 
REMARK    4  A    between atoms: CB_5  and  CG_6 
REMARK    5  A    between atoms: CG_6  and  CD_7 
REMARK    6  A    between atoms: CA_11  and  N_10 
REMARK    7  A    between atoms: C_12  and  CA_11 
REMARK    8  A    between atoms: CA_11  and  CB_14 
REMARK       I    between atoms: N_17  and  C_12 
REMARK    9  A    between atoms: CB_14  and  CG1_15 
REMARK   10  A    between atoms: CB_14  and  CG2_16 
REMARK   11  A    between atoms: CA_18  and  N_17 
REMARK   12  A    between atoms: C_19  and  CA_18 
REMARK   13  A    between atoms: CA_18  and  CB_21 
REMARK       I    between atoms: N_29  and  C_19 
REMARK   14  A    between atoms: CB_21  and  CG_22 
REMARK       I    between atoms: CG_22  and  ND2_24 
REMARK   15  A    between atoms: CG_27  and  CD1_25 
REMARK   16  A    between atoms: CG_27  and  CD2_26 
REMARK   17  A    between atoms: CB_28  and  CG_27 
REMARK   18  A    between atoms: CA_30  and  CB_28 
REMARK   19  A    between atoms: N_29  and  CA_30 
REMARK   20  A    between atoms: CA_30  and  C_31 
REMARK   21  A    between atoms: C_31  and  O_32 
REMARK   22  A    between atoms: C_31  and  CM_33 
REMARK   23  A    between atoms: CM_33  and  CA_34 
REMARK   24  A    between atoms: CA_34  and  C_36 
REMARK   25  A    between atoms: CA_34  and  CB_35 
REMARK       I    between atoms: C_36  and  N_38 
REMARK   26  A    between atoms: N_38  and  CA_39 
REMARK   27  A    between atoms: CA_39  and  C_40 
REMARK   28  A    between atoms: CA_39  and  CB_42 
REMARK       I    between atoms: C_40  and  N_43 
REMARK   29  A    between atoms: N_43  and  CA_44 
REMARK   30  A    between atoms: CA_44  and  C_45 
REMARK   31  A    between atoms: CA_44  and  CB_47 
REMARK       I    between atoms: C_45  and  N_52 
REMARK   32  A    between atoms: CB_47  and  CG_48 
REMARK   33  A    between atoms: CG_48  and  CD_49 
REMARK   34  A    between atoms: N_52  and  CA_53 
REMARK   35  A    between atoms: CA_53  and  C_54 
REMARK   36  A    between atoms: CA_53  and  CB_56 
REMARK   37  A    between atoms: CB_56  and  CG_57 
ROOT
ATOM      1  CA  1OL d   1      13.733  -2.113  -0.057  0.00  0.00     0.037 C 
ATOM      2  H34 1OL d   1      13.398  -2.813  -0.837  0.00  0.00     0.076 H 
ENDROOT
BRANCH   1   3
ATOM      3  CB  1OL d   1      15.131  -1.588  -0.435  0.00  0.00    -0.041 C 
ATOM      4  H31 1OL d   1      15.462  -0.866   0.326  0.00  0.00     0.036 H 
ATOM      5  H32 1OL d   1      15.835  -2.433  -0.470  0.00  0.00     0.036 H 
BRANCH   3   6
ATOM      6  CG  1OL d   1      15.109  -0.894  -1.811  0.00  0.00    -0.059 C 
ATOM      7  H30 1OL d   1      14.204  -0.272  -1.879  0.00  0.00     0.038 H 
BRANCH   6   8
ATOM      8  CD1 1OL d   1      16.351   0.024  -2.004  0.00  0.00    -0.073 C 
ATOM      9  H24 1OL d   1      16.303   0.502  -2.994  0.00  0.00     0.028 H 
ATOM     10  H25 1OL d   1      17.268  -0.580  -1.932  0.00  0.00     0.028 H 
ATOM     11  H26 1OL d   1      16.360   0.798  -1.223  0.00  0.00     0.028 H 
ENDBRANCH   6   8
BRANCH   6  12
ATOM     12  CD2 1OL d   1      15.055  -1.969  -2.899  0.00  0.00    -0.073 C 
ATOM     13  H27 1OL d   1      14.171  -2.605  -2.743  0.00  0.00     0.028 H 
ATOM     14  H28 1OL d   1      15.964  -2.587  -2.850  0.00  0.00     0.028 H 
ATOM     15  H29 1OL d   1      14.991  -1.488  -3.886  0.00  0.00     0.028 H 
ENDBRANCH   6  12
ENDBRANCH   3   6
ENDBRANCH   1   3
BRANCH   1  16
ATOM     16  N   1OL d   1      12.818  -0.983  -0.033  0.00  0.00    -0.352 N 
ATOM     17  C   ASN d   1      11.651  -1.001  -0.662  0.00  0.00     0.241 C 
ATOM     18  O   ASN d   1      11.216  -1.993  -1.262  0.00  0.00    -0.271 OA
ATOM     19  H33 1OL d   1      13.078  -0.163   0.476  0.00  0.00     0.163 HD
BRANCH  17  20
ATOM     20  CA  ASN d   1      10.848   0.283  -0.577  0.00  0.00     0.097 C 
ATOM     21  H19 ASN d   1      10.795   0.630   0.466  0.00  0.00     0.088 H 
BRANCH  20  22
ATOM     22  CB  ASN d   1       9.432   0.074  -1.114  0.00  0.00     0.036 C 
ATOM     23  H20 ASN d   1       9.047  -0.884  -0.736  0.00  0.00     0.051 H 
ATOM     24  H21 ASN d   1       9.470   0.046  -2.213  0.00  0.00     0.051 H 
BRANCH  22  25
ATOM     25  CG  ASN d   1       8.493   1.181  -0.686  0.00  0.00     0.217 C 
ATOM     26  OD1 ASN d   1       8.066   1.214   0.462  0.00  0.00    -0.274 OA
ATOM     27  ND2 ASN d   1       8.180   2.105  -1.612  0.00  0.00    -0.370 N 
ATOM     28  H22 ASN d   1       7.563   2.857  -1.379  0.00  0.00     0.159 HD
ATOM     29  H23 ASN d   1       8.564   2.040  -2.533  0.00  0.00     0.159 HD
ENDBRANCH  22  25
ENDBRANCH  20  22
BRANCH  20  30
ATOM     30  N   ASN d   1      11.558   1.247  -1.392  0.00  0.00    -0.346 N 
ATOM     31  C   VAL d   1      11.634   2.532  -1.073  0.00  0.00     0.241 C 
ATOM     32  O   VAL d   1      11.023   3.034  -0.115  0.00  0.00    -0.271 OA
ATOM     33  H18 ASN d   1      12.008   0.931  -2.227  0.00  0.00     0.163 HD
BRANCH  31  34
ATOM     34  CA  VAL d   1      12.459   3.376  -2.010  0.00  0.00     0.092 C 
ATOM     35  H10 VAL d   1      12.431   2.942  -3.020  0.00  0.00     0.088 H 
BRANCH  34  36
ATOM     36  CB  VAL d   1      13.943   3.379  -1.521  0.00  0.00    -0.033 C 
ATOM     37  H11 VAL d   1      14.184   2.375  -1.141  0.00  0.00     0.042 H 
BRANCH  36  38
ATOM     38  CG1 VAL d   1      14.885   3.684  -2.713  0.00  0.00    -0.071 C 
ATOM     39  H12 VAL d   1      15.928   3.685  -2.365  0.00  0.00     0.028 H 
ATOM     40  H13 VAL d   1      14.637   4.670  -3.133  0.00  0.00     0.028 H 
ATOM     41  H14 VAL d   1      14.758   2.913  -3.487  0.00  0.00     0.028 H 
ENDBRANCH  36  38
BRANCH  36  42
ATOM     42  CG2 VAL d   1      14.143   4.384  -0.370  0.00  0.00    -0.071 C 
ATOM     43  H15 VAL d   1      13.460   4.137   0.456  0.00  0.00     0.028 H 
ATOM     44  H16 VAL d   1      13.930   5.401  -0.730  0.00  0.00     0.028 H 
ATOM     45  H17 VAL d   1      15.182   4.332  -0.014  0.00  0.00     0.028 H 
ENDBRANCH  36  42
ENDBRANCH  34  36
BRANCH  34  46
ATOM     46  N   VAL d   1      11.846   4.691  -2.054  0.00  0.00    -0.346 N 
ATOM     47  C   GLU d   1      11.459   5.216  -3.206  0.00  0.00     0.249 C 
ATOM     48  O   GLU d   1      11.685   4.668  -4.278  0.00  0.00    -0.271 OA
ATOM     49  H9  VAL d   1      11.715   5.205  -1.206  0.00  0.00     0.163 HD
BRANCH  47  50
ATOM     50  CA  GLU d   1      10.741   6.575  -3.159  0.00  0.00     0.176 C 
ATOM     51  H4  GLU d   1      11.001   7.090  -2.223  0.00  0.00     0.099 H 
BRANCH  50  52
ATOM     52  CB  GLU d   1       9.229   6.322  -3.194  0.00  0.00    -0.021 C 
ATOM     53  H5  GLU d   1       9.009   5.644  -4.032  0.00  0.00     0.037 H 
ATOM     54  H6  GLU d   1       8.719   7.283  -3.356  0.00  0.00     0.037 H 
BRANCH  52  55
ATOM     55  CG  GLU d   1       8.683   5.692  -1.902  0.00  0.00     0.018 C 
ATOM     56  H7  GLU d   1       8.868   6.388  -1.070  0.00  0.00     0.049 H 
ATOM     57  H8  GLU d   1       9.222   4.750  -1.719  0.00  0.00     0.049 H 
BRANCH  55  58
ATOM     58  CD  GLU d   1       7.195   5.392  -1.955  0.00  0.00     0.172 C 
ATOM     59  OE1 GLU d   1       6.504   5.978  -2.826  0.00  0.00    -0.648 OA
ATOM     60  OE2 GLU d   1       6.706   4.589  -1.128  0.00  0.00    -0.648 OA
ENDBRANCH  55  58
ENDBRANCH  52  55
ENDBRANCH  50  52
BRANCH  50  61
ATOM     61  N   GLU d   1      11.157   7.433  -4.314  0.00  0.00    -0.066 N 
ATOM     62  H1  GLU d   1      10.676   8.318  -4.266  0.00  0.00     0.275 HD
ATOM     63  H2  GLU d   1      10.922   6.970  -5.178  0.00  0.00     0.275 HD
ATOM     64  H3  GLU d   1      12.152   7.589  -4.276  0.00  0.00     0.275 HD
ENDBRANCH  50  61
ENDBRANCH  47  50
ENDBRANCH  34  46
ENDBRANCH  31  34
ENDBRANCH  20  30
ENDBRANCH  17  20
ENDBRANCH   1  16
BRANCH   1  65
ATOM     65  C   1OL d   1      13.765  -2.881   1.280  0.00  0.00     0.056 C 
ATOM     66  H35 1OL d   1      14.386  -3.779   1.145  0.00  0.00     0.086 H 
BRANCH  65  67
ATOM     67  O   1OL d   1      14.354  -2.071   2.313  0.00  0.00    -0.393 OA
ATOM     68  H36 1OL d   1      15.242  -1.842   2.067  0.00  0.00     0.210 HD
ENDBRANCH  65  67
BRANCH  65  69
ATOM     69  CM  1OL d   1      12.355  -3.328   1.708  0.00  0.00    -0.028 C 
ATOM     70  H37 1OL d   1      11.886  -2.496   2.254  0.00  0.00     0.038 H 
ATOM     71  H38 1OL d   1      11.776  -3.541   0.798  0.00  0.00     0.038 H 
BRANCH  69  72
ATOM     72  CA  1OL d   1      12.303  -4.570   2.603  0.00  0.00     0.022 C 
ATOM     73  H39 1OL d   1      13.176  -4.570   3.272  0.00  0.00     0.054 H 
BRANCH  72  74
ATOM     74  C   1OL d   1      12.339  -5.826   1.721  0.00  0.00     0.222 C 
ATOM     75  O   1OL d   1      11.603  -5.891   0.720  0.00  0.00    -0.273 OA
ATOM     76  N   ALA d   1      13.217  -6.778   2.074  0.00  0.00    -0.348 N 
ATOM     77  H43 ALA d   1      13.834  -6.596   2.840  0.00  0.00     0.163 HD
BRANCH  76  78
ATOM     78  CA  ALA d   1      13.315  -8.071   1.392  0.00  0.00     0.086 C 
ATOM     79  H44 ALA d   1      13.537  -7.933   0.324  0.00  0.00     0.086 H 
BRANCH  78  80
ATOM     80  C   ALA d   1      11.929  -8.667   1.577  0.00  0.00     0.240 C 
ATOM     81  O   ALA d   1      11.366  -8.705   2.710  0.00  0.00    -0.271 OA
ATOM     82  N   GLU d   1      11.414  -9.285   0.438  0.00  0.00    -0.346 N 
ATOM     83  H48 GLU d   1      12.064  -9.482  -0.296  0.00  0.00     0.163 HD
BRANCH  82  84
ATOM     84  CA  GLU d   1       9.988  -9.686   0.196  0.00  0.00     0.090 C 
ATOM     85  H49 GLU d   1       9.464  -8.761   0.479  0.00  0.00     0.087 H 
BRANCH  84  86
ATOM     86  C   GLU d   1       9.201 -10.695   0.998  0.00  0.00     0.241 C 
ATOM     87  O   GLU d   1       9.336 -11.907   1.087  0.00  0.00    -0.271 OA
ATOM     88  N   PHE d   1       8.330  -9.780   1.583  0.00  0.00    -0.344 N 
ATOM     89  H54 PHE d   1       8.591  -8.887   1.216  0.00  0.00     0.163 HD
BRANCH  88  90
ATOM     90  CA  PHE d   1       7.191  -9.518   2.502  0.00  0.00     0.100 C 
ATOM     91  H55 PHE d   1       7.342  -8.501   2.893  0.00  0.00     0.090 H 
BRANCH  90  92
ATOM     92  C   PHE d   1       7.151 -10.435   3.738  0.00  0.00     0.197 C 
ATOM     93  OXT PHE d   1       6.123 -10.480   4.474  0.00  0.00    -0.646 OA
ATOM     94  O   PHE d   1       8.132 -11.103   4.167  0.00  0.00    -0.646 OA
ENDBRANCH  90  92
BRANCH  90  95
ATOM     95  CB  PHE d   1       5.897  -9.491   1.743  0.00  0.00    -0.013 C 
ATOM     96  H56 PHE d   1       6.046  -9.033   0.754  0.00  0.00     0.043 H 
ATOM     97  H57 PHE d   1       5.141  -8.920   2.302  0.00  0.00     0.043 H 
BRANCH  95  98
ATOM     98  CG  PHE d   1       5.473 -10.880   1.596  0.00  0.00    -0.056 A 
ATOM     99  CD2 PHE d   1       4.153 -11.259   1.768  0.00  0.00    -0.077 A 
ATOM    100  CE2 PHE d   1       3.787 -12.586   1.647  0.00  0.00    -0.082 A 
ATOM    101  H59 PHE d   1       3.403 -10.511   1.999  0.00  0.00     0.084 H 
ATOM    102  CZ  PHE d   1       4.752 -13.530   1.322  0.00  0.00    -0.083 A 
ATOM    103  H61 PHE d   1       2.757 -12.887   1.804  0.00  0.00     0.083 H 
ATOM    104  CE1 PHE d   1       6.076 -13.164   1.122  0.00  0.00    -0.082 A 
ATOM    105  H62 PHE d   1       4.466 -14.571   1.223  0.00  0.00     0.083 H 
ATOM    106  CD1 PHE d   1       6.430 -11.828   1.276  0.00  0.00    -0.077 A 
ATOM    107  H60 PHE d   1       6.819 -13.905   0.851  0.00  0.00     0.083 H 
ATOM    108  H58 PHE d   1       7.463 -11.527   1.145  0.00  0.00     0.084 H 
ENDBRANCH  95  98
ENDBRANCH  90  95
ENDBRANCH  88  90
ENDBRANCH  84  86
BRANCH  84 109
ATOM    109  CB  GLU d   1       9.726  -9.796  -1.312  0.00  0.00    -0.029 C 
ATOM    110  H50 GLU d   1       9.304 -10.787  -1.537  0.00  0.00     0.037 H 
ATOM    111  H51 GLU d   1      10.674  -9.669  -1.856  0.00  0.00     0.037 H 
BRANCH 109 112
ATOM    112  CG  GLU d   1       8.737  -8.710  -1.756  0.00  0.00     0.018 C 
ATOM    113  H52 GLU d   1       9.277  -7.995  -2.394  0.00  0.00     0.049 H 
ATOM    114  H53 GLU d   1       8.368  -8.194  -0.857  0.00  0.00     0.049 H 
BRANCH 112 115
ATOM    115  CD  GLU d   1       7.526  -9.231  -2.540  0.00  0.00     0.172 C 
ATOM    116  OE1 GLU d   1       7.695 -10.191  -3.320  0.00  0.00    -0.648 OA
ATOM    117  OE2 GLU d   1       6.411  -8.681  -2.357  0.00  0.00    -0.648 OA
ENDBRANCH 112 115
ENDBRANCH 109 112
ENDBRANCH  84 109
ENDBRANCH  82  84
ENDBRANCH  78  80
BRANCH  78 118
ATOM    118  CB  ALA d   1      14.389  -8.932   2.012  0.00  0.00    -0.049 C 
ATOM    119  H45 ALA d   1      14.440  -9.894   1.481  0.00  0.00     0.030 H 
ATOM    120  H46 ALA d   1      14.150  -9.110   3.071  0.00  0.00     0.030 H 
ATOM    121  H47 ALA d   1      15.359  -8.419   1.936  0.00  0.00     0.030 H 
ENDBRANCH  78 118
ENDBRANCH  76  78
ENDBRANCH  72  74
BRANCH  72 122
ATOM    122  CB  1OL d   1      11.028  -4.569   3.448  0.00  0.00    -0.065 C 
ATOM    123  H40 1OL d   1      11.008  -5.467   4.083  0.00  0.00     0.028 H 
ATOM    124  H41 1OL d   1      10.149  -4.569   2.786  0.00  0.00     0.028 H 
ATOM    125  H42 1OL d   1      11.009  -3.671   4.082  0.00  0.00     0.028 H 
ENDBRANCH  72 122
ENDBRANCH  69  72
ENDBRANCH  65  69
ENDBRANCH   1  65
TORSDOF 37
