REMARK  5 active torsions:
REMARK  status: ('A' for Active; 'I' for Inactive)
REMARK    1  A    between atoms: N9_9  and  C1'_10 
REMARK    2  A    between atoms: C2'_11  and  O2'_12 
REMARK    3  A    between atoms: C3'_13  and  O3'_14 
REMARK    4  A    between atoms: C4'_15  and  C5'_17 
REMARK    5  A    between atoms: C5'_17  and  O5'_18 
ROOT
ATOM      1  C1' PUR d   1       6.119  18.740  37.956  0.00  0.00     0.139 C 
ATOM      2  C2' PUR d   1       6.524  17.522  37.133  0.00  0.00     0.105 C 
ATOM      3  C3' PUR d   1       7.791  17.835  36.281  0.00  0.00     0.091 C 
ATOM      4  C4' PUR d   1       8.237  19.017  37.267  0.00  0.00     0.088 C 
ATOM      5  O4' PUR d   1       7.141  19.688  37.768  0.00  0.00    -0.353 OA
ATOM      6  H4  PUR d   1       6.001  18.489  39.020  0.00  0.00     0.122 H 
ATOM      7  H5  PUR d   1       5.702  17.280  36.443  0.00  0.00     0.093 H 
ATOM      8  H7  PUR d   1       7.584  18.154  35.249  0.00  0.00     0.091 H 
ATOM      9  H9  PUR d   1       8.769  18.556  38.112  0.00  0.00     0.090 H 
ENDROOT
BRANCH   1  10
ATOM     10  N9  PUR d   1       4.896  19.238  37.414  0.00  0.00    -0.294 N 
ATOM     11  C4  PUR d   1       3.815  19.669  38.114  0.00  0.00     0.164 A 
ATOM     12  N3  PUR d   1       3.598  19.837  39.445  0.00  0.00    -0.222 NA
ATOM     13  C5  PUR d   1       2.843  19.951  37.215  0.00  0.00     0.121 A 
ATOM     14  C2  PUR d   1       2.414  20.281  39.873  0.00  0.00     0.088 A 
ATOM     15  N1  PUR d   1       1.417  20.582  39.043  0.00  0.00    -0.252 NA
ATOM     16  H1  PUR d   1       2.258  20.401  40.939  0.00  0.00     0.146 H 
ATOM     17  C6  PUR d   1       1.572  20.433  37.671  0.00  0.00     0.035 A 
ATOM     18  H2  PUR d   1       0.772  20.669  36.979  0.00  0.00     0.118 H 
ATOM     19  N7  PUR d   1       3.333  19.699  35.988  0.00  0.00    -0.238 NA
ATOM     20  C8  PUR d   1       4.584  19.263  36.124  0.00  0.00     0.070 A 
ATOM     21  H3  PUR d   1       5.245  18.974  35.308  0.00  0.00     0.144 H 
ENDBRANCH   1  10
BRANCH   2  22
ATOM     22  O2' PUR d   1       6.725  16.400  37.996  0.00  0.00    -0.388 OA
ATOM     23  H6  PUR d   1       6.930  15.633  37.474  0.00  0.00     0.210 HD
ENDBRANCH   2  22
BRANCH   4  24
ATOM     24  C5' PUR d   1       9.207  20.029  36.595  0.00  0.00     0.043 C 
ATOM     25  H10 PUR d   1      10.156  19.515  36.381  0.00  0.00     0.078 H 
ATOM     26  H11 PUR d   1       9.389  20.858  37.295  0.00  0.00     0.078 H 
BRANCH  24  27
ATOM     27  O5' PUR d   1       8.690  20.575  35.359  0.00  0.00    -0.398 OA
ATOM     28  H12 PUR d   1       7.874  21.029  35.532  0.00  0.00     0.209 HD
ENDBRANCH  24  27
ENDBRANCH   4  24
BRANCH   3  29
ATOM     29  O3' PUR d   1       8.717  16.743  36.300  0.00  0.00    -0.390 OA
ATOM     30  H8  PUR d   1       8.772  16.391  37.181  0.00  0.00     0.210 HD
ENDBRANCH   3  29
TORSDOF 5
