REMARK  7 active torsions:
REMARK  status: ('A' for Active; 'I' for Inactive)
REMARK    1  A    between atoms: C6_6  and  C7_7 
REMARK    2  A    between atoms: C8_8  and  C9_9 
REMARK    3  A    between atoms: C12_12  and  N15_15 
REMARK       I    between atoms: N15_15  and  C16_16 
REMARK    4  A    between atoms: C16_16  and  C17_17 
REMARK    5  A    between atoms: C17_17  and  C18_18 
REMARK    6  A    between atoms: C18_18  and  C19_19 
REMARK    7  A    between atoms: C19_19  and  C20_20 
ROOT
ATOM      1  C9  SPB d   1      62.582  -0.590 -29.967  0.00  0.00    -0.036 A 
ATOM      2  C10 SPB d   1      63.469   0.192 -30.744  0.00  0.00    -0.071 A 
ATOM      3  C11 SPB d   1      64.693  -0.339 -31.158  0.00  0.00    -0.056 A 
ATOM      4  C12 SPB d   1      65.073  -1.667 -30.832  0.00  0.00     0.034 A 
ATOM      5  C13 SPB d   1      64.180  -2.470 -30.044  0.00  0.00    -0.056 A 
ATOM      6  C14 SPB d   1      62.928  -1.917 -29.613  0.00  0.00    -0.071 A 
ATOM      7  H8  SPB d   1      63.198   1.205 -31.019  0.00  0.00     0.084 H 
ATOM      8  H9  SPB d   1      65.368   0.277 -31.741  0.00  0.00     0.086 H 
ATOM      9  H10 SPB d   1      64.450  -3.485 -29.777  0.00  0.00     0.086 H 
ATOM     10  H11 SPB d   1      62.248  -2.514 -29.017  0.00  0.00     0.084 H 
ENDROOT
BRANCH   4  11
ATOM     11  N15 SPB d   1      66.359  -2.081 -31.351  0.00  0.00    -0.327 N 
ATOM     12  C16 SPB d   1      66.939  -3.228 -31.639  0.00  0.00     0.222 C 
ATOM     13  O22 SPB d   1      66.374  -4.299 -31.732  0.00  0.00    -0.273 OA
ATOM     14  H12 SPB d   1      66.957  -1.301 -31.538  0.00  0.00     0.169 HD
BRANCH  12  15
ATOM     15  C17 SPB d   1      68.455  -3.180 -31.822  0.00  0.00     0.010 C 
ATOM     16  H13 SPB d   1      68.919  -3.463 -30.866  0.00  0.00     0.047 H 
ATOM     17  H14 SPB d   1      68.732  -2.145 -32.072  0.00  0.00     0.047 H 
BRANCH  15  18
ATOM     18  C18 SPB d   1      69.011  -4.068 -32.879  0.00  0.00    -0.048 C 
ATOM     19  H15 SPB d   1      68.604  -3.763 -33.855  0.00  0.00     0.034 H 
ATOM     20  H16 SPB d   1      68.717  -5.106 -32.667  0.00  0.00     0.034 H 
BRANCH  18  21
ATOM     21  C19 SPB d   1      70.501  -3.983 -32.924  0.00  0.00     0.016 C 
ATOM     22  H17 SPB d   1      70.911  -4.311 -31.957  0.00  0.00     0.049 H 
ATOM     23  H18 SPB d   1      70.797  -2.941 -33.113  0.00  0.00     0.049 H 
BRANCH  21  24
ATOM     24  C20 SPB d   1      71.047  -4.851 -34.007  0.00  0.00     0.172 C 
ATOM     25  O21 SPB d   1      71.407  -4.079 -35.102  0.00  0.00    -0.648 OA
ATOM     26  O23 SPB d   1      71.083  -6.066 -33.947  0.00  0.00    -0.648 OA
ENDBRANCH  21  24
ENDBRANCH  18  21
ENDBRANCH  15  18
ENDBRANCH  12  15
ENDBRANCH   4  11
BRANCH   1  27
ATOM     27  C8  SPB d   1      61.276  -0.005 -29.531  0.00  0.00    -0.072 C 
ATOM     28  C7  SPB d   1      60.955   1.272 -29.780  0.00  0.00    -0.072 C 
ATOM     29  H6  SPB d   1      61.688   1.870 -30.320  0.00  0.00     0.084 H 
ATOM     30  H7  SPB d   1      60.566  -0.634 -28.996  0.00  0.00     0.084 H 
BRANCH  28  31
ATOM     31  C6  SPB d   1      59.689   1.948 -29.387  0.00  0.00    -0.036 A 
ATOM     32  C1  SPB d   1      59.540   3.323 -29.679  0.00  0.00    -0.073 A 
ATOM     33  C2  SPB d   1      58.337   3.980 -29.322  0.00  0.00    -0.082 A 
ATOM     34  H1  SPB d   1      60.337   3.869 -30.171  0.00  0.00     0.084 H 
ATOM     35  C3  SPB d   1      57.297   3.247 -28.682  0.00  0.00    -0.083 A 
ATOM     36  H2  SPB d   1      58.209   5.035 -29.535  0.00  0.00     0.083 H 
ATOM     37  C4  SPB d   1      57.462   1.880 -28.395  0.00  0.00    -0.082 A 
ATOM     38  H3  SPB d   1      56.373   3.746 -28.414  0.00  0.00     0.083 H 
ATOM     39  C5  SPB d   1      58.646   1.226 -28.745  0.00  0.00    -0.073 A 
ATOM     40  H4  SPB d   1      56.668   1.332 -27.901  0.00  0.00     0.083 H 
ATOM     41  H5  SPB d   1      58.769   0.171 -28.528  0.00  0.00     0.084 H 
ENDBRANCH  28  31
ENDBRANCH   1  27
TORSDOF 7
