REMARK  3 active torsions:
REMARK  status: ('A' for Active; 'I' for Inactive)
REMARK    1  A    between atoms: C1_1  and  O1_2 
REMARK    2  A    between atoms: C10_13  and  C14_17 
REMARK    3  A    between atoms: C19_22  and  C20_23 
ROOT
ATOM      1  C1  FLU d   1      28.852  22.311  42.336  0.00  0.00     0.068 A 
ATOM      2  C2  FLU d   1      28.101  21.255  41.765  0.00  0.00    -0.018 A 
ATOM      3  C3  FLU d   1      26.893  21.692  41.215  0.00  0.00     0.089 A 
ATOM      4  O2  FLU d   1      26.141  20.574  40.574  0.00  0.00    -0.309 OA
ATOM      5  C4  FLU d   1      25.101  21.027  40.118  0.00  0.00     0.091 A 
ATOM      6  C5  FLU d   1      24.428  19.924  39.557  0.00  0.00    -0.001 A 
ATOM      7  C6  FLU d   1      23.225  20.272  38.949  0.00  0.00     0.174 A 
ATOM      8  O3  FLU d   1      22.571  19.366  38.432  0.00  0.00    -0.288 OA
ATOM      9  C7  FLU d   1      22.723  21.543  38.937  0.00  0.00    -0.034 A 
ATOM     10  C8  FLU d   1      23.432  22.616  39.533  0.00  0.00    -0.066 A 
ATOM     11  C9  FLU d   1      24.642  22.274  40.132  0.00  0.00     0.010 A 
ATOM     12  C10 FLU d   1      25.287  23.429  40.756  0.00  0.00     0.001 A 
ATOM     13  C11 FLU d   1      26.421  22.938  41.259  0.00  0.00     0.010 A 
ATOM     14  C12 FLU d   1      27.154  23.982  41.902  0.00  0.00    -0.067 A 
ATOM     15  C13 FLU d   1      28.402  23.565  42.405  0.00  0.00    -0.050 A 
ATOM     16  H2  FLU d   1      28.427  20.221  41.756  0.00  0.00     0.092 H 
ATOM     17  H3  FLU d   1      24.809  18.905  39.595  0.00  0.00     0.094 H 
ATOM     18  H4  FLU d   1      21.762  21.735  38.462  0.00  0.00     0.089 H 
ATOM     19  H5  FLU d   1      23.056  23.638  39.523  0.00  0.00     0.085 H 
ATOM     20  H6  FLU d   1      26.785  24.997  41.994  0.00  0.00     0.085 H 
ATOM     21  H7  FLU d   1      29.035  24.308  42.877  0.00  0.00     0.087 H 
ENDROOT
BRANCH  12  22
ATOM     22  C14 FLU d   1      24.786  24.653  40.745  0.00  0.00    -0.007 A 
ATOM     23  C19 FLU d   1      24.302  25.191  41.969  0.00  0.00     0.051 A 
ATOM     24  C18 FLU d   1      23.745  26.440  41.867  0.00  0.00    -0.066 A 
ATOM     25  C17 FLU d   1      23.524  27.254  40.749  0.00  0.00    -0.082 A 
ATOM     26  H11 FLU d   1      23.422  26.869  42.809  0.00  0.00     0.085 H 
ATOM     27  C16 FLU d   1      24.009  26.664  39.534  0.00  0.00    -0.082 A 
ATOM     28  H10 FLU d   1      23.040  28.223  40.796  0.00  0.00     0.083 H 
ATOM     29  C15 FLU d   1      24.617  25.425  39.605  0.00  0.00    -0.071 A 
ATOM     30  H9  FLU d   1      23.901  27.177  38.585  0.00  0.00     0.083 H 
ATOM     31  H8  FLU d   1      25.000  25.016  38.677  0.00  0.00     0.084 H 
BRANCH  23  32
ATOM     32  C20 FLU d   1      24.334  24.672  43.283  0.00  0.00     0.210 C 
ATOM     33  O5  FLU d   1      24.854  25.151  44.423  0.00  0.00    -0.644 OA
ATOM     34  O4  FLU d   1      23.764  23.410  43.277  0.00  0.00    -0.644 OA
ENDBRANCH  23  32
ENDBRANCH  12  22
BRANCH   1  35
ATOM     35  O1  FLU d   1      29.932  21.976  42.826  0.00  0.00    -0.361 OA
ATOM     36  H1  FLU d   1      29.782  21.343  43.518  0.00  0.00     0.217 HD
ENDBRANCH   1  35
TORSDOF 3
