REMARK  13 active torsions:
REMARK  status: ('A' for Active; 'I' for Inactive)
REMARK    1  A    between atoms: N_1  and  C1A_11 
REMARK    2  A    between atoms: N_1  and  CA_2 
REMARK    3  A    between atoms: CA_2  and  C_41 
REMARK    4  A    between atoms: CA_2  and  CB_3 
REMARK    5  A    between atoms: CB_3  and  CG_4 
REMARK    6  A    between atoms: CZ_9  and  OH_10 
REMARK    7  A    between atoms: OH_10  and  C3A_37 
REMARK    8  A    between atoms: C1F_12  and  C1G_23 
REMARK    9  A    between atoms: C1G_23  and  C1H_17 
REMARK   10  A    between atoms: C3G_26  and  C3I_31 
REMARK   11  A    between atoms: C3B_38  and  C3C_28 
REMARK   12  A    between atoms: C3D_29  and  C3E_30 
REMARK   13  A    between atoms: C3A_37  and  C3B_38 
ROOT
ATOM      1  CG  570 d   1      13.021  -3.994  12.072  0.00  0.00    -0.056 A 
ATOM      2  CD1 570 d   1      11.764  -4.681  12.128  0.00  0.00    -0.074 A 
ATOM      3  CD2 570 d   1      13.285  -3.065  11.012  0.00  0.00    -0.074 A 
ATOM      4  CE1 570 d   1      10.780  -4.450  11.148  0.00  0.00    -0.050 A 
ATOM      5  CE2 570 d   1      12.304  -2.826  10.023  0.00  0.00    -0.050 A 
ATOM      6  CZ  570 d   1      11.016  -3.528  10.079  0.00  0.00     0.068 A 
ATOM      7  H5  570 d   1      11.570  -5.383  12.931  0.00  0.00     0.084 H 
ATOM      8  H6  570 d   1      14.236  -2.547  10.969  0.00  0.00     0.084 H 
ATOM      9  H7  570 d   1       9.834  -4.976  11.204  0.00  0.00     0.087 H 
ATOM     10  H8  570 d   1      12.503  -2.123   9.222  0.00  0.00     0.087 H 
ENDROOT
BRANCH   1  11
ATOM     11  CB  570 d   1      14.059  -4.280  13.163  0.00  0.00    -0.013 C 
ATOM     12  H3  570 d   1      14.539  -3.329  13.439  0.00  0.00     0.043 H 
ATOM     13  H4  570 d   1      13.534  -4.693  14.037  0.00  0.00     0.043 H 
BRANCH  11  14
ATOM     14  CA  570 d   1      15.175  -5.287  12.743  0.00  0.00     0.098 C 
ATOM     15  H2  570 d   1      15.695  -4.849  11.879  0.00  0.00     0.090 H 
BRANCH  14  16
ATOM     16  N   570 d   1      14.630  -6.623  12.297  0.00  0.00    -0.375 N 
ATOM     17  H1  570 d   1      13.634  -6.755  12.524  0.00  0.00     0.160 HD
BRANCH  16  18
ATOM     18  C1A 570 d   1      15.224  -7.767  11.610  0.00  0.00     0.043 A 
ATOM     19  C1B 570 d   1      16.646  -7.805  11.378  0.00  0.00    -0.057 A 
ATOM     20  C1C 570 d   1      17.249  -8.882  10.725  0.00  0.00    -0.081 A 
ATOM     21  H12 570 d   1      17.261  -6.979  11.718  0.00  0.00     0.086 H 
ATOM     22  C1D 570 d   1      16.470  -9.963  10.274  0.00  0.00    -0.082 A 
ATOM     23  H11 570 d   1      18.321  -8.885  10.565  0.00  0.00     0.083 H 
ATOM     24  C1E 570 d   1      15.070  -9.972  10.477  0.00  0.00    -0.067 A 
ATOM     25  H10 570 d   1      16.946 -10.795   9.767  0.00  0.00     0.083 H 
ATOM     26  C1F 570 d   1      14.395  -8.886  11.148  0.00  0.00     0.041 A 
ATOM     27  H9  570 d   1      14.490 -10.815  10.120  0.00  0.00     0.085 H 
BRANCH  26  28
ATOM     28  C1G 570 d   1      12.822  -9.023  11.307  0.00  0.00     0.194 C 
ATOM     29  O1G 570 d   1      12.212  -8.026  11.745  0.00  0.00    -0.287 OA
BRANCH  28  30
ATOM     30  C1H 570 d   1      11.891 -10.170  10.945  0.00  0.00     0.015 A 
ATOM     31  C1M 570 d   1      12.269 -11.535  11.144  0.00  0.00    -0.069 A 
ATOM     32  C1L 570 d   1      11.387 -12.588  10.797  0.00  0.00    -0.082 A 
ATOM     33  H17 570 d   1      13.241 -11.766  11.565  0.00  0.00     0.085 H 
ATOM     34  C1K 570 d   1      10.107 -12.300  10.243  0.00  0.00    -0.083 A 
ATOM     35  H16 570 d   1      11.688 -13.618  10.954  0.00  0.00     0.083 H 
ATOM     36  C1J 570 d   1       9.704 -10.948  10.035  0.00  0.00    -0.082 A 
ATOM     37  H15 570 d   1       9.437 -13.111   9.979  0.00  0.00     0.083 H 
ATOM     38  C1I 570 d   1      10.589  -9.887  10.383  0.00  0.00    -0.069 A 
ATOM     39  H14 570 d   1       8.729 -10.729   9.614  0.00  0.00     0.083 H 
ATOM     40  H13 570 d   1      10.284  -8.859  10.225  0.00  0.00     0.085 H 
ENDBRANCH  28  30
ENDBRANCH  26  28
ENDBRANCH  16  18
ENDBRANCH  14  16
BRANCH  14  41
ATOM     41  C   570 d   1      16.187  -5.446  13.843  0.00  0.00     0.197 C 
ATOM     42  O2  570 d   1      17.259  -4.803  13.731  0.00  0.00    -0.646 OA
ATOM     43  O1  570 d   1      15.952  -6.263  14.792  0.00  0.00    -0.646 OA
ENDBRANCH  14  41
ENDBRANCH  11  14
ENDBRANCH   1  11
BRANCH   6  44
ATOM     44  OH  570 d   1       9.937  -3.385   9.155  0.00  0.00    -0.351 OA
BRANCH  44  45
ATOM     45  C3A 570 d   1      10.133  -2.686   7.902  0.00  0.00     0.031 C 
ATOM     46  H26 570 d   1      11.024  -3.080   7.391  0.00  0.00     0.075 H 
ATOM     47  H27 570 d   1      10.264  -1.611   8.092  0.00  0.00     0.075 H 
BRANCH  45  48
ATOM     48  C3B 570 d   1       8.886  -2.913   7.026  0.00  0.00    -0.002 C 
ATOM     49  H28 570 d   1       8.805  -2.081   6.311  0.00  0.00     0.045 H 
ATOM     50  H29 570 d   1       7.999  -2.925   7.677  0.00  0.00     0.045 H 
BRANCH  48  51
ATOM     51  C3C 570 d   1       8.930  -4.257   6.221  0.00  0.00     0.068 A 
ATOM     52  C3D 570 d   1       8.300  -5.505   6.567  0.00  0.00     0.076 A 
ATOM     53  O3F 570 d   1       8.679  -6.311   5.515  0.00  0.00    -0.294 OA
ATOM     54  C3G 570 d   1       9.463  -5.675   4.559  0.00  0.00     0.180 A 
ATOM     55  N3H 570 d   1       9.621  -4.351   5.032  0.00  0.00    -0.226 NA
BRANCH  52  56
ATOM     56  C3E 570 d   1       7.435  -5.857   7.784  0.00  0.00    -0.029 C 
ATOM     57  H18 570 d   1       7.122  -6.910   7.720  0.00  0.00     0.036 H 
ATOM     58  H19 570 d   1       6.545  -5.211   7.801  0.00  0.00     0.036 H 
ATOM     59  H20 570 d   1       8.017  -5.703   8.704  0.00  0.00     0.036 H 
ENDBRANCH  52  56
BRANCH  54  60
ATOM     60  C3I 570 d   1       9.991  -6.196   3.378  0.00  0.00     0.017 A 
ATOM     61  C3J 570 d   1       9.729  -7.569   3.054  0.00  0.00    -0.069 A 
ATOM     62  C3K 570 d   1      10.244  -8.137   1.862  0.00  0.00    -0.082 A 
ATOM     63  H25 570 d   1       9.133  -8.176   3.726  0.00  0.00     0.085 H 
ATOM     64  C3L 570 d   1      11.023  -7.344   0.976  0.00  0.00    -0.083 A 
ATOM     65  H24 570 d   1      10.044  -9.176   1.626  0.00  0.00     0.083 H 
ATOM     66  C3M 570 d   1      11.294  -5.984   1.278  0.00  0.00    -0.082 A 
ATOM     67  H23 570 d   1      11.413  -7.781   0.064  0.00  0.00     0.083 H 
ATOM     68  C3N 570 d   1      10.785  -5.404   2.469  0.00  0.00    -0.069 A 
ATOM     69  H22 570 d   1      11.891  -5.387   0.598  0.00  0.00     0.083 H 
ATOM     70  H21 570 d   1      10.993  -4.365   2.696  0.00  0.00     0.085 H 
ENDBRANCH  54  60
ENDBRANCH  48  51
ENDBRANCH  45  48
ENDBRANCH  44  45
ENDBRANCH   6  44
TORSDOF 13
