REMARK WARNING: 32 MAX_TORS EXCEEDED!!!
REMARK  37 active torsions:
REMARK  status: ('A' for Active; 'I' for Inactive)
REMARK    1  A    between atoms: CA_2  and  N_1 
REMARK    2  A    between atoms: CA_2  and  CB_5 
REMARK    3  A    between atoms: C_3  and  CA_2 
REMARK       I    between atoms: N_9  and  C_3 
REMARK    4  A    between atoms: CB_5  and  CG2_7 
REMARK    5  A    between atoms: CB_5  and  CG1_6 
REMARK    6  A    between atoms: CG1_6  and  CD1_8 
REMARK    7  A    between atoms: CA_10  and  N_9 
REMARK    8  A    between atoms: CA_10  and  CB_13 
REMARK    9  A    between atoms: C_11  and  CA_10 
REMARK       I    between atoms: N_17  and  C_11 
REMARK   10  A    between atoms: CB_13  and  CG_14 
REMARK       I    between atoms: CG_14  and  ND2_16 
REMARK   11  A    between atoms: CA_18  and  N_17 
REMARK   12  A    between atoms: CA_18  and  CB_21 
REMARK   13  A    between atoms: C_19  and  CA_18 
REMARK       I    between atoms: N_28  and  C_19 
REMARK   14  A    between atoms: CB_21  and  CG_22 
REMARK   15  A    between atoms: CA_29  and  N_28 
REMARK   16  A    between atoms: CA_29  and  CB_32 
REMARK   17  A    between atoms: C_30  and  CA_29 
REMARK       I    between atoms: N_36  and  C_30 
REMARK   18  A    between atoms: CB_32  and  CG_33 
REMARK   19  A    between atoms: CA_37  and  N_36 
REMARK   20  A    between atoms: CA_37  and  CB_40 
REMARK   21  A    between atoms: C_38  and  CA_37 
REMARK       I    between atoms: N_47  and  C_38 
REMARK   22  A    between atoms: CB_40  and  CG_41 
REMARK   23  A    between atoms: CA_48  and  N_47 
REMARK   24  A    between atoms: CA_48  and  CB_51 
REMARK   25  A    between atoms: C_49  and  CA_48 
REMARK       I    between atoms: N_55  and  C_49 
REMARK   26  A    between atoms: CB_51  and  CG_52 
REMARK       I    between atoms: CG_52  and  ND2_54 
REMARK   27  A    between atoms: CA_56  and  N_55 
REMARK   28  A    between atoms: CA_56  and  CB_59 
REMARK   29  A    between atoms: C_57  and  CA_56 
REMARK       I    between atoms: C_57  and  N_62 
REMARK   30  A    between atoms: CB_59  and  CG2_61 
REMARK   31  A    between atoms: CB_59  and  OG1_60 
REMARK   32  A    between atoms: N_62  and  CA_63 
REMARK   33  A    between atoms: CA_63  and  CB_66 
REMARK   34  A    between atoms: CA_63  and  C_64 
REMARK   35  A    between atoms: CB_66  and  CG2_68 
REMARK   36  A    between atoms: CB_66  and  CG1_67 
REMARK   37  A    between atoms: CG1_67  and  CD1_69 
ROOT
ATOM      1  N   PHE d   1      18.562  33.527  50.340  0.00  0.00    -0.346 N 
ATOM      2  H33 PHE d   1      19.219  33.263  49.634  0.00  0.00     0.163 HD
ATOM      3  C   ASP d   1      19.013  34.204  51.384  0.00  0.00     0.241 C 
ATOM      4  O   ASP d   1      18.346  34.606  52.349  0.00  0.00    -0.271 OA
ENDROOT
BRANCH   1   5
ATOM      5  CA  PHE d   1      17.194  33.149  50.156  0.00  0.00     0.093 C 
ATOM      6  H34 PHE d   1      16.579  34.029  50.395  0.00  0.00     0.088 H 
BRANCH   5   7
ATOM      7  CB  PHE d   1      16.903  32.722  48.696  0.00  0.00    -0.014 C 
ATOM      8  H35 PHE d   1      15.877  32.328  48.640  0.00  0.00     0.043 H 
ATOM      9  H36 PHE d   1      17.614  31.934  48.409  0.00  0.00     0.043 H 
BRANCH   7  10
ATOM     10  CG  PHE d   1      17.035  33.866  47.733  0.00  0.00    -0.056 A 
ATOM     11  CD1 PHE d   1      15.977  34.758  47.517  0.00  0.00    -0.077 A 
ATOM     12  CE1 PHE d   1      16.101  35.818  46.668  0.00  0.00    -0.082 A 
ATOM     13  H37 PHE d   1      15.038  34.602  48.036  0.00  0.00     0.084 H 
ATOM     14  CZ  PHE d   1      17.300  36.028  46.005  0.00  0.00    -0.083 A 
ATOM     15  H39 PHE d   1      15.267  36.492  46.513  0.00  0.00     0.083 H 
ATOM     16  CE2 PHE d   1      18.364  35.177  46.225  0.00  0.00    -0.082 A 
ATOM     17  H41 PHE d   1      17.402  36.858  45.316  0.00  0.00     0.083 H 
ATOM     18  CD2 PHE d   1      18.230  34.094  47.073  0.00  0.00    -0.077 A 
ATOM     19  H40 PHE d   1      19.311  35.359  45.730  0.00  0.00     0.083 H 
ATOM     20  H38 PHE d   1      19.065  33.419  47.222  0.00  0.00     0.084 H 
ENDBRANCH   7  10
ENDBRANCH   5   7
BRANCH   5  21
ATOM     21  C   PHE d   1      16.739  31.997  51.039  0.00  0.00     0.241 C 
ATOM     22  O   PHE d   1      17.331  30.916  51.068  0.00  0.00    -0.271 OA
ATOM     23  N   ASN d   1      15.636  32.232  51.732  0.00  0.00    -0.346 N 
ATOM     24  H42 ASN d   1      15.228  33.144  51.702  0.00  0.00     0.163 HD
BRANCH  23  25
ATOM     25  CA  ASN d   1      15.005  31.203  52.532  0.00  0.00     0.097 C 
ATOM     26  H43 ASN d   1      15.765  30.524  52.947  0.00  0.00     0.088 H 
BRANCH  25  27
ATOM     27  CB  ASN d   1      14.243  31.851  53.674  0.00  0.00     0.036 C 
ATOM     28  H44 ASN d   1      13.248  31.391  53.761  0.00  0.00     0.051 H 
ATOM     29  H45 ASN d   1      14.133  32.928  53.479  0.00  0.00     0.051 H 
BRANCH  27  30
ATOM     30  CG  ASN d   1      15.017  31.643  54.973  0.00  0.00     0.217 C 
ATOM     31  ND2 ASN d   1      14.904  32.606  55.872  0.00  0.00    -0.370 N 
ATOM     32  H46 ASN d   1      15.385  32.533  56.746  0.00  0.00     0.159 HD
ATOM     33  H47 ASN d   1      14.337  33.407  55.678  0.00  0.00     0.159 HD
ATOM     34  OD1 ASN d   1      15.693  30.611  55.081  0.00  0.00    -0.274 OA
ENDBRANCH  27  30
ENDBRANCH  25  27
BRANCH  25  35
ATOM     35  C   ASN d   1      14.090  30.434  51.595  0.00  0.00     0.241 C 
ATOM     36  O   ASN d   1      14.219  30.594  50.362  0.00  0.00    -0.271 OA
ATOM     37  N   THR d   1      13.172  29.607  52.080  0.00  0.00    -0.344 N 
ATOM     38  H48 THR d   1      13.032  29.492  53.063  0.00  0.00     0.163 HD
BRANCH  37  39
ATOM     39  CA  THR d   1      12.374  28.871  51.092  0.00  0.00     0.113 C 
ATOM     40  H49 THR d   1      12.770  29.057  50.083  0.00  0.00     0.091 H 
BRANCH  39  41
ATOM     41  CB  THR d   1      12.430  27.363  51.401  0.00  0.00     0.060 C 
ATOM     42  H50 THR d   1      11.801  26.824  50.677  0.00  0.00     0.086 H 
BRANCH  41  43
ATOM     43  CG2 THR d   1      13.859  26.849  51.313  0.00  0.00    -0.050 C 
ATOM     44  H52 THR d   1      13.876  25.772  51.537  0.00  0.00     0.031 H 
ATOM     45  H53 THR d   1      14.487  27.384  52.040  0.00  0.00     0.031 H 
ATOM     46  H54 THR d   1      14.248  27.019  50.298  0.00  0.00     0.031 H 
ENDBRANCH  41  43
BRANCH  41  47
ATOM     47  OG1 THR d   1      11.952  27.115  52.734  0.00  0.00    -0.393 OA
ATOM     48  H51 THR d   1      12.505  27.571  53.358  0.00  0.00     0.210 HD
ENDBRANCH  41  47
ENDBRANCH  39  41
BRANCH  39  49
ATOM     49  C   THR d   1      10.947  29.334  51.172  0.00  0.00     0.243 C 
ATOM     50  O   THR d   1      10.552  30.014  52.102  0.00  0.00    -0.271 OA
ATOM     51  N   ILE d   1      10.132  28.883  50.251  0.00  0.00    -0.344 N 
ATOM     52  H55 ILE d   1      10.484  28.301  49.518  0.00  0.00     0.163 HD
BRANCH  51  53
ATOM     53  CA  ILE d   1       8.715  29.224  50.288  0.00  0.00     0.099 C 
ATOM     54  H56 ILE d   1       8.559  30.158  50.848  0.00  0.00     0.090 H 
BRANCH  53  55
ATOM     55  CB  ILE d   1       8.202  29.343  48.838  0.00  0.00    -0.029 C 
ATOM     56  H57 ILE d   1       7.123  29.556  48.865  0.00  0.00     0.043 H 
BRANCH  55  57
ATOM     57  CG2 ILE d   1       8.849  30.448  48.092  0.00  0.00    -0.070 C 
ATOM     58  H60 ILE d   1       8.663  31.399  48.612  0.00  0.00     0.028 H 
ATOM     59  H61 ILE d   1       8.431  30.498  47.076  0.00  0.00     0.028 H 
ATOM     60  H62 ILE d   1       9.932  30.267  48.035  0.00  0.00     0.028 H 
ENDBRANCH  55  57
BRANCH  55  61
ATOM     61  CG1 ILE d   1       8.409  27.965  48.182  0.00  0.00    -0.063 C 
ATOM     62  H58 ILE d   1       7.913  27.193  48.789  0.00  0.00     0.033 H 
ATOM     63  H59 ILE d   1       9.486  27.748  48.121  0.00  0.00     0.033 H 
BRANCH  61  64
ATOM     64  CD1 ILE d   1       7.829  27.967  46.819  0.00  0.00    -0.076 C 
ATOM     65  H63 ILE d   1       7.979  26.981  46.355  0.00  0.00     0.027 H 
ATOM     66  H64 ILE d   1       8.325  28.738  46.211  0.00  0.00     0.027 H 
ATOM     67  H65 ILE d   1       6.752  28.183  46.879  0.00  0.00     0.027 H 
ENDBRANCH  61  64
ENDBRANCH  55  61
ENDBRANCH  53  55
BRANCH  53  68
ATOM     68  C   ILE d   1       7.902  28.061  50.907  0.00  0.00     0.197 C 
ATOM     69  O   ILE d   1       6.635  28.237  50.900  0.00  0.00    -0.646 OA
ATOM     70  OXT ILE d   1       8.544  27.043  51.301  0.00  0.00    -0.646 OA
ENDBRANCH  53  68
ENDBRANCH  51  53
ENDBRANCH  39  49
ENDBRANCH  37  39
ENDBRANCH  25  35
ENDBRANCH  23  25
ENDBRANCH   5  21
ENDBRANCH   1   5
BRANCH   3  71
ATOM     71  CA  ASP d   1      20.523  34.507  51.277  0.00  0.00     0.098 C 
ATOM     72  H30 ASP d   1      21.054  33.773  50.653  0.00  0.00     0.088 H 
BRANCH  71  73
ATOM     73  N   ASP d   1      20.677  35.865  50.750  0.00  0.00    -0.345 N 
ATOM     74  C   PHE d   1      20.869  36.211  49.498  0.00  0.00     0.241 C 
ATOM     75  O   PHE d   1      21.002  35.347  48.611  0.00  0.00    -0.271 OA
ATOM     76  H29 ASP d   1      20.631  36.609  51.416  0.00  0.00     0.163 HD
BRANCH  74  77
ATOM     77  CA  PHE d   1      20.927  37.701  49.218  0.00  0.00     0.093 C 
ATOM     78  H21 PHE d   1      21.504  38.197  50.013  0.00  0.00     0.088 H 
BRANCH  77  79
ATOM     79  N   PHE d   1      21.516  37.982  47.894  0.00  0.00    -0.346 N 
ATOM     80  C   ASN d   1      22.756  38.392  47.740  0.00  0.00     0.241 C 
ATOM     81  O   ASN d   1      23.464  38.593  48.708  0.00  0.00    -0.271 OA
ATOM     82  H20 PHE d   1      20.949  37.855  47.080  0.00  0.00     0.163 HD
BRANCH  80  83
ATOM     83  CA  ASN d   1      23.209  38.598  46.313  0.00  0.00     0.097 C 
ATOM     84  H15 ASN d   1      22.533  39.332  45.850  0.00  0.00     0.088 H 
BRANCH  83  85
ATOM     85  N   ASN d   1      24.547  39.122  46.252  0.00  0.00    -0.346 N 
ATOM     86  C   ILE d   1      24.915  40.321  46.672  0.00  0.00     0.249 C 
ATOM     87  O   ILE d   1      24.147  41.117  47.187  0.00  0.00    -0.271 OA
ATOM     88  H14 ASN d   1      25.255  38.533  45.861  0.00  0.00     0.163 HD
BRANCH  86  89
ATOM     89  CA  ILE d   1      26.390  40.641  46.432  0.00  0.00     0.179 C 
ATOM     90  H4  ILE d   1      26.742  40.019  45.596  0.00  0.00     0.099 H 
BRANCH  89  91
ATOM     91  N   ILE d   1      26.609  42.053  46.062  0.00  0.00    -0.066 N 
ATOM     92  H1  ILE d   1      27.593  42.213  45.915  0.00  0.00     0.275 HD
ATOM     93  H2  ILE d   1      26.279  42.650  46.804  0.00  0.00     0.275 HD
ATOM     94  H3  ILE d   1      26.105  42.260  45.214  0.00  0.00     0.275 HD
ENDBRANCH  89  91
BRANCH  89  95
ATOM     95  CB  ILE d   1      27.194  40.264  47.688  0.00  0.00    -0.022 C 
ATOM     96  H5  ILE d   1      27.064  39.197  47.923  0.00  0.00     0.043 H 
BRANCH  95  97
ATOM     97  CG2 ILE d   1      28.648  40.565  47.373  0.00  0.00    -0.070 C 
ATOM     98  H8  ILE d   1      28.974  39.950  46.522  0.00  0.00     0.028 H 
ATOM     99  H9  ILE d   1      29.269  40.334  48.251  0.00  0.00     0.028 H 
ATOM    100  H10 ILE d   1      28.755  41.630  47.118  0.00  0.00     0.028 H 
ENDBRANCH  95  97
BRANCH  95 101
ATOM    101  CG1 ILE d   1      26.732  41.111  48.866  0.00  0.00    -0.063 C 
ATOM    102  H6  ILE d   1      25.663  40.920  49.041  0.00  0.00     0.033 H 
ATOM    103  H7  ILE d   1      26.879  42.172  48.617  0.00  0.00     0.033 H 
BRANCH 101 104
ATOM    104  CD1 ILE d   1      27.491  40.801  50.128  0.00  0.00    -0.076 C 
ATOM    105  H11 ILE d   1      27.120  41.438  50.945  0.00  0.00     0.027 H 
ATOM    106  H12 ILE d   1      28.562  40.996  49.969  0.00  0.00     0.027 H 
ATOM    107  H13 ILE d   1      27.346  39.743  50.393  0.00  0.00     0.027 H 
ENDBRANCH 101 104
ENDBRANCH  95 101
ENDBRANCH  89  95
ENDBRANCH  86  89
ENDBRANCH  83  85
BRANCH  83 108
ATOM    108  CB  ASN d   1      23.128  37.296  45.500  0.00  0.00     0.036 C 
ATOM    109  H16 ASN d   1      23.451  36.466  46.145  0.00  0.00     0.051 H 
ATOM    110  H17 ASN d   1      23.811  37.382  44.642  0.00  0.00     0.051 H 
BRANCH 108 111
ATOM    111  CG  ASN d   1      21.750  36.980  44.977  0.00  0.00     0.217 C 
ATOM    112  ND2 ASN d   1      21.594  35.980  44.129  0.00  0.00    -0.370 N 
ATOM    113  H18 ASN d   1      20.684  35.761  43.776  0.00  0.00     0.159 HD
ATOM    114  H19 ASN d   1      22.385  35.441  43.840  0.00  0.00     0.159 HD
ATOM    115  OD1 ASN d   1      20.752  37.625  45.315  0.00  0.00    -0.274 OA
ENDBRANCH 108 111
ENDBRANCH  83 108
ENDBRANCH  80  83
ENDBRANCH  77  79
BRANCH  77 116
ATOM    116  CB  PHE d   1      19.532  38.286  49.119  0.00  0.00    -0.014 C 
ATOM    117  H22 PHE d   1      19.084  37.879  48.200  0.00  0.00     0.043 H 
ATOM    118  H23 PHE d   1      19.654  39.374  49.017  0.00  0.00     0.043 H 
BRANCH 116 119
ATOM    119  CG  PHE d   1      18.549  38.070  50.199  0.00  0.00    -0.056 A 
ATOM    120  CD1 PHE d   1      18.589  38.700  51.426  0.00  0.00    -0.077 A 
ATOM    121  CE1 PHE d   1      17.606  38.491  52.381  0.00  0.00    -0.082 A 
ATOM    122  H24 PHE d   1      19.408  39.374  51.648  0.00  0.00     0.084 H 
ATOM    123  CZ  PHE d   1      16.558  37.647  52.075  0.00  0.00    -0.083 A 
ATOM    124  H26 PHE d   1      17.660  38.980  53.347  0.00  0.00     0.083 H 
ATOM    125  CE2 PHE d   1      16.495  37.026  50.850  0.00  0.00    -0.082 A 
ATOM    126  H28 PHE d   1      15.778  37.472  52.807  0.00  0.00     0.083 H 
ATOM    127  CD2 PHE d   1      17.476  37.224  49.915  0.00  0.00    -0.077 A 
ATOM    128  H27 PHE d   1      15.660  36.373  50.622  0.00  0.00     0.083 H 
ATOM    129  H25 PHE d   1      17.419  36.724  48.955  0.00  0.00     0.084 H 
ENDBRANCH 116 119
ENDBRANCH  77 116
ENDBRANCH  74  77
ENDBRANCH  71  73
BRANCH  71 130
ATOM    130  CB  ASP d   1      21.006  34.481  52.752  0.00  0.00     0.043 C 
ATOM    131  H31 ASP d   1      20.648  33.570  53.254  0.00  0.00     0.052 H 
ATOM    132  H32 ASP d   1      20.634  35.365  53.290  0.00  0.00     0.052 H 
BRANCH 130 133
ATOM    133  CG  ASP d   1      22.530  34.494  52.706  0.00  0.00     0.175 C 
ATOM    134  OD1 ASP d   1      23.110  35.485  53.184  0.00  0.00    -0.648 OA
ATOM    135  OD2 ASP d   1      23.062  33.517  52.131  0.00  0.00    -0.648 OA
ENDBRANCH 130 133
ENDBRANCH  71 130
ENDBRANCH   3  71
TORSDOF 37
