REMARK  13 active torsions:
REMARK  status: ('A' for Active; 'I' for Inactive)
REMARK    1  A    between atoms: S_14  and  C1_1 
REMARK    2  A    between atoms: C5_6  and  N_11 
REMARK    3  A    between atoms: N_11  and  CM2_13 
REMARK    4  A    between atoms: N_11  and  CM1_12 
REMARK    5  A    between atoms: N_17  and  S_14 
REMARK    6  A    between atoms: CA_18  and  N_17 
REMARK    7  A    between atoms: C_19  and  CA_18 
REMARK    8  A    between atoms: CA_18  and  CB_21 
REMARK       I    between atoms: C_19  and  N1_28 
REMARK    9  A    between atoms: CB_21  and  CG_22 
REMARK   10  A    between atoms: CG_22  and  CD_23 
REMARK   11  A    between atoms: CD_23  and  NE_24 
REMARK       I    between atoms: NE_24  and  CZ_25 
REMARK       I    between atoms: CZ_25  and  NH1_26 
REMARK   12  A    between atoms: C4_31  and  C1'_34 
REMARK   13  A    between atoms: C1'_34  and  C2'_35 
ROOT
ATOM      1  CA  0ZI d   1      14.787 -15.165  21.347  0.00  0.00     0.097 C 
ATOM      2  H14 0ZI d   1      15.042 -15.574  20.358  0.00  0.00     0.088 H 
ENDROOT
BRANCH   1   3
ATOM      3  C   0ZI d   1      15.875 -14.185  21.794  0.00  0.00     0.243 C 
ATOM      4  O   0ZI d   1      16.118 -13.927  22.987  0.00  0.00    -0.271 OA
ATOM      5  N1  0ZI d   1      16.887 -13.881  20.812  0.00  0.00    -0.350 N 
ATOM      6  C6  0ZI d   1      16.460 -13.948  19.307  0.00  0.00    -0.002 C 
ATOM      7  C2  0ZI d   1      17.872 -12.809  21.366  0.00  0.00    -0.002 C 
ATOM      8  C5  0ZI d   1      17.798 -14.064  18.539  0.00  0.00    -0.047 C 
ATOM      9  H33 0ZI d   1      15.919 -13.036  19.014  0.00  0.00     0.064 H 
ATOM     10  H34 0ZI d   1      15.825 -14.827  19.120  0.00  0.00     0.064 H 
ATOM     11  C4  0ZI d   1      18.865 -12.924  19.008  0.00  0.00    -0.052 C 
ATOM     12  H31 0ZI d   1      18.232 -15.057  18.727  0.00  0.00     0.035 H 
ATOM     13  H32 0ZI d   1      17.602 -13.947  17.463  0.00  0.00     0.035 H 
ATOM     14  C3  0ZI d   1      19.177 -12.864  20.586  0.00  0.00    -0.047 C 
ATOM     15  H30 0ZI d   1      18.486 -11.950  18.665  0.00  0.00     0.040 H 
ATOM     16  H28 0ZI d   1      19.742 -13.761  20.881  0.00  0.00     0.035 H 
ATOM     17  H29 0ZI d   1      19.773 -11.966  20.807  0.00  0.00     0.035 H 
ATOM     18  H26 0ZI d   1      18.072 -13.010  22.429  0.00  0.00     0.064 H 
ATOM     19  H27 0ZI d   1      17.424 -11.810  21.260  0.00  0.00     0.064 H 
BRANCH  11  20
ATOM     20  C1' 0ZI d   1      20.177 -13.170  18.484  0.00  0.00    -0.065 C 
ATOM     21  H35 0ZI d   1      20.467 -14.194  18.763  0.00  0.00     0.033 H 
ATOM     22  H36 0ZI d   1      20.868 -12.453  18.951  0.00  0.00     0.033 H 
BRANCH  20  23
ATOM     23  C2' 0ZI d   1      20.319 -13.036  16.939  0.00  0.00    -0.076 C 
ATOM     24  H37 0ZI d   1      21.359 -13.244  16.647  0.00  0.00     0.027 H 
ATOM     25  H38 0ZI d   1      20.050 -12.014  16.633  0.00  0.00     0.027 H 
ATOM     26  H39 0ZI d   1      19.649 -13.755  16.445  0.00  0.00     0.027 H 
ENDBRANCH  20  23
ENDBRANCH  11  20
ENDBRANCH   1   3
BRANCH   1  27
ATOM     27  CB  0ZI d   1      13.454 -14.456  21.273  0.00  0.00    -0.036 C 
ATOM     28  H15 0ZI d   1      13.582 -13.959  20.300  0.00  0.00     0.036 H 
ATOM     29  H16 0ZI d   1      13.607 -13.726  22.081  0.00  0.00     0.036 H 
BRANCH  27  30
ATOM     30  CG  0ZI d   1      11.919 -14.521  21.303  0.00  0.00    -0.048 C 
ATOM     31  H17 0ZI d   1      11.579 -14.971  22.247  0.00  0.00     0.035 H 
ATOM     32  H18 0ZI d   1      11.550 -15.120  20.457  0.00  0.00     0.035 H 
BRANCH  30  33
ATOM     33  CD  0ZI d   1      11.441 -13.189  21.200  0.00  0.00     0.009 C 
ATOM     34  H19 0ZI d   1      10.603 -13.144  20.489  0.00  0.00     0.064 H 
ATOM     35  H20 0ZI d   1      12.249 -12.525  20.858  0.00  0.00     0.064 H 
BRANCH  33  36
ATOM     36  NE  0ZI d   1      10.980 -12.774  22.558  0.00  0.00    -0.227 N 
ATOM     37  CZ  0ZI d   1      11.173 -11.729  23.313  0.00  0.00     0.665 C 
ATOM     38  NH1 0ZI d   1      11.899 -10.700  22.790  0.00  0.00    -0.235 N 
ATOM     39  NH2 0ZI d   1      10.682 -11.701  24.491  0.00  0.00    -0.235 N 
ATOM     40  H22 0ZI d   1      12.075  -9.856  23.353  0.00  0.00     0.174 HD
ATOM     41  H23 0ZI d   1      12.271 -10.767  21.832  0.00  0.00     0.174 HD
ATOM     42  H24 0ZI d   1      10.140 -12.503  24.842  0.00  0.00     0.174 HD
ATOM     43  H25 0ZI d   1      10.828 -10.876  25.090  0.00  0.00     0.174 HD
ATOM     44  H21 0ZI d   1      10.368 -13.475  23.000  0.00  0.00     0.177 HD
ENDBRANCH  33  36
ENDBRANCH  30  33
ENDBRANCH  27  30
ENDBRANCH   1  27
BRANCH   1  45
ATOM     45  N   0ZI d   1      14.698 -16.245  22.319  0.00  0.00    -0.302 N 
ATOM     46  H13 0ZI d   1      14.024 -16.199  23.056  0.00  0.00     0.173 HD
BRANCH  45  47
ATOM     47  S   0ZI d   1      15.780 -17.638  22.197  0.00  0.00     0.260 S 
ATOM     48  O2S 0ZI d   1      15.061 -18.589  23.126  0.00  0.00    -0.200 OA
ATOM     49  O1S 0ZI d   1      15.656 -18.079  20.784  0.00  0.00    -0.200 OA
BRANCH  47  50
ATOM     50  C1  0ZI d   1      17.565 -17.093  22.355  0.00  0.00     0.090 A 
ATOM     51  C8A 0ZI d   1      18.084 -16.681  23.563  0.00  0.00    -0.000 A 
ATOM     52  C4A 0ZI d   1      19.450 -16.230  23.624  0.00  0.00     0.002 A 
ATOM     53  C8  0ZI d   1      17.314 -16.679  24.697  0.00  0.00    -0.071 A 
ATOM     54  C4  0ZI d   1      20.211 -16.222  22.459  0.00  0.00    -0.070 A 
ATOM     55  C5  0ZI d   1      19.974 -15.822  24.817  0.00  0.00     0.040 A 
ATOM     56  C3  0ZI d   1      19.666 -16.658  21.239  0.00  0.00    -0.081 A 
ATOM     57  H3  0ZI d   1      21.237 -15.875  22.493  0.00  0.00     0.084 H 
ATOM     58  C2  0ZI d   1      18.364 -17.078  21.180  0.00  0.00    -0.059 A 
ATOM     59  H2  0ZI d   1      20.277 -16.662  20.344  0.00  0.00     0.083 H 
ATOM     60  H1  0ZI d   1      17.942 -17.400  20.235  0.00  0.00     0.085 H 
ATOM     61  C6  0ZI d   1      19.200 -15.792  25.965  0.00  0.00    -0.057 A 
ATOM     62  C7  0ZI d   1      17.874 -16.271  25.891  0.00  0.00    -0.080 A 
ATOM     63  H4  0ZI d   1      19.602 -15.411  26.897  0.00  0.00     0.086 H 
ATOM     64  H5  0ZI d   1      17.280 -16.320  26.796  0.00  0.00     0.083 H 
ATOM     65  H6  0ZI d   1      16.278 -16.994  24.657  0.00  0.00     0.084 H 
BRANCH  55  66
ATOM     66  N   0ZI d   1      21.291 -15.348  24.867  0.00  0.00    -0.389 N 
BRANCH  66  67
ATOM     67  CM2 0ZI d   1      22.273 -16.221  25.811  0.00  0.00    -0.019 C 
ATOM     68  H10 0ZI d   1      21.991 -17.282  25.751  0.00  0.00     0.056 H 
ATOM     69  H11 0ZI d   1      22.184 -15.876  26.852  0.00  0.00     0.056 H 
ATOM     70  H12 0ZI d   1      23.312 -16.098  25.472  0.00  0.00     0.056 H 
ENDBRANCH  66  67
BRANCH  66  71
ATOM     71  CM1 0ZI d   1      21.671 -13.923  24.948  0.00  0.00    -0.019 C 
ATOM     72  H7  0ZI d   1      22.767 -13.837  24.974  0.00  0.00     0.056 H 
ATOM     73  H8  0ZI d   1      21.247 -13.482  25.862  0.00  0.00     0.056 H 
ATOM     74  H9  0ZI d   1      21.282 -13.389  24.069  0.00  0.00     0.056 H 
ENDBRANCH  66  71
ENDBRANCH  55  66
ENDBRANCH  47  50
ENDBRANCH  45  47
ENDBRANCH   1  45
TORSDOF 13
