REMARK  5 active torsions:
REMARK  status: ('A' for Active; 'I' for Inactive)
REMARK    1  A    between atoms: N_1  and  CA_2 
REMARK    2  A    between atoms: CA_2  and  C_3 
REMARK    3  A    between atoms: CA_2  and  CB_6 
REMARK    4  A    between atoms: CB_6  and  CG_7 
REMARK    5  A    between atoms: CD2_9  and  CE2_10 
ROOT
ATOM      1  CB  AMQ d   1      77.408  26.927  42.244  0.00  0.00     0.002 C 
ATOM      2  H5  AMQ d   1      78.207  26.188  42.406  0.00  0.00     0.044 H 
ATOM      3  H6  AMQ d   1      77.703  27.889  42.689  0.00  0.00     0.044 H 
ENDROOT
BRANCH   1   4
ATOM      4  CA  AMQ d   1      76.136  26.430  42.967  0.00  0.00     0.186 C 
ATOM      5  H4  AMQ d   1      75.766  25.533  42.449  0.00  0.00     0.101 H 
BRANCH   4   6
ATOM      6  N   AMQ d   1      75.074  27.493  42.917  0.00  0.00    -0.065 N 
ATOM      7  H1  AMQ d   1      74.881  27.730  41.956  0.00  0.00     0.275 HD
ATOM      8  H2  AMQ d   1      75.396  28.313  43.408  0.00  0.00     0.275 HD
ATOM      9  H3  AMQ d   1      74.233  27.149  43.353  0.00  0.00     0.275 HD
ENDBRANCH   4   6
BRANCH   4  10
ATOM     10  C   AMQ d   1      76.442  26.055  44.456  0.00  0.00     0.204 C 
ATOM     11  OT1 AMQ d   1      77.363  25.254  44.668  0.00  0.00    -0.646 OA
ATOM     12  OT2 AMQ d   1      75.722  26.563  45.346  0.00  0.00    -0.646 OA
ENDBRANCH   4  10
ENDBRANCH   1   4
BRANCH   1  13
ATOM     13  CG  AMQ d   1      77.243  27.126  40.754  0.00  0.00     0.031 A 
ATOM     14  CD1 AMQ d   1      77.433  26.168  39.708  0.00  0.00     0.207 A 
ATOM     15  OE1 AMQ d   1      77.823  24.946  40.065  0.00  0.00    -0.170 OA
ATOM     16  NE1 AMQ d   1      77.179  26.532  38.475  0.00  0.00    -0.236 N 
ATOM     17  OE2 AMQ d   1      76.770  27.904  38.687  0.00  0.00    -0.240 OA
ATOM     18  H10 AMQ d   1      77.248  26.009  37.626  0.00  0.00     0.197 HD
ATOM     19  CD2 AMQ d   1      76.822  28.203  40.039  0.00  0.00     0.083 A 
BRANCH  19  20
ATOM     20  CE2 AMQ d   1      76.377  29.586  40.400  0.00  0.00    -0.029 C 
ATOM     21  H7  AMQ d   1      76.120  30.139  39.485  0.00  0.00     0.036 H 
ATOM     22  H8  AMQ d   1      77.190  30.107  40.927  0.00  0.00     0.036 H 
ATOM     23  H9  AMQ d   1      75.494  29.528  41.054  0.00  0.00     0.036 H 
ENDBRANCH  19  20
ENDBRANCH   1  13
TORSDOF 5
