REMARK  5 active torsions:
REMARK  status: ('A' for Active; 'I' for Inactive)
REMARK    1  A    between atoms: C1_1  and  C16_16 
REMARK    2  A    between atoms: C10_10  and  N1_26 
REMARK    3  A    between atoms: C13_13  and  O6_23 
REMARK    4  A    between atoms: C14_14  and  O1_18 
REMARK    5  A    between atoms: O1_18  and  C17_17 
ROOT
ATOM      1  C1  9AR d   1      15.511  22.908  40.433  0.00  0.00     0.057 A 
ATOM      2  C2  9AR d   1      14.118  22.887  40.210  0.00  0.00    -0.030 A 
ATOM      3  C3  9AR d   1      13.201  22.902  41.254  0.00  0.00     0.107 A 
ATOM      4  C4  9AR d   1      13.619  22.940  42.606  0.00  0.00     0.117 A 
ATOM      5  C5  9AR d   1      15.056  22.966  42.956  0.00  0.00     0.025 A 
ATOM      6  C6  9AR d   1      16.031  22.954  41.809  0.00  0.00     0.028 A 
ATOM      7  C7  9AR d   1      15.557  22.999  44.325  0.00  0.00    -0.009 A 
ATOM      8  C8  9AR d   1      17.021  23.005  44.550  0.00  0.00     0.014 A 
ATOM      9  C9  9AR d   1      17.896  22.994  43.440  0.00  0.00    -0.036 A 
ATOM     10  C10 9AR d   1      17.445  22.984  42.102  0.00  0.00     0.116 A 
ATOM     11  C11 9AR d   1      14.720  23.016  45.498  0.00  0.00    -0.069 A 
ATOM     12  C12 9AR d   1      15.250  23.037  46.790  0.00  0.00    -0.047 A 
ATOM     13  C13 9AR d   1      16.632  23.037  46.995  0.00  0.00     0.099 A 
ATOM     14  C14 9AR d   1      17.562  23.020  45.885  0.00  0.00     0.112 A 
ATOM     15  C15 9AR d   1      11.376  22.904  42.475  0.00  0.00     0.115 A 
ATOM     16  O2  9AR d   1      11.851  22.878  41.117  0.00  0.00    -0.323 OA
ATOM     17  O3  9AR d   1      12.494  22.942  43.385  0.00  0.00    -0.322 OA
ATOM     18  H1  9AR d   1      13.751  22.858  39.191  0.00  0.00     0.089 H 
ATOM     19  H2  9AR d   1      18.964  22.993  43.625  0.00  0.00     0.088 H 
ATOM     20  H3  9AR d   1      13.643  23.012  45.373  0.00  0.00     0.085 H 
ATOM     21  H4  9AR d   1      14.582  23.053  47.643  0.00  0.00     0.087 H 
ATOM     22  H5  9AR d   1      10.752  23.797  42.626  0.00  0.00     0.118 H 
ATOM     23  H6  9AR d   1      10.778  22.002  42.669  0.00  0.00     0.118 H 
ENDROOT
BRANCH  14  24
ATOM     24  O1  9AR d   1      18.863  22.586  46.021  0.00  0.00    -0.352 OA
BRANCH  24  25
ATOM     25  C17 9AR d   1      20.190  21.914  46.048  0.00  0.00     0.011 C 
ATOM     26  H7  9AR d   1      20.919  22.561  46.558  0.00  0.00     0.067 H 
ATOM     27  H8  9AR d   1      20.526  21.724  45.018  0.00  0.00     0.067 H 
ATOM     28  H9  9AR d   1      20.107  20.959  46.588  0.00  0.00     0.067 H 
ENDBRANCH  24  25
ENDBRANCH  14  24
BRANCH  13  29
ATOM     29  O6  9AR d   1      17.097  23.053  48.335  0.00  0.00    -0.358 OA
ATOM     30  H10 9AR d   1      18.047  23.051  48.339  0.00  0.00     0.217 HD
ENDBRANCH  13  29
BRANCH  10  31
ATOM     31  N1  9AR d   1      18.703  23.390  41.099  0.00  0.00    -0.115 N 
ATOM     32  O7  9AR d   1      18.717  23.989  40.216  0.00  0.00    -0.532 OA
ATOM     33  O8  9AR d   1      19.599  23.192  41.923  0.00  0.00    -0.532 OA
ENDBRANCH  10  31
BRANCH   1  34
ATOM     34  C16 9AR d   1      16.329  23.026  39.140  0.00  0.00     0.210 C 
ATOM     35  O5  9AR d   1      15.892  23.495  38.095  0.00  0.00    -0.644 OA
ATOM     36  O4  9AR d   1      17.248  22.282  38.800  0.00  0.00    -0.644 OA
ENDBRANCH   1  34
TORSDOF 5
