REMARK WARNING: 32 MAX_TORS EXCEEDED!!!
REMARK  36 active torsions:
REMARK  status: ('A' for Active; 'I' for Inactive)
REMARK    1  A    between atoms: CA_2  and  N_1 
REMARK    2  A    between atoms: C_3  and  CA_2 
REMARK    3  A    between atoms: CA_2  and  CB_5 
REMARK       I    between atoms: N_12  and  C_3 
REMARK    4  A    between atoms: CB_5  and  CG_6 
REMARK    5  A    between atoms: CG_6  and  CD_7 
REMARK    6  A    between atoms: CD_7  and  NE_8 
REMARK       I    between atoms: NE_8  and  CZ_9 
REMARK       I    between atoms: CZ_9  and  NH1_10 
REMARK    7  A    between atoms: CA_13  and  N_12 
REMARK    8  A    between atoms: C_14  and  CA_13 
REMARK       I    between atoms: N_16  and  C_14 
REMARK    9  A    between atoms: CA_17  and  N_16 
REMARK   10  A    between atoms: C_18  and  CA_17 
REMARK   11  A    between atoms: CA_17  and  CB_20 
REMARK       I    between atoms: N_28  and  C_18 
REMARK   12  A    between atoms: CB_20  and  CG_21 
REMARK   13  A    between atoms: CZ_26  and  OH_27 
REMARK   14  A    between atoms: CA_29  and  N_28 
REMARK   15  A    between atoms: C_30  and  CA_29 
REMARK   16  A    between atoms: CA_29  and  CB_32 
REMARK       I    between atoms: N_35  and  C_30 
REMARK   17  A    between atoms: CB_32  and  CG1_33 
REMARK   18  A    between atoms: CB_32  and  CG2_34 
REMARK   19  A    between atoms: CA_36  and  N_35 
REMARK   20  A    between atoms: C_37  and  CA_36 
REMARK   21  A    between atoms: CA_36  and  CB_39 
REMARK       I    between atoms: N_47  and  C_37 
REMARK   22  A    between atoms: CB_39  and  CG_40 
REMARK   23  A    between atoms: CZ_45  and  OH_46 
REMARK   24  A    between atoms: CA_48  and  N_47 
REMARK   25  A    between atoms: C_49  and  CA_48 
REMARK   26  A    between atoms: CA_48  and  CB_51 
REMARK       I    between atoms: N_56  and  C_49 
REMARK   27  A    between atoms: CB_51  and  CG_52 
REMARK   28  A    between atoms: CG_52  and  CD_53 
REMARK       I    between atoms: CD_53  and  NE2_55 
REMARK   29  A    between atoms: CA_57  and  N_56 
REMARK   30  A    between atoms: C_58  and  CA_57 
REMARK       I    between atoms: C_58  and  N_60 
REMARK   31  A    between atoms: N_60  and  CA_61 
REMARK   32  A    between atoms: CA_61  and  C_62 
REMARK   33  A    between atoms: CA_61  and  CB_64 
REMARK   34  A    between atoms: CB_64  and  CG_65 
REMARK   35  A    between atoms: CG_65  and  CD2_67 
REMARK   36  A    between atoms: CG_65  and  CD1_66 
ROOT
ATOM      1  CA  VAL d   1      42.543  60.494  -3.215  0.00  0.00     0.092 C 
ATOM      2  H29 VAL d   1      41.817  59.955  -2.588  0.00  0.00     0.088 H 
ENDROOT
BRANCH   1   3
ATOM      3  C   VAL d   1      42.401  60.109  -4.692  0.00  0.00     0.241 C 
ATOM      4  O   VAL d   1      42.940  60.774  -5.585  0.00  0.00    -0.271 OA
ATOM      5  N   TYR d   1      41.692  59.013  -4.950  0.00  0.00    -0.346 N 
ATOM      6  H37 TYR d   1      41.247  58.526  -4.199  0.00  0.00     0.163 HD
BRANCH   5   7
ATOM      7  CA  TYR d   1      41.554  58.513  -6.310  0.00  0.00     0.093 C 
ATOM      8  H38 TYR d   1      42.575  58.413  -6.706  0.00  0.00     0.088 H 
BRANCH   7   9
ATOM      9  C   TYR d   1      40.805  59.406  -7.288  0.00  0.00     0.241 C 
ATOM     10  O   TYR d   1      39.814  60.045  -6.938  0.00  0.00    -0.271 OA
ATOM     11  N   GLN d   1      41.292  59.404  -8.522  0.00  0.00    -0.346 N 
ATOM     12  H46 GLN d   1      42.092  58.835  -8.712  0.00  0.00     0.163 HD
BRANCH  11  13
ATOM     13  CA  GLN d   1      40.727  60.185  -9.617  0.00  0.00     0.090 C 
ATOM     14  H47 GLN d   1      40.260  61.091  -9.203  0.00  0.00     0.087 H 
BRANCH  13  15
ATOM     15  C   GLN d   1      39.666  59.390 -10.376  0.00  0.00     0.240 C 
ATOM     16  O   GLN d   1      39.822  58.179 -10.592  0.00  0.00    -0.271 OA
ATOM     17  N   GLY d   1      38.604  60.084 -10.781  0.00  0.00    -0.351 N 
ATOM     18  H54 GLY d   1      38.556  61.060 -10.570  0.00  0.00     0.163 HD
BRANCH  17  19
ATOM     19  CA  GLY d   1      37.513  59.472 -11.519  0.00  0.00     0.069 C 
ATOM     20  H55 GLY d   1      37.066  58.692 -10.885  0.00  0.00     0.078 H 
ATOM     21  H56 GLY d   1      36.763  60.249 -11.728  0.00  0.00     0.078 H 
BRANCH  19  22
ATOM     22  C   GLY d   1      37.916  58.836 -12.838  0.00  0.00     0.236 C 
ATOM     23  O   GLY d   1      38.818  59.322 -13.520  0.00  0.00    -0.272 OA
ATOM     24  N   LEU d   1      37.234  57.749 -13.202  0.00  0.00    -0.345 N 
ATOM     25  H57 LEU d   1      36.503  57.416 -12.607  0.00  0.00     0.163 HD
BRANCH  24  26
ATOM     26  CA  LEU d   1      37.520  57.026 -14.445  0.00  0.00     0.096 C 
ATOM     27  H58 LEU d   1      38.602  57.091 -14.634  0.00  0.00     0.089 H 
BRANCH  26  28
ATOM     28  C   LEU d   1      36.788  57.599 -15.664  0.00  0.00     0.196 C 
ATOM     29  OXT LEU d   1      37.202  57.292 -16.807  0.00  0.00    -0.646 OA
ATOM     30  O   LEU d   1      35.783  58.316 -15.470  0.00  0.00    -0.646 OA
ENDBRANCH  26  28
BRANCH  26  31
ATOM     31  CB  LEU d   1      37.130  55.543 -14.282  0.00  0.00    -0.034 C 
ATOM     32  H59 LEU d   1      37.380  55.028 -15.221  0.00  0.00     0.037 H 
ATOM     33  H60 LEU d   1      36.043  55.501 -14.119  0.00  0.00     0.037 H 
BRANCH  31  34
ATOM     34  CG  LEU d   1      37.801  54.772 -13.138  0.00  0.00    -0.059 C 
ATOM     35  H61 LEU d   1      37.556  55.257 -12.181  0.00  0.00     0.038 H 
BRANCH  34  36
ATOM     36  CD2 LEU d   1      39.309  54.777 -13.326  0.00  0.00    -0.073 C 
ATOM     37  H65 LEU d   1      39.674  55.815 -13.335  0.00  0.00     0.028 H 
ATOM     38  H66 LEU d   1      39.561  54.291 -14.280  0.00  0.00     0.028 H 
ATOM     39  H67 LEU d   1      39.783  54.229 -12.499  0.00  0.00     0.028 H 
ENDBRANCH  34  36
BRANCH  34  40
ATOM     40  CD1 LEU d   1      37.270  53.321 -13.123  0.00  0.00    -0.073 C 
ATOM     41  H62 LEU d   1      37.748  52.764 -12.304  0.00  0.00     0.028 H 
ATOM     42  H63 LEU d   1      37.503  52.835 -14.082  0.00  0.00     0.028 H 
ATOM     43  H64 LEU d   1      36.180  53.331 -12.972  0.00  0.00     0.028 H 
ENDBRANCH  34  40
ENDBRANCH  31  34
ENDBRANCH  26  31
ENDBRANCH  24  26
ENDBRANCH  19  22
ENDBRANCH  17  19
ENDBRANCH  13  15
BRANCH  13  44
ATOM     44  CB  GLN d   1      41.850  60.591 -10.571  0.00  0.00    -0.030 C 
ATOM     45  H48 GLN d   1      41.419  61.186 -11.390  0.00  0.00     0.037 H 
ATOM     46  H49 GLN d   1      42.309  59.680 -10.982  0.00  0.00     0.037 H 
BRANCH  44  47
ATOM     47  CG  GLN d   1      42.927  61.412  -9.891  0.00  0.00     0.011 C 
ATOM     48  H50 GLN d   1      43.714  61.643 -10.623  0.00  0.00     0.047 H 
ATOM     49  H51 GLN d   1      43.355  60.824  -9.066  0.00  0.00     0.047 H 
BRANCH  47  50
ATOM     50  CD  GLN d   1      42.377  62.711  -9.335  0.00  0.00     0.215 C 
ATOM     51  OE1 GLN d   1      41.831  63.530 -10.079  0.00  0.00    -0.274 OA
ATOM     52  NE2 GLN d   1      42.508  62.905  -8.023  0.00  0.00    -0.370 N 
ATOM     53  H52 GLN d   1      42.163  63.745  -7.605  0.00  0.00     0.159 HD
ATOM     54  H53 GLN d   1      42.952  62.211  -7.457  0.00  0.00     0.159 HD
ENDBRANCH  47  50
ENDBRANCH  44  47
ENDBRANCH  13  44
ENDBRANCH  11  13
ENDBRANCH   7   9
BRANCH   7  55
ATOM     55  CB  TYR d   1      40.925  57.105  -6.289  0.00  0.00    -0.014 C 
ATOM     56  H39 TYR d   1      40.929  56.698  -7.311  0.00  0.00     0.043 H 
ATOM     57  H40 TYR d   1      39.888  57.184  -5.930  0.00  0.00     0.043 H 
BRANCH  55  58
ATOM     58  CG  TYR d   1      41.689  56.159  -5.381  0.00  0.00    -0.056 A 
ATOM     59  CD2 TYR d   1      42.875  55.561  -5.807  0.00  0.00    -0.074 A 
ATOM     60  CE2 TYR d   1      43.632  54.756  -4.947  0.00  0.00    -0.051 A 
ATOM     61  H42 TYR d   1      43.217  55.722  -6.823  0.00  0.00     0.084 H 
ATOM     62  CZ  TYR d   1      43.200  54.545  -3.656  0.00  0.00     0.065 A 
ATOM     63  H44 TYR d   1      44.553  54.301  -5.295  0.00  0.00     0.087 H 
ATOM     64  CE1 TYR d   1      42.020  55.125  -3.209  0.00  0.00    -0.051 A 
ATOM     65  CD1 TYR d   1      41.271  55.929  -4.077  0.00  0.00    -0.074 A 
ATOM     66  H43 TYR d   1      41.681  54.956  -2.193  0.00  0.00     0.087 H 
ATOM     67  H41 TYR d   1      40.350  56.379  -3.725  0.00  0.00     0.084 H 
BRANCH  62  68
ATOM     68  OH  TYR d   1      43.939  53.762  -2.792  0.00  0.00    -0.361 OA
ATOM     69  H45 TYR d   1      44.201  54.282  -2.041  0.00  0.00     0.217 HD
ENDBRANCH  62  68
ENDBRANCH  55  58
ENDBRANCH   7  55
ENDBRANCH   5   7
ENDBRANCH   1   3
BRANCH   1  70
ATOM     70  CB  VAL d   1      42.345  62.023  -3.041  0.00  0.00    -0.033 C 
ATOM     71  H30 VAL d   1      43.103  62.553  -3.636  0.00  0.00     0.042 H 
BRANCH  70  72
ATOM     72  CG1 VAL d   1      40.953  62.423  -3.537  0.00  0.00    -0.071 C 
ATOM     73  H31 VAL d   1      40.817  63.507  -3.412  0.00  0.00     0.028 H 
ATOM     74  H32 VAL d   1      40.188  61.888  -2.955  0.00  0.00     0.028 H 
ATOM     75  H33 VAL d   1      40.854  62.161  -4.601  0.00  0.00     0.028 H 
ENDBRANCH  70  72
BRANCH  70  76
ATOM     76  CG2 VAL d   1      42.513  62.406  -1.569  0.00  0.00    -0.071 C 
ATOM     77  H34 VAL d   1      43.516  62.113  -1.226  0.00  0.00     0.028 H 
ATOM     78  H35 VAL d   1      41.754  61.887  -0.966  0.00  0.00     0.028 H 
ATOM     79  H36 VAL d   1      42.390  63.493  -1.457  0.00  0.00     0.028 H 
ENDBRANCH  70  76
ENDBRANCH   1  70
BRANCH   1  80
ATOM     80  N   VAL d   1      43.911  60.080  -2.907  0.00  0.00    -0.346 N 
ATOM     81  C   TYR d   1      44.174  58.905  -2.336  0.00  0.00     0.241 C 
ATOM     82  O   TYR d   1      43.297  58.145  -1.943  0.00  0.00    -0.271 OA
ATOM     83  H28 VAL d   1      44.668  60.694  -3.130  0.00  0.00     0.163 HD
BRANCH  81  84
ATOM     84  CA  TYR d   1      45.637  58.554  -2.136  0.00  0.00     0.093 C 
ATOM     85  H20 TYR d   1      46.191  59.459  -1.844  0.00  0.00     0.088 H 
BRANCH  84  86
ATOM     86  CB  TYR d   1      46.223  57.989  -3.425  0.00  0.00    -0.014 C 
ATOM     87  H21 TYR d   1      45.659  57.081  -3.684  0.00  0.00     0.043 H 
ATOM     88  H22 TYR d   1      47.274  57.726  -3.233  0.00  0.00     0.043 H 
BRANCH  86  89
ATOM     89  CG  TYR d   1      46.186  58.912  -4.614  0.00  0.00    -0.056 A 
ATOM     90  CD2 TYR d   1      45.520  58.541  -5.778  0.00  0.00    -0.074 A 
ATOM     91  CE2 TYR d   1      45.549  59.350  -6.914  0.00  0.00    -0.051 A 
ATOM     92  H24 TYR d   1      44.969  57.608  -5.802  0.00  0.00     0.084 H 
ATOM     93  CZ  TYR d   1      46.255  60.549  -6.880  0.00  0.00     0.065 A 
ATOM     94  H26 TYR d   1      45.027  59.048  -7.814  0.00  0.00     0.087 H 
ATOM     95  CE1 TYR d   1      46.915  60.939  -5.728  0.00  0.00    -0.051 A 
ATOM     96  CD1 TYR d   1      46.876  60.126  -4.603  0.00  0.00    -0.074 A 
ATOM     97  H25 TYR d   1      47.460  61.876  -5.704  0.00  0.00     0.087 H 
ATOM     98  H23 TYR d   1      47.390  60.439  -3.701  0.00  0.00     0.084 H 
BRANCH  93  99
ATOM     99  OH  TYR d   1      46.317  61.330  -8.017  0.00  0.00    -0.361 OA
ATOM    100  H27 TYR d   1      45.813  60.920  -8.710  0.00  0.00     0.217 HD
ENDBRANCH  93  99
ENDBRANCH  86  89
ENDBRANCH  84  86
BRANCH  84 101
ATOM    101  N   TYR d   1      45.765  57.550  -1.101  0.00  0.00    -0.346 N 
ATOM    102  C   GLY d   1      45.895  57.853   0.179  0.00  0.00     0.236 C 
ATOM    103  O   GLY d   1      45.915  59.013   0.614  0.00  0.00    -0.272 OA
ATOM    104  H19 TYR d   1      45.755  56.586  -1.366  0.00  0.00     0.163 HD
BRANCH 102 105
ATOM    105  CA  GLY d   1      46.028  56.655   1.093  0.00  0.00     0.069 C 
ATOM    106  H17 GLY d   1      46.793  55.989   0.668  0.00  0.00     0.078 H 
ATOM    107  H18 GLY d   1      45.059  56.135   1.113  0.00  0.00     0.078 H 
BRANCH 105 108
ATOM    108  N   GLY d   1      46.403  56.949   2.459  0.00  0.00    -0.351 N 
ATOM    109  C   ARG d   1      47.671  57.125   2.791  0.00  0.00     0.248 C 
ATOM    110  O   ARG d   1      48.592  57.092   1.978  0.00  0.00    -0.271 OA
ATOM    111  H16 GLY d   1      45.694  57.020   3.161  0.00  0.00     0.163 HD
BRANCH 109 112
ATOM    112  CA  ARG d   1      47.933  57.408   4.253  0.00  0.00     0.176 C 
ATOM    113  H4  ARG d   1      47.111  56.996   4.856  0.00  0.00     0.099 H 
BRANCH 112 114
ATOM    114  CB  ARG d   1      47.996  58.936   4.461  0.00  0.00    -0.029 C 
ATOM    115  H5  ARG d   1      47.035  59.365   4.142  0.00  0.00     0.036 H 
ATOM    116  H6  ARG d   1      48.803  59.335   3.829  0.00  0.00     0.036 H 
BRANCH 114 117
ATOM    117  CG  ARG d   1      48.258  59.373   5.901  0.00  0.00    -0.047 C 
ATOM    118  H7  ARG d   1      49.315  59.193   6.146  0.00  0.00     0.035 H 
ATOM    119  H8  ARG d   1      47.620  58.785   6.578  0.00  0.00     0.035 H 
BRANCH 117 120
ATOM    120  CD  ARG d   1      47.946  60.866   6.085  0.00  0.00     0.009 C 
ATOM    121  H9  ARG d   1      48.475  61.443   5.313  0.00  0.00     0.064 H 
ATOM    122  H10 ARG d   1      48.287  61.186   7.080  0.00  0.00     0.064 H 
BRANCH 120 123
ATOM    123  NE  ARG d   1      46.509  61.113   5.968  0.00  0.00    -0.227 N 
ATOM    124  CZ  ARG d   1      45.943  62.317   5.914  0.00  0.00     0.665 C 
ATOM    125  NH1 ARG d   1      46.692  63.413   5.968  0.00  0.00    -0.235 N 
ATOM    126  NH2 ARG d   1      44.624  62.420   5.789  0.00  0.00    -0.235 N 
ATOM    127  H12 ARG d   1      46.249  64.342   5.926  0.00  0.00     0.174 HD
ATOM    128  H13 ARG d   1      47.715  63.334   6.052  0.00  0.00     0.174 HD
ATOM    129  H14 ARG d   1      44.043  61.571   5.747  0.00  0.00     0.174 HD
ATOM    130  H15 ARG d   1      44.183  63.349   5.734  0.00  0.00     0.174 HD
ATOM    131  H11 ARG d   1      45.888  60.293   5.924  0.00  0.00     0.177 HD
ENDBRANCH 120 123
ENDBRANCH 117 120
ENDBRANCH 114 117
ENDBRANCH 112 114
BRANCH 112 132
ATOM    132  N   ARG d   1      49.216  56.760   4.675  0.00  0.00    -0.067 N 
ATOM    133  H1  ARG d   1      49.385  56.952   5.650  0.00  0.00     0.275 HD
ATOM    134  H2  ARG d   1      49.975  57.128   4.124  0.00  0.00     0.275 HD
ATOM    135  H3  ARG d   1      49.151  55.764   4.535  0.00  0.00     0.275 HD
ENDBRANCH 112 132
ENDBRANCH 109 112
ENDBRANCH 105 108
ENDBRANCH 102 105
ENDBRANCH  84 101
ENDBRANCH  81  84
ENDBRANCH   1  80
TORSDOF 36
