REMARK  29 active torsions:
REMARK  status: ('A' for Active; 'I' for Inactive)
REMARK    1  A    between atoms: CA_2  and  N_1 
REMARK    2  A    between atoms: C_3  and  CA_2 
REMARK    3  A    between atoms: CA_2  and  CB_5 
REMARK       I    between atoms: N_12  and  C_3 
REMARK    4  A    between atoms: CB_5  and  CG_6 
REMARK    5  A    between atoms: CA_13  and  N_12 
REMARK    6  A    between atoms: C_14  and  CA_13 
REMARK    7  A    between atoms: CA_13  and  CB_16 
REMARK       I    between atoms: N_17  and  C_14 
REMARK    8  A    between atoms: C_19  and  CA_18 
REMARK       I    between atoms: N_24  and  C_19 
REMARK    9  A    between atoms: CA_25  and  N_24 
REMARK   10  A    between atoms: C_26  and  CA_25 
REMARK       I    between atoms: N_28  and  C_26 
REMARK   11  A    between atoms: CA_29  and  N_28 
REMARK   12  A    between atoms: C_30  and  CA_29 
REMARK   13  A    between atoms: CA_29  and  CB_32 
REMARK       I    between atoms: N_36  and  C_30 
REMARK   14  A    between atoms: CB_32  and  CG_33 
REMARK       I    between atoms: CG_33  and  ND2_35 
REMARK   15  A    between atoms: CA_37  and  N_36 
REMARK   16  A    between atoms: C_38  and  CA_37 
REMARK   17  A    between atoms: CA_37  and  CB_40 
REMARK       I    between atoms: N_48  and  C_38 
REMARK   18  A    between atoms: CB_40  and  CG_41 
REMARK   19  A    between atoms: CZ_46  and  OH_47 
REMARK   20  A    between atoms: C_50  and  CA_49 
REMARK       I    between atoms: N_55  and  C_50 
REMARK   21  A    between atoms: CA_56  and  N_55 
REMARK   22  A    between atoms: C_57  and  CA_56 
REMARK   23  A    between atoms: CA_56  and  CB_59 
REMARK       I    between atoms: C_57  and  N_60 
REMARK   24  A    between atoms: N_60  and  CA_61 
REMARK   25  A    between atoms: CA_61  and  C_62 
REMARK   26  A    between atoms: CA_61  and  CB_64 
REMARK   27  A    between atoms: CB_64  and  CG_65 
REMARK   28  A    between atoms: CG_65  and  CD2_67 
REMARK   29  A    between atoms: CG_65  and  CD1_66 
ROOT
ATOM      1  C   ASN d   1      42.415  60.631  -6.331  0.00  0.00     0.241 C 
ATOM      2  O   ASN d   1      43.165  60.970  -7.249  0.00  0.00    -0.271 OA
ATOM      3  N   TYR d   1      41.705  59.509  -6.368  0.00  0.00    -0.346 N 
ATOM      4  H33 TYR d   1      41.119  59.264  -5.596  0.00  0.00     0.163 HD
ENDROOT
BRANCH   1   5
ATOM      5  CA  ASN d   1      42.259  61.486  -5.075  0.00  0.00     0.097 C 
ATOM      6  H28 ASN d   1      41.294  61.218  -4.621  0.00  0.00     0.088 H 
BRANCH   5   7
ATOM      7  CB  ASN d   1      42.207  62.983  -5.448  0.00  0.00     0.036 C 
ATOM      8  H29 ASN d   1      42.312  63.576  -4.527  0.00  0.00     0.051 H 
ATOM      9  H30 ASN d   1      41.231  63.194  -5.910  0.00  0.00     0.051 H 
BRANCH   7  10
ATOM     10  CG  ASN d   1      43.302  63.402  -6.420  0.00  0.00     0.217 C 
ATOM     11  OD1 ASN d   1      43.179  63.213  -7.632  0.00  0.00    -0.274 OA
ATOM     12  ND2 ASN d   1      44.379  63.974  -5.891  0.00  0.00    -0.370 N 
ATOM     13  H31 ASN d   1      45.130  64.269  -6.482  0.00  0.00     0.159 HD
ATOM     14  H32 ASN d   1      44.439  64.109  -4.902  0.00  0.00     0.159 HD
ENDBRANCH   7  10
ENDBRANCH   5   7
BRANCH   5  15
ATOM     15  N   ASN d   1      43.291  61.254  -4.061  0.00  0.00    -0.346 N 
ATOM     16  C   GLY d   1      42.971  61.322  -2.773  0.00  0.00     0.236 C 
ATOM     17  O   GLY d   1      41.827  61.574  -2.395  0.00  0.00    -0.272 OA
ATOM     18  H27 ASN d   1      44.230  61.046  -4.336  0.00  0.00     0.163 HD
BRANCH  16  19
ATOM     19  CA  GLY d   1      44.052  61.102  -1.729  0.00  0.00     0.069 C 
ATOM     20  H25 GLY d   1      43.536  60.751  -0.823  0.00  0.00     0.078 H 
ATOM     21  H26 GLY d   1      44.499  62.089  -1.538  0.00  0.00     0.078 H 
BRANCH  19  22
ATOM     22  N   GLY d   1      45.162  60.189  -1.942  0.00  0.00    -0.351 N 
ATOM     23  C   PRO d   1      45.071  58.912  -1.581  0.00  0.00     0.241 C 
ATOM     24  O   PRO d   1      44.042  58.414  -1.110  0.00  0.00    -0.271 OA
ATOM     25  H24 GLY d   1      46.004  60.524  -2.365  0.00  0.00     0.163 HD
BRANCH  23  26
ATOM     26  CA  PRO d   1      46.318  58.050  -1.796  0.00  0.00     0.091 C 
ATOM     27  N   PRO d   1      46.426  57.152  -0.642  0.00  0.00    -0.337 N 
ATOM     28  CD  PRO d   1      46.612  55.755  -1.079  0.00  0.00    -0.001 C 
ATOM     29  C   ALA d   1      46.491  57.625   0.618  0.00  0.00     0.243 C 
ATOM     30  CG  PRO d   1      46.983  55.918  -2.542  0.00  0.00    -0.048 C 
ATOM     31  H22 PRO d   1      47.420  55.266  -0.515  0.00  0.00     0.064 H 
ATOM     32  H23 PRO d   1      45.684  55.176  -0.966  0.00  0.00     0.064 H 
ATOM     33  CB  PRO d   1      46.157  57.085  -2.965  0.00  0.00    -0.036 C 
ATOM     34  H20 PRO d   1      48.056  56.130  -2.657  0.00  0.00     0.035 H 
ATOM     35  H21 PRO d   1      46.723  55.019  -3.119  0.00  0.00     0.035 H 
ATOM     36  H18 PRO d   1      46.540  57.525  -3.898  0.00  0.00     0.036 H 
ATOM     37  H19 PRO d   1      45.104  56.797  -3.100  0.00  0.00     0.036 H 
ATOM     38  O   ALA d   1      46.497  58.832   0.863  0.00  0.00    -0.271 OA
ATOM     39  H17 PRO d   1      47.209  58.684  -1.919  0.00  0.00     0.087 H 
BRANCH  29  40
ATOM     40  CA  ALA d   1      46.583  56.595   1.743  0.00  0.00     0.086 C 
ATOM     41  H13 ALA d   1      47.189  55.761   1.358  0.00  0.00     0.086 H 
BRANCH  40  42
ATOM     42  CB  ALA d   1      45.185  56.064   2.057  0.00  0.00    -0.049 C 
ATOM     43  H14 ALA d   1      44.702  55.732   1.127  0.00  0.00     0.030 H 
ATOM     44  H15 ALA d   1      44.584  56.862   2.517  0.00  0.00     0.030 H 
ATOM     45  H16 ALA d   1      45.263  55.216   2.753  0.00  0.00     0.030 H 
ENDBRANCH  40  42
BRANCH  40  46
ATOM     46  N   ALA d   1      47.214  57.033   2.987  0.00  0.00    -0.346 N 
ATOM     47  C   PHE d   1      48.520  57.254   3.082  0.00  0.00     0.249 C 
ATOM     48  O   PHE d   1      49.285  57.158   2.126  0.00  0.00    -0.271 OA
ATOM     49  H12 ALA d   1      46.642  57.171   3.795  0.00  0.00     0.163 HD
BRANCH  47  50
ATOM     50  CA  PHE d   1      49.043  57.652   4.461  0.00  0.00     0.179 C 
ATOM     51  H4  PHE d   1      48.202  57.848   5.142  0.00  0.00     0.099 H 
BRANCH  50  52
ATOM     52  CB  PHE d   1      49.923  58.897   4.359  0.00  0.00    -0.006 C 
ATOM     53  H5  PHE d   1      50.506  58.831   3.429  0.00  0.00     0.043 H 
ATOM     54  H6  PHE d   1      50.607  58.907   5.221  0.00  0.00     0.043 H 
BRANCH  52  55
ATOM     55  CG  PHE d   1      49.164  60.190   4.347  0.00  0.00    -0.056 A 
ATOM     56  CD2 PHE d   1      48.966  60.882   3.159  0.00  0.00    -0.077 A 
ATOM     57  CE2 PHE d   1      48.313  62.112   3.146  0.00  0.00    -0.082 A 
ATOM     58  H8  PHE d   1      49.325  60.458   2.228  0.00  0.00     0.084 H 
ATOM     59  CZ  PHE d   1      47.844  62.655   4.334  0.00  0.00    -0.083 A 
ATOM     60  H10 PHE d   1      48.172  62.643   2.212  0.00  0.00     0.083 H 
ATOM     61  CE1 PHE d   1      48.030  61.971   5.527  0.00  0.00    -0.082 A 
ATOM     62  H11 PHE d   1      47.334  63.611   4.330  0.00  0.00     0.083 H 
ATOM     63  CD1 PHE d   1      48.686  60.740   5.528  0.00  0.00    -0.077 A 
ATOM     64  H9  PHE d   1      47.666  62.393   6.457  0.00  0.00     0.083 H 
ATOM     65  H7  PHE d   1      48.824  60.207   6.462  0.00  0.00     0.084 H 
ENDBRANCH  52  55
ENDBRANCH  50  52
BRANCH  50  66
ATOM     66  N   PHE d   1      49.864  56.512   4.965  0.00  0.00    -0.066 N 
ATOM     67  H1  PHE d   1      50.228  56.738   5.877  0.00  0.00     0.275 HD
ATOM     68  H2  PHE d   1      50.629  56.342   4.330  0.00  0.00     0.275 HD
ATOM     69  H3  PHE d   1      49.290  55.686   5.028  0.00  0.00     0.275 HD
ENDBRANCH  50  66
ENDBRANCH  47  50
ENDBRANCH  40  46
ENDBRANCH  29  40
ENDBRANCH  23  26
ENDBRANCH  19  22
ENDBRANCH  16  19
ENDBRANCH   5  15
ENDBRANCH   1   5
BRANCH   3  70
ATOM     70  CA  TYR d   1      41.778  58.636  -7.530  0.00  0.00     0.093 C 
ATOM     71  H34 TYR d   1      42.830  58.517  -7.830  0.00  0.00     0.088 H 
BRANCH  70  72
ATOM     72  C   TYR d   1      40.991  59.283  -8.663  0.00  0.00     0.243 C 
ATOM     73  O   TYR d   1      39.775  59.452  -8.561  0.00  0.00    -0.271 OA
ATOM     74  N   PRO d   1      41.676  59.655  -9.758  0.00  0.00    -0.337 N 
ATOM     75  CA  PRO d   1      41.006  60.287 -10.900  0.00  0.00     0.091 C 
ATOM     76  CD  PRO d   1      43.080  59.350 -10.081  0.00  0.00    -0.001 C 
ATOM     77  CB  PRO d   1      42.148  60.504 -11.888  0.00  0.00    -0.036 C 
ATOM     78  H42 PRO d   1      40.557  61.248 -10.611  0.00  0.00     0.087 H 
ATOM     79  CG  PRO d   1      43.064  59.345 -11.589  0.00  0.00    -0.048 C 
ATOM     80  H43 PRO d   1      42.652  61.465 -11.708  0.00  0.00     0.036 H 
ATOM     81  H44 PRO d   1      41.787  60.468 -12.927  0.00  0.00     0.036 H 
ATOM     82  H45 PRO d   1      44.070  59.512 -12.001  0.00  0.00     0.035 H 
ATOM     83  H46 PRO d   1      42.658  58.401 -11.983  0.00  0.00     0.035 H 
ATOM     84  H47 PRO d   1      43.757  60.125  -9.691  0.00  0.00     0.064 H 
ATOM     85  H48 PRO d   1      43.377  58.369  -9.682  0.00  0.00     0.064 H 
BRANCH  75  86
ATOM     86  C   PRO d   1      39.918  59.376 -11.456  0.00  0.00     0.241 C 
ATOM     87  O   PRO d   1      40.093  58.160 -11.502  0.00  0.00    -0.271 OA
ATOM     88  N   ALA d   1      38.800  59.960 -11.878  0.00  0.00    -0.346 N 
ATOM     89  H49 ALA d   1      38.715  60.955 -11.824  0.00  0.00     0.163 HD
BRANCH  88  90
ATOM     90  CA  ALA d   1      37.695  59.175 -12.419  0.00  0.00     0.086 C 
ATOM     91  H50 ALA d   1      37.434  58.386 -11.698  0.00  0.00     0.086 H 
BRANCH  90  92
ATOM     92  C   ALA d   1      38.105  58.523 -13.735  0.00  0.00     0.240 C 
ATOM     93  O   ALA d   1      38.843  59.116 -14.520  0.00  0.00    -0.271 OA
ATOM     94  N   LEU d   1      37.630  57.303 -13.972  0.00  0.00    -0.345 N 
ATOM     95  H54 LEU d   1      37.039  56.865 -13.294  0.00  0.00     0.163 HD
BRANCH  94  96
ATOM     96  CA  LEU d   1      37.957  56.593 -15.206  0.00  0.00     0.096 C 
ATOM     97  H55 LEU d   1      39.041  56.676 -15.376  0.00  0.00     0.089 H 
BRANCH  96  98
ATOM     98  C   LEU d   1      37.229  57.189 -16.411  0.00  0.00     0.196 C 
ATOM     99  OXT LEU d   1      37.597  56.829 -17.556  0.00  0.00    -0.646 OA
ATOM    100  O   LEU d   1      36.289  57.992 -16.199  0.00  0.00    -0.646 OA
ENDBRANCH  96  98
BRANCH  96 101
ATOM    101  CB  LEU d   1      37.587  55.110 -15.080  0.00  0.00    -0.034 C 
ATOM    102  H56 LEU d   1      37.822  54.625 -16.039  0.00  0.00     0.037 H 
ATOM    103  H57 LEU d   1      36.504  55.051 -14.894  0.00  0.00     0.037 H 
BRANCH 101 104
ATOM    104  CG  LEU d   1      38.289  54.319 -13.978  0.00  0.00    -0.059 C 
ATOM    105  H58 LEU d   1      38.041  54.761 -13.002  0.00  0.00     0.038 H 
BRANCH 104 106
ATOM    106  CD2 LEU d   1      39.787  54.373 -14.178  0.00  0.00    -0.073 C 
ATOM    107  H62 LEU d   1      40.123  55.420 -14.154  0.00  0.00     0.028 H 
ATOM    108  H63 LEU d   1      40.043  53.928 -15.151  0.00  0.00     0.028 H 
ATOM    109  H64 LEU d   1      40.285  53.810 -13.375  0.00  0.00     0.028 H 
ENDBRANCH 104 106
BRANCH 104 110
ATOM    110  CD1 LEU d   1      37.805  52.870 -14.009  0.00  0.00    -0.073 C 
ATOM    111  H59 LEU d   1      38.309  52.298 -13.216  0.00  0.00     0.028 H 
ATOM    112  H60 LEU d   1      38.040  52.426 -14.988  0.00  0.00     0.028 H 
ATOM    113  H61 LEU d   1      36.718  52.843 -13.846  0.00  0.00     0.028 H 
ENDBRANCH 104 110
ENDBRANCH 101 104
ENDBRANCH  96 101
ENDBRANCH  94  96
ENDBRANCH  90  92
BRANCH  90 114
ATOM    114  CB  ALA d   1      36.472  60.071 -12.635  0.00  0.00    -0.049 C 
ATOM    115  H51 ALA d   1      35.645  59.471 -13.043  0.00  0.00     0.030 H 
ATOM    116  H52 ALA d   1      36.726  60.874 -13.343  0.00  0.00     0.030 H 
ATOM    117  H53 ALA d   1      36.166  60.512 -11.675  0.00  0.00     0.030 H 
ENDBRANCH  90 114
ENDBRANCH  88  90
ENDBRANCH  75  86
ENDBRANCH  70  72
BRANCH  70 118
ATOM    118  CB  TYR d   1      41.186  57.258  -7.223  0.00  0.00    -0.014 C 
ATOM    119  H35 TYR d   1      41.175  56.676  -8.156  0.00  0.00     0.043 H 
ATOM    120  H36 TYR d   1      40.155  57.401  -6.868  0.00  0.00     0.043 H 
BRANCH 118 121
ATOM    121  CG  TYR d   1      41.937  56.456  -6.177  0.00  0.00    -0.056 A 
ATOM    122  CD2 TYR d   1      42.927  55.542  -6.550  0.00  0.00    -0.074 A 
ATOM    123  CE2 TYR d   1      43.593  54.769  -5.601  0.00  0.00    -0.051 A 
ATOM    124  H38 TYR d   1      43.181  55.432  -7.598  0.00  0.00     0.084 H 
ATOM    125  CZ  TYR d   1      43.269  54.904  -4.258  0.00  0.00     0.065 A 
ATOM    126  H40 TYR d   1      44.359  54.067  -5.910  0.00  0.00     0.087 H 
ATOM    127  CE1 TYR d   1      42.294  55.806  -3.863  0.00  0.00    -0.051 A 
ATOM    128  CD1 TYR d   1      41.635  56.581  -4.821  0.00  0.00    -0.074 A 
ATOM    129  H39 TYR d   1      42.043  55.910  -2.814  0.00  0.00     0.087 H 
ATOM    130  H37 TYR d   1      40.878  57.290  -4.506  0.00  0.00     0.084 H 
BRANCH 125 131
ATOM    131  OH  TYR d   1      43.911  54.131  -3.307  0.00  0.00    -0.361 OA
ATOM    132  H41 TYR d   1      44.546  53.568  -3.734  0.00  0.00     0.217 HD
ENDBRANCH 125 131
ENDBRANCH 118 121
ENDBRANCH  70 118
ENDBRANCH   3  70
TORSDOF 29
