REMARK WARNING: 32 MAX_TORS EXCEEDED!!!
REMARK  36 active torsions:
REMARK  status: ('A' for Active; 'I' for Inactive)
REMARK    1  A    between atoms: CA_2  and  N_1 
REMARK    2  A    between atoms: C_3  and  CA_2 
REMARK    3  A    between atoms: CA_2  and  CB_5 
REMARK       I    between atoms: N_12  and  C_3 
REMARK    4  A    between atoms: CB_5  and  CG_6 
REMARK    5  A    between atoms: CG_6  and  CD_7 
REMARK    6  A    between atoms: CD_7  and  NE_8 
REMARK       I    between atoms: NE_8  and  CZ_9 
REMARK       I    between atoms: CZ_9  and  NH1_10 
REMARK    7  A    between atoms: CA_13  and  N_12 
REMARK    8  A    between atoms: C_14  and  CA_13 
REMARK       I    between atoms: N_16  and  C_14 
REMARK    9  A    between atoms: CA_17  and  N_16 
REMARK   10  A    between atoms: C_18  and  CA_17 
REMARK   11  A    between atoms: CA_17  and  CB_20 
REMARK       I    between atoms: N_28  and  C_18 
REMARK   12  A    between atoms: CB_20  and  CG_21 
REMARK   13  A    between atoms: CZ_26  and  OH_27 
REMARK   14  A    between atoms: CA_29  and  N_28 
REMARK   15  A    between atoms: C_30  and  CA_29 
REMARK   16  A    between atoms: CA_29  and  CB_32 
REMARK       I    between atoms: N_35  and  C_30 
REMARK   17  A    between atoms: CB_32  and  CG1_33 
REMARK   18  A    between atoms: CB_32  and  CG2_34 
REMARK   19  A    between atoms: CA_36  and  N_35 
REMARK   20  A    between atoms: C_37  and  CA_36 
REMARK   21  A    between atoms: CA_36  and  CB_39 
REMARK       I    between atoms: N_47  and  C_37 
REMARK   22  A    between atoms: CB_39  and  CG_40 
REMARK   23  A    between atoms: CZ_45  and  OH_46 
REMARK   24  A    between atoms: CA_48  and  N_47 
REMARK   25  A    between atoms: C_49  and  CA_48 
REMARK   26  A    between atoms: CA_48  and  CB_51 
REMARK       I    between atoms: N_56  and  C_49 
REMARK   27  A    between atoms: CB_51  and  CG_52 
REMARK   28  A    between atoms: CG_52  and  CD_53 
REMARK       I    between atoms: CD_53  and  NE2_55 
REMARK   29  A    between atoms: CA_57  and  N_56 
REMARK   30  A    between atoms: C_58  and  CA_57 
REMARK       I    between atoms: C_58  and  N_60 
REMARK   31  A    between atoms: N_60  and  CA_61 
REMARK   32  A    between atoms: CA_61  and  C_62 
REMARK   33  A    between atoms: CA_61  and  CB_64 
REMARK   34  A    between atoms: CB_64  and  CG_65 
REMARK   35  A    between atoms: CG_65  and  CD2_67 
REMARK   36  A    between atoms: CG_65  and  CD1_66 
ROOT
ATOM      1  CA  VAL d   1      43.192  61.139  -3.369  0.00  0.00     0.092 C 
ATOM      2  H29 VAL d   1      42.429  60.563  -2.825  0.00  0.00     0.088 H 
ENDROOT
BRANCH   1   3
ATOM      3  C   VAL d   1      43.176  60.827  -4.860  0.00  0.00     0.241 C 
ATOM      4  O   VAL d   1      43.828  61.504  -5.657  0.00  0.00    -0.271 OA
ATOM      5  N   TYR d   1      42.453  59.771  -5.235  0.00  0.00    -0.346 N 
ATOM      6  H37 TYR d   1      41.935  59.266  -4.544  0.00  0.00     0.163 HD
BRANCH   5   7
ATOM      7  CA  TYR d   1      42.396  59.332  -6.623  0.00  0.00     0.093 C 
ATOM      8  H38 TYR d   1      43.440  59.294  -6.969  0.00  0.00     0.088 H 
BRANCH   7   9
ATOM      9  C   TYR d   1      41.661  60.222  -7.618  0.00  0.00     0.241 C 
ATOM     10  O   TYR d   1      40.724  60.936  -7.267  0.00  0.00    -0.271 OA
ATOM     11  N   GLN d   1      42.117  60.161  -8.864  0.00  0.00    -0.346 N 
ATOM     12  H46 GLN d   1      42.887  59.552  -9.054  0.00  0.00     0.163 HD
BRANCH  11  13
ATOM     13  CA  GLN d   1      41.560  60.932  -9.975  0.00  0.00     0.090 C 
ATOM     14  H47 GLN d   1      41.123  61.862  -9.582  0.00  0.00     0.087 H 
BRANCH  13  15
ATOM     15  C   GLN d   1      40.471  60.137 -10.700  0.00  0.00     0.240 C 
ATOM     16  O   GLN d   1      40.609  58.929 -10.898  0.00  0.00    -0.271 OA
ATOM     17  N   GLY d   1      39.398  60.812 -11.105  0.00  0.00    -0.351 N 
ATOM     18  H54 GLY d   1      39.329  61.793 -10.923  0.00  0.00     0.163 HD
BRANCH  17  19
ATOM     19  CA  GLY d   1      38.322  60.128 -11.813  0.00  0.00     0.069 C 
ATOM     20  H55 GLY d   1      37.953  59.319 -11.165  0.00  0.00     0.078 H 
ATOM     21  H56 GLY d   1      37.516  60.856 -11.986  0.00  0.00     0.078 H 
BRANCH  19  22
ATOM     22  C   GLY d   1      38.695  59.516 -13.159  0.00  0.00     0.236 C 
ATOM     23  O   GLY d   1      39.504  60.071 -13.904  0.00  0.00    -0.272 OA
ATOM     24  N   LEU d   1      38.095  58.368 -13.480  0.00  0.00    -0.345 N 
ATOM     25  H57 LEU d   1      37.440  57.969 -12.839  0.00  0.00     0.163 HD
BRANCH  24  26
ATOM     26  CA  LEU d   1      38.366  57.673 -14.743  0.00  0.00     0.096 C 
ATOM     27  H58 LEU d   1      39.449  57.720 -14.927  0.00  0.00     0.089 H 
BRANCH  26  28
ATOM     28  C   LEU d   1      37.652  58.298 -15.945  0.00  0.00     0.196 C 
ATOM     29  OXT LEU d   1      38.040  57.984 -17.096  0.00  0.00    -0.646 OA
ATOM     30  O   LEU d   1      36.700  59.084 -15.728  0.00  0.00    -0.646 OA
ENDBRANCH  26  28
BRANCH  26  31
ATOM     31  CB  LEU d   1      37.948  56.201 -14.633  0.00  0.00    -0.034 C 
ATOM     32  H59 LEU d   1      38.206  55.712 -15.584  0.00  0.00     0.037 H 
ATOM     33  H60 LEU d   1      36.857  56.176 -14.492  0.00  0.00     0.037 H 
BRANCH  31  34
ATOM     34  CG  LEU d   1      38.574  55.381 -13.512  0.00  0.00    -0.059 C 
ATOM     35  H61 LEU d   1      38.325  55.840 -12.544  0.00  0.00     0.038 H 
BRANCH  34  36
ATOM     36  CD2 LEU d   1      40.094  55.370 -13.680  0.00  0.00    -0.073 C 
ATOM     37  H65 LEU d   1      40.474  56.402 -13.649  0.00  0.00     0.028 H 
ATOM     38  H66 LEU d   1      40.353  54.913 -14.646  0.00  0.00     0.028 H 
ATOM     39  H67 LEU d   1      40.549  54.788 -12.865  0.00  0.00     0.028 H 
ENDBRANCH  34  36
BRANCH  34  40
ATOM     40  CD1 LEU d   1      38.006  53.961 -13.549  0.00  0.00    -0.073 C 
ATOM     41  H62 LEU d   1      38.456  53.365 -12.741  0.00  0.00     0.028 H 
ATOM     42  H63 LEU d   1      38.239  53.498 -14.519  0.00  0.00     0.028 H 
ATOM     43  H64 LEU d   1      36.915  53.999 -13.413  0.00  0.00     0.028 H 
ENDBRANCH  34  40
ENDBRANCH  31  34
ENDBRANCH  26  31
ENDBRANCH  24  26
ENDBRANCH  19  22
ENDBRANCH  17  19
ENDBRANCH  13  15
BRANCH  13  44
ATOM     44  CB  GLN d   1      42.681  61.275 -10.962  0.00  0.00    -0.030 C 
ATOM     45  H48 GLN d   1      43.053  60.335 -11.396  0.00  0.00     0.037 H 
ATOM     46  H49 GLN d   1      43.490  61.766 -10.402  0.00  0.00     0.037 H 
BRANCH  44  47
ATOM     47  CG  GLN d   1      42.272  62.191 -12.101  0.00  0.00     0.011 C 
ATOM     48  H50 GLN d   1      41.413  61.746 -12.625  0.00  0.00     0.047 H 
ATOM     49  H51 GLN d   1      43.116  62.290 -12.799  0.00  0.00     0.047 H 
BRANCH  47  50
ATOM     50  CD  GLN d   1      41.883  63.567 -11.605  0.00  0.00     0.215 C 
ATOM     51  OE1 GLN d   1      40.709  63.947 -11.630  0.00  0.00    -0.274 OA
ATOM     52  NE2 GLN d   1      42.869  64.318 -11.130  0.00  0.00    -0.370 N 
ATOM     53  H52 GLN d   1      42.677  65.237 -10.787  0.00  0.00     0.159 HD
ATOM     54  H53 GLN d   1      43.804  63.964 -11.115  0.00  0.00     0.159 HD
ENDBRANCH  47  50
ENDBRANCH  44  47
ENDBRANCH  13  44
ENDBRANCH  11  13
ENDBRANCH   7   9
BRANCH   7  55
ATOM     55  CB  TYR d   1      41.836  57.902  -6.692  0.00  0.00    -0.014 C 
ATOM     56  H39 TYR d   1      41.838  57.571  -7.741  0.00  0.00     0.043 H 
ATOM     57  H40 TYR d   1      40.804  57.907  -6.311  0.00  0.00     0.043 H 
BRANCH  55  58
ATOM     58  CG  TYR d   1      42.653  56.924  -5.871  0.00  0.00    -0.056 A 
ATOM     59  CD2 TYR d   1      43.699  56.202  -6.448  0.00  0.00    -0.074 A 
ATOM     60  CE2 TYR d   1      44.509  55.360  -5.676  0.00  0.00    -0.051 A 
ATOM     61  H42 TYR d   1      43.888  56.295  -7.511  0.00  0.00     0.084 H 
ATOM     62  CZ  TYR d   1      44.271  55.240  -4.326  0.00  0.00     0.065 A 
ATOM     63  H44 TYR d   1      45.318  54.806  -6.139  0.00  0.00     0.087 H 
ATOM     64  CE1 TYR d   1      43.232  55.939  -3.729  0.00  0.00    -0.051 A 
ATOM     65  CD1 TYR d   1      42.430  56.777  -4.509  0.00  0.00    -0.074 A 
ATOM     66  H43 TYR d   1      43.044  55.836  -2.666  0.00  0.00     0.087 H 
ATOM     67  H41 TYR d   1      41.618  57.322  -4.041  0.00  0.00     0.084 H 
BRANCH  62  68
ATOM     68  OH  TYR d   1      45.080  54.447  -3.545  0.00  0.00    -0.361 OA
ATOM     69  H45 TYR d   1      45.502  54.982  -2.883  0.00  0.00     0.217 HD
ENDBRANCH  62  68
ENDBRANCH  55  58
ENDBRANCH   7  55
ENDBRANCH   5   7
ENDBRANCH   1   3
BRANCH   1  70
ATOM     70  CB  VAL d   1      42.963  62.655  -3.132  0.00  0.00    -0.033 C 
ATOM     71  H30 VAL d   1      43.754  63.223  -3.643  0.00  0.00     0.042 H 
BRANCH  70  72
ATOM     72  CG1 VAL d   1      41.609  63.066  -3.695  0.00  0.00    -0.071 C 
ATOM     73  H31 VAL d   1      41.452  64.141  -3.524  0.00  0.00     0.028 H 
ATOM     74  H32 VAL d   1      40.814  62.495  -3.192  0.00  0.00     0.028 H 
ATOM     75  H33 VAL d   1      41.583  62.859  -4.775  0.00  0.00     0.028 H 
ENDBRANCH  70  72
BRANCH  70  76
ATOM     76  CG2 VAL d   1      43.014  62.960  -1.642  0.00  0.00    -0.071 C 
ATOM     77  H34 VAL d   1      43.993  62.662  -1.240  0.00  0.00     0.028 H 
ATOM     78  H35 VAL d   1      42.220  62.401  -1.126  0.00  0.00     0.028 H 
ATOM     79  H36 VAL d   1      42.866  64.038  -1.483  0.00  0.00     0.028 H 
ENDBRANCH  70  76
ENDBRANCH   1  70
BRANCH   1  80
ATOM     80  N   VAL d   1      44.541  60.715  -2.999  0.00  0.00    -0.346 N 
ATOM     81  C   TYR d   1      44.757  59.614  -2.290  0.00  0.00     0.241 C 
ATOM     82  O   TYR d   1      43.850  58.931  -1.816  0.00  0.00    -0.271 OA
ATOM     83  H28 VAL d   1      45.322  61.269  -3.288  0.00  0.00     0.163 HD
BRANCH  81  84
ATOM     84  CA  TYR d   1      46.218  59.245  -2.055  0.00  0.00     0.093 C 
ATOM     85  H20 TYR d   1      46.799  60.157  -1.855  0.00  0.00     0.088 H 
BRANCH  84  86
ATOM     86  CB  TYR d   1      46.761  58.548  -3.307  0.00  0.00    -0.014 C 
ATOM     87  H21 TYR d   1      46.075  57.724  -3.554  0.00  0.00     0.043 H 
ATOM     88  H22 TYR d   1      47.751  58.139  -3.058  0.00  0.00     0.043 H 
BRANCH  86  89
ATOM     89  CG  TYR d   1      46.915  59.403  -4.542  0.00  0.00    -0.056 A 
ATOM     90  CD2 TYR d   1      46.214  59.109  -5.713  0.00  0.00    -0.074 A 
ATOM     91  CE2 TYR d   1      46.404  59.858  -6.874  0.00  0.00    -0.051 A 
ATOM     92  H24 TYR d   1      45.510  58.285  -5.720  0.00  0.00     0.084 H 
ATOM     93  CZ  TYR d   1      47.313  60.921  -6.859  0.00  0.00     0.065 A 
ATOM     94  H26 TYR d   1      45.854  59.619  -7.777  0.00  0.00     0.087 H 
ATOM     95  CE1 TYR d   1      48.011  61.227  -5.708  0.00  0.00    -0.051 A 
ATOM     96  CD1 TYR d   1      47.813  60.479  -4.562  0.00  0.00    -0.074 A 
ATOM     97  H25 TYR d   1      48.713  62.053  -5.703  0.00  0.00     0.087 H 
ATOM     98  H23 TYR d   1      48.363  60.730  -3.662  0.00  0.00     0.084 H 
BRANCH  93  99
ATOM     99  OH  TYR d   1      47.528  61.667  -7.993  0.00  0.00    -0.361 OA
ATOM    100  H27 TYR d   1      46.980  61.338  -8.696  0.00  0.00     0.217 HD
ENDBRANCH  93  99
ENDBRANCH  86  89
ENDBRANCH  84  86
BRANCH  84 101
ATOM    101  N   TYR d   1      46.334  58.339  -0.924  0.00  0.00    -0.346 N 
ATOM    102  C   GLY d   1      46.687  58.725   0.295  0.00  0.00     0.236 C 
ATOM    103  O   GLY d   1      46.908  59.892   0.597  0.00  0.00    -0.272 OA
ATOM    104  H19 TYR d   1      46.136  57.370  -1.073  0.00  0.00     0.163 HD
BRANCH 102 105
ATOM    105  CA  GLY d   1      46.759  57.607   1.312  0.00  0.00     0.069 C 
ATOM    106  H17 GLY d   1      47.342  56.798   0.848  0.00  0.00     0.078 H 
ATOM    107  H18 GLY d   1      45.726  57.266   1.478  0.00  0.00     0.078 H 
BRANCH 105 108
ATOM    108  N   GLY d   1      47.335  57.833   2.622  0.00  0.00    -0.351 N 
ATOM    109  C   ARG d   1      48.651  57.938   2.791  0.00  0.00     0.248 C 
ATOM    110  O   ARG d   1      49.454  57.923   1.857  0.00  0.00    -0.271 OA
ATOM    111  H16 GLY d   1      46.731  57.912   3.416  0.00  0.00     0.163 HD
BRANCH 109 112
ATOM    112  CA  ARG d   1      49.117  58.103   4.232  0.00  0.00     0.176 C 
ATOM    113  H4  ARG d   1      48.433  57.526   4.872  0.00  0.00     0.099 H 
BRANCH 112 114
ATOM    114  CB  ARG d   1      49.036  59.575   4.657  0.00  0.00    -0.029 C 
ATOM    115  H5  ARG d   1      49.234  59.626   5.738  0.00  0.00     0.036 H 
ATOM    116  H6  ARG d   1      48.015  59.930   4.454  0.00  0.00     0.036 H 
BRANCH 114 117
ATOM    117  CG  ARG d   1      49.995  60.508   3.967  0.00  0.00    -0.047 C 
ATOM    118  H7  ARG d   1      49.905  60.384   2.878  0.00  0.00     0.035 H 
ATOM    119  H8  ARG d   1      51.023  60.271   4.279  0.00  0.00     0.035 H 
BRANCH 117 120
ATOM    120  CD  ARG d   1      49.673  61.951   4.340  0.00  0.00     0.009 C 
ATOM    121  H9  ARG d   1      48.797  62.282   3.762  0.00  0.00     0.064 H 
ATOM    122  H10 ARG d   1      50.537  62.585   4.091  0.00  0.00     0.064 H 
BRANCH 120 123
ATOM    123  NE  ARG d   1      49.379  62.089   5.766  0.00  0.00    -0.227 N 
ATOM    124  CZ  ARG d   1      48.982  63.221   6.345  0.00  0.00     0.665 C 
ATOM    125  NH1 ARG d   1      48.829  64.324   5.623  0.00  0.00    -0.235 N 
ATOM    126  NH2 ARG d   1      48.731  63.251   7.648  0.00  0.00    -0.235 N 
ATOM    127  H12 ARG d   1      48.522  65.197   6.075  0.00  0.00     0.174 HD
ATOM    128  H13 ARG d   1      49.017  64.307   4.611  0.00  0.00     0.174 HD
ATOM    129  H14 ARG d   1      48.848  62.399   8.215  0.00  0.00     0.174 HD
ATOM    130  H15 ARG d   1      48.420  64.126   8.092  0.00  0.00     0.174 HD
ATOM    131  H11 ARG d   1      49.486  61.256   6.362  0.00  0.00     0.177 HD
ENDBRANCH 120 123
ENDBRANCH 117 120
ENDBRANCH 114 117
ENDBRANCH 112 114
BRANCH 112 132
ATOM    132  N   ARG d   1      50.494  57.570   4.445  0.00  0.00    -0.067 N 
ATOM    133  H1  ARG d   1      50.759  57.700   5.409  0.00  0.00     0.275 HD
ATOM    134  H2  ARG d   1      51.141  58.062   3.849  0.00  0.00     0.275 HD
ATOM    135  H3  ARG d   1      50.512  56.587   4.221  0.00  0.00     0.275 HD
ENDBRANCH 112 132
ENDBRANCH 109 112
ENDBRANCH 105 108
ENDBRANCH 102 105
ENDBRANCH  84 101
ENDBRANCH  81  84
ENDBRANCH   1  80
TORSDOF 36
