REMARK  29 active torsions:
REMARK  status: ('A' for Active; 'I' for Inactive)
REMARK    1  A    between atoms: CA_2  and  N_1 
REMARK    2  A    between atoms: C_3  and  CA_2 
REMARK    3  A    between atoms: CA_2  and  CB_5 
REMARK       I    between atoms: N_12  and  C_3 
REMARK    4  A    between atoms: CB_5  and  CG_6 
REMARK    5  A    between atoms: CA_13  and  N_12 
REMARK    6  A    between atoms: C_14  and  CA_13 
REMARK    7  A    between atoms: CA_13  and  CB_16 
REMARK       I    between atoms: N_17  and  C_14 
REMARK    8  A    between atoms: C_19  and  CA_18 
REMARK       I    between atoms: N_24  and  C_19 
REMARK    9  A    between atoms: CA_25  and  N_24 
REMARK   10  A    between atoms: C_26  and  CA_25 
REMARK       I    between atoms: N_28  and  C_26 
REMARK   11  A    between atoms: CA_29  and  N_28 
REMARK   12  A    between atoms: C_30  and  CA_29 
REMARK   13  A    between atoms: CA_29  and  CB_32 
REMARK       I    between atoms: N_36  and  C_30 
REMARK   14  A    between atoms: CB_32  and  CG_33 
REMARK       I    between atoms: CG_33  and  ND2_35 
REMARK   15  A    between atoms: CA_37  and  N_36 
REMARK   16  A    between atoms: C_38  and  CA_37 
REMARK   17  A    between atoms: CA_37  and  CB_40 
REMARK       I    between atoms: N_48  and  C_38 
REMARK   18  A    between atoms: CB_40  and  CG_41 
REMARK   19  A    between atoms: CZ_46  and  OH_47 
REMARK   20  A    between atoms: C_50  and  CA_49 
REMARK       I    between atoms: N_55  and  C_50 
REMARK   21  A    between atoms: CA_56  and  N_55 
REMARK   22  A    between atoms: C_57  and  CA_56 
REMARK   23  A    between atoms: CA_56  and  CB_59 
REMARK       I    between atoms: C_57  and  N_60 
REMARK   24  A    between atoms: N_60  and  CA_61 
REMARK   25  A    between atoms: CA_61  and  C_62 
REMARK   26  A    between atoms: CA_61  and  CB_64 
REMARK   27  A    between atoms: CB_64  and  CG_65 
REMARK   28  A    between atoms: CG_65  and  CD2_67 
REMARK   29  A    between atoms: CG_65  and  CD1_66 
ROOT
ATOM      1  C   ASN d   1      42.424  59.964  -5.366  0.00  0.00     0.241 C 
ATOM      2  O   ASN d   1      43.581  59.736  -5.738  0.00  0.00    -0.271 OA
ATOM      3  N   TYR d   1      41.355  59.448  -5.950  0.00  0.00    -0.346 N 
ATOM      4  H33 TYR d   1      40.448  59.655  -5.583  0.00  0.00     0.163 HD
ENDROOT
BRANCH   1   5
ATOM      5  CA  ASN d   1      42.146  60.862  -4.165  0.00  0.00     0.097 C 
ATOM      6  H28 ASN d   1      41.529  60.319  -3.433  0.00  0.00     0.088 H 
BRANCH   5   7
ATOM      7  CB  ASN d   1      41.385  62.114  -4.629  0.00  0.00     0.036 C 
ATOM      8  H29 ASN d   1      41.445  62.875  -3.837  0.00  0.00     0.051 H 
ATOM      9  H30 ASN d   1      40.332  61.843  -4.797  0.00  0.00     0.051 H 
BRANCH   7  10
ATOM     10  CG  ASN d   1      41.947  62.705  -5.916  0.00  0.00     0.217 C 
ATOM     11  OD1 ASN d   1      41.202  62.981  -6.861  0.00  0.00    -0.274 OA
ATOM     12  ND2 ASN d   1      43.254  62.916  -5.954  0.00  0.00    -0.370 N 
ATOM     13  H31 ASN d   1      43.674  63.302  -6.775  0.00  0.00     0.159 HD
ATOM     14  H32 ASN d   1      43.820  62.689  -5.162  0.00  0.00     0.159 HD
ENDBRANCH   7  10
ENDBRANCH   5   7
BRANCH   5  15
ATOM     15  N   ASN d   1      43.412  61.209  -3.556  0.00  0.00    -0.346 N 
ATOM     16  C   GLY d   1      43.471  61.810  -2.373  0.00  0.00     0.236 C 
ATOM     17  O   GLY d   1      42.461  62.142  -1.742  0.00  0.00    -0.272 OA
ATOM     18  H27 ASN d   1      44.261  60.991  -4.037  0.00  0.00     0.163 HD
BRANCH  16  19
ATOM     19  CA  GLY d   1      44.865  62.090  -1.838  0.00  0.00     0.069 C 
ATOM     20  H25 GLY d   1      44.801  62.231  -0.749  0.00  0.00     0.078 H 
ATOM     21  H26 GLY d   1      45.241  63.012  -2.306  0.00  0.00     0.078 H 
BRANCH  19  22
ATOM     22  N   GLY d   1      45.807  61.012  -2.112  0.00  0.00    -0.351 N 
ATOM     23  C   PRO d   1      45.514  59.760  -1.762  0.00  0.00     0.241 C 
ATOM     24  O   PRO d   1      44.465  59.468  -1.211  0.00  0.00    -0.271 OA
ATOM     25  H24 GLY d   1      46.676  61.213  -2.564  0.00  0.00     0.163 HD
BRANCH  23  26
ATOM     26  CA  PRO d   1      46.542  58.668  -2.084  0.00  0.00     0.091 C 
ATOM     27  N   PRO d   1      46.521  57.692  -0.992  0.00  0.00    -0.337 N 
ATOM     28  CD  PRO d   1      46.467  56.300  -1.499  0.00  0.00    -0.001 C 
ATOM     29  C   ALA d   1      46.657  58.095   0.283  0.00  0.00     0.243 C 
ATOM     30  CG  PRO d   1      46.746  56.470  -2.992  0.00  0.00    -0.048 C 
ATOM     31  H22 PRO d   1      47.236  55.675  -1.021  0.00  0.00     0.064 H 
ATOM     32  H23 PRO d   1      45.475  55.855  -1.330  0.00  0.00     0.064 H 
ATOM     33  CB  PRO d   1      46.115  57.836  -3.291  0.00  0.00    -0.036 C 
ATOM     34  H20 PRO d   1      47.827  56.477  -3.197  0.00  0.00     0.035 H 
ATOM     35  H21 PRO d   1      46.267  55.673  -3.580  0.00  0.00     0.035 H 
ATOM     36  H18 PRO d   1      46.510  58.260  -4.226  0.00  0.00     0.036 H 
ATOM     37  H19 PRO d   1      45.019  57.762  -3.356  0.00  0.00     0.036 H 
ATOM     38  O   ALA d   1      46.828  59.274   0.580  0.00  0.00    -0.271 OA
ATOM     39  H17 PRO d   1      47.539  59.109  -2.230  0.00  0.00     0.087 H 
BRANCH  29  40
ATOM     40  CA  ALA d   1      46.601  57.020   1.344  0.00  0.00     0.086 C 
ATOM     41  H13 ALA d   1      47.164  56.158   0.958  0.00  0.00     0.086 H 
BRANCH  40  42
ATOM     42  CB  ALA d   1      45.143  56.592   1.552  0.00  0.00    -0.049 C 
ATOM     43  H14 ALA d   1      44.696  56.330   0.582  0.00  0.00     0.030 H 
ATOM     44  H15 ALA d   1      44.578  57.421   2.004  0.00  0.00     0.030 H 
ATOM     45  H16 ALA d   1      45.109  55.718   2.220  0.00  0.00     0.030 H 
ENDBRANCH  40  42
BRANCH  40  46
ATOM     46  N   ALA d   1      47.181  57.364   2.633  0.00  0.00    -0.346 N 
ATOM     47  C   PHE d   1      48.485  57.511   2.814  0.00  0.00     0.249 C 
ATOM     48  O   PHE d   1      49.307  57.423   1.905  0.00  0.00    -0.271 OA
ATOM     49  H12 ALA d   1      46.571  57.495   3.414  0.00  0.00     0.163 HD
BRANCH  47  50
ATOM     50  CA  PHE d   1      48.925  57.801   4.247  0.00  0.00     0.179 C 
ATOM     51  H4  PHE d   1      48.073  57.667   4.930  0.00  0.00     0.099 H 
BRANCH  50  52
ATOM     52  CB  PHE d   1      49.457  59.233   4.377  0.00  0.00    -0.006 C 
ATOM     53  H5  PHE d   1      49.859  59.544   3.401  0.00  0.00     0.043 H 
ATOM     54  H6  PHE d   1      50.264  59.237   5.125  0.00  0.00     0.043 H 
BRANCH  52  55
ATOM     55  CG  PHE d   1      48.418  60.228   4.798  0.00  0.00    -0.056 A 
ATOM     56  CD2 PHE d   1      48.196  61.380   4.051  0.00  0.00    -0.077 A 
ATOM     57  CE2 PHE d   1      47.235  62.319   4.449  0.00  0.00    -0.082 A 
ATOM     58  H8  PHE d   1      48.773  61.554   3.150  0.00  0.00     0.084 H 
ATOM     59  CZ  PHE d   1      46.481  62.106   5.617  0.00  0.00    -0.083 A 
ATOM     60  H10 PHE d   1      47.072  63.211   3.855  0.00  0.00     0.083 H 
ATOM     61  CE1 PHE d   1      46.697  60.958   6.370  0.00  0.00    -0.082 A 
ATOM     62  H11 PHE d   1      45.737  62.831   5.927  0.00  0.00     0.083 H 
ATOM     63  CD1 PHE d   1      47.668  60.022   5.954  0.00  0.00    -0.077 A 
ATOM     64  H9  PHE d   1      46.123  60.782   7.272  0.00  0.00     0.083 H 
ATOM     65  H7  PHE d   1      47.833  59.128   6.544  0.00  0.00     0.084 H 
ENDBRANCH  52  55
ENDBRANCH  50  52
BRANCH  50  66
ATOM     66  N   PHE d   1      49.998  56.839   4.585  0.00  0.00    -0.066 N 
ATOM     67  H1  PHE d   1      50.312  57.004   5.529  0.00  0.00     0.275 HD
ATOM     68  H2  PHE d   1      50.770  56.959   3.948  0.00  0.00     0.275 HD
ATOM     69  H3  PHE d   1      49.643  55.899   4.509  0.00  0.00     0.275 HD
ENDBRANCH  50  66
ENDBRANCH  47  50
ENDBRANCH  40  46
ENDBRANCH  29  40
ENDBRANCH  23  26
ENDBRANCH  19  22
ENDBRANCH  16  19
ENDBRANCH   5  15
ENDBRANCH   1   5
BRANCH   3  70
ATOM     70  CA  TYR d   1      41.473  58.589  -7.111  0.00  0.00     0.093 C 
ATOM     71  H34 TYR d   1      42.523  58.535  -7.436  0.00  0.00     0.088 H 
BRANCH  70  72
ATOM     72  C   TYR d   1      40.623  59.236  -8.192  0.00  0.00     0.243 C 
ATOM     73  O   TYR d   1      39.393  59.133  -8.187  0.00  0.00    -0.271 OA
ATOM     74  N   PRO d   1      41.270  59.947  -9.120  0.00  0.00    -0.337 N 
ATOM     75  CA  PRO d   1      40.549  60.618 -10.213  0.00  0.00     0.091 C 
ATOM     76  CD  PRO d   1      42.730  60.084  -9.276  0.00  0.00    -0.001 C 
ATOM     77  CB  PRO d   1      41.673  61.040 -11.159  0.00  0.00    -0.036 C 
ATOM     78  H42 PRO d   1      39.997  61.495  -9.844  0.00  0.00     0.087 H 
ATOM     79  CG  PRO d   1      42.840  61.249 -10.233  0.00  0.00    -0.048 C 
ATOM     80  H43 PRO d   1      41.416  61.971 -11.687  0.00  0.00     0.036 H 
ATOM     81  H44 PRO d   1      41.889  60.250 -11.893  0.00  0.00     0.036 H 
ATOM     82  H45 PRO d   1      42.755  62.207  -9.700  0.00  0.00     0.035 H 
ATOM     83  H46 PRO d   1      43.792  61.219 -10.784  0.00  0.00     0.035 H 
ATOM     84  H47 PRO d   1      43.214  60.310  -8.315  0.00  0.00     0.064 H 
ATOM     85  H48 PRO d   1      43.173  59.173  -9.704  0.00  0.00     0.064 H 
BRANCH  75  86
ATOM     86  C   PRO d   1      39.575  59.653 -10.885  0.00  0.00     0.241 C 
ATOM     87  O   PRO d   1      39.907  58.490 -11.100  0.00  0.00    -0.271 OA
ATOM     88  N   ALA d   1      38.382  60.133 -11.221  0.00  0.00    -0.346 N 
ATOM     89  H49 ALA d   1      38.164  61.090 -11.031  0.00  0.00     0.163 HD
BRANCH  88  90
ATOM     90  CA  ALA d   1      37.388  59.282 -11.862  0.00  0.00     0.086 C 
ATOM     91  H50 ALA d   1      37.207  58.411 -11.216  0.00  0.00     0.086 H 
BRANCH  90  92
ATOM     92  C   ALA d   1      37.893  58.789 -13.209  0.00  0.00     0.240 C 
ATOM     93  O   ALA d   1      38.654  59.471 -13.885  0.00  0.00    -0.271 OA
ATOM     94  N   LEU d   1      37.475  57.580 -13.567  0.00  0.00    -0.345 N 
ATOM     95  H54 LEU d   1      36.872  57.081 -12.944  0.00  0.00     0.163 HD
BRANCH  94  96
ATOM     96  CA  LEU d   1      37.854  56.943 -14.827  0.00  0.00     0.096 C 
ATOM     97  H55 LEU d   1      38.940  57.053 -14.963  0.00  0.00     0.089 H 
BRANCH  96  98
ATOM     98  C   LEU d   1      37.140  57.581 -16.036  0.00  0.00     0.196 C 
ATOM     99  OXT LEU d   1      37.507  57.242 -17.189  0.00  0.00    -0.646 OA
ATOM    100  O   LEU d   1      36.210  58.395 -15.823  0.00  0.00    -0.646 OA
ENDBRANCH  96  98
BRANCH  96 101
ATOM    101  CB  LEU d   1      37.503  55.446 -14.762  0.00  0.00    -0.034 C 
ATOM    102  H56 LEU d   1      37.803  54.992 -15.718  0.00  0.00     0.037 H 
ATOM    103  H57 LEU d   1      36.413  55.364 -14.643  0.00  0.00     0.037 H 
BRANCH 101 104
ATOM    104  CG  LEU d   1      38.152  54.636 -13.642  0.00  0.00    -0.059 C 
ATOM    105  H58 LEU d   1      37.883  55.082 -12.673  0.00  0.00     0.038 H 
BRANCH 104 106
ATOM    106  CD2 LEU d   1      39.662  54.648 -13.786  0.00  0.00    -0.073 C 
ATOM    107  H62 LEU d   1      40.026  55.685 -13.747  0.00  0.00     0.028 H 
ATOM    108  H63 LEU d   1      39.942  54.197 -14.749  0.00  0.00     0.028 H 
ATOM    109  H64 LEU d   1      40.113  54.070 -12.966  0.00  0.00     0.028 H 
ENDBRANCH 104 106
BRANCH 104 110
ATOM    110  CD1 LEU d   1      37.635  53.208 -13.694  0.00  0.00    -0.073 C 
ATOM    111  H59 LEU d   1      38.100  52.620 -12.889  0.00  0.00     0.028 H 
ATOM    112  H60 LEU d   1      37.888  52.761 -14.667  0.00  0.00     0.028 H 
ATOM    113  H61 LEU d   1      36.543  53.209 -13.564  0.00  0.00     0.028 H 
ENDBRANCH 104 110
ENDBRANCH 101 104
ENDBRANCH  96 101
ENDBRANCH  94  96
ENDBRANCH  90  92
BRANCH  90 114
ATOM    114  CB  ALA d   1      36.080  60.032 -12.042  0.00  0.00    -0.049 C 
ATOM    115  H51 ALA d   1      35.344  59.374 -12.527  0.00  0.00     0.030 H 
ATOM    116  H52 ALA d   1      36.249  60.919 -12.671  0.00  0.00     0.030 H 
ATOM    117  H53 ALA d   1      35.700  60.347 -11.059  0.00  0.00     0.030 H 
ENDBRANCH  90 114
ENDBRANCH  88  90
ENDBRANCH  75  86
ENDBRANCH  70  72
BRANCH  70 118
ATOM    118  CB  TYR d   1      40.969  57.172  -6.802  0.00  0.00    -0.014 C 
ATOM    119  H35 TYR d   1      40.969  56.597  -7.740  0.00  0.00     0.043 H 
ATOM    120  H36 TYR d   1      39.940  57.251  -6.420  0.00  0.00     0.043 H 
BRANCH 118 121
ATOM    121  CG  TYR d   1      41.798  56.407  -5.776  0.00  0.00    -0.056 A 
ATOM    122  CD2 TYR d   1      42.865  55.580  -6.178  0.00  0.00    -0.074 A 
ATOM    123  CE2 TYR d   1      43.616  54.855  -5.255  0.00  0.00    -0.051 A 
ATOM    124  H38 TYR d   1      43.108  55.506  -7.232  0.00  0.00     0.084 H 
ATOM    125  CZ  TYR d   1      43.302  54.951  -3.909  0.00  0.00     0.065 A 
ATOM    126  H40 TYR d   1      44.434  54.225  -5.585  0.00  0.00     0.087 H 
ATOM    127  CE1 TYR d   1      42.250  55.760  -3.485  0.00  0.00    -0.051 A 
ATOM    128  CD1 TYR d   1      41.506  56.485  -4.419  0.00  0.00    -0.074 A 
ATOM    129  H39 TYR d   1      42.009  55.827  -2.430  0.00  0.00     0.087 H 
ATOM    130  H37 TYR d   1      40.691  57.116  -4.082  0.00  0.00     0.084 H 
BRANCH 125 131
ATOM    131  OH  TYR d   1      44.039  54.257  -2.980  0.00  0.00    -0.361 OA
ATOM    132  H41 TYR d   1      44.714  53.756  -3.423  0.00  0.00     0.217 HD
ENDBRANCH 125 131
ENDBRANCH 118 121
ENDBRANCH  70 118
ENDBRANCH   3  70
TORSDOF 29
