REMARK  5 active torsions:
REMARK  status: ('A' for Active; 'I' for Inactive)
REMARK    1  A    between atoms: C03_3  and  S11_11 
REMARK    2  A    between atoms: C06_6  and  C07_7 
REMARK       I    between atoms: C07_7  and  N09_9 
REMARK    3  A    between atoms: N09_9  and  C10_10 
REMARK    4  A    between atoms: C10_10  and  C15_15 
REMARK    5  A    between atoms: S11_11  and  NP2_12 
ROOT
ATOM      1  C07 FSB d   1      -4.174   5.749  13.607  0.00  0.00     0.251 C 
ATOM      2  O08 FSB d   1      -4.943   6.665  13.408  0.00  0.00    -0.268 OA
ATOM      3  N09 FSB d   1      -2.875   5.803  13.124  0.00  0.00    -0.353 N 
ATOM      4  H5  FSB d   1      -2.303   5.006  13.318  0.00  0.00     0.163 HD
ENDROOT
BRANCH   1   5
ATOM      5  C06 FSB d   1      -4.651   4.548  14.400  0.00  0.00     0.032 A 
ATOM      6  C01 FSB d   1      -3.777   3.475  14.652  0.00  0.00    -0.066 A 
ATOM      7  C02 FSB d   1      -4.164   2.337  15.393  0.00  0.00    -0.059 A 
ATOM      8  H1  FSB d   1      -2.767   3.524  14.262  0.00  0.00     0.085 H 
ATOM      9  C03 FSB d   1      -5.510   2.303  15.900  0.00  0.00     0.079 A 
ATOM     10  H2  FSB d   1      -3.474   1.521  15.573  0.00  0.00     0.085 H 
ATOM     11  C04 FSB d   1      -6.358   3.396  15.626  0.00  0.00    -0.059 A 
ATOM     12  C05 FSB d   1      -5.929   4.499  14.887  0.00  0.00    -0.066 A 
ATOM     13  H3  FSB d   1      -7.375   3.379  16.001  0.00  0.00     0.085 H 
ATOM     14  H4  FSB d   1      -6.611   5.320  14.698  0.00  0.00     0.085 H 
BRANCH   9  15
ATOM     15  S11 FSB d   1      -6.001   0.830  16.853  0.00  0.00     0.256 S 
ATOM     16  O14 FSB d   1      -5.467   1.130  18.186  0.00  0.00    -0.201 OA
ATOM     17  O13 FSB d   1      -7.481   1.089  16.892  0.00  0.00    -0.201 OA
BRANCH  15  18
ATOM     18  NP2 FSB d   1      -5.518  -0.504  16.179  0.00  0.00    -0.324 N 
ATOM     19  H8  FSB d   1      -5.726  -1.384  16.606  0.00  0.00     0.169 HD
ATOM     20  H9  FSB d   1      -5.003  -0.473  15.322  0.00  0.00     0.169 HD
ENDBRANCH  15  18
ENDBRANCH   9  15
ENDBRANCH   1   5
BRANCH   3  21
ATOM     21  C10 FSB d   1      -2.240   6.875  12.369  0.00  0.00     0.022 C 
ATOM     22  H6  FSB d   1      -3.005   7.338  11.728  0.00  0.00     0.071 H 
ATOM     23  H7  FSB d   1      -1.456   6.428  11.740  0.00  0.00     0.071 H 
BRANCH  21  24
ATOM     24  C15 FSB d   1      -1.636   7.915  13.160  0.00  0.00    -0.002 A 
ATOM     25  C20 FSB d   1      -0.749   8.888  12.603  0.00  0.00     0.124 A 
ATOM     26  C19 FSB d   1      -0.192   9.903  13.486  0.00  0.00    -0.045 A 
ATOM     27  F21 FSB d   1      -0.436   8.868  11.300  0.00  0.00    -0.205 F 
ATOM     28  C18 FSB d   1      -0.542   9.909  14.888  0.00  0.00    -0.080 A 
ATOM     29  H13 FSB d   1       0.484  10.653  13.092  0.00  0.00     0.088 H 
ATOM     30  C17 FSB d   1      -1.415   8.946  15.429  0.00  0.00    -0.082 A 
ATOM     31  H12 FSB d   1      -0.124  10.671  15.536  0.00  0.00     0.083 H 
ATOM     32  C16 FSB d   1      -1.950   7.962  14.561  0.00  0.00    -0.072 A 
ATOM     33  H11 FSB d   1      -1.671   8.957  16.482  0.00  0.00     0.083 H 
ATOM     34  H10 FSB d   1      -2.622   7.216  14.970  0.00  0.00     0.084 H 
ENDBRANCH  21  24
ENDBRANCH   3  21
TORSDOF 5
