REMARK  14 active torsions:
REMARK  status: ('A' for Active; 'I' for Inactive)
REMARK    1  A    between atoms: N01_1  and  C08_8 
REMARK    2  A    between atoms: N03_3  and  C23_23 
REMARK    3  A    between atoms: C04_4  and  C41_41 
REMARK    4  A    between atoms: C05_5  and  O30_30 
REMARK    5  A    between atoms: C06_6  and  O31_31 
REMARK    6  A    between atoms: C07_7  and  C32_32 
REMARK    7  A    between atoms: C08_8  and  C09_9 
REMARK    8  A    between atoms: C11_11  and  C51_42 
REMARK    9  A    between atoms: C41_41  and  O16_16 
REMARK   10  A    between atoms: O16_16  and  C17_17 
REMARK   11  A    between atoms: C23_23  and  C24_24 
REMARK   12  A    between atoms: C32_32  and  O33_33 
REMARK   13  A    between atoms: O33_33  and  C34_34 
REMARK       I    between atoms: C51_42  and  N53_44 
REMARK   14  A    between atoms: N53_44  and  C54_45 
ROOT
ATOM      1  N01 NM1 d   1      11.349  23.709   5.942  0.00  0.00    -0.281 N 
ATOM      2  S02 NM1 d   1      11.806  22.203   6.446  0.00  0.00     0.320 S 
ATOM      3  N03 NM1 d   1      13.431  22.292   6.215  0.00  0.00    -0.281 N 
ATOM      4  C04 NM1 d   1      13.851  22.223   4.796  0.00  0.00     0.072 C 
ATOM      5  C05 NM1 d   1      14.022  23.605   4.144  0.00  0.00     0.084 C 
ATOM      6  C06 NM1 d   1      13.048  24.679   4.615  0.00  0.00     0.084 C 
ATOM      7  C07 NM1 d   1      11.556  24.303   4.610  0.00  0.00     0.072 C 
ATOM      8  O15 NM1 d   1      11.236  21.156   5.599  0.00  0.00    -0.182 OA
ATOM      9  O40 NM1 d   1      11.584  22.102   7.888  0.00  0.00    -0.182 OA
ATOM     10  H1  NM1 d   1      13.027  21.733   4.258  0.00  0.00     0.081 H 
ATOM     11  H2  NM1 d   1      13.888  23.476   3.060  0.00  0.00     0.090 H 
ATOM     12  H3  NM1 d   1      13.308  24.921   5.656  0.00  0.00     0.090 H 
ATOM     13  H4  NM1 d   1      11.009  25.257   4.581  0.00  0.00     0.081 H 
ENDROOT
BRANCH   1  14
ATOM     14  C08 NM1 d   1      10.170  24.189   6.519  0.00  0.00     0.031 C 
ATOM     15  H5  NM1 d   1       9.900  23.416   7.254  0.00  0.00     0.072 H 
ATOM     16  H6  NM1 d   1       9.445  24.178   5.691  0.00  0.00     0.072 H 
BRANCH  14  17
ATOM     17  C09 NM1 d   1       9.892  25.457   7.218  0.00  0.00    -0.039 A 
ATOM     18  C14 NM1 d   1      10.745  25.849   8.302  0.00  0.00    -0.075 A 
ATOM     19  C13 NM1 d   1      10.527  27.076   8.987  0.00  0.00    -0.081 A 
ATOM     20  H10 NM1 d   1      11.563  25.204   8.602  0.00  0.00     0.084 H 
ATOM     21  C12 NM1 d   1       9.456  27.914   8.582  0.00  0.00    -0.068 A 
ATOM     22  H9  NM1 d   1      11.171  27.368   9.809  0.00  0.00     0.083 H 
ATOM     23  C11 NM1 d   1       8.600  27.521   7.490  0.00  0.00     0.032 A 
ATOM     24  H8  NM1 d   1       9.281  28.853   9.095  0.00  0.00     0.085 H 
ATOM     25  C10 NM1 d   1       8.825  26.293   6.815  0.00  0.00    -0.060 A 
ATOM     26  H7  NM1 d   1       8.182  25.997   5.994  0.00  0.00     0.086 H 
BRANCH  23  27
ATOM     27  C51 NM1 d   1       7.487  28.417   7.050  0.00  0.00     0.251 C 
ATOM     28  N53 NM1 d   1       6.290  27.868   6.633  0.00  0.00    -0.361 N 
ATOM     29  H34 NM1 d   1       6.156  26.878   6.599  0.00  0.00     0.162 HD
ATOM     30  O52 NM1 d   1       7.660  29.662   7.084  0.00  0.00    -0.268 OA
BRANCH  28  31
ATOM     31  C54 NM1 d   1       5.236  28.784   6.247  0.00  0.00    -0.018 C 
ATOM     32  H35 NM1 d   1       4.348  28.212   5.940  0.00  0.00     0.056 H 
ATOM     33  H36 NM1 d   1       5.580  29.406   5.408  0.00  0.00     0.056 H 
ATOM     34  H37 NM1 d   1       4.980  29.429   7.101  0.00  0.00     0.056 H 
ENDBRANCH  28  31
ENDBRANCH  23  27
ENDBRANCH  14  17
ENDBRANCH   1  14
BRANCH   7  35
ATOM     35  C32 NM1 d   1      10.913  23.466   3.470  0.00  0.00     0.048 C 
ATOM     36  H25 NM1 d   1      11.270  22.427   3.520  0.00  0.00     0.078 H 
ATOM     37  H26 NM1 d   1      11.176  23.898   2.493  0.00  0.00     0.078 H 
BRANCH  35  38
ATOM     38  O33 NM1 d   1       9.472  23.505   3.658  0.00  0.00    -0.349 OA
BRANCH  38  39
ATOM     39  C34 NM1 d   1       8.661  24.401   3.003  0.00  0.00     0.068 A 
ATOM     40  C39 NM1 d   1       7.313  24.033   2.707  0.00  0.00    -0.051 A 
ATOM     41  C38 NM1 d   1       6.432  24.943   2.037  0.00  0.00    -0.080 A 
ATOM     42  H31 NM1 d   1       6.952  23.052   2.993  0.00  0.00     0.087 H 
ATOM     43  C37 NM1 d   1       6.900  26.230   1.653  0.00  0.00    -0.083 A 
ATOM     44  H30 NM1 d   1       5.410  24.651   1.823  0.00  0.00     0.083 H 
ATOM     45  C36 NM1 d   1       8.244  26.618   1.933  0.00  0.00    -0.080 A 
ATOM     46  H29 NM1 d   1       6.233  26.918   1.146  0.00  0.00     0.083 H 
ATOM     47  C35 NM1 d   1       9.116  25.712   2.605  0.00  0.00    -0.051 A 
ATOM     48  H28 NM1 d   1       8.601  27.598   1.636  0.00  0.00     0.083 H 
ATOM     49  H27 NM1 d   1      10.135  26.012   2.820  0.00  0.00     0.087 H 
ENDBRANCH  38  39
ENDBRANCH  35  38
ENDBRANCH   7  35
BRANCH   6  50
ATOM     50  O31 NM1 d   1      13.274  25.832   3.814  0.00  0.00    -0.391 OA
ATOM     51  H24 NM1 d   1      14.172  26.122   3.925  0.00  0.00     0.210 HD
ENDBRANCH   6  50
BRANCH   3  52
ATOM     52  C23 NM1 d   1      14.271  22.898   7.306  0.00  0.00     0.031 C 
ATOM     53  H16 NM1 d   1      13.575  23.358   8.023  0.00  0.00     0.072 H 
ATOM     54  H17 NM1 d   1      14.884  23.681   6.835  0.00  0.00     0.072 H 
BRANCH  52  55
ATOM     55  C24 NM1 d   1      15.213  22.033   8.110  0.00  0.00    -0.040 A 
ATOM     56  C29 NM1 d   1      16.634  22.115   7.901  0.00  0.00    -0.075 A 
ATOM     57  C28 NM1 d   1      17.531  21.294   8.653  0.00  0.00    -0.082 A 
ATOM     58  H22 NM1 d   1      17.029  22.807   7.166  0.00  0.00     0.084 H 
ATOM     59  C27 NM1 d   1      17.005  20.379   9.626  0.00  0.00    -0.083 A 
ATOM     60  H21 NM1 d   1      18.601  21.362   8.490  0.00  0.00     0.083 H 
ATOM     61  C26 NM1 d   1      15.588  20.294   9.842  0.00  0.00    -0.082 A 
ATOM     62  H20 NM1 d   1      17.678  19.751  10.198  0.00  0.00     0.083 H 
ATOM     63  C25 NM1 d   1      14.698  21.122   9.083  0.00  0.00    -0.075 A 
ATOM     64  H19 NM1 d   1      15.192  19.604  10.578  0.00  0.00     0.083 H 
ATOM     65  H18 NM1 d   1      13.629  21.057   9.248  0.00  0.00     0.084 H 
ENDBRANCH  52  55
ENDBRANCH   3  52
BRANCH   5  66
ATOM     66  O30 NM1 d   1      15.320  24.102   4.395  0.00  0.00    -0.391 OA
ATOM     67  H23 NM1 d   1      15.415  24.955   3.988  0.00  0.00     0.210 HD
ENDBRANCH   5  66
BRANCH   4  68
ATOM     68  C41 NM1 d   1      15.082  21.332   4.600  0.00  0.00     0.048 C 
ATOM     69  H32 NM1 d   1      15.303  20.811   5.543  0.00  0.00     0.078 H 
ATOM     70  H33 NM1 d   1      15.940  21.961   4.319  0.00  0.00     0.078 H 
BRANCH  68  71
ATOM     71  O16 NM1 d   1      14.854  20.350   3.560  0.00  0.00    -0.349 OA
BRANCH  71  72
ATOM     72  C17 NM1 d   1      15.864  19.459   3.222  0.00  0.00     0.068 A 
ATOM     73  C22 NM1 d   1      15.954  18.953   1.885  0.00  0.00    -0.051 A 
ATOM     74  C21 NM1 d   1      16.985  18.030   1.517  0.00  0.00    -0.080 A 
ATOM     75  H15 NM1 d   1      15.232  19.273   1.142  0.00  0.00     0.087 H 
ATOM     76  C20 NM1 d   1      17.943  17.605   2.489  0.00  0.00    -0.083 A 
ATOM     77  H14 NM1 d   1      17.039  17.654   0.502  0.00  0.00     0.083 H 
ATOM     78  C19 NM1 d   1      17.875  18.098   3.830  0.00  0.00    -0.080 A 
ATOM     79  H13 NM1 d   1      18.724  16.907   2.209  0.00  0.00     0.083 H 
ATOM     80  C18 NM1 d   1      16.840  19.017   4.190  0.00  0.00    -0.051 A 
ATOM     81  H12 NM1 d   1      18.602  17.778   4.567  0.00  0.00     0.083 H 
ATOM     82  H11 NM1 d   1      16.787  19.388   5.207  0.00  0.00     0.087 H 
ENDBRANCH  71  72
ENDBRANCH  68  71
ENDBRANCH   4  68
TORSDOF 14
