REMARK  15 active torsions:
REMARK  status: ('A' for Active; 'I' for Inactive)
REMARK    1  A    between atoms: C1_3  and  N1_1 
REMARK    2  A    between atoms: C1_3  and  N2_2 
REMARK    3  A    between atoms: N_10  and  C5_7 
REMARK    4  A    between atoms: C_11  and  N_10 
REMARK    5  A    between atoms: C8_13  and  C_11 
REMARK    6  A    between atoms: N9_14  and  C14_21 
REMARK    7  A    between atoms: C16_24  and  C12_19 
REMARK    8  A    between atoms: C16_24  and  C17_25 
REMARK    9  A    between atoms: C17_25  and  C18_28 
REMARK   10  A    between atoms: N4_26  and  OH_33 
REMARK   11  A    between atoms: OH_33  and  C23_34 
REMARK   12  A    between atoms: C23_34  and  C24_35 
REMARK   13  A    between atoms: C24_35  and  O3_37 
REMARK   14  A    between atoms: O3_37  and  C26_39 
REMARK   15  A    between atoms: C26_39  and  C25_38 
ROOT
ATOM      1  N3  T87 d   1       6.537   7.362  21.601  0.00  0.00    -0.231 NA
ATOM      2  C8  T87 d   1       7.258   8.396  20.989  0.00  0.00     0.124 A 
ATOM      3  N9  T87 d   1       7.936   8.176  19.760  0.00  0.00    -0.336 N 
ATOM      4  C3A T87 d   1       7.593   6.828  19.587  0.00  0.00     0.064 A 
ATOM      5  C7A T87 d   1       6.751   6.353  20.700  0.00  0.00     0.086 A 
ATOM      6  C10 T87 d   1       7.954   5.906  18.506  0.00  0.00    -0.054 A 
ATOM      7  C11 T87 d   1       7.488   4.563  18.550  0.00  0.00    -0.073 A 
ATOM      8  C12 T87 d   1       6.646   4.040  19.645  0.00  0.00    -0.041 A 
ATOM      9  C13 T87 d   1       6.273   4.970  20.733  0.00  0.00    -0.046 A 
ATOM     10  H12 T87 d   1       8.570   6.245  17.681  0.00  0.00     0.087 H 
ATOM     11  H13 T87 d   1       7.763   3.893  17.744  0.00  0.00     0.084 H 
ATOM     12  H14 T87 d   1       5.649   4.629  21.551  0.00  0.00     0.088 H 
ENDROOT
BRANCH   8  13
ATOM     13  C16 T87 d   1       6.335   2.454  19.727  0.00  0.00     0.036 A 
ATOM     14  C9  T87 d   1       5.123   1.934  20.519  0.00  0.00    -0.047 A 
ATOM     15  C15 T87 d   1       6.523   1.783  21.098  0.00  0.00    -0.047 A 
ATOM     16  H18 T87 d   1       4.416   2.645  20.971  0.00  0.00     0.035 H 
ATOM     17  H19 T87 d   1       4.576   1.047  20.166  0.00  0.00     0.035 H 
ATOM     18  H20 T87 d   1       6.986   0.787  21.163  0.00  0.00     0.035 H 
ATOM     19  H21 T87 d   1       6.826   2.385  21.967  0.00  0.00     0.035 H 
BRANCH  13  20
ATOM     20  C17 T87 d   1       6.281   1.854  18.244  0.00  0.00     0.103 C 
ATOM     21  N4  T87 d   1       5.232   2.020  17.466  0.00  0.00    -0.135 NA
BRANCH  21  22
ATOM     22  OH  T87 d   1       4.002   2.747  17.890  0.00  0.00    -0.246 OA
BRANCH  22  23
ATOM     23  C23 T87 d   1       3.347   3.312  16.742  0.00  0.00     0.127 C 
ATOM     24  H26 T87 d   1       2.279   3.454  16.965  0.00  0.00     0.093 H 
ATOM     25  H27 T87 d   1       3.455   2.628  15.887  0.00  0.00     0.093 H 
BRANCH  23  26
ATOM     26  C24 T87 d   1       3.983   4.676  16.391  0.00  0.00     0.285 C 
ATOM     27  O2  T87 d   1       4.468   4.832  15.256  0.00  0.00    -0.263 OA
BRANCH  26  28
ATOM     28  O3  T87 d   1       3.995   5.684  17.355  0.00  0.00    -0.320 OA
BRANCH  28  29
ATOM     29  C26 T87 d   1       4.615   6.914  16.916  0.00  0.00     0.026 C 
ATOM     30  H31 T87 d   1       4.207   7.200  15.935  0.00  0.00     0.074 H 
ATOM     31  H32 T87 d   1       5.702   6.767  16.832  0.00  0.00     0.074 H 
BRANCH  29  32
ATOM     32  C25 T87 d   1       4.325   8.030  17.938  0.00  0.00    -0.056 C 
ATOM     33  H28 T87 d   1       4.797   8.965  17.603  0.00  0.00     0.030 H 
ATOM     34  H29 T87 d   1       4.733   7.744  18.919  0.00  0.00     0.030 H 
ATOM     35  H30 T87 d   1       3.238   8.177  18.022  0.00  0.00     0.030 H 
ENDBRANCH  29  32
ENDBRANCH  28  29
ENDBRANCH  26  28
ENDBRANCH  23  26
ENDBRANCH  22  23
ENDBRANCH  21  22
BRANCH  20  36
ATOM     36  C18 T87 d   1       7.518   1.109  17.620  0.00  0.00     0.084 A 
ATOM     37  C19 T87 d   1       8.828   1.114  18.246  0.00  0.00    -0.053 A 
ATOM     38  C20 T87 d   1       9.922   0.421  17.606  0.00  0.00    -0.079 A 
ATOM     39  H22 T87 d   1       8.984   1.633  19.185  0.00  0.00     0.087 H 
ATOM     40  C21 T87 d   1       9.749  -0.279  16.356  0.00  0.00    -0.066 A 
ATOM     41  H23 T87 d   1      10.898   0.427  18.077  0.00  0.00     0.083 H 
ATOM     42  C22 T87 d   1       8.459  -0.285  15.731  0.00  0.00     0.003 A 
ATOM     43  H24 T87 d   1      10.584  -0.794  15.895  0.00  0.00     0.085 H 
ATOM     44  N5  T87 d   1       7.359   0.409  16.368  0.00  0.00    -0.259 NA
ATOM     45  H25 T87 d   1       8.308  -0.804  14.791  0.00  0.00     0.114 H 
ENDBRANCH  20  36
ENDBRANCH  13  20
ENDBRANCH   8  13
BRANCH   3  46
ATOM     46  C14 T87 d   1       8.775   9.087  18.900  0.00  0.00    -0.012 C 
ATOM     47  H15 T87 d   1       8.822  10.085  19.360  0.00  0.00     0.057 H 
ATOM     48  H16 T87 d   1       8.324   9.166  17.900  0.00  0.00     0.057 H 
ATOM     49  H17 T87 d   1       9.791   8.675  18.812  0.00  0.00     0.057 H 
ENDBRANCH   3  46
BRANCH   2  50
ATOM     50  C   T87 d   1       7.294   9.765  21.721  0.00  0.00     0.047 C 
ATOM     51  H10 T87 d   1       7.268  10.560  20.961  0.00  0.00     0.075 H 
ATOM     52  H11 T87 d   1       6.400   9.836  22.358  0.00  0.00     0.075 H 
BRANCH  50  53
ATOM     53  N   T87 d   1       8.504   9.985  22.587  0.00  0.00    -0.383 N 
ATOM     54  H9  T87 d   1       9.069  10.813  22.349  0.00  0.00     0.160 HD
BRANCH  53  55
ATOM     55  C5  T87 d   1       8.998   9.198  23.718  0.00  0.00     0.028 A 
ATOM     56  C4  T87 d   1       8.109   8.420  24.577  0.00  0.00    -0.057 A 
ATOM     57  C3  T87 d   1       8.634   7.673  25.677  0.00  0.00    -0.067 A 
ATOM     58  H6  T87 d   1       7.043   8.409  24.379  0.00  0.00     0.086 H 
ATOM     59  C2  T87 d   1      10.070   7.655  25.989  0.00  0.00     0.007 A 
ATOM     60  H5  T87 d   1       7.953   7.103  26.299  0.00  0.00     0.085 H 
ATOM     61  C1  T87 d   1      10.560   6.920  27.092  0.00  0.00     0.102 C 
ATOM     62  C7  T87 d   1      10.952   8.451  25.098  0.00  0.00    -0.067 A 
ATOM     63  C6  T87 d   1      10.420   9.206  23.984  0.00  0.00    -0.057 A 
ATOM     64  H8  T87 d   1      12.019   8.467  25.287  0.00  0.00     0.085 H 
ATOM     65  H7  T87 d   1      11.087   9.778  23.349  0.00  0.00     0.086 H 
BRANCH  61  66
ATOM     66  N1  T87 d   1       9.805   6.168  27.883  0.00  0.00    -0.385 N 
ATOM     67  H1  T87 d   1      10.232   5.659  28.670  0.00  0.00     0.157 HD
ATOM     68  H2  T87 d   1       8.792   6.093  27.710  0.00  0.00     0.157 HD
ENDBRANCH  61  66
BRANCH  61  69
ATOM     69  N2  T87 d   1      11.803   6.957  27.544  0.00  0.00    -0.385 N 
ATOM     70  H3  T87 d   1      12.518   7.501  27.041  0.00  0.00     0.157 HD
ATOM     71  H4  T87 d   1      12.056   6.442  28.399  0.00  0.00     0.157 HD
ENDBRANCH  61  69
ENDBRANCH  53  55
ENDBRANCH  50  53
ENDBRANCH   2  50
TORSDOF 15
