REMARK  5 active torsions:
REMARK  status: ('A' for Active; 'I' for Inactive)
REMARK    1  A    between atoms: C5'_2  and  O5'_1 
REMARK    2  A    between atoms: C5'_2  and  C4'_3 
REMARK    3  A    between atoms: C3'_5  and  O3'_6 
REMARK    4  A    between atoms: C2'_7  and  O2'_8 
REMARK    5  A    between atoms: C1'_9  and  C9_10 
ROOT
ATOM      1  C4' IMH d   1      56.332  15.904  44.222  0.00  0.00     0.149 C 
ATOM      2  N4' IMH d   1      57.143  15.850  43.057  0.00  0.00    -0.055 N 
ATOM      3  C3' IMH d   1      56.146  17.338  44.607  0.00  0.00     0.092 C 
ATOM      4  C2' IMH d   1      56.452  18.050  43.331  0.00  0.00     0.094 C 
ATOM      5  C1' IMH d   1      57.212  17.097  42.378  0.00  0.00     0.158 C 
ATOM      6  H4  IMH d   1      56.822  15.361  45.044  0.00  0.00     0.091 H 
ATOM      7  H5  IMH d   1      56.759  15.162  42.429  0.00  0.00     0.278 HD
ATOM      8  H6  IMH d   1      58.075  15.577  43.326  0.00  0.00     0.278 HD
ATOM      9  H7  IMH d   1      55.120  17.550  44.942  0.00  0.00     0.090 H 
ATOM     10  H9  IMH d   1      55.511  18.364  42.857  0.00  0.00     0.090 H 
ATOM     11  H11 IMH d   1      58.241  17.439  42.192  0.00  0.00     0.096 H 
ENDROOT
BRANCH   5  12
ATOM     12  C9  IMH d   1      56.449  16.861  41.064  0.00  0.00     0.022 A 
ATOM     13  C4  IMH d   1      55.377  17.581  40.446  0.00  0.00     0.100 A 
ATOM     14  C5  IMH d   1      55.082  16.897  39.260  0.00  0.00     0.130 A 
ATOM     15  N3  IMH d   1      54.727  18.739  40.903  0.00  0.00    -0.241 NA
ATOM     16  N7  IMH d   1      55.918  15.788  39.116  0.00  0.00    -0.359 N 
ATOM     17  C6  IMH d   1      54.031  17.380  38.394  0.00  0.00     0.275 A 
ATOM     18  C8  IMH d   1      56.688  15.806  40.179  0.00  0.00    -0.012 A 
ATOM     19  H13 IMH d   1      55.928  15.105  38.345  0.00  0.00     0.165 HD
ATOM     20  H12 IMH d   1      57.456  15.055  40.358  0.00  0.00     0.112 H 
ATOM     21  N1  IMH d   1      53.400  18.542  38.876  0.00  0.00    -0.316 N 
ATOM     22  O6  IMH d   1      53.663  16.891  37.327  0.00  0.00    -0.266 OA
ATOM     23  C2  IMH d   1      53.734  19.190  40.077  0.00  0.00     0.067 A 
ATOM     24  H14 IMH d   1      52.663  18.934  38.325  0.00  0.00     0.170 HD
ATOM     25  H15 IMH d   1      53.182  20.085  40.361  0.00  0.00     0.143 H 
ENDBRANCH   5  12
BRANCH   4  26
ATOM     26  O2' IMH d   1      57.250  19.199  43.595  0.00  0.00    -0.390 OA
ATOM     27  H10 IMH d   1      58.066  18.930  44.001  0.00  0.00     0.210 HD
ENDBRANCH   4  26
BRANCH   1  28
ATOM     28  C5' IMH d   1      55.014  15.278  43.929  0.00  0.00     0.046 C 
ATOM     29  H2  IMH d   1      54.391  15.277  44.836  0.00  0.00     0.077 H 
ATOM     30  H3  IMH d   1      54.502  15.840  43.134  0.00  0.00     0.077 H 
BRANCH  28  31
ATOM     31  O5' IMH d   1      55.248  13.945  43.503  0.00  0.00    -0.399 OA
ATOM     32  H1  IMH d   1      55.693  13.467  44.193  0.00  0.00     0.209 HD
ENDBRANCH  28  31
ENDBRANCH   1  28
BRANCH   3  33
ATOM     33  O3' IMH d   1      57.073  17.627  45.657  0.00  0.00    -0.391 OA
ATOM     34  H8  IMH d   1      56.825  17.146  46.438  0.00  0.00     0.210 HD
ENDBRANCH   3  33
TORSDOF 5
