REMARK  16 active torsions:
REMARK  status: ('A' for Active; 'I' for Inactive)
REMARK    1  A    between atoms: C1_3  and  N2_2 
REMARK    2  A    between atoms: C2_4  and  C1_3 
REMARK    3  A    between atoms: N_10  and  C5_7 
REMARK    4  A    between atoms: C_11  and  N_10 
REMARK    5  A    between atoms: C8_13  and  C_11 
REMARK    6  A    between atoms: N9_14  and  C14_21 
REMARK    7  A    between atoms: C16_24  and  C12_19 
REMARK    8  A    between atoms: C16_24  and  C17_25 
REMARK    9  A    between atoms: C17_25  and  N4_26 
REMARK   10  A    between atoms: C17_25  and  C18_28 
REMARK   11  A    between atoms: N4_26  and  OH_33 
REMARK   12  A    between atoms: OH_33  and  C23_34 
REMARK   13  A    between atoms: C23_34  and  C24_35 
REMARK   14  A    between atoms: C24_35  and  O3_37 
REMARK   15  A    between atoms: O3_37  and  C26_39 
REMARK   16  A    between atoms: C26_39  and  C25_38 
ROOT
ATOM      1  N3  T87 d   1      16.718 -13.260  21.513  0.00  0.00    -0.231 NA
ATOM      2  C8  T87 d   1      17.408 -12.386  20.679  0.00  0.00     0.124 A 
ATOM      3  N9  T87 d   1      18.821 -12.403  20.644  0.00  0.00    -0.336 N 
ATOM      4  C3A T87 d   1      19.021 -13.418  21.573  0.00  0.00     0.064 A 
ATOM      5  C7A T87 d   1      17.769 -13.914  22.083  0.00  0.00     0.086 A 
ATOM      6  C10 T87 d   1      20.252 -13.974  22.045  0.00  0.00    -0.054 A 
ATOM      7  C11 T87 d   1      20.206 -15.005  23.001  0.00  0.00    -0.073 A 
ATOM      8  C12 T87 d   1      18.971 -15.509  23.530  0.00  0.00    -0.041 A 
ATOM      9  C13 T87 d   1      17.740 -14.959  23.052  0.00  0.00    -0.046 A 
ATOM     10  H12 T87 d   1      21.202 -13.608  21.673  0.00  0.00     0.087 H 
ATOM     11  H13 T87 d   1      21.138 -15.434  23.351  0.00  0.00     0.084 H 
ATOM     12  H14 T87 d   1      16.793 -15.334  23.424  0.00  0.00     0.088 H 
ENDROOT
BRANCH   8  13
ATOM     13  C16 T87 d   1      18.983 -16.465  24.804  0.00  0.00     0.036 A 
ATOM     14  C9  T87 d   1      18.098 -17.684  24.964  0.00  0.00    -0.047 A 
ATOM     15  C15 T87 d   1      17.722 -16.340  25.627  0.00  0.00    -0.047 A 
ATOM     16  H18 T87 d   1      17.516 -18.060  24.110  0.00  0.00     0.035 H 
ATOM     17  H19 T87 d   1      18.431 -18.531  25.582  0.00  0.00     0.035 H 
ATOM     18  H20 T87 d   1      17.785 -16.227  26.719  0.00  0.00     0.035 H 
ATOM     19  H21 T87 d   1      16.871 -15.756  25.247  0.00  0.00     0.035 H 
BRANCH  13  20
ATOM     20  C17 T87 d   1      20.464 -16.631  25.247  0.00  0.00     0.103 C 
BRANCH  20  21
ATOM     21  N4  T87 d   1      21.155 -17.657  24.878  0.00  0.00    -0.135 NA
BRANCH  21  22
ATOM     22  OH  T87 d   1      20.531 -18.697  24.027  0.00  0.00    -0.246 OA
BRANCH  22  23
ATOM     23  C23 T87 d   1      21.131 -19.969  24.264  0.00  0.00     0.127 C 
ATOM     24  H26 T87 d   1      20.990 -20.253  25.317  0.00  0.00     0.093 H 
ATOM     25  H27 T87 d   1      22.206 -19.917  24.039  0.00  0.00     0.093 H 
BRANCH  23  26
ATOM     26  C24 T87 d   1      20.459 -21.023  23.348  0.00  0.00     0.285 C 
ATOM     27  O2  T87 d   1      20.611 -22.225  23.601  0.00  0.00    -0.263 OA
BRANCH  26  28
ATOM     28  O3  T87 d   1      19.709 -20.610  22.270  0.00  0.00    -0.320 OA
BRANCH  28  29
ATOM     29  C26 T87 d   1      19.164 -21.722  21.537  0.00  0.00     0.026 C 
ATOM     30  H31 T87 d   1      18.672 -22.415  22.236  0.00  0.00     0.074 H 
ATOM     31  H32 T87 d   1      19.976 -22.246  21.011  0.00  0.00     0.074 H 
BRANCH  29  32
ATOM     32  C25 T87 d   1      18.133 -21.213  20.510  0.00  0.00    -0.056 C 
ATOM     33  H28 T87 d   1      17.719 -22.066  19.952  0.00  0.00     0.030 H 
ATOM     34  H29 T87 d   1      18.624 -20.521  19.810  0.00  0.00     0.030 H 
ATOM     35  H30 T87 d   1      17.320 -20.689  21.035  0.00  0.00     0.030 H 
ENDBRANCH  29  32
ENDBRANCH  28  29
ENDBRANCH  26  28
ENDBRANCH  23  26
ENDBRANCH  22  23
ENDBRANCH  21  22
ENDBRANCH  20  21
BRANCH  20  36
ATOM     36  C18 T87 d   1      21.119 -15.536  26.100  0.00  0.00     0.084 A 
ATOM     37  C19 T87 d   1      20.437 -14.318  26.337  0.00  0.00    -0.053 A 
ATOM     38  C20 T87 d   1      21.051 -13.315  27.105  0.00  0.00    -0.079 A 
ATOM     39  H22 T87 d   1      19.446 -14.160  25.928  0.00  0.00     0.087 H 
ATOM     40  C21 T87 d   1      22.335 -13.496  27.646  0.00  0.00    -0.066 A 
ATOM     41  H23 T87 d   1      20.525 -12.384  27.284  0.00  0.00     0.083 H 
ATOM     42  C22 T87 d   1      23.025 -14.712  27.412  0.00  0.00     0.003 A 
ATOM     43  H24 T87 d   1      22.794 -12.712  28.238  0.00  0.00     0.085 H 
ATOM     44  N5  T87 d   1      22.413 -15.723  26.639  0.00  0.00    -0.259 NA
ATOM     45  H25 T87 d   1      24.016 -14.865  27.824  0.00  0.00     0.114 H 
ENDBRANCH  20  36
ENDBRANCH  13  20
ENDBRANCH   8  13
BRANCH   3  46
ATOM     46  C14 T87 d   1      19.812 -11.601  19.860  0.00  0.00    -0.012 C 
ATOM     47  H15 T87 d   1      19.278 -10.883  19.220  0.00  0.00     0.057 H 
ATOM     48  H16 T87 d   1      20.414 -12.274  19.233  0.00  0.00     0.057 H 
ATOM     49  H17 T87 d   1      20.472 -11.056  20.551  0.00  0.00     0.057 H 
ENDBRANCH   3  46
BRANCH   2  50
ATOM     50  C   T87 d   1      16.575 -11.416  19.805  0.00  0.00     0.047 C 
ATOM     51  H10 T87 d   1      16.664 -10.416  20.254  0.00  0.00     0.075 H 
ATOM     52  H11 T87 d   1      17.029 -11.410  18.803  0.00  0.00     0.075 H 
BRANCH  50  53
ATOM     53  N   T87 d   1      15.122 -11.691  19.628  0.00  0.00    -0.383 N 
ATOM     54  H9  T87 d   1      14.820 -11.894  18.665  0.00  0.00     0.160 HD
BRANCH  53  55
ATOM     55  C5  T87 d   1      14.086 -11.710  20.624  0.00  0.00     0.028 A 
ATOM     56  C4  T87 d   1      13.086 -12.703  20.642  0.00  0.00    -0.057 A 
ATOM     57  C3  T87 d   1      12.099 -12.691  21.645  0.00  0.00    -0.067 A 
ATOM     58  H6  T87 d   1      13.077 -13.477  19.883  0.00  0.00     0.086 H 
ATOM     59  C2  T87 d   1      12.079 -11.685  22.666  0.00  0.00     0.007 A 
ATOM     60  H5  T87 d   1      11.336 -13.461  21.645  0.00  0.00     0.085 H 
ATOM     61  C7  T87 d   1      13.113 -10.692  22.610  0.00  0.00    -0.067 A 
ATOM     62  C6  T87 d   1      14.099 -10.702  21.611  0.00  0.00    -0.057 A 
ATOM     63  H8  T87 d   1      13.133  -9.911  23.361  0.00  0.00     0.085 H 
ATOM     64  H7  T87 d   1      14.868  -9.938  21.598  0.00  0.00     0.086 H 
BRANCH  59  65
ATOM     65  C1  T87 d   1      11.097 -11.678  23.671  0.00  0.00     0.102 C 
ATOM     66  N1  T87 d   1      10.273 -12.688  23.923  0.00  0.00    -0.385 N 
ATOM     67  H1  T87 d   1       9.577 -12.609  24.678  0.00  0.00     0.157 HD
ATOM     68  H2  T87 d   1      10.329 -13.551  23.363  0.00  0.00     0.157 HD
BRANCH  65  69
ATOM     69  N2  T87 d   1      10.873 -10.668  24.499  0.00  0.00    -0.385 N 
ATOM     70  H3  T87 d   1      11.436  -9.809  24.427  0.00  0.00     0.157 HD
ATOM     71  H4  T87 d   1      10.136 -10.742  25.215  0.00  0.00     0.157 HD
ENDBRANCH  65  69
ENDBRANCH  59  65
ENDBRANCH  53  55
ENDBRANCH  50  53
ENDBRANCH   2  50
TORSDOF 16
