REMARK  9 active torsions:
REMARK  status: ('A' for Active; 'I' for Inactive)
REMARK    1  A    between atoms: N1_1  and  C1_3 
REMARK    2  A    between atoms: C1_3  and  C2_4 
REMARK    3  A    between atoms: C5_7  and  N_10 
REMARK    4  A    between atoms: N_10  and  C_11 
REMARK    5  A    between atoms: C_11  and  C8_13 
REMARK    6  A    between atoms: N9_14  and  C14_21 
REMARK    7  A    between atoms: C12_19  and  C9_22 
REMARK    8  A    between atoms: C9_22  and  N4_23 
REMARK    9  A    between atoms: C15_24  and  C23_32 
ROOT
ATOM      1  N3  R11 d   1      16.771 -13.340  21.538  0.00  0.00    -0.231 NA
ATOM      2  C8  R11 d   1      17.455 -12.518  20.653  0.00  0.00     0.124 A 
ATOM      3  N9  R11 d   1      18.874 -12.548  20.597  0.00  0.00    -0.336 N 
ATOM      4  C3A R11 d   1      19.079 -13.513  21.577  0.00  0.00     0.064 A 
ATOM      5  C7A R11 d   1      17.825 -13.974  22.130  0.00  0.00     0.086 A 
ATOM      6  C10 R11 d   1      20.310 -14.049  22.062  0.00  0.00    -0.054 A 
ATOM      7  C11 R11 d   1      20.271 -15.018  23.073  0.00  0.00    -0.073 A 
ATOM      8  C12 R11 d   1      19.036 -15.479  23.624  0.00  0.00    -0.037 A 
ATOM      9  C13 R11 d   1      17.804 -14.966  23.158  0.00  0.00    -0.045 A 
ATOM     10  H12 R11 d   1      21.257 -13.713  21.656  0.00  0.00     0.087 H 
ATOM     11  H13 R11 d   1      21.202 -15.429  23.447  0.00  0.00     0.084 H 
ATOM     12  H14 R11 d   1      16.865 -15.317  23.571  0.00  0.00     0.088 H 
ENDROOT
BRANCH   2  13
ATOM     13  C   R11 d   1      16.607 -11.593  19.759  0.00  0.00     0.047 C 
ATOM     14  H10 R11 d   1      16.680 -10.577  20.174  0.00  0.00     0.075 H 
ATOM     15  H11 R11 d   1      17.050 -11.611  18.752  0.00  0.00     0.075 H 
BRANCH  13  16
ATOM     16  N   R11 d   1      15.159 -11.914  19.615  0.00  0.00    -0.383 N 
ATOM     17  H9  R11 d   1      14.857 -12.177  18.666  0.00  0.00     0.160 HD
BRANCH  16  18
ATOM     18  C5  R11 d   1      14.119 -11.908  20.618  0.00  0.00     0.028 A 
ATOM     19  C4  R11 d   1      13.220 -12.987  20.771  0.00  0.00    -0.057 A 
ATOM     20  C3  R11 d   1      12.217 -12.939  21.762  0.00  0.00    -0.067 A 
ATOM     21  H6  R11 d   1      13.301 -13.854  20.125  0.00  0.00     0.086 H 
ATOM     22  C2  R11 d   1      12.076 -11.806  22.642  0.00  0.00     0.007 A 
ATOM     23  H5  R11 d   1      11.535 -13.775  21.864  0.00  0.00     0.085 H 
ATOM     24  C7  R11 d   1      13.013 -10.728  22.453  0.00  0.00    -0.067 A 
ATOM     25  C6  R11 d   1      14.013 -10.782  21.460  0.00  0.00    -0.057 A 
ATOM     26  H8  R11 d   1      12.948  -9.853  23.090  0.00  0.00     0.085 H 
ATOM     27  H7  R11 d   1      14.703  -9.954  21.344  0.00  0.00     0.086 H 
BRANCH  22  28
ATOM     28  C1  R11 d   1      11.071 -11.756  23.637  0.00  0.00     0.102 C 
ATOM     29  N2  R11 d   1      10.823 -10.709  24.412  0.00  0.00    -0.385 N 
ATOM     30  H3  R11 d   1      11.441  -9.885  24.378  0.00  0.00     0.157 HD
ATOM     31  H4  R11 d   1      10.013 -10.719  25.048  0.00  0.00     0.157 HD
BRANCH  28  32
ATOM     32  N1  R11 d   1      10.166 -12.697  23.834  0.00  0.00    -0.385 N 
ATOM     33  H1  R11 d   1       9.465 -12.589  24.580  0.00  0.00     0.157 HD
ATOM     34  H2  R11 d   1      10.161 -13.539  23.241  0.00  0.00     0.157 HD
ENDBRANCH  28  32
ENDBRANCH  22  28
ENDBRANCH  16  18
ENDBRANCH  13  16
ENDBRANCH   2  13
BRANCH   3  35
ATOM     35  C14 R11 d   1      19.859 -11.795  19.759  0.00  0.00    -0.012 C 
ATOM     36  H15 R11 d   1      19.321 -11.109  19.088  0.00  0.00     0.057 H 
ATOM     37  H16 R11 d   1      20.450 -12.505  19.161  0.00  0.00     0.057 H 
ATOM     38  H17 R11 d   1      20.530 -11.217  20.412  0.00  0.00     0.057 H 
ENDBRANCH   3  35
BRANCH   8  39
ATOM     39  C9  R11 d   1      19.064 -16.529  24.746  0.00  0.00     0.025 C 
ATOM     40  H18 R11 d   1      18.974 -17.530  24.299  0.00  0.00     0.072 H 
ATOM     41  H19 R11 d   1      18.214 -16.351  25.421  0.00  0.00     0.072 H 
BRANCH  39  42
ATOM     42  N4  R11 d   1      20.338 -16.464  25.541  0.00  0.00    -0.329 N 
ATOM     43  C15 R11 d   1      21.353 -17.409  25.804  0.00  0.00     0.103 A 
ATOM     44  N16 R11 d   1      22.475 -17.094  26.584  0.00  0.00    -0.234 NA
ATOM     45  C17 R11 d   1      22.143 -15.781  26.858  0.00  0.00     0.085 A 
ATOM     46  C18 R11 d   1      20.888 -15.406  26.245  0.00  0.00     0.065 A 
ATOM     47  C19 R11 d   1      22.868 -14.826  27.637  0.00  0.00    -0.053 A 
ATOM     48  C22 R11 d   1      20.373 -14.079  26.425  0.00  0.00    -0.055 A 
ATOM     49  C21 R11 d   1      21.107 -13.153  27.188  0.00  0.00    -0.081 A 
ATOM     50  H23 R11 d   1      19.428 -13.793  25.978  0.00  0.00     0.087 H 
ATOM     51  C20 R11 d   1      22.325 -13.525  27.786  0.00  0.00    -0.081 A 
ATOM     52  H22 R11 d   1      20.731 -12.144  27.316  0.00  0.00     0.083 H 
ATOM     53  H21 R11 d   1      22.864 -12.795  28.378  0.00  0.00     0.083 H 
ATOM     54  H20 R11 d   1      23.811 -15.091  28.103  0.00  0.00     0.087 H 
BRANCH  43  55
ATOM     55  C23 R11 d   1      21.274 -18.819  25.242  0.00  0.00    -0.021 C 
ATOM     56  H24 R11 d   1      22.157 -19.391  25.562  0.00  0.00     0.037 H 
ATOM     57  H25 R11 d   1      21.244 -18.775  24.143  0.00  0.00     0.037 H 
ATOM     58  H26 R11 d   1      20.363 -19.311  25.614  0.00  0.00     0.037 H 
ENDBRANCH  43  55
ENDBRANCH  39  42
ENDBRANCH   8  39
TORSDOF 9
