REMARK  16 active torsions:
REMARK  status: ('A' for Active; 'I' for Inactive)
REMARK    1  A    between atoms: N01_1  and  C08_8 
REMARK    2  A    between atoms: N03_3  and  C23_23 
REMARK    3  A    between atoms: C04_4  and  C41_41 
REMARK    4  A    between atoms: C05_5  and  O30_30 
REMARK    5  A    between atoms: C06_6  and  O31_31 
REMARK    6  A    between atoms: C07_7  and  C32_32 
REMARK    7  A    between atoms: C08_8  and  C09_9 
REMARK    8  A    between atoms: C12_12  and  C46_46 
REMARK    9  A    between atoms: C41_41  and  O16_16 
REMARK   10  A    between atoms: O16_16  and  C17_17 
REMARK   11  A    between atoms: C23_23  and  C24_24 
REMARK   12  A    between atoms: C32_32  and  O33_33 
REMARK   13  A    between atoms: O33_33  and  C34_34 
REMARK   14  A    between atoms: C42_42  and  O43_43 
REMARK   15  A    between atoms: O43_43  and  C45_45 
REMARK   16  A    between atoms: C46_46  and  O47_47 
ROOT
ATOM      1  N01 AHF d   1      11.594  23.922   6.163  0.00  0.00    -0.180 NA
ATOM      2  S02 AHF d   1      11.941  22.288   6.477  0.00  0.00     0.302 S 
ATOM      3  N03 AHF d   1      13.610  22.422   6.259  0.00  0.00    -0.284 N 
ATOM      4  C04 AHF d   1      14.023  22.301   4.841  0.00  0.00     0.072 C 
ATOM      5  C05 AHF d   1      14.158  23.776   4.298  0.00  0.00     0.084 C 
ATOM      6  C06 AHF d   1      13.187  24.863   4.869  0.00  0.00     0.080 C 
ATOM      7  C07 AHF d   1      11.681  24.634   4.856  0.00  0.00     0.059 C 
ATOM      8  O15 AHF d   1      11.308  21.469   5.461  0.00  0.00    -0.188 OA
ATOM      9  O40 AHF d   1      11.737  22.006   7.833  0.00  0.00    -0.188 OA
ATOM     10  H1  AHF d   1      13.219  21.791   4.290  0.00  0.00     0.081 H 
ATOM     11  H2  AHF d   1      13.983  23.712   3.214  0.00  0.00     0.090 H 
ATOM     12  H3  AHF d   1      13.470  25.011   5.921  0.00  0.00     0.089 H 
ATOM     13  H4  AHF d   1      11.139  25.590   4.893  0.00  0.00     0.073 H 
ENDROOT
BRANCH   3  14
ATOM     14  C23 AHF d   1      14.508  22.802   7.411  0.00  0.00     0.030 C 
ATOM     15  H16 AHF d   1      13.834  23.235   8.165  0.00  0.00     0.072 H 
ATOM     16  H17 AHF d   1      15.164  23.589   7.011  0.00  0.00     0.072 H 
BRANCH  14  17
ATOM     17  C24 AHF d   1      15.413  21.902   8.178  0.00  0.00    -0.040 A 
ATOM     18  C29 AHF d   1      16.863  21.990   7.957  0.00  0.00    -0.074 A 
ATOM     19  C28 AHF d   1      17.794  21.132   8.698  0.00  0.00    -0.068 A 
ATOM     20  H21 AHF d   1      17.251  22.700   7.235  0.00  0.00     0.084 H 
ATOM     21  C27 AHF d   1      17.270  20.160   9.687  0.00  0.00     0.025 A 
ATOM     22  H20 AHF d   1      18.861  21.209   8.523  0.00  0.00     0.085 H 
ATOM     23  C26 AHF d   1      15.805  20.076   9.902  0.00  0.00    -0.068 A 
ATOM     24  C42 AHF d   1      18.106  19.372  10.374  0.00  0.00     0.225 C 
ATOM     25  C25 AHF d   1      14.881  20.953   9.143  0.00  0.00    -0.074 A 
ATOM     26  H19 AHF d   1      15.406  19.368  10.620  0.00  0.00     0.085 H 
ATOM     27  H18 AHF d   1      13.812  20.887   9.307  0.00  0.00     0.084 H 
ATOM     28  O44 AHF d   1      19.341  19.148   9.916  0.00  0.00    -0.163 OA
BRANCH  24  29
ATOM     29  O43 AHF d   1      17.702  18.805  11.552  0.00  0.00    -0.333 OA
BRANCH  29  30
ATOM     30  C45 AHF d   1      18.540  18.000  12.286  0.00  0.00     0.012 C 
ATOM     31  H33 AHF d   1      18.017  17.653  13.190  0.00  0.00     0.067 H 
ATOM     32  H34 AHF d   1      19.435  18.570  12.576  0.00  0.00     0.067 H 
ATOM     33  H35 AHF d   1      18.839  17.132  11.680  0.00  0.00     0.067 H 
ENDBRANCH  29  30
ENDBRANCH  24  29
ENDBRANCH  14  17
ENDBRANCH   3  14
BRANCH   4  34
ATOM     34  C41 AHF d   1      15.336  21.479   4.610  0.00  0.00     0.048 C 
ATOM     35  H31 AHF d   1      15.645  20.985   5.543  0.00  0.00     0.078 H 
ATOM     36  H32 AHF d   1      16.143  22.140   4.260  0.00  0.00     0.078 H 
BRANCH  34  37
ATOM     37  O16 AHF d   1      15.016  20.468   3.576  0.00  0.00    -0.349 OA
BRANCH  37  38
ATOM     38  C17 AHF d   1      15.955  19.495   3.261  0.00  0.00     0.068 A 
ATOM     39  C22 AHF d   1      16.762  18.825   4.305  0.00  0.00    -0.051 A 
ATOM     40  C21 AHF d   1      17.753  17.801   3.951  0.00  0.00    -0.080 A 
ATOM     41  H15 AHF d   1      16.619  19.094   5.345  0.00  0.00     0.087 H 
ATOM     42  C20 AHF d   1      17.943  17.441   2.564  0.00  0.00    -0.083 A 
ATOM     43  H14 AHF d   1      18.338  17.318   4.725  0.00  0.00     0.083 H 
ATOM     44  C19 AHF d   1      17.149  18.094   1.523  0.00  0.00    -0.080 A 
ATOM     45  H13 AHF d   1      18.674  16.687   2.295  0.00  0.00     0.083 H 
ATOM     46  C18 AHF d   1      16.157  19.120   1.877  0.00  0.00    -0.051 A 
ATOM     47  H12 AHF d   1      17.293  17.820   0.484  0.00  0.00     0.083 H 
ATOM     48  H11 AHF d   1      15.574  19.598   1.098  0.00  0.00     0.087 H 
ENDBRANCH  37  38
ENDBRANCH  34  37
ENDBRANCH   4  34
BRANCH   1  49
ATOM     49  C08 AHF d   1      10.312  24.239   6.727  0.00  0.00     0.019 C 
ATOM     50  H5  AHF d   1      10.188  23.474   7.508  0.00  0.00     0.064 H 
ATOM     51  H6  AHF d   1       9.618  24.033   5.899  0.00  0.00     0.064 H 
BRANCH  49  52
ATOM     52  C09 AHF d   1       9.736  25.450   7.351  0.00  0.00    -0.044 A 
ATOM     53  C14 AHF d   1      10.601  26.326   8.135  0.00  0.00    -0.075 A 
ATOM     54  C13 AHF d   1      10.049  27.518   8.751  0.00  0.00    -0.074 A 
ATOM     55  H10 AHF d   1      11.651  26.087   8.257  0.00  0.00     0.084 H 
ATOM     56  C12 AHF d   1       8.614  27.816   8.567  0.00  0.00    -0.035 A 
ATOM     57  H9  AHF d   1      10.679  28.178   9.336  0.00  0.00     0.084 H 
ATOM     58  C11 AHF d   1       7.767  26.912   7.771  0.00  0.00    -0.074 A 
ATOM     59  C10 AHF d   1       8.341  25.748   7.178  0.00  0.00    -0.075 A 
ATOM     60  H8  AHF d   1       6.714  27.130   7.636  0.00  0.00     0.084 H 
ATOM     61  H7  AHF d   1       7.719  25.082   6.591  0.00  0.00     0.084 H 
BRANCH  56  62
ATOM     62  C46 AHF d   1       8.147  28.853   9.111  0.00  0.00     0.040 C 
ATOM     63  H36 AHF d   1       8.948  29.369   9.660  0.00  0.00     0.081 H 
ATOM     64  H37 AHF d   1       7.347  28.569   9.811  0.00  0.00     0.081 H 
BRANCH  62  65
ATOM     65  O47 AHF d   1       7.648  29.675   8.176  0.00  0.00    -0.396 OA
ATOM     66  H38 AHF d   1       7.298  30.453   8.594  0.00  0.00     0.209 HD
ENDBRANCH  62  65
ENDBRANCH  56  62
ENDBRANCH  49  52
ENDBRANCH   1  49
BRANCH   5  67
ATOM     67  O30 AHF d   1      15.424  24.325   4.512  0.00  0.00    -0.391 OA
ATOM     68  H22 AHF d   1      15.447  25.210   4.166  0.00  0.00     0.210 HD
ENDBRANCH   5  67
BRANCH   7  69
ATOM     69  C32 AHF d   1      11.127  23.823   3.607  0.00  0.00     0.044 C 
ATOM     70  H24 AHF d   1      11.572  22.817   3.586  0.00  0.00     0.077 H 
ATOM     71  H25 AHF d   1      11.376  24.353   2.676  0.00  0.00     0.077 H 
BRANCH  69  72
ATOM     72  O33 AHF d   1       9.707  23.725   3.747  0.00  0.00    -0.349 OA
BRANCH  72  73
ATOM     73  C34 AHF d   1       8.769  24.460   3.176  0.00  0.00     0.068 A 
ATOM     74  C39 AHF d   1       7.395  24.177   3.479  0.00  0.00    -0.051 A 
ATOM     75  C38 AHF d   1       6.338  24.961   2.870  0.00  0.00    -0.080 A 
ATOM     76  H30 AHF d   1       7.147  23.375   4.165  0.00  0.00     0.087 H 
ATOM     77  C37 AHF d   1       6.659  26.034   1.953  0.00  0.00    -0.083 A 
ATOM     78  H29 AHF d   1       5.302  24.742   3.103  0.00  0.00     0.083 H 
ATOM     79  C36 AHF d   1       8.040  26.337   1.634  0.00  0.00    -0.080 A 
ATOM     80  H28 AHF d   1       5.862  26.614   1.502  0.00  0.00     0.083 H 
ATOM     81  C35 AHF d   1       9.091  25.556   2.241  0.00  0.00    -0.051 A 
ATOM     82  H27 AHF d   1       8.281  27.141   0.948  0.00  0.00     0.083 H 
ATOM     83  H26 AHF d   1      10.127  25.776   2.008  0.00  0.00     0.087 H 
ENDBRANCH  72  73
ENDBRANCH  69  72
ENDBRANCH   7  69
BRANCH   6  84
ATOM     84  O31 AHF d   1      13.421  26.016   4.176  0.00  0.00    -0.391 OA
ATOM     85  H23 AHF d   1      14.326  26.279   4.297  0.00  0.00     0.210 HD
ENDBRANCH   6  84
TORSDOF 16
