REMARK  9 active torsions:
REMARK  status: ('A' for Active; 'I' for Inactive)
REMARK    1  A    between atoms: N1_1  and  C1_3 
REMARK    2  A    between atoms: C1_3  and  C2_4 
REMARK    3  A    between atoms: C5_7  and  N_10 
REMARK    4  A    between atoms: N_10  and  C_11 
REMARK    5  A    between atoms: C_11  and  C8_13 
REMARK    6  A    between atoms: N9_14  and  C14_21 
REMARK    7  A    between atoms: C12_19  and  C9_22 
REMARK    8  A    between atoms: C9_22  and  N4_23 
REMARK    9  A    between atoms: C15_24  and  C23_32 
ROOT
ATOM      1  N3  R11 d   1      -3.427   4.397  23.581  0.00  0.00    -0.231 NA
ATOM      2  C8  R11 d   1      -2.187   3.984  23.076  0.00  0.00     0.124 A 
ATOM      3  N9  R11 d   1      -1.032   3.998  23.896  0.00  0.00    -0.336 N 
ATOM      4  C3A R11 d   1      -1.631   4.496  25.063  0.00  0.00     0.064 A 
ATOM      5  C7A R11 d   1      -3.050   4.731  24.859  0.00  0.00     0.086 A 
ATOM      6  C10 R11 d   1      -1.043   4.780  26.340  0.00  0.00    -0.054 A 
ATOM      7  C11 R11 d   1      -1.856   5.296  27.373  0.00  0.00    -0.073 A 
ATOM      8  C12 R11 d   1      -3.248   5.526  27.169  0.00  0.00    -0.037 A 
ATOM      9  C13 R11 d   1      -3.857   5.247  25.917  0.00  0.00    -0.045 A 
ATOM     10  H12 R11 d   1       0.013   4.601  26.510  0.00  0.00     0.087 H 
ATOM     11  H13 R11 d   1      -1.414   5.521  28.337  0.00  0.00     0.084 H 
ATOM     12  H14 R11 d   1      -4.916   5.423  25.767  0.00  0.00     0.088 H 
ENDROOT
BRANCH   2  13
ATOM     13  C   R11 d   1      -2.123   3.525  21.606  0.00  0.00     0.047 C 
ATOM     14  H10 R11 d   1      -1.475   2.637  21.555  0.00  0.00     0.075 H 
ATOM     15  H11 R11 d   1      -3.141   3.255  21.290  0.00  0.00     0.075 H 
BRANCH  13  16
ATOM     16  N   R11 d   1      -1.597   4.533  20.648  0.00  0.00    -0.383 N 
ATOM     17  H9  R11 d   1      -0.746   4.273  20.129  0.00  0.00     0.160 HD
BRANCH  16  18
ATOM     18  C5  R11 d   1      -2.149   5.838  20.366  0.00  0.00     0.028 A 
ATOM     19  C4  R11 d   1      -3.447   6.201  20.798  0.00  0.00    -0.057 A 
ATOM     20  C3  R11 d   1      -3.964   7.475  20.510  0.00  0.00    -0.067 A 
ATOM     21  H6  R11 d   1      -4.047   5.490  21.355  0.00  0.00     0.086 H 
ATOM     22  C2  R11 d   1      -3.207   8.444  19.776  0.00  0.00     0.007 A 
ATOM     23  H5  R11 d   1      -4.960   7.731  20.852  0.00  0.00     0.085 H 
ATOM     24  C7  R11 d   1      -1.885   8.048  19.349  0.00  0.00    -0.067 A 
ATOM     25  C6  R11 d   1      -1.371   6.764  19.643  0.00  0.00    -0.057 A 
ATOM     26  H8  R11 d   1      -1.275   8.749  18.792  0.00  0.00     0.085 H 
ATOM     27  H7  R11 d   1      -0.376   6.491  19.311  0.00  0.00     0.086 H 
BRANCH  22  28
ATOM     28  C1  R11 d   1      -3.740   9.713  19.491  0.00  0.00     0.102 C 
ATOM     29  N2  R11 d   1      -3.070  10.713  18.952  0.00  0.00    -0.385 N 
ATOM     30  H3  R11 d   1      -2.080  10.591  18.695  0.00  0.00     0.157 HD
ATOM     31  H4  R11 d   1      -3.537  11.616  18.788  0.00  0.00     0.157 HD
BRANCH  28  32
ATOM     32  N1  R11 d   1      -4.986  10.071  19.745  0.00  0.00    -0.385 N 
ATOM     33  H1  R11 d   1      -5.308  11.020  19.508  0.00  0.00     0.157 HD
ATOM     34  H2  R11 d   1      -5.636   9.401  20.180  0.00  0.00     0.157 HD
ENDBRANCH  28  32
ENDBRANCH  22  28
ENDBRANCH  16  18
ENDBRANCH  13  16
ENDBRANCH   2  13
BRANCH   3  35
ATOM     35  C14 R11 d   1       0.383   3.616  23.599  0.00  0.00    -0.012 C 
ATOM     36  H15 R11 d   1       0.458   3.265  22.559  0.00  0.00     0.057 H 
ATOM     37  H16 R11 d   1       0.697   2.812  24.281  0.00  0.00     0.057 H 
ATOM     38  H17 R11 d   1       1.036   4.490  23.739  0.00  0.00     0.057 H 
ENDBRANCH   3  35
BRANCH   8  39
ATOM     39  C9  R11 d   1      -4.094   6.089  28.303  0.00  0.00     0.025 C 
ATOM     40  H18 R11 d   1      -5.107   5.670  28.214  0.00  0.00     0.072 H 
ATOM     41  H19 R11 d   1      -4.138   7.182  28.186  0.00  0.00     0.072 H 
BRANCH  39  42
ATOM     42  N4  R11 d   1      -3.588   5.790  29.678  0.00  0.00    -0.329 N 
ATOM     43  C15 R11 d   1      -3.720   4.649  30.501  0.00  0.00     0.103 A 
ATOM     44  N16 R11 d   1      -3.151   4.589  31.781  0.00  0.00    -0.234 NA
ATOM     45  C17 R11 d   1      -2.577   5.861  31.792  0.00  0.00     0.085 A 
ATOM     46  C18 R11 d   1      -2.835   6.576  30.558  0.00  0.00     0.065 A 
ATOM     47  C19 R11 d   1      -1.829   6.482  32.845  0.00  0.00    -0.053 A 
ATOM     48  C22 R11 d   1      -2.325   7.905  30.387  0.00  0.00    -0.055 A 
ATOM     49  C21 R11 d   1      -1.578   8.496  31.438  0.00  0.00    -0.081 A 
ATOM     50  H23 R11 d   1      -2.508   8.450  29.468  0.00  0.00     0.087 H 
ATOM     51  C20 R11 d   1      -1.337   7.795  32.645  0.00  0.00    -0.081 A 
ATOM     52  H22 R11 d   1      -1.186   9.499  31.316  0.00  0.00     0.083 H 
ATOM     53  H21 R11 d   1      -0.764   8.273  33.431  0.00  0.00     0.083 H 
ATOM     54  H20 R11 d   1      -1.644   5.958  33.775  0.00  0.00     0.087 H 
BRANCH  43  55
ATOM     55  C23 R11 d   1      -4.481   3.410  30.023  0.00  0.00    -0.021 C 
ATOM     56  H24 R11 d   1      -4.464   2.643  30.811  0.00  0.00     0.037 H 
ATOM     57  H25 R11 d   1      -4.003   3.014  29.115  0.00  0.00     0.037 H 
ATOM     58  H26 R11 d   1      -5.523   3.683  29.799  0.00  0.00     0.037 H 
ENDBRANCH  43  55
ENDBRANCH  39  42
ENDBRANCH   8  39
TORSDOF 9
