REMARK  7 active torsions:
REMARK  status: ('A' for Active; 'I' for Inactive)
REMARK    1  A    between atoms: C1_1  and  C8_8 
REMARK    2  A    between atoms: C3_3  and  C7_7 
REMARK    3  A    between atoms: C4_4  and  O1_9 
REMARK    4  A    between atoms: C8_8  and  N1_10 
REMARK    5  A    between atoms: N_12  and  CA_13 
REMARK    6  A    between atoms: CA_13  and  C_15 
REMARK    7  A    between atoms: CA_13  and  CB_14 
ROOT
ATOM      1  C1  108 d   1      43.987  -2.697  26.326  0.00  0.00     0.008 A 
ATOM      2  C2  108 d   1      43.347  -3.241  27.436  0.00  0.00    -0.056 A 
ATOM      3  C3  108 d   1      43.198  -2.508  28.620  0.00  0.00     0.015 A 
ATOM      4  C4  108 d   1      43.703  -1.210  28.678  0.00  0.00     0.077 A 
ATOM      5  C5  108 d   1      44.339  -0.674  27.564  0.00  0.00    -0.049 A 
ATOM      6  C6  108 d   1      44.480  -1.405  26.404  0.00  0.00    -0.067 A 
ATOM      7  H1  108 d   1      42.957  -4.251  27.383  0.00  0.00     0.086 H 
ATOM      8  H2  108 d   1      44.731   0.336  27.608  0.00  0.00     0.087 H 
ATOM      9  H3  108 d   1      44.980  -0.966  25.548  0.00  0.00     0.085 H 
ENDROOT
BRANCH   3  10
ATOM     10  C7  108 d   1      42.522  -3.120  29.750  0.00  0.00     0.010 C 
ATOM     11  N   108 d   1      42.318  -2.543  30.902  0.00  0.00    -0.285 NA
ATOM     12  H4  108 d   1      42.157  -4.139  29.626  0.00  0.00     0.115 H 
BRANCH  11  13
ATOM     13  CA  108 d   1      41.619  -3.318  31.925  0.00  0.00     0.112 C 
ATOM     14  H10 108 d   1      40.816  -3.892  31.439  0.00  0.00     0.092 H 
BRANCH  13  15
ATOM     15  C   108 d   1      40.993  -2.406  32.973  0.00  0.00     0.198 C 
ATOM     16  OXT 108 d   1      41.274  -1.153  32.890  0.00  0.00    -0.646 OA
ATOM     17  O   108 d   1      40.261  -2.911  33.833  0.00  0.00    -0.646 OA
ENDBRANCH  13  15
BRANCH  13  18
ATOM     18  CB  108 d   1      42.580  -4.292  32.589  0.00  0.00    -0.046 C 
ATOM     19  H11 108 d   1      42.044  -4.870  33.357  0.00  0.00     0.031 H 
ATOM     20  H12 108 d   1      43.403  -3.733  33.059  0.00  0.00     0.031 H 
ATOM     21  H13 108 d   1      42.988  -4.978  31.832  0.00  0.00     0.031 H 
ENDBRANCH  13  18
ENDBRANCH  11  13
ENDBRANCH   3  10
BRANCH   4  22
ATOM     22  O1  108 d   1      43.621  -0.401  29.754  0.00  0.00    -0.360 OA
ATOM     23  H5  108 d   1      44.035   0.431  29.556  0.00  0.00     0.217 HD
ENDBRANCH   4  22
BRANCH   1  24
ATOM     24  C8  108 d   1      44.213  -3.492  25.132  0.00  0.00     0.102 C 
ATOM     25  N2  108 d   1      44.027  -4.804  25.156  0.00  0.00    -0.385 N 
ATOM     26  H8  108 d   1      43.716  -5.264  26.023  0.00  0.00     0.157 HD
ATOM     27  H9  108 d   1      44.193  -5.363  24.307  0.00  0.00     0.157 HD
BRANCH  24  28
ATOM     28  N1  108 d   1      44.613  -2.906  24.012  0.00  0.00    -0.385 N 
ATOM     29  H6  108 d   1      44.773  -3.470  23.165  0.00  0.00     0.157 HD
ATOM     30  H7  108 d   1      44.763  -1.887  23.989  0.00  0.00     0.157 HD
ENDBRANCH  24  28
ENDBRANCH   1  24
TORSDOF 7
