REMARK  7 active torsions:
REMARK  status: ('A' for Active; 'I' for Inactive)
REMARK    1  A    between atoms: C1_1  and  C8_8 
REMARK    2  A    between atoms: C3_3  and  O1_9 
REMARK    3  A    between atoms: C4_4  and  C7_7 
REMARK    4  A    between atoms: C8_8  and  N1_10 
REMARK    5  A    between atoms: N_12  and  CA_13 
REMARK    6  A    between atoms: CA_13  and  C_15 
REMARK    7  A    between atoms: CA_13  and  CB_14 
ROOT
ATOM      1  C1  109 d   1      43.909  -3.028  26.302  0.00  0.00     0.010 A 
ATOM      2  C2  109 d   1      43.061  -3.652  27.202  0.00  0.00    -0.037 A 
ATOM      3  C3  109 d   1      42.605  -2.989  28.341  0.00  0.00     0.078 A 
ATOM      4  C4  109 d   1      43.012  -1.673  28.585  0.00  0.00     0.014 A 
ATOM      5  C5  109 d   1      43.864  -1.060  27.673  0.00  0.00    -0.068 A 
ATOM      6  C6  109 d   1      44.308  -1.727  26.550  0.00  0.00    -0.068 A 
ATOM      7  H1  109 d   1      42.746  -4.673  27.018  0.00  0.00     0.089 H 
ATOM      8  H2  109 d   1      44.185  -0.040  27.848  0.00  0.00     0.085 H 
ATOM      9  H3  109 d   1      44.975  -1.228  25.857  0.00  0.00     0.085 H 
ENDROOT
BRANCH   4  10
ATOM     10  C7  109 d   1      42.575  -0.924  29.748  0.00  0.00     0.010 C 
ATOM     11  N   109 d   1      41.778  -1.390  30.664  0.00  0.00    -0.285 NA
ATOM     12  H4  109 d   1      42.938   0.096  29.862  0.00  0.00     0.115 H 
BRANCH  11  13
ATOM     13  CA  109 d   1      41.416  -0.525  31.783  0.00  0.00     0.112 C 
ATOM     14  H10 109 d   1      42.177   0.263  31.887  0.00  0.00     0.092 H 
BRANCH  13  15
ATOM     15  C   109 d   1      41.365  -1.338  33.073  0.00  0.00     0.198 C 
ATOM     16  OXT 109 d   1      40.449  -2.243  33.132  0.00  0.00    -0.646 OA
ATOM     17  O   109 d   1      42.184  -1.098  33.971  0.00  0.00    -0.646 OA
ENDBRANCH  13  15
BRANCH  13  18
ATOM     18  CB  109 d   1      40.062   0.126  31.519  0.00  0.00    -0.046 C 
ATOM     19  H11 109 d   1      39.796   0.776  32.366  0.00  0.00     0.031 H 
ATOM     20  H12 109 d   1      39.296  -0.655  31.402  0.00  0.00     0.031 H 
ATOM     21  H13 109 d   1      40.117   0.727  30.599  0.00  0.00     0.031 H 
ENDBRANCH  13  18
ENDBRANCH  11  13
ENDBRANCH   4  10
BRANCH   3  22
ATOM     22  O1  109 d   1      41.783  -3.704  29.134  0.00  0.00    -0.360 OA
ATOM     23  H5  109 d   1      41.525  -3.175  29.880  0.00  0.00     0.217 HD
ENDBRANCH   3  22
BRANCH   1  24
ATOM     24  C8  109 d   1      44.275  -3.684  25.064  0.00  0.00     0.102 C 
ATOM     25  N2  109 d   1      44.217  -5.005  24.972  0.00  0.00    -0.385 N 
ATOM     26  H8  109 d   1      43.913  -5.565  25.782  0.00  0.00     0.157 HD
ATOM     27  H9  109 d   1      44.475  -5.472  24.091  0.00  0.00     0.157 HD
BRANCH  24  28
ATOM     28  N1  109 d   1      44.666  -2.965  24.021  0.00  0.00    -0.385 N 
ATOM     29  H6  109 d   1      44.926  -3.433  23.141  0.00  0.00     0.157 HD
ATOM     30  H7  109 d   1      44.710  -1.938  24.091  0.00  0.00     0.157 HD
ENDBRANCH  24  28
ENDBRANCH   1  24
TORSDOF 7
