REMARK  5 active torsions:
REMARK  status: ('A' for Active; 'I' for Inactive)
REMARK    1  A    between atoms: C03_3  and  S11_11 
REMARK    2  A    between atoms: C06_6  and  C07_7 
REMARK       I    between atoms: C07_7  and  N09_9 
REMARK    3  A    between atoms: N09_9  and  C10_10 
REMARK    4  A    between atoms: C10_10  and  C15_15 
REMARK    5  A    between atoms: S11_11  and  NP2_12 
ROOT
ATOM      1  C07 FSB d   1      -4.310   5.725  13.694  0.00  0.00     0.251 C 
ATOM      2  O08 FSB d   1      -5.074   6.639  13.520  0.00  0.00    -0.268 OA
ATOM      3  N09 FSB d   1      -3.026   5.782  13.197  0.00  0.00    -0.353 N 
ATOM      4  H5  FSB d   1      -2.448   4.986  13.374  0.00  0.00     0.163 HD
ENDROOT
BRANCH   1   5
ATOM      5  C06 FSB d   1      -4.786   4.521  14.470  0.00  0.00     0.032 A 
ATOM      6  C01 FSB d   1      -3.918   3.441  14.686  0.00  0.00    -0.066 A 
ATOM      7  C02 FSB d   1      -4.303   2.284  15.407  0.00  0.00    -0.059 A 
ATOM      8  H1  FSB d   1      -2.912   3.494  14.285  0.00  0.00     0.085 H 
ATOM      9  C03 FSB d   1      -5.636   2.246  15.925  0.00  0.00     0.079 A 
ATOM     10  H2  FSB d   1      -3.615   1.460  15.560  0.00  0.00     0.085 H 
ATOM     11  C04 FSB d   1      -6.485   3.349  15.691  0.00  0.00    -0.059 A 
ATOM     12  C05 FSB d   1      -6.062   4.471  14.970  0.00  0.00    -0.066 A 
ATOM     13  H3  FSB d   1      -7.496   3.326  16.082  0.00  0.00     0.085 H 
ATOM     14  H4  FSB d   1      -6.742   5.299  14.807  0.00  0.00     0.085 H 
BRANCH   9  15
ATOM     15  S11 FSB d   1      -6.115   0.767  16.852  0.00  0.00     0.256 S 
ATOM     16  O14 FSB d   1      -5.538   1.075  18.162  0.00  0.00    -0.201 OA
ATOM     17  O13 FSB d   1      -7.594   1.057  16.923  0.00  0.00    -0.201 OA
BRANCH  15  18
ATOM     18  NP2 FSB d   1      -5.691  -0.579  16.158  0.00  0.00    -0.324 N 
ATOM     19  H8  FSB d   1      -5.909  -1.454  16.590  0.00  0.00     0.169 HD
ATOM     20  H9  FSB d   1      -5.203  -0.559  15.285  0.00  0.00     0.169 HD
ENDBRANCH  15  18
ENDBRANCH   9  15
ENDBRANCH   1   5
BRANCH   3  21
ATOM     21  C10 FSB d   1      -2.413   6.869  12.443  0.00  0.00     0.022 C 
ATOM     22  H6  FSB d   1      -3.215   7.399  11.908  0.00  0.00     0.071 H 
ATOM     23  H7  FSB d   1      -1.720   6.422  11.715  0.00  0.00     0.071 H 
BRANCH  21  24
ATOM     24  C15 FSB d   1      -1.682   7.838  13.200  0.00  0.00    -0.002 A 
ATOM     25  C20 FSB d   1      -0.394   8.321  12.778  0.00  0.00     0.124 A 
ATOM     26  C19 FSB d   1       0.285   9.305  13.608  0.00  0.00    -0.045 A 
ATOM     27  F21 FSB d   1       0.169   7.875  11.646  0.00  0.00    -0.205 F 
ATOM     28  C18 FSB d   1      -0.342   9.769  14.823  0.00  0.00    -0.080 A 
ATOM     29  H13 FSB d   1       1.256   9.688  13.316  0.00  0.00     0.088 H 
ATOM     30  C17 FSB d   1      -1.608   9.286  15.228  0.00  0.00    -0.082 A 
ATOM     31  H12 FSB d   1       0.168  10.502  15.437  0.00  0.00     0.083 H 
ATOM     32  C16 FSB d   1      -2.264   8.324  14.410  0.00  0.00    -0.072 A 
ATOM     33  H11 FSB d   1      -2.069   9.641  16.142  0.00  0.00     0.083 H 
ATOM     34  H10 FSB d   1      -3.234   7.949  14.714  0.00  0.00     0.084 H 
ENDBRANCH  21  24
ENDBRANCH   3  21
TORSDOF 5
