REMARK  5 active torsions:
REMARK  status: ('A' for Active; 'I' for Inactive)
REMARK    1  A    between atoms: C03_3  and  S11_11 
REMARK    2  A    between atoms: C06_6  and  C07_7 
REMARK       I    between atoms: C07_7  and  N09_9 
REMARK    3  A    between atoms: N09_9  and  C10_10 
REMARK    4  A    between atoms: C10_10  and  C15_15 
REMARK    5  A    between atoms: S11_11  and  NP2_12 
ROOT
ATOM      1  C07 F2B d   1      -4.203   5.677  13.674  0.00  0.00     0.251 C 
ATOM      2  O08 F2B d   1      -4.992   6.556  13.347  0.00  0.00    -0.268 OA
ATOM      3  N09 F2B d   1      -2.876   5.748  13.332  0.00  0.00    -0.353 N 
ATOM      4  H5  F2B d   1      -2.316   4.979  13.639  0.00  0.00     0.163 HD
ENDROOT
BRANCH   1   5
ATOM      5  C06 F2B d   1      -4.682   4.490  14.476  0.00  0.00     0.032 A 
ATOM      6  C01 F2B d   1      -3.776   3.484  14.843  0.00  0.00    -0.066 A 
ATOM      7  C02 F2B d   1      -4.172   2.350  15.591  0.00  0.00    -0.059 A 
ATOM      8  H1  F2B d   1      -2.738   3.578  14.544  0.00  0.00     0.085 H 
ATOM      9  C03 F2B d   1      -5.547   2.244  15.971  0.00  0.00     0.079 A 
ATOM     10  H2  F2B d   1      -3.455   1.585  15.868  0.00  0.00     0.085 H 
ATOM     11  C04 F2B d   1      -6.440   3.268  15.595  0.00  0.00    -0.059 A 
ATOM     12  C05 F2B d   1      -5.996   4.374  14.856  0.00  0.00    -0.066 A 
ATOM     13  H3  F2B d   1      -7.483   3.200  15.881  0.00  0.00     0.085 H 
ATOM     14  H4  F2B d   1      -6.702   5.149  14.581  0.00  0.00     0.085 H 
BRANCH   9  15
ATOM     15  S11 F2B d   1      -6.079   0.821  16.892  0.00  0.00     0.256 S 
ATOM     16  O14 F2B d   1      -5.422   1.002  18.193  0.00  0.00    -0.201 OA
ATOM     17  O13 F2B d   1      -7.513   1.066  17.018  0.00  0.00    -0.201 OA
BRANCH  15  18
ATOM     18  NP2 F2B d   1      -5.677  -0.587  16.083  0.00  0.00    -0.324 N 
ATOM     19  H8  F2B d   1      -5.912  -1.475  16.478  0.00  0.00     0.169 HD
ATOM     20  H9  F2B d   1      -5.202  -0.540  15.204  0.00  0.00     0.169 HD
ENDBRANCH  15  18
ENDBRANCH   9  15
ENDBRANCH   1   5
BRANCH   3  21
ATOM     21  C10 F2B d   1      -2.159   6.781  12.586  0.00  0.00     0.022 C 
ATOM     22  H6  F2B d   1      -2.861   7.219  11.861  0.00  0.00     0.071 H 
ATOM     23  H7  F2B d   1      -1.333   6.293  12.048  0.00  0.00     0.071 H 
BRANCH  21  24
ATOM     24  C15 F2B d   1      -1.602   7.857  13.363  0.00  0.00     0.001 A 
ATOM     25  C20 F2B d   1      -0.725   8.854  12.754  0.00  0.00     0.162 A 
ATOM     26  C19 F2B d   1      -0.179   9.923  13.556  0.00  0.00     0.155 A 
ATOM     27  F22 F2B d   1      -0.460   8.814  11.670  0.00  0.00    -0.202 F 
ATOM     28  C18 F2B d   1      -0.505   9.988  14.934  0.00  0.00    -0.043 A 
ATOM     29  F21 F2B d   1       0.370  10.556  13.196  0.00  0.00    -0.203 F 
ATOM     30  C17 F2B d   1      -1.371   9.015  15.561  0.00  0.00    -0.079 A 
ATOM     31  H12 F2B d   1      -0.093  10.791  15.535  0.00  0.00     0.088 H 
ATOM     32  C16 F2B d   1      -1.925   7.934  14.760  0.00  0.00    -0.072 A 
ATOM     33  H11 F2B d   1      -1.605   9.090  16.617  0.00  0.00     0.083 H 
ATOM     34  H10 F2B d   1      -2.575   7.194  15.213  0.00  0.00     0.084 H 
ENDBRANCH  21  24
ENDBRANCH   3  21
TORSDOF 5
