REMARK  5 active torsions:
REMARK  status: ('A' for Active; 'I' for Inactive)
REMARK    1  A    between atoms: C03_3  and  S11_11 
REMARK    2  A    between atoms: C06_6  and  C07_7 
REMARK       I    between atoms: C07_7  and  N09_9 
REMARK    3  A    between atoms: N09_9  and  C10_10 
REMARK    4  A    between atoms: C10_10  and  C15_15 
REMARK    5  A    between atoms: S11_11  and  NP2_12 
ROOT
ATOM      1  C07 BSB d   1      -4.186   5.888  13.810  0.00  0.00     0.251 C 
ATOM      2  O08 BSB d   1      -4.913   6.857  13.679  0.00  0.00    -0.268 OA
ATOM      3  N09 BSB d   1      -2.895   5.898  13.301  0.00  0.00    -0.353 N 
ATOM      4  H5  BSB d   1      -2.361   5.065  13.447  0.00  0.00     0.163 HD
ENDROOT
BRANCH   1   5
ATOM      5  C06 BSB d   1      -4.700   4.659  14.545  0.00  0.00     0.032 A 
ATOM      6  C01 BSB d   1      -3.848   3.545  14.691  0.00  0.00    -0.066 A 
ATOM      7  C02 BSB d   1      -4.237   2.365  15.365  0.00  0.00    -0.059 A 
ATOM      8  H1  BSB d   1      -2.851   3.596  14.268  0.00  0.00     0.085 H 
ATOM      9  C03 BSB d   1      -5.574   2.335  15.918  0.00  0.00     0.079 A 
ATOM     10  H2  BSB d   1      -3.564   1.521  15.463  0.00  0.00     0.085 H 
ATOM     11  C04 BSB d   1      -6.412   3.470  15.753  0.00  0.00    -0.059 A 
ATOM     12  C05 BSB d   1      -5.977   4.619  15.071  0.00  0.00    -0.066 A 
ATOM     13  H3  BSB d   1      -7.415   3.449  16.165  0.00  0.00     0.085 H 
ATOM     14  H4  BSB d   1      -6.640   5.469  14.958  0.00  0.00     0.085 H 
BRANCH   9  15
ATOM     15  S11 BSB d   1      -6.059   0.832  16.784  0.00  0.00     0.256 S 
ATOM     16  O14 BSB d   1      -5.527   1.129  18.094  0.00  0.00    -0.201 OA
ATOM     17  O13 BSB d   1      -7.539   1.091  16.839  0.00  0.00    -0.201 OA
BRANCH  15  18
ATOM     18  NP2 BSB d   1      -5.629  -0.540  16.095  0.00  0.00    -0.324 N 
ATOM     19  H8  BSB d   1      -5.867  -1.411  16.524  0.00  0.00     0.169 HD
ATOM     20  H9  BSB d   1      -5.121  -0.529  15.234  0.00  0.00     0.169 HD
ENDBRANCH  15  18
ENDBRANCH   9  15
ENDBRANCH   1   5
BRANCH   3  21
ATOM     21  C10 BSB d   1      -2.219   6.970  12.580  0.00  0.00     0.019 C 
ATOM     22  H6  BSB d   1      -2.984   7.539  12.031  0.00  0.00     0.071 H 
ATOM     23  H7  BSB d   1      -1.523   6.507  11.865  0.00  0.00     0.071 H 
BRANCH  21  24
ATOM     24  C15 BSB d   1      -1.469   7.902  13.382  0.00  0.00    -0.041 A 
ATOM     25  C20 BSB d   1      -0.368   8.667  12.841  0.00  0.00    -0.075 A 
ATOM     26  C19 BSB d   1       0.339   9.595  13.720  0.00  0.00    -0.082 A 
ATOM     27  H14 BSB d   1      -0.073   8.554  11.804  0.00  0.00     0.084 H 
ATOM     28  C18 BSB d   1      -0.075   9.730  15.106  0.00  0.00    -0.083 A 
ATOM     29  H13 BSB d   1       1.169  10.180  13.340  0.00  0.00     0.083 H 
ATOM     30  C17 BSB d   1      -1.159   8.973  15.631  0.00  0.00    -0.082 A 
ATOM     31  H12 BSB d   1       0.453  10.421  15.753  0.00  0.00     0.083 H 
ATOM     32  C16 BSB d   1      -1.843   8.070  14.766  0.00  0.00    -0.075 A 
ATOM     33  H11 BSB d   1      -1.458   9.081  16.667  0.00  0.00     0.083 H 
ATOM     34  H10 BSB d   1      -2.670   7.491  15.160  0.00  0.00     0.084 H 
ENDBRANCH  21  24
ENDBRANCH   3  21
TORSDOF 5
