REMARK  5 active torsions:
REMARK  status: ('A' for Active; 'I' for Inactive)
REMARK    1  A    between atoms: C03_3  and  S11_11 
REMARK    2  A    between atoms: C06_6  and  C07_7 
REMARK       I    between atoms: C07_7  and  N09_9 
REMARK    3  A    between atoms: N09_9  and  C10_10 
REMARK    4  A    between atoms: C10_10  and  C15_15 
REMARK    5  A    between atoms: S11_11  and  NP2_12 
ROOT
ATOM      1  C07 F6B d   1      -4.231   5.651  13.491  0.00  0.00     0.251 C 
ATOM      2  O08 F6B d   1      -5.120   6.461  13.262  0.00  0.00    -0.268 OA
ATOM      3  N09 F6B d   1      -2.935   5.918  12.943  0.00  0.00    -0.352 N 
ATOM      4  H5  F6B d   1      -2.279   5.195  12.726  0.00  0.00     0.163 HD
ENDROOT
BRANCH   1   5
ATOM      5  C06 F6B d   1      -4.661   4.445  14.331  0.00  0.00     0.032 A 
ATOM      6  C01 F6B d   1      -3.768   3.425  14.674  0.00  0.00    -0.066 A 
ATOM      7  C02 F6B d   1      -4.157   2.316  15.432  0.00  0.00    -0.059 A 
ATOM      8  H1  F6B d   1      -2.739   3.496  14.341  0.00  0.00     0.085 H 
ATOM      9  C03 F6B d   1      -5.508   2.212  15.860  0.00  0.00     0.079 A 
ATOM     10  H2  F6B d   1      -3.438   1.547  15.689  0.00  0.00     0.085 H 
ATOM     11  C04 F6B d   1      -6.388   3.244  15.508  0.00  0.00    -0.059 A 
ATOM     12  C05 F6B d   1      -5.963   4.337  14.763  0.00  0.00    -0.066 A 
ATOM     13  H3  F6B d   1      -7.423   3.188  15.824  0.00  0.00     0.085 H 
ATOM     14  H4  F6B d   1      -6.671   5.120  14.517  0.00  0.00     0.085 H 
BRANCH   9  15
ATOM     15  S11 F6B d   1      -6.010   0.777  16.816  0.00  0.00     0.256 S 
ATOM     16  O14 F6B d   1      -5.374   0.989  18.106  0.00  0.00    -0.201 OA
ATOM     17  O13 F6B d   1      -7.439   1.009  16.951  0.00  0.00    -0.201 OA
BRANCH  15  18
ATOM     18  NP2 F6B d   1      -5.521  -0.615  16.061  0.00  0.00    -0.324 N 
ATOM     19  H8  F6B d   1      -5.726  -1.504  16.470  0.00  0.00     0.169 HD
ATOM     20  H9  F6B d   1      -5.021  -0.566  15.196  0.00  0.00     0.169 HD
ENDBRANCH  15  18
ENDBRANCH   9  15
ENDBRANCH   1   5
BRANCH   3  21
ATOM     21  C10 F6B d   1      -2.653   7.329  12.728  0.00  0.00     0.025 C 
ATOM     22  H6  F6B d   1      -3.551   7.879  13.048  0.00  0.00     0.071 H 
ATOM     23  H7  F6B d   1      -2.511   7.457  11.645  0.00  0.00     0.071 H 
BRANCH  21  24
ATOM     24  C15 F6B d   1      -1.561   7.955  13.349  0.00  0.00     0.037 A 
ATOM     25  C20 F6B d   1      -1.746   8.584  14.645  0.00  0.00     0.127 A 
ATOM     26  C19 F6B d   1      -0.659   9.219  15.275  0.00  0.00    -0.045 A 
ATOM     27  F22 F6B d   1      -2.934   8.582  15.266  0.00  0.00    -0.205 F 
ATOM     28  C18 F6B d   1       0.624   9.231  14.624  0.00  0.00    -0.077 A 
ATOM     29  H12 F6B d   1      -0.787   9.694  16.241  0.00  0.00     0.088 H 
ATOM     30  C17 F6B d   1       0.812   8.602  13.333  0.00  0.00    -0.045 A 
ATOM     31  H11 F6B d   1       1.463   9.718  15.107  0.00  0.00     0.083 H 
ATOM     32  C16 F6B d   1      -0.295   7.954  12.683  0.00  0.00     0.127 A 
ATOM     33  H10 F6B d   1       1.786   8.620  12.857  0.00  0.00     0.088 H 
ATOM     34  F21 F6B d   1      -0.138   7.368  11.488  0.00  0.00    -0.205 F 
ENDBRANCH  21  24
ENDBRANCH   3  21
TORSDOF 5
