REMARK  5 active torsions:
REMARK  status: ('A' for Active; 'I' for Inactive)
REMARK    1  A    between atoms: C03_3  and  S11_11 
REMARK    2  A    between atoms: C06_6  and  C07_7 
REMARK       I    between atoms: C07_7  and  N09_9 
REMARK    3  A    between atoms: N09_9  and  C10_10 
REMARK    4  A    between atoms: C10_10  and  C15_15 
REMARK    5  A    between atoms: S11_11  and  NP2_12 
ROOT
ATOM      1  C07 FFB d   1      -3.898   5.701  13.596  0.00  0.00     0.251 C 
ATOM      2  O08 FFB d   1      -4.822   6.441  13.288  0.00  0.00    -0.268 OA
ATOM      3  N09 FFB d   1      -2.581   6.070  13.138  0.00  0.00    -0.352 N 
ATOM      4  H5  FFB d   1      -1.762   5.531  13.334  0.00  0.00     0.163 HD
ENDROOT
BRANCH   1   5
ATOM      5  C06 FFB d   1      -4.355   4.503  14.423  0.00  0.00     0.032 A 
ATOM      6  C01 FFB d   1      -3.499   3.514  14.894  0.00  0.00    -0.066 A 
ATOM      7  C02 FFB d   1      -3.970   2.423  15.652  0.00  0.00    -0.059 A 
ATOM      8  H1  FFB d   1      -2.440   3.584  14.672  0.00  0.00     0.085 H 
ATOM      9  C03 FFB d   1      -5.357   2.300  15.954  0.00  0.00     0.079 A 
ATOM     10  H2  FFB d   1      -3.273   1.673  16.007  0.00  0.00     0.085 H 
ATOM     11  C04 FFB d   1      -6.184   3.304  15.469  0.00  0.00    -0.059 A 
ATOM     12  C05 FFB d   1      -5.686   4.373  14.727  0.00  0.00    -0.066 A 
ATOM     13  H3  FFB d   1      -7.247   3.255  15.673  0.00  0.00     0.085 H 
ATOM     14  H4  FFB d   1      -6.377   5.131  14.377  0.00  0.00     0.085 H 
BRANCH   9  15
ATOM     15  S11 FFB d   1      -5.942   0.871  16.925  0.00  0.00     0.256 S 
ATOM     16  O14 FFB d   1      -5.385   1.063  18.261  0.00  0.00    -0.201 OA
ATOM     17  O13 FFB d   1      -7.376   1.097  16.933  0.00  0.00    -0.201 OA
BRANCH  15  18
ATOM     18  NP2 FFB d   1      -5.410  -0.520  16.199  0.00  0.00    -0.324 N 
ATOM     19  H8  FFB d   1      -5.637  -1.409  16.596  0.00  0.00     0.169 HD
ATOM     20  H9  FFB d   1      -4.862  -0.470  15.364  0.00  0.00     0.169 HD
ENDBRANCH  15  18
ENDBRANCH   9  15
ENDBRANCH   1   5
BRANCH   3  21
ATOM     21  C10 FFB d   1      -2.557   7.335  12.342  0.00  0.00     0.025 C 
ATOM     22  H6  FFB d   1      -3.573   7.448  11.937  0.00  0.00     0.071 H 
ATOM     23  H7  FFB d   1      -1.852   7.152  11.518  0.00  0.00     0.071 H 
BRANCH  21  24
ATOM     24  C15 FFB d   1      -2.210   8.612  12.864  0.00  0.00     0.043 A 
ATOM     25  C20 FFB d   1      -1.825   8.728  14.245  0.00  0.00     0.169 A 
ATOM     26  C19 FFB d   1      -1.486   9.988  14.775  0.00  0.00     0.197 A 
ATOM     27  F25 FFB d   1      -1.776   7.662  15.056  0.00  0.00    -0.202 F 
ATOM     28  C18 FFB d   1      -1.525  11.147  13.953  0.00  0.00     0.199 A 
ATOM     29  F24 FFB d   1      -1.128  10.076  16.063  0.00  0.00    -0.199 F 
ATOM     30  C17 FFB d   1      -1.902  11.054  12.591  0.00  0.00     0.197 A 
ATOM     31  F23 FFB d   1      -1.201  12.335  14.479  0.00  0.00    -0.199 F 
ATOM     32  C16 FFB d   1      -2.251   9.778  12.020  0.00  0.00     0.169 A 
ATOM     33  F22 FFB d   1      -1.934  12.156  11.831  0.00  0.00    -0.199 F 
ATOM     34  F21 FFB d   1      -2.609   9.690  10.732  0.00  0.00    -0.202 F 
ENDBRANCH  21  24
ENDBRANCH   3  21
TORSDOF 5
