REMARK  16 active torsions:
REMARK  status: ('A' for Active; 'I' for Inactive)
REMARK    1  A    between atoms: C1_1  and  C2_4 
REMARK    2  A    between atoms: C2_4  and  C3_5 
REMARK    3  A    between atoms: C3_5  and  C4_6 
REMARK    4  A    between atoms: C4_6  and  C5_7 
REMARK    5  A    between atoms: C5_7  and  C6_8 
REMARK    6  A    between atoms: C6_8  and  C7_9 
REMARK    7  A    between atoms: C7_9  and  C8_10 
REMARK    8  A    between atoms: C8_10  and  C9_11 
REMARK    9  A    between atoms: C10_12  and  C11_13 
REMARK   10  A    between atoms: C11_13  and  C12_14 
REMARK   11  A    between atoms: C12_14  and  C13_15 
REMARK   12  A    between atoms: C13_15  and  C14_16 
REMARK   13  A    between atoms: C14_16  and  C15_17 
REMARK   14  A    between atoms: C15_17  and  C16_18 
REMARK   15  A    between atoms: C16_18  and  C17_19 
REMARK   16  A    between atoms: C17_19  and  C18_20 
ROOT
ATOM      1  C9  OLA d   1     -44.862  66.650  -5.053  0.00  0.00    -0.107 C 
ATOM      2  C10 OLA d   1     -44.920  67.978  -4.575  0.00  0.00    -0.107 C 
ATOM      3  H15 OLA d   1     -45.065  65.856  -4.336  0.00  0.00     0.076 H 
ATOM      4  H16 OLA d   1     -45.175  68.099  -3.523  0.00  0.00     0.076 H 
ENDROOT
BRANCH   2   5
ATOM      5  C11 OLA d   1     -44.679  69.208  -5.324  0.00  0.00    -0.050 C 
ATOM      6  H17 OLA d   1     -43.868  69.034  -6.047  0.00  0.00     0.038 H 
ATOM      7  H18 OLA d   1     -44.381  70.001  -4.623  0.00  0.00     0.038 H 
BRANCH   5   8
ATOM      8  C12 OLA d   1     -45.914  69.649  -6.068  0.00  0.00    -0.062 C 
ATOM      9  H19 OLA d   1     -46.726  69.829  -5.348  0.00  0.00     0.033 H 
ATOM     10  H20 OLA d   1     -46.216  68.858  -6.771  0.00  0.00     0.033 H 
BRANCH   8  11
ATOM     11  C13 OLA d   1     -45.641  70.915  -6.834  0.00  0.00    -0.065 C 
ATOM     12  H21 OLA d   1     -44.815  70.742  -7.539  0.00  0.00     0.033 H 
ATOM     13  H22 OLA d   1     -45.361  71.713  -6.130  0.00  0.00     0.033 H 
BRANCH  11  14
ATOM     14  C14 OLA d   1     -46.879  71.337  -7.605  0.00  0.00    -0.065 C 
ATOM     15  H23 OLA d   1     -47.471  70.439  -7.837  0.00  0.00     0.033 H 
ATOM     16  H24 OLA d   1     -46.562  71.819  -8.541  0.00  0.00     0.033 H 
BRANCH  14  17
ATOM     17  C15 OLA d   1     -47.761  72.315  -6.827  0.00  0.00    -0.065 C 
ATOM     18  H25 OLA d   1     -47.191  73.232  -6.617  0.00  0.00     0.033 H 
ATOM     19  H26 OLA d   1     -48.071  71.851  -5.879  0.00  0.00     0.033 H 
BRANCH  17  20
ATOM     20  C16 OLA d   1     -48.999  72.667  -7.646  0.00  0.00    -0.065 C 
ATOM     21  H27 OLA d   1     -48.673  72.965  -8.654  0.00  0.00     0.033 H 
ATOM     22  H28 OLA d   1     -49.506  73.513  -7.159  0.00  0.00     0.033 H 
BRANCH  20  23
ATOM     23  C17 OLA d   1     -50.006  71.517  -7.785  0.00  0.00    -0.069 C 
ATOM     24  H29 OLA d   1     -50.362  71.218  -6.788  0.00  0.00     0.032 H 
ATOM     25  H30 OLA d   1     -49.519  70.659  -8.273  0.00  0.00     0.032 H 
BRANCH  23  26
ATOM     26  C18 OLA d   1     -51.188  71.981  -8.631  0.00  0.00    -0.077 C 
ATOM     27  H31 OLA d   1     -51.911  71.159  -8.732  0.00  0.00     0.027 H 
ATOM     28  H32 OLA d   1     -50.831  72.280  -9.627  0.00  0.00     0.027 H 
ATOM     29  H33 OLA d   1     -51.674  72.839  -8.143  0.00  0.00     0.027 H 
ENDBRANCH  23  26
ENDBRANCH  20  23
ENDBRANCH  17  20
ENDBRANCH  14  17
ENDBRANCH  11  14
ENDBRANCH   8  11
ENDBRANCH   5   8
ENDBRANCH   2   5
BRANCH   1  30
ATOM     30  C8  OLA d   1     -44.558  66.253  -6.403  0.00  0.00    -0.050 C 
ATOM     31  H13 OLA d   1     -43.959  67.025  -6.908  0.00  0.00     0.038 H 
ATOM     32  H14 OLA d   1     -44.010  65.299  -6.412  0.00  0.00     0.038 H 
BRANCH  30  33
ATOM     33  C7  OLA d   1     -45.906  66.099  -7.075  0.00  0.00    -0.062 C 
ATOM     34  H11 OLA d   1     -46.461  65.305  -6.554  0.00  0.00     0.033 H 
ATOM     35  H12 OLA d   1     -46.449  67.051  -6.978  0.00  0.00     0.033 H 
BRANCH  33  36
ATOM     36  C6  OLA d   1     -45.835  65.741  -8.546  0.00  0.00    -0.065 C 
ATOM     37  H9  OLA d   1     -45.094  64.941  -8.690  0.00  0.00     0.033 H 
ATOM     38  H10 OLA d   1     -46.822  65.392  -8.883  0.00  0.00     0.033 H 
BRANCH  36  39
ATOM     39  C5  OLA d   1     -45.423  66.966  -9.368  0.00  0.00    -0.065 C 
ATOM     40  H7  OLA d   1     -44.631  67.506  -8.829  0.00  0.00     0.033 H 
ATOM     41  H8  OLA d   1     -45.039  66.629 -10.342  0.00  0.00     0.033 H 
BRANCH  39  42
ATOM     42  C4  OLA d   1     -46.599  67.915  -9.601  0.00  0.00    -0.065 C 
ATOM     43  H5  OLA d   1     -47.323  67.821  -8.778  0.00  0.00     0.033 H 
ATOM     44  H6  OLA d   1     -46.236  68.952  -9.654  0.00  0.00     0.033 H 
BRANCH  42  45
ATOM     45  C3  OLA d   1     -47.254  67.536 -10.903  0.00  0.00    -0.056 C 
ATOM     46  H3  OLA d   1     -47.242  68.409 -11.573  0.00  0.00     0.033 H 
ATOM     47  H4  OLA d   1     -46.683  66.715 -11.361  0.00  0.00     0.033 H 
BRANCH  45  48
ATOM     48  C2  OLA d   1     -48.686  67.087 -10.712  0.00  0.00     0.016 C 
ATOM     49  H1  OLA d   1     -48.703  66.217 -10.039  0.00  0.00     0.049 H 
ATOM     50  H2  OLA d   1     -49.264  67.909 -10.264  0.00  0.00     0.049 H 
BRANCH  48  51
ATOM     51  C1  OLA d   1     -49.310  66.706 -12.024  0.00  0.00     0.172 C 
ATOM     52  O1  OLA d   1     -49.863  67.550 -12.724  0.00  0.00    -0.648 OA
ATOM     53  O2  OLA d   1     -49.259  65.540 -12.378  0.00  0.00    -0.648 OA
ENDBRANCH  48  51
ENDBRANCH  45  48
ENDBRANCH  42  45
ENDBRANCH  39  42
ENDBRANCH  36  39
ENDBRANCH  33  36
ENDBRANCH  30  33
ENDBRANCH   1  30
TORSDOF 16
