REMARK  27 active torsions:
REMARK  status: ('A' for Active; 'I' for Inactive)
REMARK    1  A    between atoms: CA_2  and  N_1 
REMARK    2  A    between atoms: C_3  and  CA_2 
REMARK    3  A    between atoms: CA_2  and  CB_5 
REMARK       I    between atoms: N_7  and  C_3 
REMARK    4  A    between atoms: CB_5  and  OG_6 
REMARK    5  A    between atoms: CA_8  and  N_7 
REMARK    6  A    between atoms: C_9  and  CA_8 
REMARK    7  A    between atoms: CA_8  and  CB_11 
REMARK       I    between atoms: N_12  and  C_9 
REMARK    8  A    between atoms: C_14  and  CA_13 
REMARK       I    between atoms: N_19  and  C_14 
REMARK    9  A    between atoms: CA_20  and  N_19 
REMARK   10  A    between atoms: C_21  and  CA_20 
REMARK   11  A    between atoms: CA_20  and  CB_23 
REMARK       I    between atoms: N_27  and  C_21 
REMARK   12  A    between atoms: CB_23  and  CG_24 
REMARK   13  A    between atoms: CA_28  and  N_27 
REMARK   14  A    between atoms: C_29  and  CA_28 
REMARK   15  A    between atoms: CA_28  and  CB_31 
REMARK       I    between atoms: N_34  and  C_29 
REMARK   16  A    between atoms: CB_31  and  OG1_32 
REMARK   17  A    between atoms: CB_31  and  CG2_33 
REMARK   18  A    between atoms: CA_35  and  N_34 
REMARK   19  A    between atoms: C_36  and  CA_35 
REMARK   20  A    between atoms: CA_35  and  CB_38 
REMARK       I    between atoms: N_45  and  C_36 
REMARK   21  A    between atoms: CB_38  and  CG_39 
REMARK   22  A    between atoms: CG_39  and  CD_40 
REMARK   23  A    between atoms: CD_40  and  NE_41 
REMARK       I    between atoms: NE_41  and  CZ_42 
REMARK       I    between atoms: CZ_42  and  NH1_43 
REMARK   24  A    between atoms: C_47  and  CA_46 
REMARK       I    between atoms: C_47  and  N_52 
REMARK   25  A    between atoms: N_52  and  CA_53 
REMARK   26  A    between atoms: CA_53  and  C_54 
REMARK   27  A    between atoms: CA_53  and  CB_56 
ROOT
ATOM      1  CA  THR d   1      41.911  59.655  -5.911  0.00  0.00     0.113 C 
ATOM      2  H25 THR d   1      42.824  59.757  -6.516  0.00  0.00     0.091 H 
ENDROOT
BRANCH   1   3
ATOM      3  C   THR d   1      40.809  60.491  -6.539  0.00  0.00     0.243 C 
ATOM      4  O   THR d   1      39.898  60.953  -5.851  0.00  0.00    -0.271 OA
ATOM      5  N   ARG d   1      40.902  60.687  -7.850  0.00  0.00    -0.346 N 
ATOM      6  H31 ARG d   1      41.666  60.282  -8.352  0.00  0.00     0.163 HD
BRANCH   5   7
ATOM      7  CA  ARG d   1      39.915  61.478  -8.571  0.00  0.00     0.089 C 
ATOM      8  H32 ARG d   1      39.087  61.707  -7.883  0.00  0.00     0.087 H 
BRANCH   7   9
ATOM      9  C   ARG d   1      39.335  60.707  -9.752  0.00  0.00     0.243 C 
ATOM     10  O   ARG d   1      39.931  59.741 -10.220  0.00  0.00    -0.271 OA
ATOM     11  N   PRO d   1      38.146  61.114 -10.231  0.00  0.00    -0.337 N 
ATOM     12  CA  PRO d   1      37.418  60.502 -11.349  0.00  0.00     0.091 C 
ATOM     13  CD  PRO d   1      37.364  62.232  -9.668  0.00  0.00    -0.001 C 
ATOM     14  CB  PRO d   1      36.308  61.513 -11.621  0.00  0.00    -0.036 C 
ATOM     15  H44 PRO d   1      36.968  59.570 -10.976  0.00  0.00     0.087 H 
ATOM     16  CG  PRO d   1      35.986  61.983 -10.247  0.00  0.00    -0.048 C 
ATOM     17  H45 PRO d   1      35.438  61.036 -12.096  0.00  0.00     0.036 H 
ATOM     18  H46 PRO d   1      36.664  62.339 -12.254  0.00  0.00     0.036 H 
ATOM     19  H47 PRO d   1      35.446  61.212  -9.677  0.00  0.00     0.035 H 
ATOM     20  H48 PRO d   1      35.389  62.907 -10.270  0.00  0.00     0.035 H 
ATOM     21  H49 PRO d   1      37.348  62.193  -8.569  0.00  0.00     0.064 H 
ATOM     22  H50 PRO d   1      37.764  63.203  -9.995  0.00  0.00     0.064 H 
BRANCH  12  23
ATOM     23  C   PRO d   1      38.167  60.115 -12.623  0.00  0.00     0.241 C 
ATOM     24  O   PRO d   1      38.973  60.876 -13.158  0.00  0.00    -0.271 OA
ATOM     25  N   ALA d   1      37.855  58.915 -13.102  0.00  0.00    -0.345 N 
ATOM     26  H51 ALA d   1      37.187  58.364 -12.602  0.00  0.00     0.163 HD
BRANCH  25  27
ATOM     27  CA  ALA d   1      38.436  58.362 -14.317  0.00  0.00     0.093 C 
ATOM     28  H52 ALA d   1      39.468  58.729 -14.421  0.00  0.00     0.089 H 
BRANCH  27  29
ATOM     29  C   ALA d   1      37.626  58.805 -15.538  0.00  0.00     0.196 C 
ATOM     30  OXT ALA d   1      36.649  59.561 -15.350  0.00  0.00    -0.646 OA
ATOM     31  O   ALA d   1      37.970  58.393 -16.668  0.00  0.00    -0.646 OA
ENDBRANCH  27  29
BRANCH  27  32
ATOM     32  CB  ALA d   1      38.456  56.840 -14.224  0.00  0.00    -0.048 C 
ATOM     33  H53 ALA d   1      38.895  56.422 -15.142  0.00  0.00     0.030 H 
ATOM     34  H54 ALA d   1      37.428  56.466 -14.106  0.00  0.00     0.030 H 
ATOM     35  H55 ALA d   1      39.059  56.533 -13.357  0.00  0.00     0.030 H 
ENDBRANCH  27  32
ENDBRANCH  25  27
ENDBRANCH  12  23
ENDBRANCH   7   9
BRANCH   7  36
ATOM     36  CB  ARG d   1      40.553  62.797  -9.002  0.00  0.00    -0.036 C 
ATOM     37  H33 ARG d   1      39.852  63.339  -9.654  0.00  0.00     0.036 H 
ATOM     38  H34 ARG d   1      41.480  62.584  -9.555  0.00  0.00     0.036 H 
BRANCH  36  39
ATOM     39  CG  ARG d   1      40.881  63.662  -7.799  0.00  0.00    -0.048 C 
ATOM     40  H35 ARG d   1      41.158  63.001  -6.964  0.00  0.00     0.035 H 
ATOM     41  H36 ARG d   1      39.981  64.235  -7.530  0.00  0.00     0.035 H 
BRANCH  39  42
ATOM     42  CD  ARG d   1      42.015  64.639  -8.028  0.00  0.00     0.009 C 
ATOM     43  H37 ARG d   1      41.671  65.448  -8.689  0.00  0.00     0.064 H 
ATOM     44  H38 ARG d   1      42.859  64.114  -8.499  0.00  0.00     0.064 H 
BRANCH  42  45
ATOM     45  NE  ARG d   1      42.448  65.206  -6.753  0.00  0.00    -0.227 N 
ATOM     46  CZ  ARG d   1      43.445  66.073  -6.610  0.00  0.00     0.665 C 
ATOM     47  NH1 ARG d   1      44.128  66.482  -7.671  0.00  0.00    -0.235 N 
ATOM     48  NH2 ARG d   1      43.748  66.538  -5.405  0.00  0.00    -0.235 N 
ATOM     49  H40 ARG d   1      44.901  67.154  -7.559  0.00  0.00     0.174 HD
ATOM     50  H41 ARG d   1      43.886  66.128  -8.607  0.00  0.00     0.174 HD
ATOM     51  H42 ARG d   1      43.217  66.220  -4.582  0.00  0.00     0.174 HD
ATOM     52  H43 ARG d   1      44.514  67.217  -5.293  0.00  0.00     0.174 HD
ATOM     53  H39 ARG d   1      41.944  64.913  -5.904  0.00  0.00     0.177 HD
ENDBRANCH  42  45
ENDBRANCH  39  42
ENDBRANCH  36  39
ENDBRANCH   7  36
ENDBRANCH   5   7
ENDBRANCH   1   3
BRANCH   1  54
ATOM     54  CB  THR d   1      41.480  58.171  -5.919  0.00  0.00     0.060 C 
ATOM     55  H26 THR d   1      41.241  57.874  -6.951  0.00  0.00     0.086 H 
BRANCH  54  56
ATOM     56  OG1 THR d   1      40.318  58.001  -5.100  0.00  0.00    -0.393 OA
ATOM     57  H27 THR d   1      40.518  58.267  -4.210  0.00  0.00     0.210 HD
ENDBRANCH  54  56
BRANCH  54  58
ATOM     58  CG2 THR d   1      42.601  57.289  -5.399  0.00  0.00    -0.050 C 
ATOM     59  H28 THR d   1      42.277  56.238  -5.412  0.00  0.00     0.031 H 
ATOM     60  H29 THR d   1      42.851  57.583  -4.369  0.00  0.00     0.031 H 
ATOM     61  H30 THR d   1      43.487  57.407  -6.039  0.00  0.00     0.031 H 
ENDBRANCH  54  58
ENDBRANCH   1  54
BRANCH   1  62
ATOM     62  N   THR d   1      42.199  60.133  -4.565  0.00  0.00    -0.344 N 
ATOM     63  C   ASP d   1      43.299  60.835  -4.325  0.00  0.00     0.241 C 
ATOM     64  O   ASP d   1      44.126  61.087  -5.200  0.00  0.00    -0.271 OA
ATOM     65  H24 THR d   1      41.565  59.931  -3.819  0.00  0.00     0.163 HD
BRANCH  63  66
ATOM     66  CA  ASP d   1      43.529  61.303  -2.897  0.00  0.00     0.098 C 
ATOM     67  H21 ASP d   1      42.801  60.844  -2.212  0.00  0.00     0.088 H 
BRANCH  66  68
ATOM     68  CB  ASP d   1      43.413  62.828  -2.826  0.00  0.00     0.043 C 
ATOM     69  H22 ASP d   1      42.396  63.118  -3.127  0.00  0.00     0.052 H 
ATOM     70  H23 ASP d   1      44.142  63.270  -3.522  0.00  0.00     0.052 H 
BRANCH  68  71
ATOM     71  CG  ASP d   1      43.680  63.368  -1.437  0.00  0.00     0.175 C 
ATOM     72  OD1 ASP d   1      44.868  63.502  -1.067  0.00  0.00    -0.648 OA
ATOM     73  OD2 ASP d   1      42.704  63.648  -0.710  0.00  0.00    -0.648 OA
ENDBRANCH  68  71
ENDBRANCH  66  68
BRANCH  66  74
ATOM     74  N   ASP d   1      44.880  60.866  -2.578  0.00  0.00    -0.346 N 
ATOM     75  C   PRO d   1      45.097  59.663  -2.061  0.00  0.00     0.241 C 
ATOM     76  O   PRO d   1      44.186  58.887  -1.767  0.00  0.00    -0.271 OA
ATOM     77  H20 ASP d   1      45.652  61.478  -2.750  0.00  0.00     0.163 HD
BRANCH  75  78
ATOM     78  CA  PRO d   1      46.551  59.278  -1.821  0.00  0.00     0.091 C 
ATOM     79  N   PRO d   1      46.640  58.150  -0.890  0.00  0.00    -0.337 N 
ATOM     80  CD  PRO d   1      47.017  56.909  -1.596  0.00  0.00    -0.001 C 
ATOM     81  C   ALA d   1      46.536  58.369   0.428  0.00  0.00     0.243 C 
ATOM     82  CG  PRO d   1      46.777  57.275  -3.047  0.00  0.00    -0.048 C 
ATOM     83  H18 PRO d   1      48.073  56.655  -1.419  0.00  0.00     0.064 H 
ATOM     84  H19 PRO d   1      46.381  56.066  -1.288  0.00  0.00     0.064 H 
ATOM     85  CB  PRO d   1      47.199  58.724  -3.084  0.00  0.00    -0.036 C 
ATOM     86  H16 PRO d   1      47.395  56.662  -3.720  0.00  0.00     0.035 H 
ATOM     87  H17 PRO d   1      45.717  57.161  -3.317  0.00  0.00     0.035 H 
ATOM     88  H14 PRO d   1      48.294  58.822  -3.047  0.00  0.00     0.036 H 
ATOM     89  H15 PRO d   1      46.816  59.228  -3.983  0.00  0.00     0.036 H 
ATOM     90  O   ALA d   1      46.392  59.500   0.891  0.00  0.00    -0.271 OA
ATOM     91  H13 PRO d   1      47.104  60.151  -1.444  0.00  0.00     0.087 H 
BRANCH  81  92
ATOM     92  CA  ALA d   1      46.631  57.155   1.344  0.00  0.00     0.086 C 
ATOM     93  H9  ALA d   1      47.369  56.459   0.918  0.00  0.00     0.086 H 
BRANCH  92  94
ATOM     94  CB  ALA d   1      45.273  56.446   1.416  0.00  0.00    -0.049 C 
ATOM     95  H10 ALA d   1      44.948  56.172   0.401  0.00  0.00     0.030 H 
ATOM     96  H11 ALA d   1      44.531  57.120   1.869  0.00  0.00     0.030 H 
ATOM     97  H12 ALA d   1      45.366  55.537   2.029  0.00  0.00     0.030 H 
ENDBRANCH  92  94
BRANCH  92  98
ATOM     98  N   ALA d   1      47.070  57.522   2.687  0.00  0.00    -0.346 N 
ATOM     99  C   SER d   1      48.283  58.006   2.933  0.00  0.00     0.251 C 
ATOM    100  O   SER d   1      49.126  58.199   2.057  0.00  0.00    -0.271 OA
ATOM    101  H8  ALA d   1      46.434  57.405   3.450  0.00  0.00     0.163 HD
BRANCH  99 102
ATOM    102  CA  SER d   1      48.591  58.318   4.392  0.00  0.00     0.195 C 
ATOM    103  H4  SER d   1      47.751  57.982   5.018  0.00  0.00     0.102 H 
BRANCH 102 104
ATOM    104  CB  SER d   1      48.775  59.827   4.570  0.00  0.00     0.051 C 
ATOM    105  H5  SER d   1      49.562  60.178   3.887  0.00  0.00     0.077 H 
ATOM    106  H6  SER d   1      49.071  60.035   5.609  0.00  0.00     0.077 H 
BRANCH 104 107
ATOM    107  OG  SER d   1      47.570  60.512   4.283  0.00  0.00    -0.398 OA
ATOM    108  H7  SER d   1      46.889  60.212   4.873  0.00  0.00     0.209 HD
ENDBRANCH 104 107
ENDBRANCH 102 104
BRANCH 102 109
ATOM    109  N   SER d   1      49.829  57.597   4.809  0.00  0.00    -0.064 N 
ATOM    110  H1  SER d   1      50.030  57.805   5.774  0.00  0.00     0.275 HD
ATOM    111  H2  SER d   1      50.601  57.894   4.233  0.00  0.00     0.275 HD
ATOM    112  H3  SER d   1      49.692  56.604   4.701  0.00  0.00     0.275 HD
ENDBRANCH 102 109
ENDBRANCH  99 102
ENDBRANCH  92  98
ENDBRANCH  81  92
ENDBRANCH  75  78
ENDBRANCH  66  74
ENDBRANCH  63  66
ENDBRANCH   1  62
TORSDOF 27
