REMARK  16 active torsions:
REMARK  status: ('A' for Active; 'I' for Inactive)
REMARK    1  A    between atoms: P1_1  and  O3P_4 
REMARK    2  A    between atoms: O3P_4  and  C6_6 
REMARK    3  A    between atoms: C6_6  and  C5_7 
REMARK    4  A    between atoms: C5_7  and  C4_9 
REMARK    5  A    between atoms: C5_7  and  O1_8 
REMARK    6  A    between atoms: C4_9  and  C3_11 
REMARK    7  A    between atoms: C4_9  and  O4_10 
REMARK    8  A    between atoms: C3_11  and  C2_13 
REMARK    9  A    between atoms: C3_11  and  O3_12 
REMARK   10  A    between atoms: C2_13  and  C1_15 
REMARK   11  A    between atoms: C2_13  and  O2_14 
REMARK   12  A    between atoms: C1_15  and  N1_16 
REMARK   13  A    between atoms: N1_16  and  C9_21 
REMARK   14  A    between atoms: N1_16  and  C7_17 
REMARK   15  A    between atoms: C7_17  and  C8_18 
REMARK   16  A    between atoms: C9_21  and  P2_22 
ROOT
ATOM      1  C2  PAI d   1       7.458 108.379  75.827  0.00  0.00     0.086 C 
ATOM      2  H9  PAI d   1       8.534 108.156  75.790  0.00  0.00     0.089 H 
ENDROOT
BRANCH   1   3
ATOM      3  C3  PAI d   1       6.704 106.946  75.826  0.00  0.00     0.089 C 
ATOM      4  H7  PAI d   1       5.620 107.099  75.928  0.00  0.00     0.091 H 
BRANCH   3   5
ATOM      5  C4  PAI d   1       7.214 105.791  76.919  0.00  0.00     0.089 C 
ATOM      6  H5  PAI d   1       8.300 105.918  77.043  0.00  0.00     0.091 H 
BRANCH   5   7
ATOM      7  C5  PAI d   1       6.559 105.714  78.391  0.00  0.00     0.084 C 
ATOM      8  H3  PAI d   1       5.477 105.559  78.267  0.00  0.00     0.090 H 
BRANCH   7   9
ATOM      9  C6  PAI d   1       7.124 104.557  79.378  0.00  0.00     0.059 C 
ATOM     10  H1  PAI d   1       8.146 104.847  79.663  0.00  0.00     0.079 H 
ATOM     11  H2  PAI d   1       6.482 104.552  80.271  0.00  0.00     0.079 H 
BRANCH   9  12
ATOM     12  O3P PAI d   1       7.191 103.130  78.871  0.00  0.00    -0.280 OA
BRANCH  12  13
ATOM     13  P1  PAI d   1       7.502 101.747  79.845  0.00  0.00     0.422 P 
ATOM     14  O4P PAI d   1       8.952 101.910  80.556  0.00  0.00    -0.617 OA
ATOM     15  O2P PAI d   1       7.509 100.413  78.933  0.00  0.00    -0.617 OA
ATOM     16  O1P PAI d   1       6.370 101.558  81.022  0.00  0.00    -0.617 OA
ENDBRANCH  12  13
ENDBRANCH   9  12
ENDBRANCH   7   9
BRANCH   7  17
ATOM     17  O1  PAI d   1       6.797 106.962  79.064  0.00  0.00    -0.391 OA
ATOM     18  H4  PAI d   1       6.399 107.668  78.569  0.00  0.00     0.210 HD
ENDBRANCH   7  17
ENDBRANCH   5   7
BRANCH   5  19
ATOM     19  O4  PAI d   1       6.920 104.503  76.332  0.00  0.00    -0.390 OA
ATOM     20  H6  PAI d   1       7.197 103.815  76.926  0.00  0.00     0.210 HD
ENDBRANCH   5  19
ENDBRANCH   3   5
BRANCH   3  21
ATOM     21  O3  PAI d   1       7.074 106.371  74.537  0.00  0.00    -0.390 OA
ATOM     22  H8  PAI d   1       6.671 105.516  74.446  0.00  0.00     0.210 HD
ENDBRANCH   3  21
ENDBRANCH   1   3
BRANCH   1  23
ATOM     23  C1  PAI d   1       7.141 109.407  74.657  0.00  0.00     0.111 C 
ATOM     24  H11 PAI d   1       7.636 109.022  73.753  0.00  0.00     0.080 H 
ATOM     25  H12 PAI d   1       7.597 110.366  74.945  0.00  0.00     0.080 H 
BRANCH  23  26
ATOM     26  N1  PAI d   1       5.714 109.702  74.278  0.00  0.00    -0.047 N 
ATOM     27  H13 PAI d   1       5.232 108.822  74.370  0.00  0.00     0.281 HD
BRANCH  26  28
ATOM     28  C9  PAI d   1       5.053 110.653  75.269  0.00  0.00     0.185 C 
ATOM     29  H16 PAI d   1       5.292 110.316  76.288  0.00  0.00     0.098 H 
ATOM     30  H17 PAI d   1       3.964 110.615  75.116  0.00  0.00     0.098 H 
BRANCH  28  31
ATOM     31  P2  PAI d   1       5.589 112.336  75.092  0.00  0.00     0.286 P 
ATOM     32  O7P PAI d   1       7.060 112.298  74.476  0.00  0.00    -0.638 OA
ATOM     33  O6P PAI d   1       5.588 113.196  76.467  0.00  0.00    -0.638 OA
ATOM     34  O5P PAI d   1       4.534 112.981  74.049  0.00  0.00    -0.638 OA
ENDBRANCH  28  31
ENDBRANCH  26  28
BRANCH  26  35
ATOM     35  C7  PAI d   1       5.460 110.148  72.838  0.00  0.00     0.163 C 
ATOM     36  H14 PAI d   1       6.349 110.695  72.491  0.00  0.00     0.093 H 
ATOM     37  H15 PAI d   1       4.592 110.824  72.841  0.00  0.00     0.093 H 
BRANCH  35  38
ATOM     38  C8  PAI d   1       5.174 109.006  71.821  0.00  0.00     0.199 C 
ATOM     39  O6  PAI d   1       5.959 108.875  70.864  0.00  0.00    -0.647 OA
ATOM     40  O5  PAI d   1       4.130 108.260  71.952  0.00  0.00    -0.647 OA
ENDBRANCH  35  38
ENDBRANCH  26  35
ENDBRANCH  23  26
ENDBRANCH   1  23
BRANCH   1  41
ATOM     41  O2  PAI d   1       7.180 109.116  77.005  0.00  0.00    -0.391 OA
ATOM     42  H10 PAI d   1       7.345 108.570  77.765  0.00  0.00     0.210 HD
ENDBRANCH   1  41
TORSDOF 16
