REMARK  8 active torsions:
REMARK  status: ('A' for Active; 'I' for Inactive)
REMARK    1  A    between atoms: C1_1  and  C2_2 
REMARK    2  A    between atoms: C2_2  and  C3_3 
REMARK    3  A    between atoms: C3_3  and  O1_4 
REMARK    4  A    between atoms: C3_3  and  C4_5 
REMARK    5  A    between atoms: C4_5  and  C5_6 
REMARK    6  A    between atoms: C5_6  and  C6_7 
REMARK    7  A    between atoms: C6_7  and  C7_8 
REMARK    8  A    between atoms: C7_8  and  C8_9 
ROOT
ATOM      1  C4  3OL d   1       0.469   0.027   5.398  0.00  0.00    -0.041 C 
ATOM      2  H8  3OL d   1      -0.448   0.319   5.931  0.00  0.00     0.036 H 
ATOM      3  H9  3OL d   1       1.283   0.718   5.664  0.00  0.00     0.036 H 
ENDROOT
BRANCH   1   4
ATOM      4  C3  3OL d   1       0.222   0.105   3.910  0.00  0.00     0.035 C 
ATOM      5  H6  3OL d   1       0.728  -0.724   3.395  0.00  0.00     0.082 H 
BRANCH   4   6
ATOM      6  C2  3OL d   1      -1.275   0.006   3.744  0.00  0.00    -0.044 C 
ATOM      7  H4  3OL d   1      -1.706   0.721   4.460  0.00  0.00     0.036 H 
ATOM      8  H5  3OL d   1      -1.488   0.341   2.718  0.00  0.00     0.036 H 
BRANCH   6   9
ATOM      9  C1  3OL d   1      -2.013  -1.227   3.921  0.00  0.00    -0.074 C 
ATOM     10  H1  3OL d   1      -3.083  -1.042   3.746  0.00  0.00     0.027 H 
ATOM     11  H2  3OL d   1      -1.867  -1.597   4.946  0.00  0.00     0.027 H 
ATOM     12  H3  3OL d   1      -1.649  -1.978   3.205  0.00  0.00     0.027 H 
ENDBRANCH   6   9
ENDBRANCH   4   6
BRANCH   4  13
ATOM     13  O1  3OL d   1       0.687   1.398   3.350  0.00  0.00    -0.396 OA
ATOM     14  H7  3OL d   1       1.629   1.466   3.452  0.00  0.00     0.210 HD
ENDBRANCH   4  13
ENDBRANCH   1   4
BRANCH   1  15
ATOM     15  C5  3OL d   1       0.858  -1.384   5.814  0.00  0.00    -0.063 C 
ATOM     16  H10 3OL d   1       1.732  -1.711   5.232  0.00  0.00     0.033 H 
ATOM     17  H11 3OL d   1       0.017  -2.067   5.627  0.00  0.00     0.033 H 
BRANCH  15  18
ATOM     18  C6  3OL d   1       1.206  -1.397   7.314  0.00  0.00    -0.065 C 
ATOM     19  H12 3OL d   1       1.572  -0.400   7.600  0.00  0.00     0.033 H 
ATOM     20  H13 3OL d   1       1.997  -2.142   7.487  0.00  0.00     0.033 H 
BRANCH  18  21
ATOM     21  C7  3OL d   1       0.014  -1.744   8.180  0.00  0.00    -0.069 C 
ATOM     22  H14 3OL d   1      -0.875  -1.859   7.543  0.00  0.00     0.032 H 
ATOM     23  H15 3OL d   1      -0.156  -0.933   8.903  0.00  0.00     0.032 H 
BRANCH  21  24
ATOM     24  C8  3OL d   1       0.266  -3.067   8.947  0.00  0.00    -0.077 C 
ATOM     25  H16 3OL d   1      -0.610  -3.302   9.570  0.00  0.00     0.027 H 
ATOM     26  H17 3OL d   1       1.153  -2.956   9.588  0.00  0.00     0.027 H 
ATOM     27  H18 3OL d   1       0.434  -3.882   8.227  0.00  0.00     0.027 H 
ENDBRANCH  21  24
ENDBRANCH  18  21
ENDBRANCH  15  18
ENDBRANCH   1  15
TORSDOF 8
