REMARK  9 active torsions:
REMARK  status: ('A' for Active; 'I' for Inactive)
REMARK    1  A    between atoms: C1_2  and  C2_4 
REMARK    2  A    between atoms: C2_4  and  C3_6 
REMARK    3  A    between atoms: C2_4  and  O2_5 
REMARK    4  A    between atoms: C3_6  and  C4_8 
REMARK    5  A    between atoms: C3_6  and  O3_7 
REMARK    6  A    between atoms: C4_8  and  C5_10 
REMARK    7  A    between atoms: C4_8  and  O4_9 
REMARK    8  A    between atoms: C5_10  and  O5_11 
REMARK    9  A    between atoms: O5_11  and  P_12 
ROOT
ATOM      1  C4  PA5 d   1      17.387   8.481  31.148  0.00  0.00     0.084 C 
ATOM      2  H5  PA5 d   1      16.819   7.578  31.416  0.00  0.00     0.090 H 
ENDROOT
BRANCH   1   3
ATOM      3  C3  PA5 d   1      16.735   9.239  29.941  0.00  0.00     0.096 C 
ATOM      4  H3  PA5 d   1      17.316  10.137  29.683  0.00  0.00     0.091 H 
BRANCH   3   5
ATOM      5  C2  PA5 d   1      15.262   9.640  30.275  0.00  0.00     0.146 C 
ATOM      6  H1  PA5 d   1      15.211  10.314  31.143  0.00  0.00     0.104 H 
BRANCH   5   7
ATOM      7  C1  PA5 d   1      14.853  10.427  28.987  0.00  0.00     0.205 C 
ATOM      8  O1A PA5 d   1      13.852   9.746  28.448  0.00  0.00    -0.646 OA
ATOM      9  O1  PA5 d   1      15.255  11.455  28.456  0.00  0.00    -0.646 OA
ENDBRANCH   5   7
BRANCH   5  10
ATOM     10  O2  PA5 d   1      14.551   8.427  30.606  0.00  0.00    -0.382 OA
ATOM     11  H2  PA5 d   1      13.648   8.637  30.815  0.00  0.00     0.210 HD
ENDBRANCH   5  10
ENDBRANCH   3   5
BRANCH   3  12
ATOM     12  O3  PA5 d   1      16.752   8.306  28.882  0.00  0.00    -0.390 OA
ATOM     13  H4  PA5 d   1      17.649   8.054  28.698  0.00  0.00     0.210 HD
ENDBRANCH   3  12
ENDBRANCH   1   3
BRANCH   1  14
ATOM     14  C5  PA5 d   1      18.839   8.110  30.740  0.00  0.00     0.059 C 
ATOM     15  H7  PA5 d   1      18.840   7.458  29.854  0.00  0.00     0.079 H 
ATOM     16  H8  PA5 d   1      19.360   7.606  31.567  0.00  0.00     0.079 H 
BRANCH  14  17
ATOM     17  O5  PA5 d   1      19.483   9.426  30.431  0.00  0.00    -0.280 OA
BRANCH  17  18
ATOM     18  P   PA5 d   1      21.006   9.120  29.941  0.00  0.00     0.422 P 
ATOM     19  O3P PA5 d   1      21.626  10.493  29.635  0.00  0.00    -0.617 OA
ATOM     20  O2P PA5 d   1      20.998   8.232  28.707  0.00  0.00    -0.617 OA
ATOM     21  O1P PA5 d   1      21.769   8.325  31.023  0.00  0.00    -0.617 OA
ENDBRANCH  17  18
ENDBRANCH  14  17
ENDBRANCH   1  14
BRANCH   1  22
ATOM     22  O4  PA5 d   1      17.389   9.426  32.226  0.00  0.00    -0.391 OA
ATOM     23  H6  PA5 d   1      17.843  10.215  31.953  0.00  0.00     0.210 HD
ENDBRANCH   1  22
TORSDOF 9
