REMARK  23 active torsions:
REMARK  status: ('A' for Active; 'I' for Inactive)
REMARK    1  A    between atoms: N4B_18  and  C1A_1 
REMARK    2  A    between atoms: C2A_2  and  O2A_8 
REMARK    3  A    between atoms: C3A_3  and  O3A_9 
REMARK    4  A    between atoms: C4A_4  and  O4A_10 
REMARK    5  A    between atoms: C5A_5  and  C6A_6 
REMARK    6  A    between atoms: C6A_6  and  O6A_11 
REMARK    7  A    between atoms: O4C_30  and  C1B_12 
REMARK    8  A    between atoms: C2B_13  and  O2B_19 
REMARK    9  A    between atoms: C3B_14  and  O3B_20 
REMARK   10  A    between atoms: C4B_15  and  N4B_18 
REMARK   11  A    between atoms: C5B_16  and  C6B_17 
REMARK   12  A    between atoms: O4D_42  and  C1C_22 
REMARK   13  A    between atoms: C2C_23  and  O2C_28 
REMARK   14  A    between atoms: C3C_24  and  O3C_29 
REMARK   15  A    between atoms: C4C_25  and  O4C_30 
REMARK   16  A    between atoms: C5C_26  and  C6C_27 
REMARK   17  A    between atoms: C6C_27  and  O6C_32 
REMARK   18  A    between atoms: C1D_33  and  O1D_39 
REMARK   19  A    between atoms: C2D_34  and  O2D_40 
REMARK   20  A    between atoms: C3D_35  and  O3D_41 
REMARK   21  A    between atoms: C4D_36  and  O4D_42 
REMARK   22  A    between atoms: C5D_37  and  C6D_38 
REMARK   23  A    between atoms: C6D_38  and  O6D_44 
ROOT
ATOM      1  C1B GAC d   1      31.706  18.270   3.522  0.00  0.00     0.159 C 
ATOM      2  C2B GAC d   1      33.179  18.615   3.786  0.00  0.00     0.110 C 
ATOM      3  C3B GAC d   1      33.494  18.445   5.286  0.00  0.00     0.094 C 
ATOM      4  C4B GAC d   1      32.573  19.381   6.087  0.00  0.00     0.153 C 
ATOM      5  C5B GAC d   1      31.127  18.938   5.790  0.00  0.00     0.068 C 
ATOM      6  O5B GAC d   1      30.863  19.049   4.371  0.00  0.00    -0.351 OA
ATOM      7  H14 GAC d   1      31.447  18.458   2.470  0.00  0.00     0.133 H 
ATOM      8  H15 GAC d   1      33.373  19.655   3.487  0.00  0.00     0.094 H 
ATOM      9  H16 GAC d   1      33.295  17.404   5.582  0.00  0.00     0.090 H 
ATOM     10  H17 GAC d   1      32.715  20.417   5.745  0.00  0.00     0.092 H 
ATOM     11  H18 GAC d   1      31.018  17.890   6.107  0.00  0.00     0.086 H 
ENDROOT
BRANCH   1  12
ATOM     12  O4C GAC d   1      31.575  16.907   3.824  0.00  0.00    -0.348 OA
BRANCH  12  13
ATOM     13  C4C GAC d   1      30.706  16.013   3.094  0.00  0.00     0.096 C 
ATOM     14  C3C GAC d   1      30.997  16.081   1.581  0.00  0.00     0.092 C 
ATOM     15  C2C GAC d   1      30.334  14.921   0.837  0.00  0.00     0.110 C 
ATOM     16  H28 GAC d   1      32.085  16.038   1.426  0.00  0.00     0.091 H 
ATOM     17  C1C GAC d   1      30.703  13.600   1.485  0.00  0.00     0.159 C 
ATOM     18  H27 GAC d   1      29.242  15.047   0.865  0.00  0.00     0.094 H 
ATOM     19  O5C GAC d   1      30.299  13.612   2.847  0.00  0.00    -0.348 OA
ATOM     20  H26 GAC d   1      30.186  12.778   0.968  0.00  0.00     0.133 H 
ATOM     21  C5C GAC d   1      30.968  14.611   3.640  0.00  0.00     0.089 C 
ATOM     22  H30 GAC d   1      32.052  14.431   3.595  0.00  0.00     0.090 H 
ATOM     23  H29 GAC d   1      29.656  16.290   3.268  0.00  0.00     0.091 H 
BRANCH  14  24
ATOM     24  O3C GAC d   1      30.488  17.290   1.041  0.00  0.00    -0.390 OA
ATOM     25  H34 GAC d   1      29.549  17.327   1.181  0.00  0.00     0.210 HD
ENDBRANCH  14  24
BRANCH  15  26
ATOM     26  O2C GAC d   1      30.778  14.922  -0.512  0.00  0.00    -0.388 OA
ATOM     27  H33 GAC d   1      31.722  14.819  -0.533  0.00  0.00     0.210 HD
ENDBRANCH  15  26
BRANCH  17  28
ATOM     28  O4D GAC d   1      32.086  13.428   1.353  0.00  0.00    -0.348 OA
BRANCH  28  29
ATOM     29  C4D GAC d   1      32.558  12.144   0.912  0.00  0.00     0.096 C 
ATOM     30  C3D GAC d   1      33.485  12.341  -0.290  0.00  0.00     0.092 C 
ATOM     31  C2D GAC d   1      34.131  11.014  -0.672  0.00  0.00     0.110 C 
ATOM     32  H38 GAC d   1      34.273  13.059  -0.020  0.00  0.00     0.091 H 
ATOM     33  C1D GAC d   1      34.835  10.433   0.556  0.00  0.00     0.156 C 
ATOM     34  H37 GAC d   1      33.355  10.313  -1.013  0.00  0.00     0.094 H 
ATOM     35  O5D GAC d   1      33.892  10.234   1.617  0.00  0.00    -0.349 OA
ATOM     36  H36 GAC d   1      35.308   9.476   0.292  0.00  0.00     0.133 H 
ATOM     37  C5D GAC d   1      33.303  11.471   2.063  0.00  0.00     0.089 C 
ATOM     38  H40 GAC d   1      34.093  12.150   2.416  0.00  0.00     0.090 H 
ATOM     39  H39 GAC d   1      31.704  11.517   0.615  0.00  0.00     0.091 H 
BRANCH  30  40
ATOM     40  O3D GAC d   1      32.748  12.854  -1.393  0.00  0.00    -0.390 OA
ATOM     41  H45 GAC d   1      32.363  13.689  -1.154  0.00  0.00     0.210 HD
ENDBRANCH  30  40
BRANCH  31  42
ATOM     42  O2D GAC d   1      35.070  11.222  -1.723  0.00  0.00    -0.388 OA
ATOM     43  H44 GAC d   1      35.742  11.827  -1.431  0.00  0.00     0.210 HD
ENDBRANCH  31  42
BRANCH  33  44
ATOM     44  O1D GAC d   1      35.792  11.329   1.000  0.00  0.00    -0.369 OA
ATOM     45  H43 GAC d   1      36.227  10.972   1.765  0.00  0.00     0.212 HD
ENDBRANCH  33  44
BRANCH  37  46
ATOM     46  C6D GAC d   1      32.380  11.136   3.217  0.00  0.00     0.043 C 
ATOM     47  H41 GAC d   1      31.943  12.066   3.609  0.00  0.00     0.078 H 
ATOM     48  H42 GAC d   1      32.961  10.642   4.009  0.00  0.00     0.078 H 
BRANCH  46  49
ATOM     49  O6D GAC d   1      31.331  10.270   2.802  0.00  0.00    -0.398 OA
ATOM     50  H46 GAC d   1      30.823  10.694   2.120  0.00  0.00     0.209 HD
ENDBRANCH  46  49
ENDBRANCH  37  46
ENDBRANCH  28  29
ENDBRANCH  17  28
BRANCH  21  51
ATOM     51  C6C GAC d   1      30.513  14.442   5.079  0.00  0.00     0.043 C 
ATOM     52  H31 GAC d   1      29.414  14.467   5.113  0.00  0.00     0.078 H 
ATOM     53  H32 GAC d   1      30.917  15.268   5.682  0.00  0.00     0.078 H 
BRANCH  51  54
ATOM     54  O6C GAC d   1      30.964  13.212   5.619  0.00  0.00    -0.398 OA
ATOM     55  H35 GAC d   1      31.913  13.187   5.596  0.00  0.00     0.209 HD
ENDBRANCH  51  54
ENDBRANCH  21  51
ENDBRANCH  12  13
ENDBRANCH   1  12
BRANCH   2  56
ATOM     56  O2B GAC d   1      34.002  17.737   3.025  0.00  0.00    -0.388 OA
ATOM     57  H24 GAC d   1      34.915  17.945   3.183  0.00  0.00     0.210 HD
ENDBRANCH   2  56
BRANCH   3  58
ATOM     58  O3B GAC d   1      34.864  18.740   5.542  0.00  0.00    -0.391 OA
ATOM     59  H25 GAC d   1      35.043  18.627   6.468  0.00  0.00     0.210 HD
ENDBRANCH   3  58
BRANCH   5  60
ATOM     60  C6B GAC d   1      30.066  19.772   6.483  0.00  0.00    -0.050 C 
ATOM     61  H19 GAC d   1      29.069  19.390   6.218  0.00  0.00     0.031 H 
ATOM     62  H20 GAC d   1      30.155  20.820   6.161  0.00  0.00     0.031 H 
ATOM     63  H21 GAC d   1      30.205  19.710   7.572  0.00  0.00     0.031 H 
ENDBRANCH   5  60
BRANCH   4  64
ATOM     64  N4B GAC d   1      32.876  19.318   7.536  0.00  0.00    -0.059 N 
ATOM     65  H22 GAC d   1      32.080  18.912   8.003  0.00  0.00     0.278 HD
ATOM     66  H23 GAC d   1      33.679  18.721   7.660  0.00  0.00     0.278 HD
BRANCH  64  67
ATOM     67  C1A GAC d   1      33.170  20.622   8.181  0.00  0.00     0.130 C 
ATOM     68  C2A GAC d   1      34.370  20.482   9.121  0.00  0.00     0.090 C 
ATOM     69  C3A GAC d   1      33.998  19.616  10.323  0.00  0.00     0.087 C 
ATOM     70  H2  GAC d   1      34.672  21.480   9.472  0.00  0.00     0.090 H 
ATOM     71  C4A GAC d   1      32.901  20.289  11.143  0.00  0.00     0.068 C 
ATOM     72  H3  GAC d   1      33.637  18.640   9.967  0.00  0.00     0.091 H 
ATOM     73  C5A GAC d   1      31.630  20.514  10.300  0.00  0.00    -0.004 C 
ATOM     74  H4  GAC d   1      33.269  21.265  11.493  0.00  0.00     0.087 H 
ATOM     75  C7A GAC d   1      31.948  21.184   8.934  0.00  0.00    -0.028 C 
ATOM     76  H5  GAC d   1      31.182  19.530  10.096  0.00  0.00     0.047 H 
ATOM     77  H8  GAC d   1      31.067  21.064   8.286  0.00  0.00     0.036 H 
ATOM     78  H9  GAC d   1      32.126  22.254   9.116  0.00  0.00     0.036 H 
ATOM     79  H1  GAC d   1      33.435  21.339   7.390  0.00  0.00     0.088 H 
BRANCH  68  80
ATOM     80  O2A GAC d   1      35.453  19.879   8.431  0.00  0.00    -0.391 OA
ATOM     81  H10 GAC d   1      36.198  19.806   9.016  0.00  0.00     0.210 HD
ENDBRANCH  68  80
BRANCH  69  82
ATOM     82  O3A GAC d   1      35.144  19.427  11.142  0.00  0.00    -0.390 OA
ATOM     83  H11 GAC d   1      35.829  19.008  10.634  0.00  0.00     0.210 HD
ENDBRANCH  69  82
BRANCH  71  84
ATOM     84  O4A GAC d   1      32.594  19.474  12.273  0.00  0.00    -0.392 OA
ATOM     85  H12 GAC d   1      31.936  19.907  12.805  0.00  0.00     0.210 HD
ENDBRANCH  71  84
BRANCH  73  86
ATOM     86  C6A GAC d   1      30.612  21.349  11.082  0.00  0.00     0.022 C 
ATOM     87  H6  GAC d   1      30.362  20.824  12.016  0.00  0.00     0.074 H 
ATOM     88  H7  GAC d   1      29.704  21.467  10.473  0.00  0.00     0.074 H 
BRANCH  86  89
ATOM     89  O6A GAC d   1      31.127  22.642  11.401  0.00  0.00    -0.400 OA
ATOM     90  H13 GAC d   1      31.909  22.548  11.932  0.00  0.00     0.209 HD
ENDBRANCH  86  89
ENDBRANCH  73  86
ENDBRANCH  64  67
ENDBRANCH   4  64
TORSDOF 23
