REMARK  23 active torsions:
REMARK  status: ('A' for Active; 'I' for Inactive)
REMARK       I    between atoms: N_1  and  C28_42 
REMARK    1  A    between atoms: N_1  and  CA_2 
REMARK    2  A    between atoms: CA_2  and  C_8 
REMARK    3  A    between atoms: CA_2  and  CB_3 
REMARK    4  A    between atoms: CB_3  and  CG_4 
REMARK    5  A    between atoms: CG_4  and  CD_5 
REMARK    6  A    between atoms: C2_12  and  C1_11 
REMARK    7  A    between atoms: C1_11  and  OP4_44 
REMARK    8  A    between atoms: C3_13  and  C2_12 
REMARK    9  A    between atoms: C4_14  and  C3_13 
REMARK   10  A    between atoms: N5_15  and  C4_14 
REMARK       I    between atoms: C6_16  and  N5_15 
REMARK   11  A    between atoms: C7_18  and  C6_16 
REMARK   12  A    between atoms: S_19  and  C7_18 
REMARK   13  A    between atoms: C8_20  and  S_19 
REMARK   14  A    between atoms: C9_21  and  C8_20 
REMARK       I    between atoms: N10_23  and  C9_21 
REMARK   15  A    between atoms: C22_36  and  N10_23 
REMARK   16  A    between atoms: N10_23  and  C11_24 
REMARK   17  A    between atoms: C11_24  and  C12_25 
REMARK   18  A    between atoms: C12_25  and  C13_26 
REMARK   19  A    between atoms: C13_26  and  C14_27 
REMARK   20  A    between atoms: C17_31  and  N18_32 
REMARK   21  A    between atoms: C20_34  and  N21_35 
REMARK   22  A    between atoms: C28_42  and  C25_39 
REMARK   23  A    between atoms: OP4_44  and  P_45 
ROOT
ATOM      1  C9  U89 d   1      45.594   6.319  -9.794  0.00  0.00     0.233 C 
ATOM      2  O9  U89 d   1      44.584   6.998 -10.050  0.00  0.00    -0.272 OA
ATOM      3  N10 U89 d   1      45.589   4.979 -10.071  0.00  0.00    -0.317 N 
ENDROOT
BRANCH   3   4
ATOM      4  C22 U89 d   1      46.604   4.354 -10.730  0.00  0.00     0.037 A 
ATOM      5  C23 U89 d   1      47.340   4.997 -11.659  0.00  0.00    -0.056 A 
ATOM      6  C24 U89 d   1      48.338   4.366 -12.309  0.00  0.00    -0.066 A 
ATOM      7  H31 U89 d   1      47.126   6.035 -11.886  0.00  0.00     0.087 H 
ATOM      8  C25 U89 d   1      48.613   3.083 -12.041  0.00  0.00     0.032 A 
ATOM      9  H32 U89 d   1      48.920   4.899 -13.052  0.00  0.00     0.085 H 
ATOM     10  C26 U89 d   1      47.899   2.435 -11.111  0.00  0.00    -0.066 A 
ATOM     11  C27 U89 d   1      46.897   3.064 -10.456  0.00  0.00    -0.056 A 
ATOM     12  H33 U89 d   1      48.126   1.400 -10.882  0.00  0.00     0.085 H 
ATOM     13  H34 U89 d   1      46.325   2.530  -9.706  0.00  0.00     0.087 H 
BRANCH   8  14
ATOM     14  C28 U89 d   1      49.568   2.414 -12.804  0.00  0.00     0.252 C 
ATOM     15  N   U89 d   1      50.790   2.434 -12.240  0.00  0.00    -0.342 N 
ATOM     16  H1  U89 d   1      50.884   2.903 -11.362  0.00  0.00     0.163 HD
ATOM     17  O28 U89 d   1      49.269   1.874 -13.885  0.00  0.00    -0.268 OA
BRANCH  15  18
ATOM     18  CA  U89 d   1      51.997   1.822 -12.811  0.00  0.00     0.097 C 
ATOM     19  H2  U89 d   1      52.816   2.047 -12.112  0.00  0.00     0.089 H 
BRANCH  18  20
ATOM     20  C   U89 d   1      52.505   2.301 -14.196  0.00  0.00     0.196 C 
ATOM     21  OT2 U89 d   1      52.787   1.512 -15.119  0.00  0.00    -0.646 OA
ATOM     22  OT1 U89 d   1      52.671   3.518 -14.342  0.00  0.00    -0.646 OA
ENDBRANCH  18  20
BRANCH  18  23
ATOM     23  CB  U89 d   1      51.757   0.308 -12.775  0.00  0.00    -0.028 C 
ATOM     24  H3  U89 d   1      52.512  -0.222 -13.374  0.00  0.00     0.037 H 
ATOM     25  H4  U89 d   1      50.753   0.062 -13.150  0.00  0.00     0.037 H 
BRANCH  23  26
ATOM     26  CG  U89 d   1      51.885  -0.044 -11.321  0.00  0.00     0.018 C 
ATOM     27  H5  U89 d   1      51.161   0.560 -10.754  0.00  0.00     0.049 H 
ATOM     28  H6  U89 d   1      52.906   0.204 -10.994  0.00  0.00     0.049 H 
BRANCH  26  29
ATOM     29  CD  U89 d   1      51.632  -1.489 -11.018  0.00  0.00     0.172 C 
ATOM     30  OE2 U89 d   1      52.584  -2.234 -10.763  0.00  0.00    -0.648 OA
ATOM     31  OE1 U89 d   1      50.462  -1.852 -10.990  0.00  0.00    -0.648 OA
ENDBRANCH  26  29
ENDBRANCH  23  26
ENDBRANCH  18  23
ENDBRANCH  15  18
ENDBRANCH   8  14
ENDBRANCH   3   4
BRANCH   3  32
ATOM     32  C11 U89 d   1      44.322   4.255 -10.285  0.00  0.00     0.003 C 
ATOM     33  H20 U89 d   1      44.554   3.203 -10.508  0.00  0.00     0.065 H 
ATOM     34  H21 U89 d   1      43.803   4.706 -11.144  0.00  0.00     0.065 H 
BRANCH  32  35
ATOM     35  C12 U89 d   1      43.381   4.299  -9.068  0.00  0.00    -0.046 C 
ATOM     36  H22 U89 d   1      42.361   4.158  -9.455  0.00  0.00     0.035 H 
ATOM     37  H23 U89 d   1      43.473   5.307  -8.637  0.00  0.00     0.035 H 
BRANCH  35  38
ATOM     38  C13 U89 d   1      43.548   3.308  -7.903  0.00  0.00    -0.031 C 
ATOM     39  H24 U89 d   1      42.888   3.638  -7.088  0.00  0.00     0.040 H 
ATOM     40  H25 U89 d   1      44.595   3.358  -7.570  0.00  0.00     0.040 H 
BRANCH  38  41
ATOM     41  C14 U89 d   1      43.225   1.841  -8.197  0.00  0.00     0.056 A 
ATOM     42  C20 U89 d   1      44.192   0.909  -7.993  0.00  0.00     0.152 A 
ATOM     43  N19 U89 d   1      44.029  -0.388  -8.286  0.00  0.00    -0.047 NA
ATOM     44  C17 U89 d   1      42.843  -0.791  -8.736  0.00  0.00     0.702 A 
ATOM     45  N16 U89 d   1      41.813   0.109  -8.902  0.00  0.00    -0.154 N 
ATOM     46  C15 U89 d   1      41.951   1.472  -8.647  0.00  0.00     0.269 A 
ATOM     47  H26 U89 d   1      40.928  -0.231  -9.219  0.00  0.00     0.187 HD
ATOM     48  O15 U89 d   1      40.994   2.233  -8.817  0.00  0.00    -0.267 OA
BRANCH  42  49
ATOM     49  N21 U89 d   1      45.377   1.269  -7.522  0.00  0.00    -0.383 N 
ATOM     50  H29 U89 d   1      46.108   0.559  -7.369  0.00  0.00     0.157 HD
ATOM     51  H30 U89 d   1      45.568   2.259  -7.309  0.00  0.00     0.157 HD
ENDBRANCH  42  49
BRANCH  44  52
ATOM     52  N18 U89 d   1      42.631  -2.071  -9.015  0.00  0.00    -0.233 N 
ATOM     53  H27 U89 d   1      43.390  -2.757  -8.896  0.00  0.00     0.174 HD
ATOM     54  H28 U89 d   1      41.707  -2.379  -9.350  0.00  0.00     0.174 HD
ENDBRANCH  44  52
ENDBRANCH  38  41
ENDBRANCH  35  38
ENDBRANCH  32  35
ENDBRANCH   3  32
BRANCH   1  55
ATOM     55  C8  U89 d   1      46.854   7.082  -9.321  0.00  0.00     0.051 C 
ATOM     56  H18 U89 d   1      46.900   8.007  -9.915  0.00  0.00     0.063 H 
ATOM     57  H19 U89 d   1      47.716   6.444  -9.568  0.00  0.00     0.063 H 
BRANCH  55  58
ATOM     58  S   U89 d   1      47.059   7.573  -7.591  0.00  0.00    -0.150 SA
BRANCH  58  59
ATOM     59  C7  U89 d   1      45.849   8.901  -7.517  0.00  0.00     0.051 C 
ATOM     60  H16 U89 d   1      45.282   8.830  -6.577  0.00  0.00     0.063 H 
ATOM     61  H17 U89 d   1      45.158   8.818  -8.369  0.00  0.00     0.063 H 
BRANCH  59  62
ATOM     62  C6  U89 d   1      46.572  10.238  -7.576  0.00  0.00     0.226 C 
ATOM     63  O6  U89 d   1      46.836  10.743  -8.671  0.00  0.00    -0.273 OA
ATOM     64  N5  U89 d   1      46.885  10.843  -6.425  0.00  0.00    -0.360 N 
ATOM     65  H15 U89 d   1      46.599  10.428  -5.561  0.00  0.00     0.162 HD
BRANCH  64  66
ATOM     66  C4  U89 d   1      47.632  12.090  -6.401  0.00  0.00    -0.005 C 
ATOM     67  H13 U89 d   1      47.269  12.737  -7.213  0.00  0.00     0.064 H 
ATOM     68  H14 U89 d   1      48.698  11.869  -6.558  0.00  0.00     0.064 H 
BRANCH  66  69
ATOM     69  C3  U89 d   1      47.472  12.823  -5.080  0.00  0.00    -0.048 C 
ATOM     70  H11 U89 d   1      46.401  12.977  -4.880  0.00  0.00     0.035 H 
ATOM     71  H12 U89 d   1      47.977  13.798  -5.144  0.00  0.00     0.035 H 
BRANCH  69  72
ATOM     72  C2  U89 d   1      48.077  12.026  -3.952  0.00  0.00    -0.043 C 
ATOM     73  H9  U89 d   1      47.739  10.982  -4.029  0.00  0.00     0.036 H 
ATOM     74  H10 U89 d   1      47.743  12.450  -2.994  0.00  0.00     0.036 H 
BRANCH  72  75
ATOM     75  C1  U89 d   1      49.612  12.061  -4.007  0.00  0.00     0.033 C 
ATOM     76  H7  U89 d   1      49.927  12.077  -5.061  0.00  0.00     0.075 H 
ATOM     77  H8  U89 d   1      50.003  11.155  -3.521  0.00  0.00     0.075 H 
BRANCH  75  78
ATOM     78  OP4 U89 d   1      50.159  13.209  -3.347  0.00  0.00    -0.283 OA
BRANCH  78  79
ATOM     79  P   U89 d   1      50.664  13.107  -1.835  0.00  0.00     0.422 P 
ATOM     80  OP3 U89 d   1      51.390  14.342  -1.482  0.00  0.00    -0.617 OA
ATOM     81  OP2 U89 d   1      49.527  12.723  -0.969  0.00  0.00    -0.617 OA
ATOM     82  OP1 U89 d   1      51.740  11.915  -1.866  0.00  0.00    -0.617 OA
ENDBRANCH  78  79
ENDBRANCH  75  78
ENDBRANCH  72  75
ENDBRANCH  69  72
ENDBRANCH  66  69
ENDBRANCH  64  66
ENDBRANCH  59  62
ENDBRANCH  58  59
ENDBRANCH  55  58
ENDBRANCH   1  55
TORSDOF 23
