REMARK  3 active torsions:
REMARK  status: ('A' for Active; 'I' for Inactive)
REMARK    1  A    between atoms: C14_8  and  N19_13 
REMARK    2  A    between atoms: C15_9  and  C16_10 
REMARK       I    between atoms: N19_13  and  C20_14 
REMARK    3  A    between atoms: C20_14  and  C21_15 
ROOT
ATOM      1  S1  COL d   1      14.194  45.059  17.006  0.00  0.00    -0.164 SA
ATOM      2  C2  COL d   1      13.958  45.570  18.702  0.00  0.00     0.007 C 
ATOM      3  C3  COL d   1      12.499  45.548  18.970  0.00  0.00     0.001 A 
ATOM      4  C4  COL d   1      11.449  45.264  18.167  0.00  0.00    -0.024 A 
ATOM      5  C5  COL d   1      11.406  44.649  16.812  0.00  0.00    -0.031 C 
ATOM      6  C6  COL d   1      12.761  43.942  16.720  0.00  0.00    -0.019 C 
ATOM      7  S13 COL d   1      11.996  46.235  20.479  0.00  0.00    -0.074 SA
ATOM      8  C14 COL d   1      10.401  46.044  20.020  0.00  0.00     0.095 A 
ATOM      9  C15 COL d   1      10.166  45.556  18.818  0.00  0.00     0.082 A 
ATOM     10  H1  COL d   1      14.352  46.587  18.847  0.00  0.00     0.057 H 
ATOM     11  H2  COL d   1      14.476  44.876  19.380  0.00  0.00     0.057 H 
ATOM     12  H3  COL d   1      11.306  45.417  16.031  0.00  0.00     0.041 H 
ATOM     13  H4  COL d   1      10.577  43.931  16.729  0.00  0.00     0.041 H 
ATOM     14  H5  COL d   1      12.788  43.142  17.474  0.00  0.00     0.049 H 
ATOM     15  H6  COL d   1      12.857  43.503  15.716  0.00  0.00     0.049 H 
ENDROOT
BRANCH   8  16
ATOM     16  N19 COL d   1       9.308  46.505  20.851  0.00  0.00    -0.311 N 
ATOM     17  C20 COL d   1       9.498  47.204  21.976  0.00  0.00     0.323 C 
ATOM     18  O24 COL d   1      10.569  47.268  22.601  0.00  0.00    -0.260 OA
ATOM     19  H7  COL d   1       8.372  46.292  20.572  0.00  0.00     0.170 HD
BRANCH  17  20
ATOM     20  C21 COL d   1       8.159  47.645  22.546  0.00  0.00     0.270 C 
ATOM     21  O22 COL d   1       7.158  46.717  22.400  0.00  0.00    -0.640 OA
ATOM     22  O23 COL d   1       7.942  48.586  23.234  0.00  0.00    -0.640 OA
ENDBRANCH  17  20
ENDBRANCH   8  16
BRANCH   9  23
ATOM     23  C16 COL d   1       8.729  45.429  18.284  0.00  0.00     0.212 C 
ATOM     24  O17 COL d   1       7.738  45.423  18.957  0.00  0.00    -0.644 OA
ATOM     25  O18 COL d   1       8.667  45.355  17.013  0.00  0.00    -0.644 OA
ENDBRANCH   9  23
TORSDOF 3
