REMARK  3 active torsions:
REMARK  status: ('A' for Active; 'I' for Inactive)
REMARK    1  A    between atoms: C1_1  and  C7_7 
REMARK    2  A    between atoms: C7_7  and  N1_8 
REMARK    3  A    between atoms: C8_12  and  C1'_13 
ROOT
ATOM      1  C1  120 d   1      11.816 -11.788  22.929  0.00  0.00     0.009 A 
ATOM      2  C2  120 d   1      12.338 -10.514  22.597  0.00  0.00    -0.067 A 
ATOM      3  C3  120 d   1      13.245 -10.369  21.559  0.00  0.00    -0.054 A 
ATOM      4  C4  120 d   1      13.595 -11.502  20.890  0.00  0.00     0.062 A 
ATOM      5  C5  120 d   1      13.127 -12.740  21.168  0.00  0.00     0.086 A 
ATOM      6  C6  120 d   1      12.221 -12.928  22.196  0.00  0.00    -0.039 A 
ATOM      7  N3  120 d   1      14.394 -11.654  19.923  0.00  0.00    -0.338 N 
ATOM      8  N4  120 d   1      13.619 -13.665  20.381  0.00  0.00    -0.228 NA
ATOM      9  C8  120 d   1      14.407 -12.920  19.615  0.00  0.00     0.144 A 
ATOM     10  H1  120 d   1      12.025  -9.643  23.161  0.00  0.00     0.085 H 
ATOM     11  H2  120 d   1      13.655  -9.402  21.293  0.00  0.00     0.087 H 
ATOM     12  H3  120 d   1      11.835 -13.913  22.431  0.00  0.00     0.088 H 
ATOM     13  H8  120 d   1      14.937 -10.911  19.461  0.00  0.00     0.167 HD
ENDROOT
BRANCH   9  14
ATOM     14  C1' 120 d   1      15.152 -13.417  18.552  0.00  0.00     0.078 A 
ATOM     15  C6' 120 d   1      16.113 -12.625  17.857  0.00  0.00     0.259 A 
ATOM     16  N5' 120 d   1      16.780 -13.155  16.855  0.00  0.00    -0.333 N 
ATOM     17  O6' 120 d   1      16.328 -11.469  18.179  0.00  0.00    -0.267 OA
ATOM     18  C4' 120 d   1      16.596 -14.401  16.462  0.00  0.00    -0.020 A 
ATOM     19  H12 120 d   1      17.452 -12.592  16.373  0.00  0.00     0.168 HD
ATOM     20  C3' 120 d   1      15.675 -15.234  17.095  0.00  0.00    -0.067 A 
ATOM     21  H11 120 d   1      17.176 -14.787  15.625  0.00  0.00     0.111 H 
ATOM     22  C2' 120 d   1      14.944 -14.736  18.151  0.00  0.00    -0.063 A 
ATOM     23  H10 120 d   1      15.536 -16.261  16.760  0.00  0.00     0.085 H 
ATOM     24  H9  120 d   1      14.216 -15.362  18.664  0.00  0.00     0.085 H 
ENDBRANCH   9  14
BRANCH   1  25
ATOM     25  C7  120 d   1      10.922 -11.914  23.973  0.00  0.00     0.102 C 
ATOM     26  N2  120 d   1      10.771 -10.913  24.817  0.00  0.00    -0.385 N 
ATOM     27  H6  120 d   1      11.312 -10.046  24.690  0.00  0.00     0.157 HD
ATOM     28  H7  120 d   1      10.112 -10.998  25.604  0.00  0.00     0.157 HD
BRANCH  25  29
ATOM     29  N1  120 d   1      10.260 -13.030  24.092  0.00  0.00    -0.385 N 
ATOM     30  H4  120 d   1       9.587 -13.150  24.862  0.00  0.00     0.157 HD
ATOM     31  H5  120 d   1      10.410 -13.792  23.416  0.00  0.00     0.157 HD
ENDBRANCH  25  29
ENDBRANCH   1  25
TORSDOF 3
