REMARK  4 active torsions:
REMARK  status: ('A' for Active; 'I' for Inactive)
REMARK    1  A    between atoms: C1_1  and  C7_7 
REMARK    2  A    between atoms: C7_7  and  N1_8 
REMARK    3  A    between atoms: C8_12  and  C1'_13 
REMARK    4  A    between atoms: C6'_18  and  O6'_19 
ROOT
ATOM      1  C1  BMZ d   1      11.940 -11.623  22.635  0.00  0.00     0.009 A 
ATOM      2  C2  BMZ d   1      12.309 -10.351  22.202  0.00  0.00    -0.067 A 
ATOM      3  C3  BMZ d   1      13.133 -10.178  21.108  0.00  0.00    -0.054 A 
ATOM      4  C4  BMZ d   1      13.567 -11.300  20.478  0.00  0.00     0.062 A 
ATOM      5  C5  BMZ d   1      13.230 -12.550  20.873  0.00  0.00     0.086 A 
ATOM      6  C6  BMZ d   1      12.409 -12.754  21.961  0.00  0.00    -0.039 A 
ATOM      7  N3  BMZ d   1      14.327 -11.443  19.457  0.00  0.00    -0.338 N 
ATOM      8  N4  BMZ d   1      13.762 -13.480  20.124  0.00  0.00    -0.228 NA
ATOM      9  C8  BMZ d   1      14.443 -12.727  19.250  0.00  0.00     0.141 A 
ATOM     10  H1  BMZ d   1      11.942  -9.481  22.734  0.00  0.00     0.085 H 
ATOM     11  H2  BMZ d   1      13.421  -9.190  20.767  0.00  0.00     0.087 H 
ATOM     12  H3  BMZ d   1      12.137 -13.753  22.282  0.00  0.00     0.088 H 
ATOM     13  H8  BMZ d   1      14.763 -10.690  18.905  0.00  0.00     0.167 HD
ENDROOT
BRANCH   9  14
ATOM     14  C1' BMZ d   1      15.227 -13.235  18.202  0.00  0.00     0.043 A 
ATOM     15  C2' BMZ d   1      15.225 -14.611  17.917  0.00  0.00    -0.067 A 
ATOM     16  C3' BMZ d   1      15.996 -15.117  16.881  0.00  0.00    -0.082 A 
ATOM     17  H9  BMZ d   1      14.616 -15.282  18.512  0.00  0.00     0.085 H 
ATOM     18  C4' BMZ d   1      16.785 -14.260  16.117  0.00  0.00    -0.080 A 
ATOM     19  H10 BMZ d   1      15.985 -16.179  16.666  0.00  0.00     0.083 H 
ATOM     20  C5' BMZ d   1      16.796 -12.894  16.395  0.00  0.00    -0.050 A 
ATOM     21  H11 BMZ d   1      17.389 -14.655  15.308  0.00  0.00     0.083 H 
ATOM     22  C6' BMZ d   1      16.023 -12.377  17.434  0.00  0.00     0.079 A 
ATOM     23  H12 BMZ d   1      17.410 -12.229  15.799  0.00  0.00     0.087 H 
BRANCH  22  24
ATOM     24  O6' BMZ d   1      16.055 -11.025  17.691  0.00  0.00    -0.360 OA
ATOM     25  H13 BMZ d   1      15.481 -10.829  18.422  0.00  0.00     0.217 HD
ENDBRANCH  22  24
ENDBRANCH   9  14
BRANCH   1  26
ATOM     26  C7  BMZ d   1      11.105 -11.747  23.726  0.00  0.00     0.102 C 
ATOM     27  N2  BMZ d   1      11.015 -10.757  24.592  0.00  0.00    -0.385 N 
ATOM     28  H6  BMZ d   1      11.568  -9.899  24.453  0.00  0.00     0.157 HD
ATOM     29  H7  BMZ d   1      10.392 -10.841  25.407  0.00  0.00     0.157 HD
BRANCH  26  30
ATOM     30  N1  BMZ d   1      10.423 -12.853  23.861  0.00  0.00    -0.385 N 
ATOM     31  H4  BMZ d   1       9.792 -12.974  24.666  0.00  0.00     0.157 HD
ATOM     32  H5  BMZ d   1      10.517 -13.604  23.163  0.00  0.00     0.157 HD
ENDBRANCH  26  30
ENDBRANCH   1  26
TORSDOF 4
