REMARK  4 active torsions:
REMARK  status: ('A' for Active; 'I' for Inactive)
REMARK    1  A    between atoms: C7_7  and  C1_1 
REMARK    2  A    between atoms: C7_7  and  N1_8 
REMARK    3  A    between atoms: C8_12  and  C1'_13 
REMARK    4  A    between atoms: C6'_18  and  O6'_19 
ROOT
ATOM      1  C1  121 d   1      12.129 -11.794  22.850  0.00  0.00     0.009 A 
ATOM      2  C2  121 d   1      12.134 -10.703  21.960  0.00  0.00    -0.067 A 
ATOM      3  C3  121 d   1      13.063 -10.608  20.946  0.00  0.00    -0.052 A 
ATOM      4  C4  121 d   1      13.975 -11.626  20.830  0.00  0.00     0.086 A 
ATOM      5  C5  121 d   1      13.985 -12.693  21.678  0.00  0.00     0.063 A 
ATOM      6  C6  121 d   1      13.070 -12.816  22.707  0.00  0.00    -0.041 A 
ATOM      7  N3  121 d   1      14.967 -11.752  20.002  0.00  0.00    -0.227 NA
ATOM      8  N4  121 d   1      14.988 -13.455  21.355  0.00  0.00    -0.337 N 
ATOM      9  C8  121 d   1      15.581 -12.868  20.334  0.00  0.00     0.160 A 
ATOM     10  H1  121 d   1      11.392  -9.921  22.075  0.00  0.00     0.085 H 
ATOM     11  H2  121 d   1      13.072  -9.763  20.267  0.00  0.00     0.087 H 
ATOM     12  H3  121 d   1      13.082 -13.670  23.375  0.00  0.00     0.088 H 
ATOM     13  H8  121 d   1      15.264 -14.339  21.806  0.00  0.00     0.167 HD
ENDROOT
BRANCH   9  14
ATOM     14  C1' 121 d   1      16.750 -13.356  19.715  0.00  0.00     0.135 A 
ATOM     15  C6' 121 d   1      17.125 -13.149  18.362  0.00  0.00     0.098 A 
ATOM     16  C5' 121 d   1      18.354 -13.670  17.940  0.00  0.00    -0.047 A 
ATOM     17  C4' 121 d   1      19.163 -14.372  18.846  0.00  0.00    -0.063 A 
ATOM     18  H11 121 d   1      18.680 -13.531  16.916  0.00  0.00     0.087 H 
ATOM     19  C3' 121 d   1      18.725 -14.534  20.155  0.00  0.00     0.003 A 
ATOM     20  H10 121 d   1      20.115 -14.782  18.530  0.00  0.00     0.085 H 
ATOM     21  N2' 121 d   1      17.563 -14.026  20.519  0.00  0.00    -0.254 NA
ATOM     22  H9  121 d   1      19.334 -15.074  20.872  0.00  0.00     0.114 H 
BRANCH  15  23
ATOM     23  O6' 121 d   1      16.348 -12.458  17.441  0.00  0.00    -0.358 OA
ATOM     24  H12 121 d   1      15.548 -12.163  17.861  0.00  0.00     0.217 HD
ENDBRANCH  15  23
ENDBRANCH   9  14
BRANCH   1  25
ATOM     25  C7  121 d   1      11.205 -11.813  23.875  0.00  0.00     0.102 C 
ATOM     26  N2  121 d   1      11.025 -10.692  24.539  0.00  0.00    -0.385 N 
ATOM     27  H6  121 d   1      11.554  -9.848  24.277  0.00  0.00     0.157 HD
ATOM     28  H7  121 d   1      10.355 -10.658  25.321  0.00  0.00     0.157 HD
BRANCH  25  29
ATOM     29  N1  121 d   1      10.558 -12.892  24.177  0.00  0.00    -0.385 N 
ATOM     30  H4  121 d   1       9.873 -12.883  24.946  0.00  0.00     0.157 HD
ATOM     31  H5  121 d   1      10.728 -13.759  23.648  0.00  0.00     0.157 HD
ENDBRANCH  25  29
ENDBRANCH   1  25
TORSDOF 4
