REMARK  3 active torsions:
REMARK  status: ('A' for Active; 'I' for Inactive)
REMARK    1  A    between atoms: C7_7  and  C1_1 
REMARK    2  A    between atoms: C7_7  and  N1_8 
REMARK    3  A    between atoms: C8_12  and  C1'_13 
ROOT
ATOM      1  C1  120 d   1      45.521  19.322  52.971  0.00  0.00     0.009 A 
ATOM      2  C2  120 d   1      44.960  18.945  51.710  0.00  0.00    -0.067 A 
ATOM      3  C3  120 d   1      44.663  19.876  50.710  0.00  0.00    -0.054 A 
ATOM      4  C4  120 d   1      44.943  21.174  51.003  0.00  0.00     0.062 A 
ATOM      5  C5  120 d   1      45.478  21.593  52.178  0.00  0.00     0.086 A 
ATOM      6  C6  120 d   1      45.785  20.708  53.202  0.00  0.00    -0.039 A 
ATOM      7  N3  120 d   1      44.776  22.219  50.268  0.00  0.00    -0.338 N 
ATOM      8  N4  120 d   1      45.645  22.913  52.216  0.00  0.00    -0.228 NA
ATOM      9  C8  120 d   1      45.182  23.215  50.993  0.00  0.00     0.144 A 
ATOM     10  H1  120 d   1      44.757  17.897  51.523  0.00  0.00     0.085 H 
ATOM     11  H2  120 d   1      44.235  19.581  49.759  0.00  0.00     0.087 H 
ATOM     12  H3  120 d   1      46.208  21.053  54.139  0.00  0.00     0.088 H 
ATOM     13  H8  120 d   1      44.400  22.256  49.310  0.00  0.00     0.167 HD
ENDROOT
BRANCH   9  14
ATOM     14  C1' 120 d   1      45.212  24.516  50.439  0.00  0.00     0.078 A 
ATOM     15  C6' 120 d   1      44.530  24.847  49.210  0.00  0.00     0.259 A 
ATOM     16  N5' 120 d   1      44.633  26.109  48.791  0.00  0.00    -0.333 N 
ATOM     17  O6' 120 d   1      43.881  24.023  48.586  0.00  0.00    -0.267 OA
ATOM     18  C4' 120 d   1      45.300  27.096  49.377  0.00  0.00    -0.020 A 
ATOM     19  H12 120 d   1      44.156  26.337  47.942  0.00  0.00     0.168 HD
ATOM     20  C3' 120 d   1      45.954  26.784  50.552  0.00  0.00    -0.067 A 
ATOM     21  H11 120 d   1      45.330  28.099  48.953  0.00  0.00     0.111 H 
ATOM     22  C2' 120 d   1      45.918  25.519  51.080  0.00  0.00    -0.063 A 
ATOM     23  H10 120 d   1      46.512  27.561  51.072  0.00  0.00     0.085 H 
ATOM     24  H9  120 d   1      46.447  25.303  52.007  0.00  0.00     0.085 H 
ENDBRANCH   9  14
BRANCH   1  25
ATOM     25  C7  120 d   1      45.805  18.341  53.918  0.00  0.00     0.102 C 
ATOM     26  N2  120 d   1      45.373  17.119  53.756  0.00  0.00    -0.385 N 
ATOM     27  H6  120 d   1      44.810  16.877  52.928  0.00  0.00     0.157 HD
ATOM     28  H7  120 d   1      45.596  16.397  54.456  0.00  0.00     0.157 HD
BRANCH  25  29
ATOM     29  N1  120 d   1      46.515  18.653  54.958  0.00  0.00    -0.385 N 
ATOM     30  H4  120 d   1      46.733  17.938  55.666  0.00  0.00     0.157 HD
ATOM     31  H5  120 d   1      46.861  19.616  55.075  0.00  0.00     0.157 HD
ENDBRANCH  25  29
ENDBRANCH   1  25
TORSDOF 3
