REMARK  4 active torsions:
REMARK  status: ('A' for Active; 'I' for Inactive)
REMARK    1  A    between atoms: C7_7  and  C1_1 
REMARK    2  A    between atoms: C7_7  and  N1_8 
REMARK    3  A    between atoms: C8_12  and  C1'_13 
REMARK    4  A    between atoms: C6'_18  and  O6'_19 
ROOT
ATOM      1  C1  122 d   1      43.845  -2.620  26.315  0.00  0.00     0.009 A 
ATOM      2  C2  122 d   1      44.391  -1.312  26.525  0.00  0.00    -0.067 A 
ATOM      3  C3  122 d   1      44.255  -0.574  27.713  0.00  0.00    -0.052 A 
ATOM      4  C4  122 d   1      43.546  -1.210  28.692  0.00  0.00     0.086 A 
ATOM      5  C5  122 d   1      43.036  -2.446  28.527  0.00  0.00     0.063 A 
ATOM      6  C6  122 d   1      43.140  -3.186  27.387  0.00  0.00    -0.041 A 
ATOM      7  N3  122 d   1      43.313  -0.718  29.895  0.00  0.00    -0.228 NA
ATOM      8  N4  122 d   1      42.444  -2.737  29.633  0.00  0.00    -0.338 N 
ATOM      9  C8  122 d   1      42.613  -1.718  30.419  0.00  0.00     0.141 A 
ATOM     10  H1  122 d   1      44.947  -0.861  25.711  0.00  0.00     0.085 H 
ATOM     11  H2  122 d   1      44.677   0.416  27.842  0.00  0.00     0.087 H 
ATOM     12  H3  122 d   1      42.696  -4.172  27.312  0.00  0.00     0.088 H 
ATOM     13  H8  122 d   1      41.937  -3.607  29.851  0.00  0.00     0.167 HD
ENDROOT
BRANCH   9  14
ATOM     14  C1' 122 d   1      42.062  -1.730  31.766  0.00  0.00     0.043 A 
ATOM     15  C6' 122 d   1      42.375  -0.778  32.823  0.00  0.00     0.079 A 
ATOM     16  C5' 122 d   1      41.785  -0.848  34.079  0.00  0.00    -0.050 A 
ATOM     17  C4' 122 d   1      40.874  -1.869  34.334  0.00  0.00    -0.080 A 
ATOM     18  H12 122 d   1      42.029  -0.121  34.846  0.00  0.00     0.087 H 
ATOM     19  C3' 122 d   1      40.539  -2.809  33.372  0.00  0.00    -0.082 A 
ATOM     20  H11 122 d   1      40.413  -1.931  35.313  0.00  0.00     0.083 H 
ATOM     21  C2' 122 d   1      41.115  -2.747  32.122  0.00  0.00    -0.067 A 
ATOM     22  H10 122 d   1      39.825  -3.591  33.603  0.00  0.00     0.083 H 
ATOM     23  H9  122 d   1      40.843  -3.492  31.383  0.00  0.00     0.085 H 
BRANCH  15  24
ATOM     24  O6' 122 d   1      43.271   0.267  32.759  0.00  0.00    -0.360 OA
ATOM     25  H13 122 d   1      43.661   0.295  31.893  0.00  0.00     0.217 HD
ENDBRANCH  15  24
ENDBRANCH   9  14
BRANCH   1  26
ATOM     26  C7  122 d   1      44.028  -3.328  25.117  0.00  0.00     0.102 C 
ATOM     27  N2  122 d   1      44.386  -2.684  24.031  0.00  0.00    -0.385 N 
ATOM     28  H6  122 d   1      44.532  -1.665  24.061  0.00  0.00     0.157 HD
ATOM     29  H7  122 d   1      44.522  -3.198  23.149  0.00  0.00     0.157 HD
BRANCH  26  30
ATOM     30  N1  122 d   1      43.840  -4.631  25.087  0.00  0.00    -0.385 N 
ATOM     31  H4  122 d   1      43.974  -5.151  24.208  0.00  0.00     0.157 HD
ATOM     32  H5  122 d   1      43.559  -5.131  25.943  0.00  0.00     0.157 HD
ENDBRANCH  26  30
ENDBRANCH   1  26
TORSDOF 4
