REMARK  3 active torsions:
REMARK  status: ('A' for Active; 'I' for Inactive)
REMARK    1  A    between atoms: C7_7  and  C1_1 
REMARK    2  A    between atoms: C7_7  and  N1_8 
REMARK    3  A    between atoms: C8_12  and  C1'_13 
ROOT
ATOM      1  C1  120 d   1       8.963   0.794  25.018  0.00  0.00     0.009 A 
ATOM      2  C2  120 d   1       9.561   1.009  23.750  0.00  0.00    -0.067 A 
ATOM      3  C3  120 d   1       9.990   2.267  23.338  0.00  0.00    -0.054 A 
ATOM      4  C4  120 d   1       9.815   3.318  24.204  0.00  0.00     0.062 A 
ATOM      5  C5  120 d   1       9.255   3.178  25.414  0.00  0.00     0.086 A 
ATOM      6  C6  120 d   1       8.817   1.933  25.850  0.00  0.00    -0.039 A 
ATOM      7  N3  120 d   1      10.110   4.566  24.115  0.00  0.00    -0.338 N 
ATOM      8  N4  120 d   1       9.189   4.305  26.085  0.00  0.00    -0.228 NA
ATOM      9  C8  120 d   1       9.741   5.153  25.224  0.00  0.00     0.144 A 
ATOM     10  H1  120 d   1       9.688   0.166  23.080  0.00  0.00     0.085 H 
ATOM     11  H2  120 d   1      10.447   2.412  22.366  0.00  0.00     0.087 H 
ATOM     12  H3  120 d   1       8.363   1.832  26.829  0.00  0.00     0.088 H 
ATOM     13  H8  120 d   1      10.559   5.024  23.309  0.00  0.00     0.167 HD
ENDROOT
BRANCH   9  14
ATOM     14  C1' 120 d   1       9.879   6.527  25.462  0.00  0.00     0.078 A 
ATOM     15  C6' 120 d   1      10.221   7.472  24.450  0.00  0.00     0.259 A 
ATOM     16  N5' 120 d   1      10.339   8.761  24.740  0.00  0.00    -0.333 N 
ATOM     17  O6' 120 d   1      10.393   7.097  23.308  0.00  0.00    -0.267 OA
ATOM     18  C4' 120 d   1      10.148   9.236  25.956  0.00  0.00    -0.020 A 
ATOM     19  H12 120 d   1      10.582   9.398  24.008  0.00  0.00     0.168 HD
ATOM     20  C3' 120 d   1       9.811   8.374  26.985  0.00  0.00    -0.067 A 
ATOM     21  H11 120 d   1      10.255  10.302  26.149  0.00  0.00     0.111 H 
ATOM     22  C2' 120 d   1       9.677   7.027  26.740  0.00  0.00    -0.063 A 
ATOM     23  H10 120 d   1       9.652   8.762  27.990  0.00  0.00     0.085 H 
ATOM     24  H9  120 d   1       9.412   6.351  27.552  0.00  0.00     0.085 H 
ENDBRANCH   9  14
BRANCH   1  25
ATOM     25  C7  120 d   1       8.542  -0.487  25.426  0.00  0.00     0.102 C 
ATOM     26  N2  120 d   1       8.856  -1.539  24.712  0.00  0.00    -0.385 N 
ATOM     27  H6  120 d   1       9.409  -1.430  23.850  0.00  0.00     0.157 HD
ATOM     28  H7  120 d   1       8.550  -2.475  25.012  0.00  0.00     0.157 HD
BRANCH  25  29
ATOM     29  N1  120 d   1       7.838  -0.620  26.524  0.00  0.00    -0.385 N 
ATOM     30  H4  120 d   1       7.528  -1.554  26.827  0.00  0.00     0.157 HD
ATOM     31  H5  120 d   1       7.595   0.210  27.084  0.00  0.00     0.157 HD
ENDBRANCH  25  29
ENDBRANCH   1  25
TORSDOF 3
