REMARK  5 active torsions:
REMARK  status: ('A' for Active; 'I' for Inactive)
REMARK    1  A    between atoms: C1_1  and  C7_7 
REMARK    2  A    between atoms: C7_7  and  N1_8 
REMARK    3  A    between atoms: C8_12  and  C1'_13 
REMARK    4  A    between atoms: C5'_17  and  C1'_20 
REMARK    5  A    between atoms: C6'_18  and  O6'_19 
ROOT
ATOM      1  C1' 132 d   1      43.144  -1.945  31.439  0.00  0.00     0.025 A 
ATOM      2  C2' 132 d   1      42.893  -3.076  32.224  0.00  0.00    -0.068 A 
ATOM      3  C3' 132 d   1      42.697  -2.958  33.599  0.00  0.00    -0.081 A 
ATOM      4  C4' 132 d   1      42.690  -1.720  34.195  0.00  0.00    -0.070 A 
ATOM      5  C5' 132 d   1      42.938  -0.565  33.458  0.00  0.00     0.008 A 
ATOM      6  C6' 132 d   1      43.131  -0.668  32.057  0.00  0.00     0.089 A 
ATOM      7  H9  132 d   1      42.851  -4.054  31.758  0.00  0.00     0.085 H 
ATOM      8  H10 132 d   1      42.549  -3.847  34.201  0.00  0.00     0.083 H 
ATOM      9  H11 132 d   1      42.488  -1.641  35.257  0.00  0.00     0.085 H 
ENDROOT
BRANCH   1  10
ATOM     10  C8  132 d   1      43.347  -2.089  30.055  0.00  0.00     0.046 A 
ATOM     11  C9  132 d   1      43.580  -3.268  29.362  0.00  0.00    -0.044 A 
ATOM     12  C5  132 d   1      43.669  -2.919  28.041  0.00  0.00    -0.006 A 
ATOM     13  H8  132 d   1      43.673  -4.268  29.783  0.00  0.00     0.088 H 
ATOM     14  C4  132 d   1      43.508  -1.578  27.971  0.00  0.00     0.044 A 
ATOM     15  C6  132 d   1      43.906  -3.702  26.913  0.00  0.00    -0.056 A 
ATOM     16  C3  132 d   1      43.548  -0.920  26.757  0.00  0.00    -0.034 A 
ATOM     17  N3  132 d   1      43.315  -1.118  29.189  0.00  0.00    -0.355 N 
ATOM     18  C2  132 d   1      43.776  -1.661  25.581  0.00  0.00     0.050 A 
ATOM     19  H1  132 d   1      43.406   0.154  26.710  0.00  0.00     0.089 H 
ATOM     20  C1  132 d   1      43.953  -3.073  25.652  0.00  0.00     0.030 A 
ATOM     21 CL2  132 d   1      43.750  -0.697  24.083  0.00  0.00    -0.083 Cl
ATOM     22  H7  132 d   1      43.160  -0.127  29.424  0.00  0.00     0.166 HD
ATOM     23  H2  132 d   1      44.051  -4.772  27.003  0.00  0.00     0.086 H 
BRANCH  20  24
ATOM     24  C7  132 d   1      44.201  -3.845  24.493  0.00  0.00     0.104 C 
ATOM     25  N2  132 d   1      44.825  -3.250  23.511  0.00  0.00    -0.385 N 
ATOM     26  H5  132 d   1      45.099  -2.261  23.599  0.00  0.00     0.157 HD
ATOM     27  H6  132 d   1      45.043  -3.770  22.649  0.00  0.00     0.157 HD
BRANCH  24  28
ATOM     28  N1  132 d   1      43.832  -5.110  24.424  0.00  0.00    -0.385 N 
ATOM     29  H3  132 d   1      44.021  -5.656  23.571  0.00  0.00     0.157 HD
ATOM     30  H4  132 d   1      43.355  -5.551  25.223  0.00  0.00     0.157 HD
ENDBRANCH  24  28
ENDBRANCH  20  24
ENDBRANCH   1  10
BRANCH   6  31
ATOM     31  O6' 132 d   1      43.313   0.459  31.276  0.00  0.00    -0.359 OA
ATOM     32  H12 132 d   1      44.158   0.411  30.846  0.00  0.00     0.217 HD
ENDBRANCH   6  31
BRANCH   5  33
ATOM     33  C1' 132 d   1      43.002   0.637  34.184  0.00  0.00    -0.023 A 
ATOM     34  C6' 132 d   1      41.970   1.108  35.003  0.00  0.00    -0.072 A 
ATOM     35  C5' 132 d   1      42.133   2.281  35.753  0.00  0.00    -0.082 A 
ATOM     36  H17 132 d   1      41.036   0.561  35.058  0.00  0.00     0.084 H 
ATOM     37  C4' 132 d   1      43.324   2.993  35.690  0.00  0.00    -0.083 A 
ATOM     38  H16 132 d   1      41.326   2.634  36.385  0.00  0.00     0.083 H 
ATOM     39  C3' 132 d   1      44.348   2.533  34.877  0.00  0.00    -0.082 A 
ATOM     40  H15 132 d   1      43.451   3.899  36.271  0.00  0.00     0.083 H 
ATOM     41  C2' 132 d   1      44.191   1.370  34.131  0.00  0.00    -0.072 A 
ATOM     42  H14 132 d   1      45.279   3.085  34.822  0.00  0.00     0.083 H 
ATOM     43  H13 132 d   1      45.002   1.027  33.499  0.00  0.00     0.084 H 
ENDBRANCH   5  33
TORSDOF 5
