REMARK  5 active torsions:
REMARK  status: ('A' for Active; 'I' for Inactive)
REMARK    1  A    between atoms: C7_7  and  C1_1 
REMARK    2  A    between atoms: C7_7  and  N1_8 
REMARK    3  A    between atoms: C8_12  and  C1'_13 
REMARK    4  A    between atoms: C5'_17  and  C1'_20 
REMARK    5  A    between atoms: C6'_18  and  O6'_19 
ROOT
ATOM      1  C1' 130 d   1      10.047   6.955  23.857  0.00  0.00     0.044 A 
ATOM      2  C2' 130 d   1       9.704   7.807  24.915  0.00  0.00    -0.067 A 
ATOM      3  C3' 130 d   1       9.955   9.171  24.873  0.00  0.00    -0.081 A 
ATOM      4  C4' 130 d   1      10.555   9.722  23.766  0.00  0.00    -0.070 A 
ATOM      5  C5' 130 d   1      10.927   8.944  22.667  0.00  0.00     0.008 A 
ATOM      6  C6' 130 d   1      10.666   7.561  22.730  0.00  0.00     0.090 A 
ATOM      7  H9  130 d   1       9.228   7.388  25.794  0.00  0.00     0.085 H 
ATOM      8  H10 130 d   1       9.679   9.800  25.711  0.00  0.00     0.083 H 
ATOM      9  H11 130 d   1      10.745  10.789  23.745  0.00  0.00     0.085 H 
ENDROOT
BRANCH   1  10
ATOM     10  C8  130 d   1       9.786   5.560  23.920  0.00  0.00     0.142 A 
ATOM     11  N4  130 d   1       9.078   5.000  24.900  0.00  0.00    -0.338 N 
ATOM     12  C5  130 d   1       9.170   3.728  24.537  0.00  0.00     0.063 A 
ATOM     13  H8  130 d   1       8.599   5.430  25.704  0.00  0.00     0.167 HD
ATOM     14  C4  130 d   1       9.885   3.557  23.418  0.00  0.00     0.086 A 
ATOM     15  C6  130 d   1       8.586   2.676  25.221  0.00  0.00    -0.041 A 
ATOM     16  C3  130 d   1      10.102   2.340  22.849  0.00  0.00    -0.052 A 
ATOM     17  N3  130 d   1      10.268   4.733  23.044  0.00  0.00    -0.228 NA
ATOM     18  C2  130 d   1       9.526   1.240  23.510  0.00  0.00    -0.067 A 
ATOM     19  H2  130 d   1      10.684   2.225  21.941  0.00  0.00     0.087 H 
ATOM     20  C1  130 d   1       8.761   1.367  24.699  0.00  0.00     0.009 A 
ATOM     21  H1  130 d   1       9.673   0.251  23.093  0.00  0.00     0.085 H 
ATOM     22  H3  130 d   1       8.014   2.846  26.126  0.00  0.00     0.088 H 
BRANCH  20  23
ATOM     23  C7  130 d   1       8.211   0.236  25.331  0.00  0.00     0.102 C 
ATOM     24  N2  130 d   1       8.125  -0.897  24.680  0.00  0.00    -0.385 N 
ATOM     25  H6  130 d   1       8.458  -0.959  23.707  0.00  0.00     0.157 HD
ATOM     26  H7  130 d   1       7.725  -1.727  25.141  0.00  0.00     0.157 HD
BRANCH  23  27
ATOM     27  N1  130 d   1       7.786   0.308  26.569  0.00  0.00    -0.385 N 
ATOM     28  H4  130 d   1       7.385  -0.524  27.025  0.00  0.00     0.157 HD
ATOM     29  H5  130 d   1       7.853   1.196  27.086  0.00  0.00     0.157 HD
ENDBRANCH  23  27
ENDBRANCH  20  23
ENDBRANCH   1  10
BRANCH   6  30
ATOM     30  O6' 130 d   1      11.036   6.797  21.642  0.00  0.00    -0.359 OA
ATOM     31  H12 130 d   1      10.810   5.888  21.803  0.00  0.00     0.217 HD
ENDBRANCH   6  30
BRANCH   5  32
ATOM     32  C1' 130 d   1      11.540   9.571  21.585  0.00  0.00    -0.023 A 
ATOM     33  C6' 130 d   1      10.936  10.651  20.923  0.00  0.00    -0.072 A 
ATOM     34  C5' 130 d   1      11.580  11.297  19.872  0.00  0.00    -0.082 A 
ATOM     35  H17 130 d   1       9.954  10.987  21.235  0.00  0.00     0.084 H 
ATOM     36  C4' 130 d   1      12.836  10.876  19.460  0.00  0.00    -0.083 A 
ATOM     37  H16 130 d   1      11.099  12.131  19.374  0.00  0.00     0.083 H 
ATOM     38  C3' 130 d   1      13.446   9.808  20.097  0.00  0.00    -0.082 A 
ATOM     39  H15 130 d   1      13.338  11.381  18.643  0.00  0.00     0.083 H 
ATOM     40  C2' 130 d   1      12.798   9.170  21.143  0.00  0.00    -0.072 A 
ATOM     41  H14 130 d   1      14.426   9.472  19.779  0.00  0.00     0.083 H 
ATOM     42  H13 130 d   1      13.285   8.334  21.631  0.00  0.00     0.084 H 
ENDBRANCH   5  32
TORSDOF 5
