REMARK  23 active torsions:
REMARK  status: ('A' for Active; 'I' for Inactive)
REMARK    1  A    between atoms: C2_2  and  C1_1 
REMARK       I    between atoms: N1_29  and  C2_2 
REMARK    2  A    between atoms: C3_3  and  C4_4 
REMARK    3  A    between atoms: C11_11  and  C3_3 
REMARK    4  A    between atoms: C3_3  and  N1_29 
REMARK    5  A    between atoms: C4_4  and  C5_5 
REMARK    6  A    between atoms: C12_12  and  C11_11 
REMARK    7  A    between atoms: C11_11  and  O2_38 
REMARK    8  A    between atoms: C13_13  and  C12_12 
REMARK    9  A    between atoms: C13_13  and  C14_14 
REMARK   10  A    between atoms: C17_17  and  C13_13 
REMARK   11  A    between atoms: C14_14  and  C15_15 
REMARK   12  A    between atoms: C14_14  and  C16_16 
REMARK       I    between atoms: N2_30  and  C17_17 
REMARK   13  A    between atoms: C18_18  and  C19_19 
REMARK   14  A    between atoms: C22_22  and  C18_18 
REMARK   15  A    between atoms: C18_18  and  N2_30 
REMARK   16  A    between atoms: C19_19  and  C20_20 
REMARK   17  A    between atoms: C20_20  and  C21_21 
REMARK       I    between atoms: C21_21  and  N3_31 
REMARK       I    between atoms: N4_32  and  C22_22 
REMARK   18  A    between atoms: C23_23  and  C24_24 
REMARK   19  A    between atoms: C25_25  and  C23_23 
REMARK   20  A    between atoms: C23_23  and  N4_32 
REMARK       I    between atoms: C24_24  and  N5_33 
REMARK   21  A    between atoms: C26_26  and  C25_25 
REMARK   22  A    between atoms: C27_27  and  C26_26 
REMARK   23  A    between atoms: N6_34  and  C27_27 
REMARK       I    between atoms: C28_28  and  N7_35 
REMARK       I    between atoms: N6_34  and  C28_28 
ROOT
ATOM      1  C13 U0E d   1      -7.842  18.308  26.894  0.00  0.00     0.029 C 
ATOM      2  H21 U0E d   1      -8.364  19.197  26.510  0.00  0.00     0.055 H 
ENDROOT
BRANCH   1   3
ATOM      3  C12 U0E d   1      -8.724  17.630  27.955  0.00  0.00    -0.028 C 
ATOM      4  H19 U0E d   1      -8.215  16.696  28.236  0.00  0.00     0.038 H 
ATOM      5  H20 U0E d   1      -8.750  18.308  28.821  0.00  0.00     0.038 H 
BRANCH   3   6
ATOM      6  C11 U0E d   1     -10.184  17.257  27.646  0.00  0.00     0.056 C 
ATOM      7  H18 U0E d   1     -10.249  17.008  26.577  0.00  0.00     0.086 H 
BRANCH   6   8
ATOM      8  C3  U0E d   1     -10.766  16.059  28.426  0.00  0.00     0.037 C 
ATOM      9  H4  U0E d   1     -10.277  15.132  28.092  0.00  0.00     0.076 H 
BRANCH   8  10
ATOM     10  C4  U0E d   1     -12.286  16.011  28.115  0.00  0.00    -0.041 C 
ATOM     11  H5  U0E d   1     -12.434  15.943  27.027  0.00  0.00     0.036 H 
ATOM     12  H6  U0E d   1     -12.765  16.926  28.494  0.00  0.00     0.036 H 
BRANCH  10  13
ATOM     13  C5  U0E d   1     -12.924  14.780  28.796  0.00  0.00    -0.052 C 
ATOM     14  C6  U0E d   1     -14.424  15.032  28.964  0.00  0.00    -0.062 C 
ATOM     15  C7  U0E d   1     -15.072  13.848  29.680  0.00  0.00    -0.065 C 
ATOM     16  H8  U0E d   1     -14.886  15.157  27.974  0.00  0.00     0.033 H 
ATOM     17  H9  U0E d   1     -14.576  15.945  29.558  0.00  0.00     0.033 H 
ATOM     18  C8  U0E d   1     -14.853  12.551  28.896  0.00  0.00    -0.065 C 
ATOM     19  H10 U0E d   1     -16.152  14.033  29.777  0.00  0.00     0.033 H 
ATOM     20  H11 U0E d   1     -14.627  13.744  30.680  0.00  0.00     0.033 H 
ATOM     21  C9  U0E d   1     -13.357  12.285  28.692  0.00  0.00    -0.065 C 
ATOM     22  H12 U0E d   1     -15.341  12.636  27.914  0.00  0.00     0.033 H 
ATOM     23  H13 U0E d   1     -15.296  11.713  29.454  0.00  0.00     0.033 H 
ATOM     24  C10 U0E d   1     -12.684  13.480  28.003  0.00  0.00    -0.062 C 
ATOM     25  H14 U0E d   1     -13.231  11.389  28.066  0.00  0.00     0.033 H 
ATOM     26  H15 U0E d   1     -12.883  12.118  29.670  0.00  0.00     0.033 H 
ATOM     27  H16 U0E d   1     -11.602  13.294  27.936  0.00  0.00     0.033 H 
ATOM     28  H17 U0E d   1     -13.100  13.593  26.991  0.00  0.00     0.033 H 
ATOM     29  H7  U0E d   1     -12.471  14.661  29.791  0.00  0.00     0.040 H 
ENDBRANCH  10  13
ENDBRANCH   8  10
BRANCH   8  30
ATOM     30  N1  U0E d   1     -10.602  16.196  29.888  0.00  0.00    -0.354 N 
ATOM     31  C2  U0E d   1      -9.967  15.325  30.662  0.00  0.00     0.214 C 
ATOM     32  O1  U0E d   1      -9.309  14.333  30.301  0.00  0.00    -0.274 OA
ATOM     33  H41 U0E d   1     -10.998  17.003  30.326  0.00  0.00     0.162 HD
BRANCH  31  34
ATOM     34  C1  U0E d   1     -10.070  15.673  32.147  0.00  0.00    -0.003 C 
ATOM     35  H1  U0E d   1      -9.528  14.920  32.738  0.00  0.00     0.040 H 
ATOM     36  H2  U0E d   1     -11.128  15.684  32.449  0.00  0.00     0.040 H 
ATOM     37  H3  U0E d   1      -9.628  16.665  32.323  0.00  0.00     0.040 H 
ENDBRANCH  31  34
ENDBRANCH   8  30
ENDBRANCH   6   8
BRANCH   6  38
ATOM     38  O2  U0E d   1     -10.945  18.419  27.897  0.00  0.00    -0.393 OA
ATOM     39  H53 U0E d   1     -11.861  18.241  27.720  0.00  0.00     0.210 HD
ENDBRANCH   6  38
ENDBRANCH   3   6
ENDBRANCH   1   3
BRANCH   1  40
ATOM     40  C14 U0E d   1      -6.485  18.729  27.467  0.00  0.00    -0.049 C 
ATOM     41  H22 U0E d   1      -6.654  19.081  28.495  0.00  0.00     0.040 H 
BRANCH  40  42
ATOM     42  C15 U0E d   1      -5.468  17.585  27.492  0.00  0.00    -0.072 C 
ATOM     43  H23 U0E d   1      -4.518  17.948  27.912  0.00  0.00     0.028 H 
ATOM     44  H24 U0E d   1      -5.301  17.221  26.468  0.00  0.00     0.028 H 
ATOM     45  H25 U0E d   1      -5.854  16.764  28.114  0.00  0.00     0.028 H 
ENDBRANCH  40  42
BRANCH  40  46
ATOM     46  C16 U0E d   1      -5.816  19.849  26.659  0.00  0.00    -0.072 C 
ATOM     47  H26 U0E d   1      -6.495  20.713  26.598  0.00  0.00     0.028 H 
ATOM     48  H27 U0E d   1      -5.592  19.486  25.645  0.00  0.00     0.028 H 
ATOM     49  H28 U0E d   1      -4.882  20.151  27.155  0.00  0.00     0.028 H 
ENDBRANCH  40  46
ENDBRANCH   1  40
BRANCH   1  50
ATOM     50  C17 U0E d   1      -7.590  17.331  25.757  0.00  0.00     0.223 C 
ATOM     51  N2  U0E d   1      -7.824  17.813  24.560  0.00  0.00    -0.347 N 
ATOM     52  H42 U0E d   1      -8.144  18.756  24.472  0.00  0.00     0.163 HD
ATOM     53  O3  U0E d   1      -7.205  16.178  25.983  0.00  0.00    -0.273 OA
BRANCH  51  54
ATOM     54  C18 U0E d   1      -7.632  17.013  23.349  0.00  0.00     0.089 C 
ATOM     55  H29 U0E d   1      -7.182  16.047  23.623  0.00  0.00     0.087 H 
BRANCH  54  56
ATOM     56  C19 U0E d   1      -8.980  16.758  22.677  0.00  0.00    -0.030 C 
ATOM     57  H30 U0E d   1      -9.384  17.719  22.325  0.00  0.00     0.037 H 
ATOM     58  H31 U0E d   1      -9.665  16.321  23.419  0.00  0.00     0.037 H 
BRANCH  56  59
ATOM     59  C20 U0E d   1      -8.879  15.807  21.487  0.00  0.00     0.011 C 
ATOM     60  H32 U0E d   1      -9.800  15.209  21.434  0.00  0.00     0.047 H 
ATOM     61  H33 U0E d   1      -8.017  15.140  21.640  0.00  0.00     0.047 H 
BRANCH  59  62
ATOM     62  C21 U0E d   1      -8.698  16.547  20.165  0.00  0.00     0.215 C 
ATOM     63  N3  U0E d   1      -8.050  15.973  19.169  0.00  0.00    -0.370 N 
ATOM     64  H43 U0E d   1      -7.932  16.459  18.303  0.00  0.00     0.159 HD
ATOM     65  H44 U0E d   1      -7.677  15.052  19.280  0.00  0.00     0.159 HD
ATOM     66  O4  U0E d   1      -9.156  17.681  20.031  0.00  0.00    -0.274 OA
ENDBRANCH  59  62
ENDBRANCH  56  59
ENDBRANCH  54  56
BRANCH  54  67
ATOM     67  C22 U0E d   1      -6.690  17.747  22.396  0.00  0.00     0.241 C 
ATOM     68  N4  U0E d   1      -5.610  17.054  22.087  0.00  0.00    -0.346 N 
ATOM     69  H45 U0E d   1      -5.507  16.138  22.476  0.00  0.00     0.163 HD
ATOM     70  O5  U0E d   1      -6.960  18.886  21.985  0.00  0.00    -0.271 OA
BRANCH  68  71
ATOM     71  C23 U0E d   1      -4.551  17.557  21.202  0.00  0.00     0.089 C 
ATOM     72  H34 U0E d   1      -4.765  18.604  20.939  0.00  0.00     0.087 H 
BRANCH  71  73
ATOM     73  C24 U0E d   1      -4.489  16.713  19.926  0.00  0.00     0.238 C 
ATOM     74  N5  U0E d   1      -4.114  17.252  18.758  0.00  0.00    -0.368 N 
ATOM     75  H46 U0E d   1      -4.079  16.686  17.934  0.00  0.00     0.159 HD
ATOM     76  H47 U0E d   1      -3.869  18.220  18.710  0.00  0.00     0.159 HD
ATOM     77  O6  U0E d   1      -4.783  15.508  19.942  0.00  0.00    -0.271 OA
ENDBRANCH  71  73
BRANCH  71  78
ATOM     78  C25 U0E d   1      -3.198  17.475  21.915  0.00  0.00    -0.036 C 
ATOM     79  H35 U0E d   1      -2.712  16.529  21.636  0.00  0.00     0.036 H 
ATOM     80  H36 U0E d   1      -3.373  17.491  23.001  0.00  0.00     0.036 H 
BRANCH  78  81
ATOM     81  C26 U0E d   1      -2.258  18.629  21.557  0.00  0.00    -0.048 C 
ATOM     82  H37 U0E d   1      -2.795  19.326  20.897  0.00  0.00     0.035 H 
ATOM     83  H38 U0E d   1      -1.386  18.219  21.026  0.00  0.00     0.035 H 
BRANCH  81  84
ATOM     84  C27 U0E d   1      -1.763  19.402  22.784  0.00  0.00     0.009 C 
ATOM     85  H39 U0E d   1      -2.409  19.153  23.639  0.00  0.00     0.064 H 
ATOM     86  H40 U0E d   1      -1.835  20.479  22.572  0.00  0.00     0.064 H 
BRANCH  84  87
ATOM     87  N6  U0E d   1      -0.372  19.088  23.142  0.00  0.00    -0.227 N 
ATOM     88  C28 U0E d   1       0.481  19.967  23.690  0.00  0.00     0.665 C 
ATOM     89  N8  U0E d   1       1.774  19.709  23.929  0.00  0.00    -0.235 N 
ATOM     90  N7  U0E d   1       0.075  21.195  24.040  0.00  0.00    -0.235 N 
ATOM     91  H51 U0E d   1       2.373  20.431  24.353  0.00  0.00     0.174 HD
ATOM     92  H52 U0E d   1       2.168  18.788  23.689  0.00  0.00     0.174 HD
ATOM     93  H49 U0E d   1       0.742  21.858  24.460  0.00  0.00     0.174 HD
ATOM     94  H50 U0E d   1      -0.904  21.476  23.890  0.00  0.00     0.174 HD
ATOM     95  H48 U0E d   1      -0.031  18.133  22.961  0.00  0.00     0.177 HD
ENDBRANCH  84  87
ENDBRANCH  81  84
ENDBRANCH  78  81
ENDBRANCH  71  78
ENDBRANCH  68  71
ENDBRANCH  54  67
ENDBRANCH  51  54
ENDBRANCH   1  50
TORSDOF 23
