REMARK  23 active torsions:
REMARK  status: ('A' for Active; 'I' for Inactive)
REMARK    1  A    between atoms: C2_2  and  C1_1 
REMARK       I    between atoms: N1_29  and  C2_2 
REMARK    2  A    between atoms: C3_3  and  C4_4 
REMARK    3  A    between atoms: C11_11  and  C3_3 
REMARK    4  A    between atoms: C3_3  and  N1_29 
REMARK    5  A    between atoms: C4_4  and  C5_5 
REMARK    6  A    between atoms: C12_12  and  C11_11 
REMARK    7  A    between atoms: C11_11  and  O2_38 
REMARK    8  A    between atoms: C13_13  and  C12_12 
REMARK    9  A    between atoms: C13_13  and  C14_14 
REMARK   10  A    between atoms: C17_17  and  C13_13 
REMARK   11  A    between atoms: C14_14  and  C15_15 
REMARK   12  A    between atoms: C14_14  and  C16_16 
REMARK       I    between atoms: N2_30  and  C17_17 
REMARK   13  A    between atoms: C18_18  and  C19_19 
REMARK   14  A    between atoms: C22_22  and  C18_18 
REMARK   15  A    between atoms: C18_18  and  N2_30 
REMARK   16  A    between atoms: C19_19  and  C20_20 
REMARK   17  A    between atoms: C20_20  and  C21_21 
REMARK       I    between atoms: C21_21  and  N3_31 
REMARK       I    between atoms: N4_32  and  C22_22 
REMARK   18  A    between atoms: C23_23  and  C24_24 
REMARK   19  A    between atoms: C25_25  and  C23_23 
REMARK   20  A    between atoms: C23_23  and  N4_32 
REMARK       I    between atoms: C24_24  and  N5_33 
REMARK   21  A    between atoms: C26_26  and  C25_25 
REMARK   22  A    between atoms: C27_27  and  C26_26 
REMARK   23  A    between atoms: N6_34  and  C27_27 
REMARK       I    between atoms: C28_28  and  N7_35 
REMARK       I    between atoms: N6_34  and  C28_28 
ROOT
ATOM      1  C13 U0E d   1      -7.983  18.316  26.837  0.00  0.00     0.029 C 
ATOM      2  H21 U0E d   1      -8.406  19.238  26.411  0.00  0.00     0.055 H 
ENDROOT
BRANCH   1   3
ATOM      3  C12 U0E d   1      -8.893  17.821  27.952  0.00  0.00    -0.028 C 
ATOM      4  H19 U0E d   1      -8.447  16.884  28.316  0.00  0.00     0.038 H 
ATOM      5  H20 U0E d   1      -8.845  18.582  28.745  0.00  0.00     0.038 H 
BRANCH   3   6
ATOM      6  C11 U0E d   1     -10.367  17.530  27.737  0.00  0.00     0.056 C 
ATOM      7  H18 U0E d   1     -10.556  17.470  26.655  0.00  0.00     0.086 H 
BRANCH   6   8
ATOM      8  C3  U0E d   1     -10.823  16.204  28.379  0.00  0.00     0.037 C 
ATOM      9  H4  U0E d   1     -10.247  15.372  27.948  0.00  0.00     0.076 H 
BRANCH   8  10
ATOM     10  C4  U0E d   1     -12.313  16.021  28.054  0.00  0.00    -0.041 C 
ATOM     11  H5  U0E d   1     -12.461  15.988  26.965  0.00  0.00     0.036 H 
ATOM     12  H6  U0E d   1     -12.897  16.851  28.478  0.00  0.00     0.036 H 
BRANCH  10  13
ATOM     13  C5  U0E d   1     -12.750  14.695  28.684  0.00  0.00    -0.052 C 
ATOM     14  C6  U0E d   1     -14.243  14.738  29.018  0.00  0.00    -0.062 C 
ATOM     15  C7  U0E d   1     -14.692  13.387  29.571  0.00  0.00    -0.065 C 
ATOM     16  H8  U0E d   1     -14.814  14.967  28.106  0.00  0.00     0.033 H 
ATOM     17  H9  U0E d   1     -14.426  15.519  29.771  0.00  0.00     0.033 H 
ATOM     18  C8  U0E d   1     -14.422  12.269  28.558  0.00  0.00    -0.065 C 
ATOM     19  H10 U0E d   1     -15.770  13.426  29.787  0.00  0.00     0.033 H 
ATOM     20  H11 U0E d   1     -14.139  13.175  30.498  0.00  0.00     0.033 H 
ATOM     21  C9  U0E d   1     -12.935  12.218  28.188  0.00  0.00    -0.065 C 
ATOM     22  H12 U0E d   1     -15.014  12.455  27.649  0.00  0.00     0.033 H 
ATOM     23  H13 U0E d   1     -14.718  11.305  28.997  0.00  0.00     0.033 H 
ATOM     24  C10 U0E d   1     -12.461  13.579  27.663  0.00  0.00    -0.062 C 
ATOM     25  H14 U0E d   1     -12.783  11.457  27.408  0.00  0.00     0.033 H 
ATOM     26  H15 U0E d   1     -12.350  11.951  29.080  0.00  0.00     0.033 H 
ATOM     27  H16 U0E d   1     -11.378  13.535  27.475  0.00  0.00     0.033 H 
ATOM     28  H17 U0E d   1     -12.987  13.805  26.724  0.00  0.00     0.033 H 
ATOM     29  H7  U0E d   1     -12.177  14.513  29.605  0.00  0.00     0.040 H 
ENDBRANCH  10  13
ENDBRANCH   8  10
BRANCH   8  30
ATOM     30  N1  U0E d   1     -10.616  16.222  29.836  0.00  0.00    -0.354 N 
ATOM     31  C2  U0E d   1      -9.891  15.315  30.474  0.00  0.00     0.214 C 
ATOM     32  O1  U0E d   1      -9.317  14.354  29.940  0.00  0.00    -0.274 OA
ATOM     33  H41 U0E d   1     -11.042  16.953  30.369  0.00  0.00     0.162 HD
BRANCH  31  34
ATOM     34  C1  U0E d   1      -9.787  15.550  31.981  0.00  0.00    -0.003 C 
ATOM     35  H1  U0E d   1      -9.172  14.758  32.434  0.00  0.00     0.040 H 
ATOM     36  H2  U0E d   1     -10.793  15.532  32.425  0.00  0.00     0.040 H 
ATOM     37  H3  U0E d   1      -9.321  16.529  32.168  0.00  0.00     0.040 H 
ENDBRANCH  31  34
ENDBRANCH   8  30
ENDBRANCH   6   8
BRANCH   6  38
ATOM     38  O2  U0E d   1     -11.113  18.606  28.280  0.00  0.00    -0.393 OA
ATOM     39  H53 U0E d   1     -10.871  19.412  27.840  0.00  0.00     0.210 HD
ENDBRANCH   6  38
ENDBRANCH   3   6
ENDBRANCH   1   3
BRANCH   1  40
ATOM     40  C14 U0E d   1      -6.588  18.594  27.380  0.00  0.00    -0.049 C 
ATOM     41  H22 U0E d   1      -6.694  19.285  28.230  0.00  0.00     0.040 H 
BRANCH  40  42
ATOM     42  C15 U0E d   1      -5.875  17.326  27.857  0.00  0.00    -0.072 C 
ATOM     43  H23 U0E d   1      -4.876  17.588  28.237  0.00  0.00     0.028 H 
ATOM     44  H24 U0E d   1      -5.775  16.623  27.017  0.00  0.00     0.028 H 
ATOM     45  H25 U0E d   1      -6.461  16.856  28.660  0.00  0.00     0.028 H 
ENDBRANCH  40  42
BRANCH  40  46
ATOM     46  C16 U0E d   1      -5.661  19.226  26.341  0.00  0.00    -0.072 C 
ATOM     47  H26 U0E d   1      -6.118  20.149  25.955  0.00  0.00     0.028 H 
ATOM     48  H27 U0E d   1      -5.504  18.520  25.512  0.00  0.00     0.028 H 
ATOM     49  H28 U0E d   1      -4.694  19.463  26.808  0.00  0.00     0.028 H 
ENDBRANCH  40  46
ENDBRANCH   1  40
BRANCH   1  50
ATOM     50  C17 U0E d   1      -7.846  17.262  25.743  0.00  0.00     0.223 C 
ATOM     51  N2  U0E d   1      -7.842  17.761  24.534  0.00  0.00    -0.347 N 
ATOM     52  H42 U0E d   1      -7.963  18.747  24.423  0.00  0.00     0.163 HD
ATOM     53  O3  U0E d   1      -7.747  16.058  26.018  0.00  0.00    -0.273 OA
BRANCH  51  54
ATOM     54  C18 U0E d   1      -7.669  16.941  23.340  0.00  0.00     0.089 C 
ATOM     55  H29 U0E d   1      -7.245  15.967  23.625  0.00  0.00     0.087 H 
BRANCH  54  56
ATOM     56  C19 U0E d   1      -9.013  16.713  22.653  0.00  0.00    -0.030 C 
ATOM     57  H30 U0E d   1      -9.408  17.685  22.323  0.00  0.00     0.037 H 
ATOM     58  H31 U0E d   1      -9.707  16.263  23.378  0.00  0.00     0.037 H 
BRANCH  56  59
ATOM     59  C20 U0E d   1      -8.909  15.790  21.439  0.00  0.00     0.011 C 
ATOM     60  H32 U0E d   1      -9.837  15.205  21.361  0.00  0.00     0.047 H 
ATOM     61  H33 U0E d   1      -8.057  15.109  21.586  0.00  0.00     0.047 H 
BRANCH  59  62
ATOM     62  C21 U0E d   1      -8.703  16.557  20.135  0.00  0.00     0.215 C 
ATOM     63  N3  U0E d   1      -7.947  16.048  19.181  0.00  0.00    -0.370 N 
ATOM     64  H43 U0E d   1      -7.813  16.551  18.327  0.00  0.00     0.159 HD
ATOM     65  H44 U0E d   1      -7.508  15.159  19.312  0.00  0.00     0.159 HD
ATOM     66  O4  U0E d   1      -9.244  17.651  19.977  0.00  0.00    -0.274 OA
ENDBRANCH  59  62
ENDBRANCH  56  59
ENDBRANCH  54  56
BRANCH  54  67
ATOM     67  C22 U0E d   1      -6.703  17.657  22.402  0.00  0.00     0.241 C 
ATOM     68  N4  U0E d   1      -5.611  16.972  22.140  0.00  0.00    -0.346 N 
ATOM     69  H45 U0E d   1      -5.507  16.064  22.547  0.00  0.00     0.163 HD
ATOM     70  O5  U0E d   1      -6.962  18.788  21.964  0.00  0.00    -0.271 OA
BRANCH  68  71
ATOM     71  C23 U0E d   1      -4.539  17.479  21.278  0.00  0.00     0.089 C 
ATOM     72  H34 U0E d   1      -4.700  18.552  21.095  0.00  0.00     0.087 H 
BRANCH  71  73
ATOM     73  C24 U0E d   1      -4.540  16.732  19.944  0.00  0.00     0.238 C 
ATOM     74  N5  U0E d   1      -5.264  17.175  18.909  0.00  0.00    -0.368 N 
ATOM     75  H46 U0E d   1      -5.255  16.676  18.042  0.00  0.00     0.159 HD
ATOM     76  H47 U0E d   1      -5.814  18.005  19.002  0.00  0.00     0.159 HD
ATOM     77  O6  U0E d   1      -3.870  15.701  19.791  0.00  0.00    -0.271 OA
ENDBRANCH  71  73
BRANCH  71  78
ATOM     78  C25 U0E d   1      -3.186  17.278  21.960  0.00  0.00    -0.036 C 
ATOM     79  H35 U0E d   1      -2.788  16.295  21.667  0.00  0.00     0.036 H 
ATOM     80  H36 U0E d   1      -3.335  17.303  23.049  0.00  0.00     0.036 H 
BRANCH  78  81
ATOM     81  C26 U0E d   1      -2.163  18.350  21.584  0.00  0.00    -0.048 C 
ATOM     82  H37 U0E d   1      -2.676  19.322  21.530  0.00  0.00     0.035 H 
ATOM     83  H38 U0E d   1      -1.741  18.103  20.599  0.00  0.00     0.035 H 
BRANCH  81  84
ATOM     84  C27 U0E d   1      -1.018  18.458  22.592  0.00  0.00     0.009 C 
ATOM     85  H39 U0E d   1      -0.064  18.409  22.046  0.00  0.00     0.064 H 
ATOM     86  H40 U0E d   1      -1.085  17.611  23.291  0.00  0.00     0.064 H 
BRANCH  84  87
ATOM     87  N6  U0E d   1      -1.051  19.707  23.366  0.00  0.00    -0.227 N 
ATOM     88  C28 U0E d   1       0.043  20.351  23.796  0.00  0.00     0.665 C 
ATOM     89  N8  U0E d   1       0.058  21.636  24.174  0.00  0.00    -0.235 N 
ATOM     90  N7  U0E d   1       1.226  19.723  23.875  0.00  0.00    -0.235 N 
ATOM     91  H51 U0E d   1       0.936  22.068  24.494  0.00  0.00     0.174 HD
ATOM     92  H52 U0E d   1      -0.809  22.192  24.144  0.00  0.00     0.174 HD
ATOM     93  H49 U0E d   1       2.058  20.231  24.207  0.00  0.00     0.174 HD
ATOM     94  H50 U0E d   1       1.302  18.732  23.603  0.00  0.00     0.174 HD
ATOM     95  H48 U0E d   1      -1.971  20.112  23.592  0.00  0.00     0.177 HD
ENDBRANCH  84  87
ENDBRANCH  81  84
ENDBRANCH  78  81
ENDBRANCH  71  78
ENDBRANCH  68  71
ENDBRANCH  54  67
ENDBRANCH  51  54
ENDBRANCH   1  50
TORSDOF 23
