REMARK  23 active torsions:
REMARK  status: ('A' for Active; 'I' for Inactive)
REMARK    1  A    between atoms: C2_2  and  C1_1 
REMARK       I    between atoms: N1_29  and  C2_2 
REMARK    2  A    between atoms: C3_3  and  C4_4 
REMARK    3  A    between atoms: C11_11  and  C3_3 
REMARK    4  A    between atoms: C3_3  and  N1_29 
REMARK    5  A    between atoms: C4_4  and  C5_5 
REMARK    6  A    between atoms: C12_12  and  C11_11 
REMARK    7  A    between atoms: C11_11  and  O2_38 
REMARK    8  A    between atoms: C13_13  and  C12_12 
REMARK    9  A    between atoms: C13_13  and  C14_14 
REMARK   10  A    between atoms: C17_17  and  C13_13 
REMARK   11  A    between atoms: C14_14  and  C15_15 
REMARK   12  A    between atoms: C14_14  and  C16_16 
REMARK       I    between atoms: N2_30  and  C17_17 
REMARK   13  A    between atoms: C18_18  and  C19_19 
REMARK   14  A    between atoms: C22_22  and  C18_18 
REMARK   15  A    between atoms: C18_18  and  N2_30 
REMARK   16  A    between atoms: C19_19  and  C20_20 
REMARK   17  A    between atoms: C20_20  and  C21_21 
REMARK       I    between atoms: C21_21  and  N3_31 
REMARK       I    between atoms: N4_32  and  C22_22 
REMARK   18  A    between atoms: C23_23  and  C24_24 
REMARK   19  A    between atoms: C25_25  and  C23_23 
REMARK   20  A    between atoms: C23_23  and  N4_32 
REMARK       I    between atoms: C24_24  and  N5_33 
REMARK   21  A    between atoms: C26_26  and  C25_25 
REMARK   22  A    between atoms: C27_27  and  C26_26 
REMARK   23  A    between atoms: N6_34  and  C27_27 
REMARK       I    between atoms: C28_28  and  N7_35 
REMARK       I    between atoms: N6_34  and  C28_28 
ROOT
ATOM      1  C13 U0E d   1      -8.161  18.217  26.651  0.00  0.00     0.029 C 
ATOM      2  H21 U0E d   1      -8.810  18.979  26.195  0.00  0.00     0.055 H 
ENDROOT
BRANCH   1   3
ATOM      3  C12 U0E d   1      -8.905  17.551  27.809  0.00  0.00    -0.028 C 
ATOM      4  H19 U0E d   1      -8.430  16.570  27.957  0.00  0.00     0.038 H 
ATOM      5  H20 U0E d   1      -8.727  18.181  28.693  0.00  0.00     0.038 H 
BRANCH   3   6
ATOM      6  C11 U0E d   1     -10.406  17.296  27.761  0.00  0.00     0.056 C 
ATOM      7  H18 U0E d   1     -10.716  17.279  26.706  0.00  0.00     0.086 H 
BRANCH   6   8
ATOM      8  C3  U0E d   1     -10.858  15.972  28.396  0.00  0.00     0.037 C 
ATOM      9  H4  U0E d   1     -10.124  15.172  28.218  0.00  0.00     0.076 H 
BRANCH   8  10
ATOM     10  C4  U0E d   1     -12.148  15.703  27.638  0.00  0.00    -0.041 C 
ATOM     11  H5  U0E d   1     -11.872  15.563  26.582  0.00  0.00     0.036 H 
ATOM     12  H6  U0E d   1     -12.768  16.606  27.738  0.00  0.00     0.036 H 
BRANCH  10  13
ATOM     13  C5  U0E d   1     -13.041  14.504  28.027  0.00  0.00    -0.052 C 
ATOM     14  C6  U0E d   1     -12.177  13.266  28.284  0.00  0.00    -0.062 C 
ATOM     15  C7  U0E d   1     -13.065  12.076  28.640  0.00  0.00    -0.065 C 
ATOM     16  H8  U0E d   1     -11.488  13.469  29.117  0.00  0.00     0.033 H 
ATOM     17  H9  U0E d   1     -11.598  13.031  27.379  0.00  0.00     0.033 H 
ATOM     18  C8  U0E d   1     -13.912  12.380  29.879  0.00  0.00    -0.065 C 
ATOM     19  H10 U0E d   1     -12.431  11.201  28.843  0.00  0.00     0.033 H 
ATOM     20  H11 U0E d   1     -13.731  11.857  27.793  0.00  0.00     0.033 H 
ATOM     21  C9  U0E d   1     -14.771  13.631  29.658  0.00  0.00    -0.065 C 
ATOM     22  H12 U0E d   1     -13.246  12.547  30.739  0.00  0.00     0.033 H 
ATOM     23  H13 U0E d   1     -14.570  11.523  30.085  0.00  0.00     0.033 H 
ATOM     24  C10 U0E d   1     -13.895  14.827  29.267  0.00  0.00    -0.062 C 
ATOM     25  H14 U0E d   1     -15.311  13.867  30.587  0.00  0.00     0.033 H 
ATOM     26  H15 U0E d   1     -15.495  13.435  28.853  0.00  0.00     0.033 H 
ATOM     27  H16 U0E d   1     -14.541  15.689  29.044  0.00  0.00     0.033 H 
ATOM     28  H17 U0E d   1     -13.230  15.075  30.107  0.00  0.00     0.033 H 
ATOM     29  H7  U0E d   1     -13.718  14.289  27.187  0.00  0.00     0.040 H 
ENDBRANCH  10  13
ENDBRANCH   8  10
BRANCH   8  30
ATOM     30  N1  U0E d   1     -11.062  16.120  29.842  0.00  0.00    -0.354 N 
ATOM     31  C2  U0E d   1     -10.292  15.526  30.732  0.00  0.00     0.214 C 
ATOM     32  O1  U0E d   1      -9.353  14.765  30.457  0.00  0.00    -0.274 OA
ATOM     33  H41 U0E d   1     -11.815  16.694  30.165  0.00  0.00     0.162 HD
BRANCH  31  34
ATOM     34  C1  U0E d   1     -10.658  15.838  32.184  0.00  0.00    -0.003 C 
ATOM     35  H1  U0E d   1      -9.970  15.306  32.858  0.00  0.00     0.040 H 
ATOM     36  H2  U0E d   1     -11.690  15.511  32.380  0.00  0.00     0.040 H 
ATOM     37  H3  U0E d   1     -10.577  16.921  32.358  0.00  0.00     0.040 H 
ENDBRANCH  31  34
ENDBRANCH   8  30
ENDBRANCH   6   8
BRANCH   6  38
ATOM     38  O2  U0E d   1     -11.034  18.391  28.410  0.00  0.00    -0.393 OA
ATOM     39  H53 U0E d   1     -10.815  19.195  27.955  0.00  0.00     0.210 HD
ENDBRANCH   6  38
ENDBRANCH   3   6
ENDBRANCH   1   3
BRANCH   1  40
ATOM     40  C14 U0E d   1      -6.879  18.881  27.153  0.00  0.00    -0.049 C 
ATOM     41  H22 U0E d   1      -7.064  19.219  28.183  0.00  0.00     0.040 H 
BRANCH  40  42
ATOM     42  C15 U0E d   1      -5.679  17.934  27.152  0.00  0.00    -0.072 C 
ATOM     43  H23 U0E d   1      -4.791  18.467  27.522  0.00  0.00     0.028 H 
ATOM     44  H24 U0E d   1      -5.493  17.579  26.128  0.00  0.00     0.028 H 
ATOM     45  H25 U0E d   1      -5.889  17.075  27.806  0.00  0.00     0.028 H 
ENDBRANCH  40  42
BRANCH  40  46
ATOM     46  C16 U0E d   1      -6.459  20.085  26.306  0.00  0.00    -0.072 C 
ATOM     47  H26 U0E d   1      -7.285  20.811  26.266  0.00  0.00     0.028 H 
ATOM     48  H27 U0E d   1      -6.216  19.750  25.287  0.00  0.00     0.028 H 
ATOM     49  H28 U0E d   1      -5.575  20.560  26.757  0.00  0.00     0.028 H 
ENDBRANCH  40  46
ENDBRANCH   1  40
BRANCH   1  50
ATOM     50  C17 U0E d   1      -7.798  17.167  25.604  0.00  0.00     0.223 C 
ATOM     51  N2  U0E d   1      -7.884  17.598  24.361  0.00  0.00    -0.347 N 
ATOM     52  H42 U0E d   1      -8.184  18.538  24.202  0.00  0.00     0.163 HD
ATOM     53  O3  U0E d   1      -7.463  16.023  25.940  0.00  0.00    -0.273 OA
BRANCH  51  54
ATOM     54  C18 U0E d   1      -7.559  16.759  23.199  0.00  0.00     0.089 C 
ATOM     55  H29 U0E d   1      -7.044  15.849  23.542  0.00  0.00     0.087 H 
BRANCH  54  56
ATOM     56  C19 U0E d   1      -8.837  16.365  22.454  0.00  0.00    -0.030 C 
ATOM     57  H30 U0E d   1      -9.664  16.318  23.178  0.00  0.00     0.037 H 
ATOM     58  H31 U0E d   1      -8.688  15.373  22.003  0.00  0.00     0.037 H 
BRANCH  56  59
ATOM     59  C20 U0E d   1      -9.215  17.351  21.347  0.00  0.00     0.011 C 
ATOM     60  H32 U0E d   1      -8.768  18.328  21.582  0.00  0.00     0.047 H 
ATOM     61  H33 U0E d   1     -10.311  17.445  21.322  0.00  0.00     0.047 H 
BRANCH  59  62
ATOM     62  C21 U0E d   1      -8.732  16.915  19.961  0.00  0.00     0.215 C 
ATOM     63  N3  U0E d   1      -8.241  15.702  19.784  0.00  0.00    -0.370 N 
ATOM     64  H43 U0E d   1      -7.926  15.417  18.879  0.00  0.00     0.159 HD
ATOM     65  H44 U0E d   1      -8.185  15.068  20.555  0.00  0.00     0.159 HD
ATOM     66  O4  U0E d   1      -8.802  17.693  19.011  0.00  0.00    -0.274 OA
ENDBRANCH  59  62
ENDBRANCH  56  59
ENDBRANCH  54  56
BRANCH  54  67
ATOM     67  C22 U0E d   1      -6.643  17.536  22.254  0.00  0.00     0.241 C 
ATOM     68  N4  U0E d   1      -5.648  16.826  21.762  0.00  0.00    -0.346 N 
ATOM     69  H45 U0E d   1      -5.568  15.865  22.028  0.00  0.00     0.163 HD
ATOM     70  O5  U0E d   1      -6.854  18.732  22.003  0.00  0.00    -0.271 OA
BRANCH  68  71
ATOM     71  C23 U0E d   1      -4.650  17.386  20.839  0.00  0.00     0.089 C 
ATOM     72  H34 U0E d   1      -4.939  18.415  20.577  0.00  0.00     0.087 H 
BRANCH  71  73
ATOM     73  C24 U0E d   1      -4.580  16.540  19.567  0.00  0.00     0.238 C 
ATOM     74  N5  U0E d   1      -3.987  17.008  18.460  0.00  0.00    -0.368 N 
ATOM     75  H46 U0E d   1      -3.949  16.443  17.636  0.00  0.00     0.159 HD
ATOM     76  H47 U0E d   1      -3.582  17.922  18.458  0.00  0.00     0.159 HD
ATOM     77  O6  U0E d   1      -5.070  15.402  19.530  0.00  0.00    -0.271 OA
ENDBRANCH  71  73
BRANCH  71  78
ATOM     78  C25 U0E d   1      -3.273  17.401  21.505  0.00  0.00    -0.036 C 
ATOM     79  H35 U0E d   1      -2.504  17.400  20.719  0.00  0.00     0.036 H 
ATOM     80  H36 U0E d   1      -3.171  16.494  22.119  0.00  0.00     0.036 H 
BRANCH  78  81
ATOM     81  C26 U0E d   1      -3.054  18.622  22.400  0.00  0.00    -0.048 C 
ATOM     82  H37 U0E d   1      -3.651  18.497  23.315  0.00  0.00     0.035 H 
ATOM     83  H38 U0E d   1      -3.393  19.518  21.860  0.00  0.00     0.035 H 
BRANCH  81  84
ATOM     84  C27 U0E d   1      -1.590  18.818  22.797  0.00  0.00     0.009 C 
ATOM     85  H39 U0E d   1      -1.014  17.946  22.454  0.00  0.00     0.064 H 
ATOM     86  H40 U0E d   1      -1.530  18.889  23.893  0.00  0.00     0.064 H 
BRANCH  84  87
ATOM     87  N6  U0E d   1      -0.994  20.031  22.216  0.00  0.00    -0.227 N 
ATOM     88  C28 U0E d   1       0.321  20.291  22.210  0.00  0.00     0.665 C 
ATOM     89  N8  U0E d   1       0.931  21.043  21.285  0.00  0.00    -0.235 N 
ATOM     90  N7  U0E d   1       1.127  19.798  23.161  0.00  0.00    -0.235 N 
ATOM     91  H51 U0E d   1       1.947  21.203  21.340  0.00  0.00     0.174 HD
ATOM     92  H52 U0E d   1       0.384  21.461  20.519  0.00  0.00     0.174 HD
ATOM     93  H49 U0E d   1       2.135  20.008  23.141  0.00  0.00     0.174 HD
ATOM     94  H50 U0E d   1       0.738  19.209  23.912  0.00  0.00     0.174 HD
ATOM     95  H48 U0E d   1      -1.626  20.723  21.788  0.00  0.00     0.177 HD
ENDBRANCH  84  87
ENDBRANCH  81  84
ENDBRANCH  78  81
ENDBRANCH  71  78
ENDBRANCH  68  71
ENDBRANCH  54  67
ENDBRANCH  51  54
ENDBRANCH   1  50
TORSDOF 23
