REMARK  1 active torsions:
REMARK  status: ('A' for Active; 'I' for Inactive)
REMARK    1  A    between atoms: C14_17  and  C15_18 
ROOT
ATOM      1  C1  HUB d   1       1.068  68.771  61.163  0.00  0.00     0.245 A 
ATOM      2  O1  HUB d   1       0.440  69.208  60.196  0.00  0.00    -0.268 OA
ATOM      3  N1  HUB d   1       2.353  68.265  60.983  0.00  0.00    -0.327 N 
ATOM      4  C2  HUB d   1       0.544  68.745  62.517  0.00  0.00    -0.017 A 
ATOM      5  C3  HUB d   1       1.302  68.245  63.545  0.00  0.00    -0.067 A 
ATOM      6  C4  HUB d   1       2.635  67.728  63.356  0.00  0.00     0.001 A 
ATOM      7  C5  HUB d   1       3.149  67.734  62.013  0.00  0.00     0.021 A 
ATOM      8  C6  HUB d   1       4.520  67.211  61.630  0.00  0.00    -0.019 C 
ATOM      9  C7  HUB d   1       5.312  66.528  62.852  0.00  0.00    -0.026 C 
ATOM     10  C8  HUB d   1       4.889  65.046  63.024  0.00  0.00    -0.096 C 
ATOM     11  C9  HUB d   1       5.125  69.456  65.431  0.00  0.00    -0.042 C 
ATOM     12  C10 HUB d   1       5.432  68.738  64.106  0.00  0.00    -0.057 C 
ATOM     13  C11 HUB d   1       5.024  67.256  64.187  0.00  0.00    -0.010 C 
ATOM     14  C12 HUB d   1       3.516  67.141  64.569  0.00  0.00     0.162 C 
ATOM     15  N2  HUB d   1       3.239  67.879  65.858  0.00  0.00    -0.061 N 
ATOM     16  C13 HUB d   1       3.112  65.642  64.749  0.00  0.00    -0.009 C 
ATOM     17  C14 HUB d   1       3.887  64.648  63.892  0.00  0.00    -0.084 C 
ATOM     18  C90 HUB d   1       3.651  69.386  65.801  0.00  0.00     0.083 C 
ATOM     19  H1  HUB d   1       2.735  68.280  60.059  0.00  0.00     0.169 HD
ATOM     20  H2  HUB d   1      -0.457  69.125  62.718  0.00  0.00     0.092 H 
ATOM     21  H3  HUB d   1       0.878  68.238  64.548  0.00  0.00     0.084 H 
ATOM     22  H4  HUB d   1       5.120  68.052  61.253  0.00  0.00     0.043 H 
ATOM     23  H5  HUB d   1       4.397  66.462  60.834  0.00  0.00     0.043 H 
ATOM     24  H6  HUB d   1       6.390  66.576  62.640  0.00  0.00     0.047 H 
ATOM     25  H7  HUB d   1       5.402  64.286  62.437  0.00  0.00     0.077 H 
ATOM     26  H8  HUB d   1       5.415  70.513  65.336  0.00  0.00     0.035 H 
ATOM     27  H9  HUB d   1       5.713  68.985  66.233  0.00  0.00     0.035 H 
ATOM     28  H10 HUB d   1       4.872  69.224  63.293  0.00  0.00     0.033 H 
ATOM     29  H11 HUB d   1       6.510  68.806  63.899  0.00  0.00     0.033 H 
ATOM     30  H12 HUB d   1       5.620  66.775  64.976  0.00  0.00     0.045 H 
ATOM     31  H13 HUB d   1       3.755  67.433  66.600  0.00  0.00     0.278 HD
ATOM     32  H14 HUB d   1       2.252  67.823  66.054  0.00  0.00     0.278 HD
ATOM     33  H15 HUB d   1       2.045  65.546  64.499  0.00  0.00     0.043 H 
ATOM     34  H16 HUB d   1       3.267  65.373  65.804  0.00  0.00     0.043 H 
ATOM     35  H20 HUB d   1       3.050  69.909  65.042  0.00  0.00     0.075 H 
ATOM     36  H21 HUB d   1       3.490  69.855  66.783  0.00  0.00     0.075 H 
ENDROOT
BRANCH  17  37
ATOM     37  C15 HUB d   1       3.465  63.214  64.087  0.00  0.00    -0.055 C 
ATOM     38  H17 HUB d   1       4.068  62.563  63.437  0.00  0.00     0.033 H 
ATOM     39  H18 HUB d   1       2.401  63.106  63.828  0.00  0.00     0.033 H 
ATOM     40  H19 HUB d   1       3.618  62.926  65.138  0.00  0.00     0.033 H 
ENDBRANCH  17  37
TORSDOF 1
