REMARK  6 active torsions:
REMARK  status: ('A' for Active; 'I' for Inactive)
REMARK    1  A    between atoms: C1_1  and  C2_4 
REMARK    2  A    between atoms: C2_4  and  C3_6 
REMARK    3  A    between atoms: C2_4  and  O7_5 
REMARK    4  A    between atoms: C3_6  and  C6_11 
REMARK    5  A    between atoms: C3_6  and  C4_7 
REMARK    6  A    between atoms: C4_7  and  C5_8 
ROOT
ATOM      1  C3  ICT d   1      84.313  65.801   1.831  0.00  0.00     0.074 C 
ATOM      2  H3  ICT d   1      84.635  65.011   2.525  0.00  0.00     0.062 H 
ENDROOT
BRANCH   1   3
ATOM      3  C2  ICT d   1      85.286  66.991   1.984  0.00  0.00     0.132 C 
ATOM      4  H1  ICT d   1      86.293  66.656   1.694  0.00  0.00     0.101 H 
BRANCH   3   5
ATOM      5  C1  ICT d   1      85.334  67.482   3.428  0.00  0.00     0.203 C 
ATOM      6  O2  ICT d   1      84.812  68.550   3.726  0.00  0.00    -0.646 OA
ATOM      7  O1  ICT d   1      85.894  66.774   4.252  0.00  0.00    -0.646 OA
ENDBRANCH   3   5
BRANCH   3   8
ATOM      8  O7  ICT d   1      84.898  68.058   1.136  0.00  0.00    -0.384 OA
ATOM      9  H2  ICT d   1      84.022  68.342   1.367  0.00  0.00     0.210 HD
ENDBRANCH   3   8
ENDBRANCH   1   3
BRANCH   1  10
ATOM     10  C6  ICT d   1      82.865  66.201   2.180  0.00  0.00     0.180 C 
ATOM     11  O6  ICT d   1      82.043  66.431   1.292  0.00  0.00    -0.648 OA
ATOM     12  O5  ICT d   1      82.558  66.264   3.368  0.00  0.00    -0.648 OA
ENDBRANCH   1  10
BRANCH   1  13
ATOM     13  C4  ICT d   1      84.321  65.230   0.406  0.00  0.00     0.031 C 
ATOM     14  H4  ICT d   1      84.679  66.015  -0.277  0.00  0.00     0.050 H 
ATOM     15  H5  ICT d   1      83.290  64.955   0.140  0.00  0.00     0.050 H 
BRANCH  13  16
ATOM     16  C5  ICT d   1      85.194  64.014   0.225  0.00  0.00     0.173 C 
ATOM     17  O4  ICT d   1      84.844  62.976   0.771  0.00  0.00    -0.648 OA
ATOM     18  O3  ICT d   1      86.205  64.100  -0.467  0.00  0.00    -0.648 OA
ENDBRANCH  13  16
ENDBRANCH   1  13
TORSDOF 6
