REMARK  26 active torsions:
REMARK  status: ('A' for Active; 'I' for Inactive)
REMARK    1  A    between atoms: C_2  and  O2_3 
REMARK       I    between atoms: N_8  and  C_2 
REMARK    2  A    between atoms: O2_3  and  CT_4 
REMARK    3  A    between atoms: CT_4  and  C3_7 
REMARK    4  A    between atoms: CT_4  and  C2_6 
REMARK    5  A    between atoms: CT_4  and  C1_5 
REMARK    6  A    between atoms: CA_9  and  N_8 
REMARK    7  A    between atoms: C_10  and  CA_9 
REMARK    8  A    between atoms: CA_9  and  CB_12 
REMARK       I    between atoms: N_19  and  C_10 
REMARK    9  A    between atoms: CB_12  and  CG_13 
REMARK   10  A    between atoms: CA_20  and  N_19 
REMARK   11  A    between atoms: C_21  and  CA_20 
REMARK   12  A    between atoms: CA_20  and  CB_23 
REMARK       I    between atoms: N_29  and  C_21 
REMARK   13  A    between atoms: CB_23  and  CG_24 
REMARK   14  A    between atoms: CA_30  and  N_29 
REMARK   15  A    between atoms: P_35  and  CA_30 
REMARK   16  A    between atoms: CA_30  and  CB_31 
REMARK   17  A    between atoms: CB_31  and  CG_32 
REMARK   18  A    between atoms: CG_32  and  CD2_34 
REMARK   19  A    between atoms: CG_32  and  CD1_33 
REMARK   20  A    between atoms: CM_38  and  P_35 
REMARK   21  A    between atoms: C_39  and  CM_38 
REMARK       I    between atoms: C_39  and  N_41 
REMARK   22  A    between atoms: N_41  and  CA_42 
REMARK   23  A    between atoms: CA_42  and  CB_43 
REMARK   24  A    between atoms: CB_43  and  CG2_45 
REMARK   25  A    between atoms: CB_43  and  CG1_44 
REMARK   26  A    between atoms: CG1_44  and  CD1_46 
ROOT
ATOM      1  CA  0EM d   1       2.125  30.749  16.592  0.00  0.00     0.094 C 
ATOM      2  H20 0EM d   1       2.225  30.093  15.714  0.00  0.00     0.088 H 
ENDROOT
BRANCH   1   3
ATOM      3  C   0EM d   1       2.897  32.056  16.347  0.00  0.00     0.241 C 
ATOM      4  O   0EM d   1       2.462  33.096  16.871  0.00  0.00    -0.271 OA
ATOM      5  N   0EM d   1       3.968  32.001  15.546  0.00  0.00    -0.345 N 
ATOM      6  H26 0EM d   1       4.162  31.113  15.130  0.00  0.00     0.163 HD
BRANCH   5   7
ATOM      7  CA  0EM d   1       4.882  33.078  15.209  0.00  0.00     0.088 C 
ATOM      8  H27 0EM d   1       4.471  33.979  15.688  0.00  0.00     0.089 H 
BRANCH   7   9
ATOM      9  P   0EM d   1       4.891  33.407  13.415  0.00  0.00     0.138 P 
ATOM     10  O2P 0EM d   1       5.926  34.477  13.094  0.00  0.00    -0.666 OA
ATOM     11  O1P 0EM d   1       5.130  32.110  12.755  0.00  0.00    -0.666 OA
BRANCH   9  12
ATOM     12  CM  0EM d   1       3.315  34.115  12.912  0.00  0.00     0.082 C 
ATOM     13  H37 0EM d   1       2.507  33.522  13.367  0.00  0.00     0.063 H 
ATOM     14  H38 0EM d   1       3.242  34.055  11.816  0.00  0.00     0.063 H 
BRANCH  12  15
ATOM     15  C   0EM d   1       3.136  35.561  13.324  0.00  0.00     0.227 C 
ATOM     16  O   0EM d   1       2.601  35.798  14.407  0.00  0.00    -0.273 OA
ATOM     17  N   0EM d   1       3.583  36.537  12.491  0.00  0.00    -0.360 N 
ATOM     18  H39 0EM d   1       3.880  36.318  11.561  0.00  0.00     0.162 HD
BRANCH  17  19
ATOM     19  CA  0EM d   1       3.621  37.904  12.979  0.00  0.00    -0.002 C 
ATOM     20  H40 0EM d   1       4.460  37.980  13.686  0.00  0.00     0.064 H 
ATOM     21  H41 0EM d   1       2.676  38.093  13.509  0.00  0.00     0.064 H 
BRANCH  19  22
ATOM     22  CB  0EM d   1       3.791  38.992  11.956  0.00  0.00    -0.043 C 
ATOM     23  H42 0EM d   1       4.681  38.765  11.351  0.00  0.00     0.041 H 
BRANCH  22  24
ATOM     24  CG2 0EM d   1       2.577  38.986  11.055  0.00  0.00    -0.071 C 
ATOM     25  H45 0EM d   1       2.455  37.987  10.611  0.00  0.00     0.028 H 
ATOM     26  H46 0EM d   1       2.710  39.729  10.255  0.00  0.00     0.028 H 
ATOM     27  H47 0EM d   1       1.682  39.237  11.644  0.00  0.00     0.028 H 
ENDBRANCH  22  24
BRANCH  22  28
ATOM     28  CG1 0EM d   1       3.997  40.375  12.599  0.00  0.00    -0.064 C 
ATOM     29  H43 0EM d   1       4.588  40.261  13.520  0.00  0.00     0.033 H 
ATOM     30  H44 0EM d   1       3.016  40.809  12.845  0.00  0.00     0.033 H 
BRANCH  28  31
ATOM     31  CD1 0EM d   1       4.716  41.288  11.666  0.00  0.00    -0.076 C 
ATOM     32  H48 0EM d   1       4.852  42.269  12.145  0.00  0.00     0.027 H 
ATOM     33  H49 0EM d   1       4.127  41.409  10.745  0.00  0.00     0.027 H 
ATOM     34  H50 0EM d   1       5.699  40.861  11.420  0.00  0.00     0.027 H 
ENDBRANCH  28  31
ENDBRANCH  22  28
ENDBRANCH  19  22
ENDBRANCH  17  19
ENDBRANCH  12  15
ENDBRANCH   9  12
ENDBRANCH   7   9
BRANCH   7  35
ATOM     35  CB  0EM d   1       6.335  32.923  15.776  0.00  0.00    -0.034 C 
ATOM     36  H28 0EM d   1       6.853  33.881  15.622  0.00  0.00     0.037 H 
ATOM     37  H29 0EM d   1       6.835  32.138  15.190  0.00  0.00     0.037 H 
BRANCH  35  38
ATOM     38  CG  0EM d   1       6.484  32.550  17.274  0.00  0.00    -0.059 C 
ATOM     39  H30 0EM d   1       5.956  31.597  17.426  0.00  0.00     0.039 H 
BRANCH  38  40
ATOM     40  CD2 0EM d   1       5.846  33.550  18.221  0.00  0.00    -0.073 C 
ATOM     41  H34 0EM d   1       4.787  33.684  17.954  0.00  0.00     0.028 H 
ATOM     42  H35 0EM d   1       6.369  34.515  18.142  0.00  0.00     0.028 H 
ATOM     43  H36 0EM d   1       5.919  33.176  19.253  0.00  0.00     0.028 H 
ENDBRANCH  38  40
BRANCH  38  44
ATOM     44  CD1 0EM d   1       7.985  32.304  17.585  0.00  0.00    -0.073 C 
ATOM     45  H31 0EM d   1       8.101  32.039  18.646  0.00  0.00     0.028 H 
ATOM     46  H32 0EM d   1       8.558  33.218  17.371  0.00  0.00     0.028 H 
ATOM     47  H33 0EM d   1       8.359  31.481  16.958  0.00  0.00     0.028 H 
ENDBRANCH  38  44
ENDBRANCH  35  38
ENDBRANCH   7  35
ENDBRANCH   5   7
ENDBRANCH   1   3
BRANCH   1  48
ATOM     48  CB  0EM d   1       0.645  31.091  16.739  0.00  0.00     0.002 C 
ATOM     49  H21 0EM d   1       0.545  31.796  17.578  0.00  0.00     0.046 H 
ATOM     50  H22 0EM d   1       0.108  30.161  16.976  0.00  0.00     0.046 H 
BRANCH  48  51
ATOM     51  CG  0EM d   1      -0.019  31.711  15.538  0.00  0.00     0.030 A 
ATOM     52  CD2 0EM d   1       0.382  31.843  14.245  0.00  0.00     0.025 A 
ATOM     53  NE2 0EM d   1      -0.609  32.486  13.536  0.00  0.00    -0.254 NA
ATOM     54  H24 0EM d   1       1.331  31.497  13.837  0.00  0.00     0.117 H 
ATOM     55  CE1 0EM d   1      -1.640  32.738  14.365  0.00  0.00     0.063 A 
ATOM     56  ND1 0EM d   1      -1.317  32.281  15.569  0.00  0.00    -0.353 N 
ATOM     57  H25 0EM d   1      -2.574  33.230  14.095  0.00  0.00     0.143 H 
ATOM     58  H23 0EM d   1      -1.920  32.333  16.402  0.00  0.00     0.166 HD
ENDBRANCH  48  51
ENDBRANCH   1  48
BRANCH   1  59
ATOM     59  N   0EM d   1       2.783  30.075  17.731  0.00  0.00    -0.346 N 
ATOM     60  C   0EM d   1       3.109  28.759  17.692  0.00  0.00     0.241 C 
ATOM     61  O   0EM d   1       2.809  27.939  16.771  0.00  0.00    -0.271 OA
ATOM     62  H19 0EM d   1       2.994  30.604  18.553  0.00  0.00     0.163 HD
BRANCH  60  63
ATOM     63  CA  0EM d   1       3.984  28.208  18.846  0.00  0.00     0.095 C 
ATOM     64  H11 0EM d   1       3.833  28.848  19.728  0.00  0.00     0.088 H 
BRANCH  63  65
ATOM     65  CB  0EM d   1       5.464  28.224  18.511  0.00  0.00    -0.014 C 
ATOM     66  H12 0EM d   1       5.655  29.197  18.035  0.00  0.00     0.043 H 
ATOM     67  H13 0EM d   1       5.616  27.420  17.776  0.00  0.00     0.043 H 
BRANCH  65  68
ATOM     68  CG  0EM d   1       6.542  28.050  19.541  0.00  0.00    -0.056 A 
ATOM     69  CD2 0EM d   1       7.493  29.052  19.778  0.00  0.00    -0.077 A 
ATOM     70  CE2 0EM d   1       8.465  28.895  20.745  0.00  0.00    -0.082 A 
ATOM     71  H15 0EM d   1       7.465  29.964  19.193  0.00  0.00     0.084 H 
ATOM     72  CZ  0EM d   1       8.579  27.735  21.493  0.00  0.00    -0.083 A 
ATOM     73  H17 0EM d   1       9.162  29.706  20.925  0.00  0.00     0.083 H 
ATOM     74  CE1 0EM d   1       7.680  26.720  21.236  0.00  0.00    -0.082 A 
ATOM     75  H18 0EM d   1       9.346  27.628  22.252  0.00  0.00     0.083 H 
ATOM     76  CD1 0EM d   1       6.693  26.897  20.301  0.00  0.00    -0.077 A 
ATOM     77  H16 0EM d   1       7.754  25.782  21.774  0.00  0.00     0.083 H 
ATOM     78  H14 0EM d   1       5.988  26.088  20.145  0.00  0.00     0.084 H 
ENDBRANCH  65  68
ENDBRANCH  63  65
BRANCH  63  79
ATOM     79  N   0EM d   1       3.520  26.824  19.178  0.00  0.00    -0.323 N 
ATOM     80  C   0EM d   1       2.352  26.592  19.795  0.00  0.00     0.362 C 
ATOM     81  O1  0EM d   1       1.553  27.394  20.280  0.00  0.00    -0.238 OA
ATOM     82  H10 0EM d   1       4.100  26.047  18.932  0.00  0.00     0.165 HD
BRANCH  80  83
ATOM     83  O2  0EM d   1       2.128  25.182  19.839  0.00  0.00    -0.294 OA
BRANCH  83  84
ATOM     84  CT  0EM d   1       1.010  24.518  20.458  0.00  0.00     0.061 C 
BRANCH  84  85
ATOM     85  C3  0EM d   1      -0.251  24.963  19.717  0.00  0.00    -0.048 C 
ATOM     86  H7  0EM d   1      -1.130  24.475  20.163  0.00  0.00     0.031 H 
ATOM     87  H8  0EM d   1      -0.173  24.680  18.657  0.00  0.00     0.031 H 
ATOM     88  H9  0EM d   1      -0.358  26.055  19.798  0.00  0.00     0.031 H 
ENDBRANCH  84  85
BRANCH  84  89
ATOM     89  C2  0EM d   1       1.251  23.018  20.228  0.00  0.00    -0.048 C 
ATOM     90  H4  0EM d   1       0.429  22.441  20.678  0.00  0.00     0.031 H 
ATOM     91  H5  0EM d   1       2.203  22.724  20.694  0.00  0.00     0.031 H 
ATOM     92  H6  0EM d   1       1.293  22.815  19.148  0.00  0.00     0.031 H 
ENDBRANCH  84  89
BRANCH  84  93
ATOM     93  C1  0EM d   1       0.990  24.725  21.970  0.00  0.00    -0.048 C 
ATOM     94  H1  0EM d   1       0.123  24.203  22.400  0.00  0.00     0.031 H 
ATOM     95  H2  0EM d   1       0.918  25.800  22.192  0.00  0.00     0.031 H 
ATOM     96  H3  0EM d   1       1.915  24.322  22.408  0.00  0.00     0.031 H 
ENDBRANCH  84  93
ENDBRANCH  83  84
ENDBRANCH  80  83
ENDBRANCH  63  79
ENDBRANCH  60  63
ENDBRANCH   1  59
TORSDOF 26
