REMARK  31 active torsions:
REMARK  status: ('A' for Active; 'I' for Inactive)
REMARK    1  A    between atoms: C_3  and  CA_2 
REMARK       I    between atoms: N_8  and  C_3 
REMARK    2  A    between atoms: CA_9  and  N_8 
REMARK    3  A    between atoms: C_10  and  CA_9 
REMARK    4  A    between atoms: CA_9  and  CB_12 
REMARK       I    between atoms: N_15  and  C_10 
REMARK    5  A    between atoms: CB_12  and  OG1_13 
REMARK    6  A    between atoms: CB_12  and  CG2_14 
REMARK    7  A    between atoms: CA_16  and  N_15 
REMARK    8  A    between atoms: C_17  and  CA_16 
REMARK    9  A    between atoms: CA_16  and  CB_19 
REMARK       I    between atoms: N_24  and  C_17 
REMARK   10  A    between atoms: CB_19  and  CG_20 
REMARK   11  A    between atoms: CG_20  and  CD_21 
REMARK   12  A    between atoms: C1A_25  and  N_24 
REMARK   13  A    between atoms: C1A_25  and  CB_27 
REMARK   14  A    between atoms: CT_26  and  C1A_25 
REMARK   15  A    between atoms: N1_34  and  CT_26 
REMARK   16  A    between atoms: CB_27  and  CG_28 
REMARK   17  A    between atoms: C2A_35  and  N1_34 
REMARK   18  A    between atoms: C2A_35  and  CB1_38 
REMARK   19  A    between atoms: CT1_36  and  C2A_35 
REMARK       I    between atoms: CT1_36  and  N_45 
REMARK   20  A    between atoms: CB1_38  and  CG1_39 
REMARK   21  A    between atoms: N_45  and  CA_46 
REMARK   22  A    between atoms: CA_46  and  C_47 
REMARK   23  A    between atoms: CA_46  and  CB_49 
REMARK       I    between atoms: C_47  and  N_56 
REMARK   24  A    between atoms: CB_49  and  CG_50 
REMARK   25  A    between atoms: CG_50  and  CD_51 
REMARK   26  A    between atoms: CD_51  and  NE_52 
REMARK       I    between atoms: NE_52  and  CZ_53 
REMARK       I    between atoms: CZ_53  and  NH1_54 
REMARK   27  A    between atoms: N_56  and  CA_57 
REMARK   28  A    between atoms: CA_57  and  C_58 
REMARK   29  A    between atoms: CA_57  and  CB_60 
REMARK   30  A    between atoms: CB_60  and  CG_61 
REMARK   31  A    between atoms: CG_61  and  CD_62 
ROOT
ATOM      1  CT  PUK d   1       5.206  33.412  13.387  0.00  0.00     0.101 C 
ATOM      2  H25 PUK d   1       5.747  32.630  12.834  0.00  0.00     0.079 H 
ATOM      3  H26 PUK d   1       5.685  34.386  13.209  0.00  0.00     0.079 H 
ENDROOT
BRANCH   1   4
ATOM      4  C1A PUK d   1       5.290  33.091  14.905  0.00  0.00     0.039 C 
ATOM      5  H24 PUK d   1       4.899  33.956  15.460  0.00  0.00     0.075 H 
BRANCH   4   6
ATOM      6  N   PUK d   1       4.494  31.928  15.295  0.00  0.00    -0.353 N 
ATOM      7  C   GLU d   1       3.195  32.012  15.713  0.00  0.00     0.240 C 
ATOM      8  O   GLU d   1       2.557  33.105  15.602  0.00  0.00    -0.271 OA
ATOM      9  H23 PUK d   1       4.922  31.025  15.254  0.00  0.00     0.163 HD
BRANCH   7  10
ATOM     10  CA  GLU d   1       2.498  30.741  16.228  0.00  0.00     0.090 C 
ATOM     11  H18 GLU d   1       2.578  29.966  15.451  0.00  0.00     0.087 H 
BRANCH  10  12
ATOM     12  CB  GLU d   1       0.991  31.014  16.455  0.00  0.00    -0.029 C 
ATOM     13  H19 GLU d   1       0.564  31.426  15.529  0.00  0.00     0.037 H 
ATOM     14  H20 GLU d   1       0.884  31.748  17.267  0.00  0.00     0.037 H 
BRANCH  12  15
ATOM     15  CG  GLU d   1       0.208  29.735  16.836  0.00  0.00     0.018 C 
ATOM     16  H21 GLU d   1       0.731  29.221  17.655  0.00  0.00     0.049 H 
ATOM     17  H22 GLU d   1       0.153  29.070  15.961  0.00  0.00     0.049 H 
BRANCH  15  18
ATOM     18  CD  GLU d   1      -1.209  30.090  17.288  0.00  0.00     0.172 C 
ATOM     19  OE1 GLU d   1      -2.028  30.406  16.436  0.00  0.00    -0.648 OA
ATOM     20  OE2 GLU d   1      -1.422  30.041  18.502  0.00  0.00    -0.648 OA
ENDBRANCH  15  18
ENDBRANCH  12  15
ENDBRANCH  10  12
BRANCH  10  21
ATOM     21  N   GLU d   1       3.211  30.235  17.440  0.00  0.00    -0.346 N 
ATOM     22  C   THR d   1       3.522  28.953  17.636  0.00  0.00     0.243 C 
ATOM     23  O   THR d   1       3.159  28.009  16.822  0.00  0.00    -0.271 OA
ATOM     24  H17 GLU d   1       3.470  30.896  18.145  0.00  0.00     0.163 HD
BRANCH  22  25
ATOM     25  CA  THR d   1       4.372  28.619  18.877  0.00  0.00     0.113 C 
ATOM     26  H11 THR d   1       4.062  29.274  19.705  0.00  0.00     0.091 H 
BRANCH  25  27
ATOM     27  CB  THR d   1       5.877  28.883  18.558  0.00  0.00     0.060 C 
ATOM     28  H12 THR d   1       6.056  29.960  18.425  0.00  0.00     0.086 H 
BRANCH  27  29
ATOM     29  OG1 THR d   1       6.191  28.151  17.369  0.00  0.00    -0.393 OA
ATOM     30  H13 THR d   1       7.104  28.290  17.145  0.00  0.00     0.210 HD
ENDBRANCH  27  29
BRANCH  27  31
ATOM     31  CG2 THR d   1       6.779  28.324  19.640  0.00  0.00    -0.050 C 
ATOM     32  H14 THR d   1       7.829  28.527  19.383  0.00  0.00     0.031 H 
ATOM     33  H15 THR d   1       6.625  27.238  19.721  0.00  0.00     0.031 H 
ATOM     34  H16 THR d   1       6.538  28.801  20.601  0.00  0.00     0.031 H 
ENDBRANCH  27  31
ENDBRANCH  25  27
BRANCH  25  35
ATOM     35  N   THR d   1       4.179  27.214  19.290  0.00  0.00    -0.344 N 
ATOM     36  C   PRO d   1       3.482  26.787  20.346  0.00  0.00     0.249 C 
ATOM     37  O   PRO d   1       2.972  27.551  21.206  0.00  0.00    -0.271 OA
ATOM     38  H10 THR d   1       4.613  26.514  18.723  0.00  0.00     0.163 HD
BRANCH  36  39
ATOM     39  CA  PRO d   1       3.315  25.287  20.609  0.00  0.00     0.178 C 
ATOM     40  N   PRO d   1       3.212  24.903  22.033  0.00  0.00    -0.062 N 
ATOM     41  CD  PRO d   1       2.142  23.900  22.221  0.00  0.00     0.083 C 
ATOM     42  H1  PRO d   1       3.001  25.721  22.583  0.00  0.00     0.278 HD
ATOM     43  H2  PRO d   1       4.090  24.512  22.336  0.00  0.00     0.278 HD
ATOM     44  CG  PRO d   1       1.521  23.697  20.866  0.00  0.00    -0.040 C 
ATOM     45  H8  PRO d   1       2.565  22.955  22.593  0.00  0.00     0.075 H 
ATOM     46  H9  PRO d   1       1.391  24.271  22.934  0.00  0.00     0.075 H 
ATOM     47  CB  PRO d   1       1.961  24.839  20.033  0.00  0.00    -0.028 C 
ATOM     48  H6  PRO d   1       1.866  22.750  20.427  0.00  0.00     0.035 H 
ATOM     49  H7  PRO d   1       0.424  23.685  20.948  0.00  0.00     0.035 H 
ATOM     50  H4  PRO d   1       2.076  24.526  18.985  0.00  0.00     0.036 H 
ATOM     51  H5  PRO d   1       1.230  25.659  20.092  0.00  0.00     0.036 H 
ATOM     52  H3  PRO d   1       4.149  24.748  20.136  0.00  0.00     0.099 H 
ENDBRANCH  36  39
ENDBRANCH  25  35
ENDBRANCH  22  25
ENDBRANCH  10  21
ENDBRANCH   7  10
ENDBRANCH   4   6
BRANCH   4  53
ATOM     53  CB  PUK d   1       6.814  32.911  15.270  0.00  0.00    -0.021 C 
ATOM     54  H27 PUK d   1       7.332  33.831  14.961  0.00  0.00     0.043 H 
ATOM     55  H28 PUK d   1       7.191  32.062  14.680  0.00  0.00     0.043 H 
BRANCH  53  56
ATOM     56  CG  PUK d   1       7.191  32.649  16.730  0.00  0.00    -0.056 A 
ATOM     57  CD2 PUK d   1       6.550  33.216  17.805  0.00  0.00    -0.077 A 
ATOM     58  CE2 PUK d   1       6.953  32.952  19.122  0.00  0.00    -0.082 A 
ATOM     59  H30 PUK d   1       5.713  33.883  17.631  0.00  0.00     0.084 H 
ATOM     60  CZ  PUK d   1       8.047  32.154  19.384  0.00  0.00    -0.083 A 
ATOM     61  H32 PUK d   1       6.396  33.382  19.947  0.00  0.00     0.083 H 
ATOM     62  CE1 PUK d   1       8.695  31.506  18.332  0.00  0.00    -0.082 A 
ATOM     63  H33 PUK d   1       8.401  32.031  20.401  0.00  0.00     0.083 H 
ATOM     64  CD1 PUK d   1       8.280  31.798  17.012  0.00  0.00    -0.077 A 
ATOM     65  H31 PUK d   1       9.494  30.799  18.521  0.00  0.00     0.083 H 
ATOM     66  H29 PUK d   1       8.819  31.351  16.185  0.00  0.00     0.084 H 
ENDBRANCH  53  56
ENDBRANCH   4  53
ENDBRANCH   1   4
BRANCH   1  67
ATOM     67  N1  PUK d   1       3.781  33.472  12.867  0.00  0.00    -0.060 N 
ATOM     68  H34 PUK d   1       3.160  33.508  13.660  0.00  0.00     0.278 HD
ATOM     69  H35 PUK d   1       3.604  32.631  12.340  0.00  0.00     0.278 HD
BRANCH  67  70
ATOM     70  C2A PUK d   1       3.480  34.640  11.989  0.00  0.00     0.181 C 
ATOM     71  H36 PUK d   1       4.309  34.764  11.276  0.00  0.00     0.100 H 
BRANCH  70  72
ATOM     72  CB1 PUK d   1       2.166  34.413  11.176  0.00  0.00    -0.006 C 
ATOM     73  H37 PUK d   1       2.338  33.570  10.491  0.00  0.00     0.043 H 
ATOM     74  H38 PUK d   1       1.972  35.326  10.593  0.00  0.00     0.043 H 
BRANCH  72  75
ATOM     75  CG1 PUK d   1       0.881  34.096  12.003  0.00  0.00    -0.056 C 
ATOM     76  CD4 PUK d   1       0.004  35.064  12.481  0.00  0.00    -0.077 C 
ATOM     77  CE4 PUK d   1      -1.173  34.754  13.176  0.00  0.00    -0.082 C 
ATOM     78  H40 PUK d   1       0.242  36.107  12.308  0.00  0.00     0.084 H 
ATOM     79  CZ1 PUK d   1      -1.377  33.436  13.540  0.00  0.00    -0.083 C 
ATOM     80  H42 PUK d   1      -1.899  35.522  13.420  0.00  0.00     0.083 H 
ATOM     81  CE3 PUK d   1      -0.530  32.446  13.128  0.00  0.00    -0.082 C 
ATOM     82  H43 PUK d   1      -2.226  33.183  14.165  0.00  0.00     0.083 H 
ATOM     83  CD3 PUK d   1       0.602  32.783  12.365  0.00  0.00    -0.077 C 
ATOM     84  H41 PUK d   1      -0.729  31.412  13.386  0.00  0.00     0.083 H 
ATOM     85  H39 PUK d   1       1.277  31.996  12.050  0.00  0.00     0.084 H 
ENDBRANCH  72  75
ENDBRANCH  70  72
BRANCH  70  86
ATOM     86  CT1 PUK d   1       3.377  35.907  12.843  0.00  0.00     0.249 C 
ATOM     87  O   PUK d   1       2.962  35.885  14.019  0.00  0.00    -0.271 OA
ATOM     88  N   ARG d   1       3.786  37.073  12.215  0.00  0.00    -0.346 N 
ATOM     89  H44 ARG d   1       4.282  37.017  11.348  0.00  0.00     0.163 HD
BRANCH  88  90
ATOM     90  CA  ARG d   1       3.499  38.411  12.810  0.00  0.00     0.089 C 
ATOM     91  H45 ARG d   1       3.861  38.418  13.849  0.00  0.00     0.087 H 
BRANCH  90  92
ATOM     92  C   ARG d   1       1.977  38.707  12.814  0.00  0.00     0.241 C 
ATOM     93  O   ARG d   1       1.315  38.485  11.788  0.00  0.00    -0.271 OA
ATOM     94  N   GLU d   1       1.467  39.200  13.933  0.00  0.00    -0.345 N 
ATOM     95  H57 GLU d   1       2.026  39.194  14.762  0.00  0.00     0.163 HD
BRANCH  94  96
ATOM     96  CA  GLU d   1       0.094  39.761  13.997  0.00  0.00     0.097 C 
ATOM     97  H58 GLU d   1      -0.418  39.456  13.072  0.00  0.00     0.089 H 
BRANCH  96  98
ATOM     98  C   GLU d   1       0.146  41.315  13.980  0.00  0.00     0.196 C 
ATOM     99  O1  GLU d   1       1.204  41.968  14.183  0.00  0.00    -0.646 OA
ATOM    100  O   GLU d   1      -0.973  41.868  13.743  0.00  0.00    -0.646 OA
ENDBRANCH  96  98
BRANCH  96 101
ATOM    101  CB  GLU d   1      -0.721  39.172  15.144  0.00  0.00    -0.028 C 
ATOM    102  H59 GLU d   1      -0.449  39.705  16.067  0.00  0.00     0.037 H 
ATOM    103  H60 GLU d   1      -0.456  38.109  15.242  0.00  0.00     0.037 H 
BRANCH 101 104
ATOM    104  CG  GLU d   1      -2.233  39.271  14.966  0.00  0.00     0.018 C 
ATOM    105  H61 GLU d   1      -2.420  39.647  13.950  0.00  0.00     0.049 H 
ATOM    106  H62 GLU d   1      -2.603  40.001  15.701  0.00  0.00     0.049 H 
BRANCH 104 107
ATOM    107  CD  GLU d   1      -3.046  38.007  15.136  0.00  0.00     0.172 C 
ATOM    108  OE1 GLU d   1      -4.275  38.074  15.415  0.00  0.00    -0.648 OA
ATOM    109  OE2 GLU d   1      -2.481  36.897  14.977  0.00  0.00    -0.648 OA
ENDBRANCH 104 107
ENDBRANCH 101 104
ENDBRANCH  96 101
ENDBRANCH  94  96
ENDBRANCH  90  92
BRANCH  90 110
ATOM    110  CB  ARG d   1       4.247  39.516  12.007  0.00  0.00    -0.036 C 
ATOM    111  H46 ARG d   1       3.910  39.490  10.960  0.00  0.00     0.036 H 
ATOM    112  H47 ARG d   1       5.329  39.321  12.049  0.00  0.00     0.036 H 
BRANCH 110 113
ATOM    113  CG  ARG d   1       3.964  40.911  12.592  0.00  0.00    -0.048 C 
ATOM    114  H48 ARG d   1       4.339  40.925  13.626  0.00  0.00     0.035 H 
ATOM    115  H49 ARG d   1       2.874  41.060  12.595  0.00  0.00     0.035 H 
BRANCH 113 116
ATOM    116  CD  ARG d   1       4.595  42.088  11.849  0.00  0.00     0.009 C 
ATOM    117  H50 ARG d   1       4.408  41.992  10.769  0.00  0.00     0.064 H 
ATOM    118  H51 ARG d   1       5.679  42.108  12.033  0.00  0.00     0.064 H 
BRANCH 116 119
ATOM    119  NE  ARG d   1       3.977  43.331  12.357  0.00  0.00    -0.227 N 
ATOM    120  CZ  ARG d   1       3.879  44.452  11.673  0.00  0.00     0.665 C 
ATOM    121  NH1 ARG d   1       4.433  44.503  10.468  0.00  0.00    -0.235 N 
ATOM    122  NH2 ARG d   1       3.261  45.539  12.182  0.00  0.00    -0.235 N 
ATOM    123  H53 ARG d   1       4.373  45.366   9.909  0.00  0.00     0.174 HD
ATOM    124  H54 ARG d   1       4.923  43.679  10.091  0.00  0.00     0.174 HD
ATOM    125  H55 ARG d   1       2.832  45.497  13.117  0.00  0.00     0.174 HD
ATOM    126  H56 ARG d   1       3.219  46.411  11.635  0.00  0.00     0.174 HD
ATOM    127  H52 ARG d   1       3.596  43.319  13.314  0.00  0.00     0.177 HD
ENDBRANCH 116 119
ENDBRANCH 113 116
ENDBRANCH 110 113
ENDBRANCH  90 110
ENDBRANCH  88  90
ENDBRANCH  70  86
ENDBRANCH  67  70
ENDBRANCH   1  67
TORSDOF 31
