REMARK  12 active torsions:
REMARK  status: ('A' for Active; 'I' for Inactive)
REMARK    1  A    between atoms: O1_7  and  C1_1 
REMARK    2  A    between atoms: C2_2  and  O2_8 
REMARK    3  A    between atoms: C3_3  and  O3_9 
REMARK    4  A    between atoms: C4_4  and  O4_10 
REMARK    5  A    between atoms: C5_5  and  C6_6 
REMARK    6  A    between atoms: C6_6  and  O6_12 
REMARK    7  A    between atoms: C4'_16  and  O1_7 
REMARK    8  A    between atoms: C1'_13  and  O1'_19 
REMARK    9  A    between atoms: C2'_14  and  O2'_20 
REMARK   10  A    between atoms: C3'_15  and  O3'_21 
REMARK   11  A    between atoms: C5'_17  and  C6'_18 
REMARK   12  A    between atoms: C6'_18  and  O6'_23 
ROOT
ATOM      1  O1  NON d   1       9.743   9.795  56.182  0.00  0.00    -0.348 OA
ENDROOT
BRANCH   1   2
ATOM      2  C1  NON d   1       8.375   9.752  55.808  0.00  0.00     0.159 C 
ATOM      3  C2  NON d   1       8.259   9.663  54.291  0.00  0.00     0.110 C 
ATOM      4  C3  NON d   1       6.773   9.555  53.905  0.00  0.00     0.092 C 
ATOM      5  H2  NON d   1       8.791   8.764  53.947  0.00  0.00     0.094 H 
ATOM      6  C4  NON d   1       6.181   8.311  54.617  0.00  0.00     0.090 C 
ATOM      7  H3  NON d   1       6.238  10.453  54.247  0.00  0.00     0.091 H 
ATOM      8  C5  NON d   1       6.367   8.461  56.156  0.00  0.00     0.089 C 
ATOM      9  H4  NON d   1       5.109   8.239  54.382  0.00  0.00     0.091 H 
ATOM     10  O5  NON d   1       7.792   8.614  56.473  0.00  0.00    -0.348 OA
ATOM     11  H5  NON d   1       5.826   9.360  56.486  0.00  0.00     0.090 H 
ATOM     12  H1  NON d   1       7.868  10.668  56.147  0.00  0.00     0.133 H 
BRANCH   3  13
ATOM     13  O2  NON d   1       8.831  10.815  53.645  0.00  0.00    -0.388 OA
ATOM     14  H8  NON d   1       8.751  10.721  52.703  0.00  0.00     0.210 HD
ENDBRANCH   3  13
BRANCH   4  15
ATOM     15  O3  NON d   1       6.654   9.463  52.491  0.00  0.00    -0.390 OA
ATOM     16  H9  NON d   1       7.026  10.241  52.092  0.00  0.00     0.210 HD
ENDBRANCH   4  15
BRANCH   6  17
ATOM     17  O4  NON d   1       6.841   7.105  54.186  0.00  0.00    -0.390 OA
ATOM     18  H10 NON d   1       6.457   6.359  54.632  0.00  0.00     0.210 HD
ENDBRANCH   6  17
BRANCH   8  19
ATOM     19  C6  NON d   1       5.886   7.396  56.828  0.00  0.00     0.043 C 
ATOM     20  H6  NON d   1       6.525   6.521  56.638  0.00  0.00     0.078 H 
ATOM     21  H7  NON d   1       4.861   7.181  56.492  0.00  0.00     0.078 H 
BRANCH  19  22
ATOM     22  O6  NON d   1       5.879   7.685  58.213  0.00  0.00    -0.398 OA
ATOM     23  H11 NON d   1       5.540   6.936  58.690  0.00  0.00     0.209 HD
ENDBRANCH  19  22
ENDBRANCH   8  19
ENDBRANCH   1   2
BRANCH   1  24
ATOM     24  C4' NON d   1      10.074  10.246  57.528  0.00  0.00     0.096 C 
ATOM     25  C3' NON d   1      10.329   9.069  58.491  0.00  0.00     0.092 C 
ATOM     26  C2' NON d   1      10.723   9.638  59.878  0.00  0.00     0.110 C 
ATOM     27  H14 NON d   1      11.152   8.456  58.095  0.00  0.00     0.091 H 
ATOM     28  C1' NON d   1      11.991  10.499  59.680  0.00  0.00     0.156 C 
ATOM     29  H13 NON d   1       9.911  10.265  60.274  0.00  0.00     0.094 H 
ATOM     30  O5' NON d   1      11.720  11.581  58.741  0.00  0.00    -0.349 OA
ATOM     31  H12 NON d   1      12.800   9.868  59.285  0.00  0.00     0.133 H 
ATOM     32  C5' NON d   1      11.320  11.137  57.408  0.00  0.00     0.089 C 
ATOM     33  H16 NON d   1      12.130  10.549  56.951  0.00  0.00     0.090 H 
ATOM     34  H15 NON d   1       9.238  10.841  57.924  0.00  0.00     0.091 H 
BRANCH  25  35
ATOM     35  O3' NON d   1       9.183   8.254  58.650  0.00  0.00    -0.390 OA
ATOM     36  H21 NON d   1       8.930   7.898  57.807  0.00  0.00     0.210 HD
ENDBRANCH  25  35
BRANCH  26  37
ATOM     37  O2' NON d   1      10.953   8.569  60.759  0.00  0.00    -0.388 OA
ATOM     38  H20 NON d   1      10.162   8.049  60.837  0.00  0.00     0.210 HD
ENDBRANCH  26  37
BRANCH  28  39
ATOM     39  O1' NON d   1      12.380  11.042  60.900  0.00  0.00    -0.369 OA
ATOM     40  H19 NON d   1      11.682  11.592  61.237  0.00  0.00     0.212 HD
ENDBRANCH  28  39
BRANCH  32  41
ATOM     41  C6' NON d   1      11.084  12.391  56.574  0.00  0.00     0.043 C 
ATOM     42  H17 NON d   1      10.671  13.182  57.217  0.00  0.00     0.078 H 
ATOM     43  H18 NON d   1      10.370  12.162  55.769  0.00  0.00     0.078 H 
BRANCH  41  44
ATOM     44  O6' NON d   1      12.303  12.839  56.006  0.00  0.00    -0.398 OA
ATOM     45  H22 NON d   1      12.661  12.158  55.449  0.00  0.00     0.209 HD
ENDBRANCH  41  44
ENDBRANCH  32  41
ENDBRANCH   1  24
TORSDOF 12
