REMARK  11 active torsions:
REMARK  status: ('A' for Active; 'I' for Inactive)
REMARK    1  A    between atoms: C1_1  and  C16_17 
REMARK    2  A    between atoms: C1_1  and  C17_18 
REMARK    3  A    between atoms: C5_5  and  C18_19 
REMARK    4  A    between atoms: C6_6  and  C7_7 
REMARK    5  A    between atoms: C8_8  and  C9_9 
REMARK    6  A    between atoms: C9_9  and  C19_20 
REMARK    7  A    between atoms: C10_10  and  C11_11 
REMARK    8  A    between atoms: C12_12  and  C13_13 
REMARK    9  A    between atoms: C13_13  and  C20_21 
REMARK   10  A    between atoms: C14_14  and  C15_15 
REMARK   11  A    between atoms: C15_15  and  O1_16 
ROOT
ATOM      1  C7  RTL d   1      10.061  -0.727  57.206  0.00  0.00    -0.075 C 
ATOM      2  C8  RTL d   1       8.795  -1.108  57.183  0.00  0.00    -0.077 C 
ATOM      3  H7  RTL d   1      10.222   0.274  56.809  0.00  0.00     0.084 H 
ATOM      4  H8  RTL d   1       8.648  -2.105  57.595  0.00  0.00     0.084 H 
ENDROOT
BRANCH   1   5
ATOM      5  C6  RTL d   1      11.299  -1.388  57.663  0.00  0.00    -0.048 C 
ATOM      6  C1  RTL d   1      12.192  -2.058  56.596  0.00  0.00    -0.020 C 
ATOM      7  C2  RTL d   1      13.666  -2.121  57.070  0.00  0.00    -0.054 C 
ATOM      8  C3  RTL d   1      13.827  -2.429  58.532  0.00  0.00    -0.061 C 
ATOM      9  H1  RTL d   1      14.136  -1.147  56.868  0.00  0.00     0.034 H 
ATOM     10  H2  RTL d   1      14.181  -2.903  56.493  0.00  0.00     0.034 H 
ATOM     11  C4  RTL d   1      13.217  -1.296  59.332  0.00  0.00    -0.044 C 
ATOM     12  H3  RTL d   1      14.896  -2.522  58.776  0.00  0.00     0.033 H 
ATOM     13  H4  RTL d   1      13.312  -3.371  58.772  0.00  0.00     0.033 H 
ATOM     14  C5  RTL d   1      11.838  -0.951  58.837  0.00  0.00    -0.077 C 
ATOM     15  H5  RTL d   1      13.861  -0.409  59.243  0.00  0.00     0.039 H 
ATOM     16  H6  RTL d   1      13.152  -1.598  60.388  0.00  0.00     0.039 H 
BRANCH   6  17
ATOM     17  C16 RTL d   1      12.217  -1.201  55.306  0.00  0.00    -0.065 C 
ATOM     18  H16 RTL d   1      11.196  -1.110  54.906  0.00  0.00     0.028 H 
ATOM     19  H17 RTL d   1      12.862  -1.684  54.557  0.00  0.00     0.028 H 
ATOM     20  H18 RTL d   1      12.610  -0.200  55.538  0.00  0.00     0.028 H 
ENDBRANCH   6  17
BRANCH   6  21
ATOM     21  C17 RTL d   1      11.703  -3.462  56.222  0.00  0.00    -0.065 C 
ATOM     22  H19 RTL d   1      11.676  -4.093  57.123  0.00  0.00     0.028 H 
ATOM     23  H20 RTL d   1      12.389  -3.905  55.485  0.00  0.00     0.028 H 
ATOM     24  H21 RTL d   1      10.694  -3.396  55.790  0.00  0.00     0.028 H 
ENDBRANCH   6  21
BRANCH  14  25
ATOM     25  C18 RTL d   1      11.236   0.159  59.677  0.00  0.00    -0.054 C 
ATOM     26  H22 RTL d   1      10.230   0.398  59.302  0.00  0.00     0.033 H 
ATOM     27  H23 RTL d   1      11.873   1.054  59.614  0.00  0.00     0.033 H 
ATOM     28  H24 RTL d   1      11.168  -0.170  60.725  0.00  0.00     0.033 H 
ENDBRANCH  14  25
ENDBRANCH   1   5
BRANCH   2  29
ATOM     29  C9  RTL d   1       7.561  -0.502  56.735  0.00  0.00    -0.062 C 
ATOM     30  C10 RTL d   1       6.429  -1.215  56.902  0.00  0.00    -0.077 C 
ATOM     31  H9  RTL d   1       6.533  -2.191  57.374  0.00  0.00     0.084 H 
BRANCH  30  32
ATOM     32  C11 RTL d   1       5.090  -0.821  56.520  0.00  0.00    -0.082 C 
ATOM     33  C12 RTL d   1       3.976  -1.559  56.658  0.00  0.00    -0.077 C 
ATOM     34  H11 RTL d   1       4.087  -2.559  57.075  0.00  0.00     0.084 H 
ATOM     35  H10 RTL d   1       4.974   0.168  56.079  0.00  0.00     0.083 H 
BRANCH  33  36
ATOM     36  C13 RTL d   1       2.627  -1.130  56.295  0.00  0.00    -0.064 C 
ATOM     37  C14 RTL d   1       2.018  -0.296  57.149  0.00  0.00    -0.075 C 
ATOM     38  H12 RTL d   1       2.581  -0.043  58.046  0.00  0.00     0.081 H 
BRANCH  37  39
ATOM     39  C15 RTL d   1       0.675   0.329  57.032  0.00  0.00     0.032 C 
ATOM     40  H13 RTL d   1       0.385   0.363  55.971  0.00  0.00     0.080 H 
ATOM     41  H14 RTL d   1       0.719   1.353  57.433  0.00  0.00     0.080 H 
BRANCH  39  42
ATOM     42  O1  RTL d   1      -0.235  -0.364  57.709  0.00  0.00    -0.397 OA
ATOM     43  H15 RTL d   1      -0.279  -1.248  57.364  0.00  0.00     0.209 HD
ENDBRANCH  39  42
ENDBRANCH  37  39
BRANCH  36  44
ATOM     44  C20 RTL d   1       2.035  -1.659  55.029  0.00  0.00    -0.051 C 
ATOM     45  H28 RTL d   1       2.761  -2.320  54.533  0.00  0.00     0.033 H 
ATOM     46  H29 RTL d   1       1.787  -0.820  54.362  0.00  0.00     0.033 H 
ATOM     47  H30 RTL d   1       1.121  -2.226  55.260  0.00  0.00     0.033 H 
ENDBRANCH  36  44
ENDBRANCH  33  36
ENDBRANCH  30  32
BRANCH  29  48
ATOM     48  C19 RTL d   1       7.595   0.903  56.151  0.00  0.00    -0.051 C 
ATOM     49  H25 RTL d   1       8.634   1.263  56.121  0.00  0.00     0.033 H 
ATOM     50  H26 RTL d   1       6.992   1.576  56.779  0.00  0.00     0.033 H 
ATOM     51  H27 RTL d   1       7.183   0.886  55.131  0.00  0.00     0.033 H 
ENDBRANCH  29  48
ENDBRANCH   2  29
TORSDOF 11
