REMARK  1 active torsions:
REMARK  status: ('A' for Active; 'I' for Inactive)
REMARK    1  A    between atoms: C_1  and  C1_4 
ROOT
ATOM      1  C1  BEZ d   1      12.111   3.473  24.057  0.00  0.00     0.040 A 
ATOM      2  C2  BEZ d   1      12.767   3.776  25.250  0.00  0.00    -0.066 A 
ATOM      3  C3  BEZ d   1      13.542   2.820  25.906  0.00  0.00    -0.082 A 
ATOM      4  C4  BEZ d   1      13.655   1.565  25.341  0.00  0.00    -0.083 A 
ATOM      5  C5  BEZ d   1      13.026   1.268  24.157  0.00  0.00    -0.082 A 
ATOM      6  C6  BEZ d   1      12.249   2.202  23.485  0.00  0.00    -0.066 A 
ATOM      7  H1  BEZ d   1      12.673   4.769  25.674  0.00  0.00     0.085 H 
ATOM      8  H2  BEZ d   1      14.044   3.056  26.837  0.00  0.00     0.083 H 
ATOM      9  H3  BEZ d   1      14.247   0.805  25.838  0.00  0.00     0.083 H 
ATOM     10  H4  BEZ d   1      13.139   0.276  23.735  0.00  0.00     0.083 H 
ATOM     11  H5  BEZ d   1      11.764   1.955  22.547  0.00  0.00     0.085 H 
ENDROOT
BRANCH   1  12
ATOM     12  C   BEZ d   1      11.300   4.472  23.328  0.00  0.00     0.209 C 
ATOM     13  O2  BEZ d   1      10.848   5.555  23.937  0.00  0.00    -0.644 OA
ATOM     14  O1  BEZ d   1      10.997   4.285  22.163  0.00  0.00    -0.644 OA
ENDBRANCH   1  12
TORSDOF 1
