REMARK  3 active torsions:
REMARK  status: ('A' for Active; 'I' for Inactive)
REMARK    1  A    between atoms: C1_1  and  C7_2 
REMARK    2  A    between atoms: C8_3  and  C9_4 
REMARK    3  A    between atoms: C4_9  and  O1_10 
ROOT
ATOM      1  C1  FHC d   1      12.164   2.457  -4.448  0.00  0.00    -0.033 A 
ATOM      2  C6  FHC d   1      13.175   2.950  -5.285  0.00  0.00    -0.070 A 
ATOM      3  C5  FHC d   1      12.923   3.891  -6.259  0.00  0.00    -0.050 A 
ATOM      4  C4  FHC d   1      11.622   4.361  -6.428  0.00  0.00     0.065 A 
ATOM      5  C3  FHC d   1      10.623   3.872  -5.612  0.00  0.00    -0.050 A 
ATOM      6  C2  FHC d   1      10.859   2.925  -4.637  0.00  0.00    -0.070 A 
ATOM      7  H2  FHC d   1      14.186   2.579  -5.162  0.00  0.00     0.084 H 
ATOM      8  H3  FHC d   1      13.726   4.261  -6.886  0.00  0.00     0.087 H 
ATOM      9  H5  FHC d   1       9.614   4.246  -5.742  0.00  0.00     0.087 H 
ATOM     10  H6  FHC d   1      10.046   2.549  -4.027  0.00  0.00     0.084 H 
ENDROOT
BRANCH   1  11
ATOM     11  C7  FHC d   1      12.436   1.447  -3.428  0.00  0.00    -0.029 C 
ATOM     12  C8  FHC d   1      13.488   1.310  -2.616  0.00  0.00     0.193 C 
ATOM     13  F1  FHC d   1      13.534   0.259  -1.754  0.00  0.00    -0.199 F 
ATOM     14  H1  FHC d   1      11.662   0.689  -3.312  0.00  0.00     0.089 H 
BRANCH  12  15
ATOM     15  C9  FHC d   1      14.651   2.190  -2.569  0.00  0.00     0.239 C 
ATOM     16  O2  FHC d   1      14.392   3.501  -2.703  0.00  0.00    -0.642 OA
ATOM     17  O3  FHC d   1      15.785   1.783  -2.452  0.00  0.00    -0.642 OA
ENDBRANCH  12  15
ENDBRANCH   1  11
BRANCH   4  18
ATOM     18  O1  FHC d   1      11.354   5.315  -7.374  0.00  0.00    -0.361 OA
ATOM     19  H4  FHC d   1      12.153   5.531  -7.839  0.00  0.00     0.217 HD
ENDBRANCH   4  18
TORSDOF 3
