REMARK  9 active torsions:
REMARK  status: ('A' for Active; 'I' for Inactive)
REMARK    1  A    between atoms: C1_1  and  O1_7 
REMARK    2  A    between atoms: C2_2  and  O2_8 
REMARK    3  A    between atoms: C3_3  and  O3_9 
REMARK    4  A    between atoms: C4_4  and  O4_10 
REMARK    5  A    between atoms: C5_5  and  O5_11 
REMARK    6  A    between atoms: C6_6  and  O6_12 
REMARK    7  A    between atoms: O1_7  and  P1_13 
REMARK    8  A    between atoms: O4_10  and  P4_17 
REMARK    9  A    between atoms: O5_11  and  P5_21 
ROOT
ATOM      1  C1  I3P d   1      24.249  33.759   2.663  0.00  0.00     0.106 C 
ATOM      2  C2  I3P d   1      25.273  34.292   3.672  0.00  0.00     0.090 C 
ATOM      3  C3  I3P d   1      24.595  35.183   4.699  0.00  0.00     0.091 C 
ATOM      4  C4  I3P d   1      23.478  34.422   5.369  0.00  0.00     0.106 C 
ATOM      5  C5  I3P d   1      22.504  33.807   4.424  0.00  0.00     0.106 C 
ATOM      6  C6  I3P d   1      23.101  32.980   3.234  0.00  0.00     0.091 C 
ATOM      7  H1  I3P d   1      23.843  34.635   2.135  0.00  0.00     0.092 H 
ATOM      8  H2  I3P d   1      25.982  34.913   3.104  0.00  0.00     0.091 H 
ATOM      9  H3  I3P d   1      24.149  36.052   4.193  0.00  0.00     0.091 H 
ATOM     10  H4  I3P d   1      23.927  33.626   5.981  0.00  0.00     0.092 H 
ATOM     11  H5  I3P d   1      21.912  34.622   3.982  0.00  0.00     0.092 H 
ATOM     12  H6  I3P d   1      23.546  32.082   3.687  0.00  0.00     0.091 H 
ENDROOT
BRANCH   1  13
ATOM     13  O1  I3P d   1      24.850  32.830   1.670  0.00  0.00    -0.272 OA
BRANCH  13  14
ATOM     14  P1  I3P d   1      25.357  33.603   0.298  0.00  0.00     0.422 P 
ATOM     15  O13 I3P d   1      26.213  34.696   0.573  0.00  0.00    -0.617 OA
ATOM     16  O12 I3P d   1      26.032  32.433  -0.330  0.00  0.00    -0.617 OA
ATOM     17  O11 I3P d   1      24.136  33.998  -0.360  0.00  0.00    -0.617 OA
ENDBRANCH  13  14
ENDBRANCH   1  13
BRANCH   6  18
ATOM     18  O6  I3P d   1      22.145  32.459   2.280  0.00  0.00    -0.390 OA
ATOM     19  H9  I3P d   1      21.538  31.880   2.726  0.00  0.00     0.210 HD
ENDBRANCH   6  18
BRANCH   2  20
ATOM     20  O2  I3P d   1      26.052  33.278   4.349  0.00  0.00    -0.390 OA
ATOM     21  H7  I3P d   1      26.657  33.695   4.952  0.00  0.00     0.210 HD
ENDBRANCH   2  20
BRANCH   5  22
ATOM     22  O5  I3P d   1      21.628  32.967   5.216  0.00  0.00    -0.272 OA
BRANCH  22  23
ATOM     23  P5  I3P d   1      20.080  32.844   5.082  0.00  0.00     0.422 P 
ATOM     24  O53 I3P d   1      19.398  34.123   5.499  0.00  0.00    -0.617 OA
ATOM     25  O52 I3P d   1      19.760  32.301   3.693  0.00  0.00    -0.617 OA
ATOM     26  O51 I3P d   1      19.531  31.673   5.856  0.00  0.00    -0.617 OA
ENDBRANCH  22  23
ENDBRANCH   5  22
BRANCH   3  27
ATOM     27  O3  I3P d   1      25.625  35.651   5.567  0.00  0.00    -0.390 OA
ATOM     28  H8  I3P d   1      25.246  36.216   6.230  0.00  0.00     0.210 HD
ENDBRANCH   3  27
BRANCH   4  29
ATOM     29  O4  I3P d   1      22.736  35.287   6.189  0.00  0.00    -0.272 OA
BRANCH  29  30
ATOM     30  P4  I3P d   1      23.035  35.765   7.695  0.00  0.00     0.422 P 
ATOM     31  O43 I3P d   1      21.735  36.244   8.082  0.00  0.00    -0.617 OA
ATOM     32  O42 I3P d   1      24.178  36.705   7.662  0.00  0.00    -0.617 OA
ATOM     33  O41 I3P d   1      23.494  34.488   8.501  0.00  0.00    -0.617 OA
ENDBRANCH  29  30
ENDBRANCH   4  29
TORSDOF 9
