REMARK  7 active torsions:
REMARK  status: ('A' for Active; 'I' for Inactive)
REMARK    1  A    between atoms: N2_23  and  C2_1 
REMARK    2  A    between atoms: O6_17  and  C10_3 
REMARK    3  A    between atoms: C10_3  and  C11_4 
REMARK    4  A    between atoms: C20_11  and  S23_26 
REMARK    5  A    between atoms: S23_26  and  N26_14 
REMARK    6  A    between atoms: C6_16  and  O6_17 
REMARK    7  A    between atoms: N2_23  and  C17_24 
ROOT
ATOM      1  C2  4SP d   1       7.650  43.834  49.764  0.00  0.00     0.731 A 
ATOM      2  C8  4SP d   1      10.475  46.491  51.933  0.00  0.00     0.066 A 
ATOM      3  N1  4SP d   1       6.658  44.520  50.561  0.00  0.00    -0.035 NA
ATOM      4  C6  4SP d   1       7.080  45.467  51.369  0.00  0.00     0.216 A 
ATOM      5  C5  4SP d   1       8.465  45.767  51.540  0.00  0.00     0.158 A 
ATOM      6  N7  4SP d   1       9.232  46.729  52.256  0.00  0.00    -0.236 NA
ATOM      7  N9  4SP d   1      10.588  45.505  51.047  0.00  0.00    -0.333 N 
ATOM      8  C4  4SP d   1       9.362  45.111  50.814  0.00  0.00     0.181 A 
ATOM      9  N3  4SP d   1       8.879  44.099  49.970  0.00  0.00    -0.042 NA
ATOM     10  H1  4SP d   1      11.323  47.038  52.343  0.00  0.00     0.143 H 
ATOM     11  H20 4SP d   1      11.454  45.132  50.633  0.00  0.00     0.168 HD
ENDROOT
BRANCH   4  12
ATOM     12  O6  4SP d   1       6.254  46.229  52.073  0.00  0.00    -0.332 OA
BRANCH  12  13
ATOM     13  C10 4SP d   1       4.896  45.749  51.715  0.00  0.00     0.031 C 
ATOM     14  H2  4SP d   1       4.913  44.660  51.561  0.00  0.00     0.075 H 
ATOM     15  H3  4SP d   1       4.555  46.245  50.794  0.00  0.00     0.075 H 
BRANCH  13  16
ATOM     16  C11 4SP d   1       3.939  46.102  52.892  0.00  0.00    -0.033 C 
ATOM     17  C16 4SP d   1       2.450  45.872  52.565  0.00  0.00    -0.060 C 
ATOM     18  C15 4SP d   1       1.532  46.243  53.785  0.00  0.00    -0.065 C 
ATOM     19  H13 4SP d   1       2.299  44.812  52.312  0.00  0.00     0.033 H 
ATOM     20  H14 4SP d   1       2.172  46.498  51.704  0.00  0.00     0.033 H 
ATOM     21  C14 4SP d   1       1.852  45.558  55.110  0.00  0.00    -0.065 C 
ATOM     22  H11 4SP d   1       1.609  47.329  53.943  0.00  0.00     0.033 H 
ATOM     23  H12 4SP d   1       0.497  45.984  53.516  0.00  0.00     0.033 H 
ATOM     24  C13 4SP d   1       3.397  45.857  55.441  0.00  0.00    -0.065 C 
ATOM     25  H9  4SP d   1       1.211  45.962  55.907  0.00  0.00     0.033 H 
ATOM     26  H10 4SP d   1       1.689  44.474  55.022  0.00  0.00     0.033 H 
ATOM     27  C12 4SP d   1       4.288  45.467  54.267  0.00  0.00    -0.060 C 
ATOM     28  H7  4SP d   1       3.521  46.931  55.646  0.00  0.00     0.033 H 
ATOM     29  H8  4SP d   1       3.694  45.278  56.327  0.00  0.00     0.033 H 
ATOM     30  H5  4SP d   1       5.319  45.758  54.518  0.00  0.00     0.033 H 
ATOM     31  H6  4SP d   1       4.233  44.374  54.154  0.00  0.00     0.033 H 
ATOM     32  H4  4SP d   1       4.054  47.187  53.032  0.00  0.00     0.043 H 
ENDBRANCH  13  16
ENDBRANCH  12  13
ENDBRANCH   4  12
BRANCH   1  33
ATOM     33  N2  4SP d   1       7.286  42.856  48.978  0.00  0.00    -0.188 N 
ATOM     34  H21 4SP d   1       7.947  42.540  48.254  0.00  0.00     0.184 HD
BRANCH  33  35
ATOM     35  C17 4SP d   1       6.065  42.225  49.067  0.00  0.00     0.049 A 
ATOM     36  C18 4SP d   1       5.611  41.534  47.922  0.00  0.00    -0.055 A 
ATOM     37  C19 4SP d   1       4.435  40.813  47.888  0.00  0.00    -0.058 A 
ATOM     38  H22 4SP d   1       6.217  41.572  47.024  0.00  0.00     0.087 H 
ATOM     39  C20 4SP d   1       3.602  40.753  48.977  0.00  0.00     0.079 A 
ATOM     40  H15 4SP d   1       4.163  40.283  46.982  0.00  0.00     0.086 H 
ATOM     41  C21 4SP d   1       4.023  41.432  50.180  0.00  0.00    -0.058 A 
ATOM     42  C22 4SP d   1       5.224  42.101  50.175  0.00  0.00    -0.055 A 
ATOM     43  H16 4SP d   1       3.404  41.414  51.070  0.00  0.00     0.086 H 
ATOM     44  H17 4SP d   1       5.542  42.567  51.100  0.00  0.00     0.087 H 
BRANCH  39  45
ATOM     45  S23 4SP d   1       2.147  39.796  48.930  0.00  0.00     0.256 S 
ATOM     46  O25 4SP d   1       1.553  39.740  47.599  0.00  0.00    -0.201 OA
ATOM     47  O24 4SP d   1       2.455  38.512  49.542  0.00  0.00    -0.201 OA
BRANCH  45  48
ATOM     48  N26 4SP d   1       1.063  40.498  49.846  0.00  0.00    -0.324 N 
ATOM     49  H18 4SP d   1       0.154  40.093  49.946  0.00  0.00     0.169 HD
ATOM     50  H19 4SP d   1       1.287  41.347  50.325  0.00  0.00     0.169 HD
ENDBRANCH  45  48
ENDBRANCH  39  45
ENDBRANCH  33  35
ENDBRANCH   1  33
TORSDOF 7
