REMARK  13 active torsions:
REMARK  status: ('A' for Active; 'I' for Inactive)
REMARK    1  A    between atoms: C10_9  and  N17_12 
REMARK    2  A    between atoms: N17_12  and  C24_13 
REMARK    3  A    between atoms: C24_13  and  C63_27 
REMARK    4  A    between atoms: N40_25  and  C37_22 
REMARK    5  A    between atoms: C41_26  and  N40_25 
REMARK    6  A    between atoms: C70_34  and  C41_26 
REMARK    7  A    between atoms: C63_27  and  C64_28 
REMARK    8  A    between atoms: C64_28  and  C65_29 
REMARK    9  A    between atoms: C65_29  and  C66_30 
REMARK   10  A    between atoms: C66_30  and  C67_31 
REMARK   11  A    between atoms: C67_31  and  C68_32 
REMARK   12  A    between atoms: C68_32  and  C69_33 
REMARK   13  A    between atoms: C69_33  and  C70_34 
ROOT
ATOM      1  C66 E10 d   1       1.793  63.583  70.151  0.00  0.00    -0.065 C 
ATOM      2  H35 E10 d   1       1.617  64.498  70.735  0.00  0.00     0.033 H 
ATOM      3  H36 E10 d   1       1.424  63.726  69.125  0.00  0.00     0.033 H 
ENDROOT
BRANCH   1   4
ATOM      4  C65 E10 d   1       1.052  62.412  70.801  0.00  0.00    -0.065 C 
ATOM      5  H33 E10 d   1       0.351  61.986  70.068  0.00  0.00     0.033 H 
ATOM      6  H34 E10 d   1       1.786  61.647  71.093  0.00  0.00     0.033 H 
BRANCH   4   7
ATOM      7  C64 E10 d   1       0.280  62.833  72.022  0.00  0.00    -0.064 C 
ATOM      8  H31 E10 d   1       0.972  62.885  72.875  0.00  0.00     0.033 H 
ATOM      9  H32 E10 d   1      -0.152  63.828  71.839  0.00  0.00     0.033 H 
BRANCH   7  10
ATOM     10  C63 E10 d   1      -0.854  61.863  72.369  0.00  0.00    -0.043 C 
ATOM     11  H29 E10 d   1      -1.442  62.293  73.194  0.00  0.00     0.035 H 
ATOM     12  H30 E10 d   1      -1.496  61.744  71.484  0.00  0.00     0.035 H 
BRANCH  10  13
ATOM     13  C24 E10 d   1      -0.357  60.492  72.793  0.00  0.00     0.083 C 
ATOM     14  H13 E10 d   1      -1.215  59.821  72.947  0.00  0.00     0.075 H 
ATOM     15  H14 E10 d   1       0.296  60.079  72.010  0.00  0.00     0.075 H 
BRANCH  13  16
ATOM     16  N17 E10 d   1       0.427  60.623  74.093  0.00  0.00    -0.067 N 
ATOM     17  H11 E10 d   1       0.926  61.498  74.055  0.00  0.00     0.277 HD
ATOM     18  H12 E10 d   1      -0.243  60.650  74.845  0.00  0.00     0.277 HD
BRANCH  16  19
ATOM     19  C10 E10 d   1       1.454  59.525  74.434  0.00  0.00     0.129 C 
ATOM     20  C4  E10 d   1       2.547  59.535  73.346  0.00  0.00    -0.005 A 
ATOM     21  C3  E10 d   1       2.790  58.432  72.535  0.00  0.00     0.020 A 
ATOM     22  C5  E10 d   1       3.402  60.731  73.182  0.00  0.00    -0.068 A 
ATOM     23  N2  E10 d   1       3.767  58.483  71.615  0.00  0.00    -0.327 N 
ATOM     24  C9  E10 d   1       2.009  57.099  72.648  0.00  0.00    -0.026 C 
ATOM     25  C1  E10 d   1       4.611  59.535  71.353  0.00  0.00     0.245 A 
ATOM     26  H1  E10 d   1       3.895  57.663  71.058  0.00  0.00     0.169 HD
ATOM     27  O7  E10 d   1       5.431  59.461  70.441  0.00  0.00    -0.268 OA
ATOM     28  C6  E10 d   1       4.403  60.754  72.230  0.00  0.00    -0.017 A 
ATOM     29  H3  E10 d   1       5.033  61.634  72.111  0.00  0.00     0.092 H 
ATOM     30  C14 E10 d   1       0.617  57.330  73.257  0.00  0.00    -0.058 C 
ATOM     31  H4  E10 d   1       2.572  56.405  73.289  0.00  0.00     0.042 H 
ATOM     32  H5  E10 d   1       1.895  56.662  71.645  0.00  0.00     0.042 H 
ATOM     33  C13 E10 d   1       0.723  58.145  74.591  0.00  0.00    -0.034 C 
ATOM     34  H9  E10 d   1      -0.002  57.890  72.540  0.00  0.00     0.033 H 
ATOM     35  H10 E10 d   1       0.148  56.357  73.465  0.00  0.00     0.033 H 
ATOM     36  H7  E10 d   1      -0.294  58.332  74.965  0.00  0.00     0.036 H 
ATOM     37  H8  E10 d   1       1.277  57.540  75.324  0.00  0.00     0.036 H 
ATOM     38  H2  E10 d   1       3.241  61.601  73.817  0.00  0.00     0.084 H 
ATOM     39  H6  E10 d   1       1.928  59.766  75.397  0.00  0.00     0.092 H 
ENDBRANCH  16  19
ENDBRANCH  13  16
ENDBRANCH  10  13
ENDBRANCH   7  10
ENDBRANCH   4   7
ENDBRANCH   1   4
BRANCH   1  40
ATOM     40  C67 E10 d   1       3.297  63.279  70.117  0.00  0.00    -0.065 C 
ATOM     41  H37 E10 d   1       3.408  62.185  70.087  0.00  0.00     0.033 H 
ATOM     42  H38 E10 d   1       3.729  63.666  71.052  0.00  0.00     0.033 H 
BRANCH  40  43
ATOM     43  C68 E10 d   1       4.129  63.855  68.956  0.00  0.00    -0.065 C 
ATOM     44  H39 E10 d   1       3.646  63.551  68.015  0.00  0.00     0.033 H 
ATOM     45  H40 E10 d   1       5.134  63.412  69.012  0.00  0.00     0.033 H 
BRANCH  43  46
ATOM     46  C69 E10 d   1       4.294  65.394  68.925  0.00  0.00    -0.064 C 
ATOM     47  H41 E10 d   1       5.342  65.641  68.702  0.00  0.00     0.033 H 
ATOM     48  H42 E10 d   1       4.021  65.807  69.907  0.00  0.00     0.033 H 
BRANCH  46  49
ATOM     49  C70 E10 d   1       3.380  66.017  67.837  0.00  0.00    -0.043 C 
ATOM     50  H43 E10 d   1       2.823  66.852  68.286  0.00  0.00     0.035 H 
ATOM     51  H44 E10 d   1       2.673  65.248  67.493  0.00  0.00     0.035 H 
BRANCH  49  52
ATOM     52  C41 E10 d   1       4.145  66.540  66.635  0.00  0.00     0.083 C 
ATOM     53  H27 E10 d   1       4.837  65.765  66.274  0.00  0.00     0.075 H 
ATOM     54  H28 E10 d   1       4.715  67.435  66.924  0.00  0.00     0.075 H 
BRANCH  52  55
ATOM     55  N40 E10 d   1       3.149  66.903  65.515  0.00  0.00    -0.067 N 
ATOM     56  H25 E10 d   1       2.259  67.080  65.953  0.00  0.00     0.277 HD
ATOM     57  H26 E10 d   1       3.072  66.099  64.912  0.00  0.00     0.277 HD
BRANCH  55  58
ATOM     58  C37 E10 d   1       3.463  68.101  64.632  0.00  0.00     0.129 C 
ATOM     59  C38 E10 d   1       4.983  67.909  64.305  0.00  0.00    -0.034 C 
ATOM     60  C39 E10 d   1       5.444  68.762  63.148  0.00  0.00    -0.058 C 
ATOM     61  H21 E10 d   1       5.158  66.852  64.054  0.00  0.00     0.036 H 
ATOM     62  H22 E10 d   1       5.571  68.177  65.195  0.00  0.00     0.036 H 
ATOM     63  C36 E10 d   1       4.677  68.363  61.860  0.00  0.00    -0.026 C 
ATOM     64  H23 E10 d   1       5.250  69.821  63.375  0.00  0.00     0.033 H 
ATOM     65  H24 E10 d   1       6.522  68.612  62.992  0.00  0.00     0.033 H 
ATOM     66  C31 E10 d   1       3.154  68.313  62.090  0.00  0.00     0.020 A 
ATOM     67  H18 E10 d   1       4.894  69.101  61.074  0.00  0.00     0.042 H 
ATOM     68  H19 E10 d   1       5.020  67.370  61.535  0.00  0.00     0.042 H 
ATOM     69  C32 E10 d   1       2.563  68.188  63.353  0.00  0.00    -0.005 A 
ATOM     70  N30 E10 d   1       2.379  68.390  60.972  0.00  0.00    -0.327 N 
ATOM     71  C33 E10 d   1       1.076  68.126  63.410  0.00  0.00    -0.068 A 
ATOM     72  C34 E10 d   1       0.289  68.211  62.247  0.00  0.00    -0.017 A 
ATOM     73  H16 E10 d   1       0.586  68.012  64.376  0.00  0.00     0.084 H 
ATOM     74  C29 E10 d   1       0.991  68.368  60.899  0.00  0.00     0.245 A 
ATOM     75  H17 E10 d   1      -0.797  68.166  62.306  0.00  0.00     0.092 H 
ATOM     76  O35 E10 d   1       0.423  68.562  59.806  0.00  0.00    -0.268 OA
ATOM     77  H15 E10 d   1       2.866  68.472  60.102  0.00  0.00     0.169 HD
ATOM     78  H20 E10 d   1       3.321  69.030  65.204  0.00  0.00     0.092 H 
ENDBRANCH  55  58
ENDBRANCH  52  55
ENDBRANCH  49  52
ENDBRANCH  46  49
ENDBRANCH  43  46
ENDBRANCH  40  43
ENDBRANCH   1  40
TORSDOF 13
