REMARK  3 active torsions:
REMARK  status: ('A' for Active; 'I' for Inactive)
REMARK    1  A    between atoms: C2_2  and  C1_1 
REMARK       I    between atoms: N1_9  and  C2_2 
REMARK    2  A    between atoms: C4_3  and  C5_4 
REMARK    3  A    between atoms: C4_3  and  N1_9 
ROOT
ATOM      1  C2  OGA d   1      21.066  25.829  28.202  0.00  0.00     0.318 C 
ATOM      2  O2' OGA d   1      21.192  26.959  28.711  0.00  0.00    -0.261 OA
ATOM      3  N1  OGA d   1      19.886  25.203  28.228  0.00  0.00    -0.342 N 
ATOM      4  H3  OGA d   1      19.772  24.360  27.702  0.00  0.00     0.163 HD
ENDROOT
BRANCH   3   5
ATOM      5  C4  OGA d   1      18.756  25.714  29.004  0.00  0.00     0.075 C 
ATOM      6  H1  OGA d   1      18.870  25.381  30.046  0.00  0.00     0.080 H 
ATOM      7  H2  OGA d   1      18.776  26.813  28.965  0.00  0.00     0.080 H 
BRANCH   5   8
ATOM      8  C5  OGA d   1      17.415  25.241  28.495  0.00  0.00     0.191 C 
ATOM      9  O3  OGA d   1      16.416  25.662  29.055  0.00  0.00    -0.647 OA
ATOM     10  O4  OGA d   1      17.332  24.475  27.537  0.00  0.00    -0.647 OA
ENDBRANCH   5   8
ENDBRANCH   3   5
BRANCH   1  11
ATOM     11  C1  OGA d   1      22.091  25.173  27.594  0.00  0.00     0.270 C 
ATOM     12  O1  OGA d   1      21.909  24.061  27.090  0.00  0.00    -0.640 OA
ATOM     13  O2  OGA d   1      23.219  25.658  27.531  0.00  0.00    -0.640 OA
ENDBRANCH   1  11
TORSDOF 3
