REMARK  19 active torsions:
REMARK  status: ('A' for Active; 'I' for Inactive)
REMARK    1  A    between atoms: PB_1  and  O3B_4 
REMARK    2  A    between atoms: PB_1  and  O3A_5 
REMARK    3  A    between atoms: O3B_4  and  P_29 
REMARK    4  A    between atoms: O3A_5  and  PA_6 
REMARK    5  A    between atoms: PA_6  and  O5_9 
REMARK    6  A    between atoms: O5_9  and  C5_10 
REMARK    7  A    between atoms: C5_10  and  C4_11 
REMARK    8  A    between atoms: C3_13  and  O3_14 
REMARK    9  A    between atoms: C2_15  and  O2_16 
REMARK   10  A    between atoms: C1_17  and  N9_18 
REMARK   11  A    between atoms: C2_25  and  N2_26 
REMARK   12  A    between atoms: P_29  and  O5_32 
REMARK   13  A    between atoms: O5_32  and  C5_33 
REMARK   14  A    between atoms: C5_33  and  C4_34 
REMARK   15  A    between atoms: C3_36  and  O3_37 
REMARK   16  A    between atoms: C2_38  and  O2_39 
REMARK   17  A    between atoms: C1_40  and  N9_41 
REMARK   18  A    between atoms: N7_43  and  CM7_52 
REMARK   19  A    between atoms: C2_48  and  N2_49 
ROOT
ATOM      1  O3B GDP d   1     -16.881  26.681  75.375  0.00  0.00    -0.180 OA
ENDROOT
BRANCH   1   2
ATOM      2  PB  GDP d   1     -16.624  27.706  76.589  0.00  0.00     0.427 P 
ATOM      3  O1B GDP d   1     -16.028  28.973  76.028  0.00  0.00    -0.624 OA
ATOM      4  O2B GDP d   1     -15.895  26.958  77.673  0.00  0.00    -0.624 OA
BRANCH   2   5
ATOM      5  O3A GDP d   1     -18.076  28.047  77.203  0.00  0.00    -0.180 OA
BRANCH   5   6
ATOM      6  PA  GDP d   1     -19.235  29.118  76.879  0.00  0.00     0.417 P 
ATOM      7  O1A GDP d   1     -19.858  28.787  75.540  0.00  0.00    -0.624 OA
ATOM      8  O2A GDP d   1     -18.702  30.508  77.125  0.00  0.00    -0.624 OA
BRANCH   6   9
ATOM      9  O5  GDP d   1     -20.296  28.787  78.025  0.00  0.00    -0.287 OA
BRANCH   9  10
ATOM     10  C5  GDP d   1     -21.633  29.344  77.970  0.00  0.00     0.058 C 
ATOM     11  H1  GDP d   1     -22.111  29.037  77.028  0.00  0.00     0.079 H 
ATOM     12  H2  GDP d   1     -21.566  30.441  78.007  0.00  0.00     0.079 H 
BRANCH  10  13
ATOM     13  C4  GDP d   1     -22.479  28.859  79.136  0.00  0.00     0.089 C 
ATOM     14  O4  GDP d   1     -23.824  29.402  78.974  0.00  0.00    -0.353 OA
ATOM     15  C1  GDP d   1     -24.767  28.348  78.906  0.00  0.00     0.139 C 
ATOM     16  C2  GDP d   1     -23.987  27.073  78.583  0.00  0.00     0.105 C 
ATOM     17  H8  GDP d   1     -25.272  28.228  79.876  0.00  0.00     0.122 H 
ATOM     18  C3  GDP d   1     -22.638  27.342  79.251  0.00  0.00     0.091 C 
ATOM     19  H6  GDP d   1     -23.858  26.959  77.497  0.00  0.00     0.093 H 
ATOM     20  H4  GDP d   1     -21.825  26.812  78.734  0.00  0.00     0.091 H 
ATOM     21  H3  GDP d   1     -22.029  29.235  80.067  0.00  0.00     0.090 H 
BRANCH  15  22
ATOM     22  N9  GDP d   1     -25.765  28.681  77.890  0.00  0.00    -0.293 N 
ATOM     23  C8  GDP d   1     -27.131  28.694  78.055  0.00  0.00     0.071 A 
ATOM     24  N7  GDP d   1     -27.776  29.027  76.971  0.00  0.00    -0.234 NA
ATOM     25  H9  GDP d   1     -27.624  28.451  78.995  0.00  0.00     0.144 H 
ATOM     26  C5  GDP d   1     -26.780  29.251  76.029  0.00  0.00     0.173 A 
ATOM     27  C6  GDP d   1     -26.874  29.645  74.668  0.00  0.00     0.292 A 
ATOM     28  C4  GDP d   1     -25.531  29.042  76.577  0.00  0.00     0.186 A 
ATOM     29  O6  GDP d   1     -27.890  29.879  73.999  0.00  0.00    -0.265 OA
ATOM     30  N1  GDP d   1     -25.619  29.760  74.082  0.00  0.00    -0.152 N 
ATOM     31  C2  GDP d   1     -24.423  29.529  74.718  0.00  0.00     0.703 A 
ATOM     32  H10 GDP d   1     -25.584  30.033  73.121  0.00  0.00     0.187 HD
ATOM     33  N3  GDP d   1     -24.321  29.160  75.985  0.00  0.00    -0.044 NA
BRANCH  31  34
ATOM     34  N2  GDP d   1     -23.313  29.698  73.980  0.00  0.00    -0.233 N 
ATOM     35  H11 GDP d   1     -22.386  29.540  74.400  0.00  0.00     0.174 HD
ATOM     36  H12 GDP d   1     -23.389  29.986  72.994  0.00  0.00     0.174 HD
ENDBRANCH  31  34
ENDBRANCH  15  22
BRANCH  16  37
ATOM     37  O2  GDP d   1     -24.651  25.927  79.080  0.00  0.00    -0.388 OA
ATOM     38  H7  GDP d   1     -25.478  25.819  78.624  0.00  0.00     0.210 HD
ENDBRANCH  16  37
BRANCH  18  39
ATOM     39  O3  GDP d   1     -22.670  26.962  80.626  0.00  0.00    -0.390 OA
ATOM     40  H5  GDP d   1     -22.769  26.019  80.691  0.00  0.00     0.210 HD
ENDBRANCH  18  39
ENDBRANCH  10  13
ENDBRANCH   9  10
ENDBRANCH   6   9
ENDBRANCH   5   6
ENDBRANCH   2   5
ENDBRANCH   1   2
BRANCH   1  41
ATOM     41  P   7MG d   1     -16.051  26.281  74.048  0.00  0.00     0.417 P 
ATOM     42  O1P 7MG d   1     -16.106  27.434  73.064  0.00  0.00    -0.624 OA
ATOM     43  O2P 7MG d   1     -16.512  24.910  73.604  0.00  0.00    -0.624 OA
BRANCH  41  44
ATOM     44  O5  7MG d   1     -14.556  26.154  74.587  0.00  0.00    -0.287 OA
BRANCH  44  45
ATOM     45  C5  7MG d   1     -13.488  25.692  73.730  0.00  0.00     0.058 C 
ATOM     46  H13 GDP d   1     -13.767  25.860  72.679  0.00  0.00     0.079 H 
ATOM     47  H14 GDP d   1     -13.326  24.617  73.899  0.00  0.00     0.079 H 
BRANCH  45  48
ATOM     48  C4  7MG d   1     -12.208  26.446  74.035  0.00  0.00     0.089 C 
ATOM     49  O4  7MG d   1     -12.293  27.789  73.490  0.00  0.00    -0.354 OA
ATOM     50  C1  7MG d   1     -12.088  28.739  74.519  0.00  0.00     0.136 C 
ATOM     51  C2  7MG d   1     -12.361  28.016  75.836  0.00  0.00     0.104 C 
ATOM     52  H20 GDP d   1     -11.044  29.085  74.513  0.00  0.00     0.122 H 
ATOM     53  C3  7MG d   1     -11.882  26.601  75.517  0.00  0.00     0.091 C 
ATOM     54  H18 GDP d   1     -13.437  28.014  76.066  0.00  0.00     0.093 H 
ATOM     55  H16 GDP d   1     -12.404  25.849  76.128  0.00  0.00     0.091 H 
ATOM     56  H15 GDP d   1     -11.379  25.907  73.553  0.00  0.00     0.090 H 
BRANCH  50  57
ATOM     57  N9  7MG d   1     -12.959  29.884  74.264  0.00  0.00    -0.318 N 
ATOM     58  C8  7MG d   1     -14.247  29.852  73.789  0.00  0.00     0.059 A 
ATOM     59  N7  7MG d   1     -14.787  31.097  73.638  0.00  0.00    -0.361 N 
ATOM     60  H21 GDP d   1     -14.868  29.283  74.496  0.00  0.00     0.097 H 
ATOM     61  H22 GDP d   1     -14.249  29.348  72.811  0.00  0.00     0.097 H 
ATOM     62  C5  7MG d   1     -13.756  31.938  74.047  0.00  0.00     0.147 A 
ATOM     63  C6  7MG d   1     -13.719  33.354  74.112  0.00  0.00     0.290 A 
ATOM     64  C4  7MG d   1     -12.636  31.221  74.441  0.00  0.00     0.180 A 
ATOM     65  O6  7MG d   1     -14.596  34.162  73.792  0.00  0.00    -0.265 OA
ATOM     66  N1  7MG d   1     -12.501  33.814  74.602  0.00  0.00    -0.153 N 
ATOM     67  C2  7MG d   1     -11.445  33.018  74.973  0.00  0.00     0.703 A 
ATOM     68  H23 GDP d   1     -12.385  34.803  74.691  0.00  0.00     0.187 HD
ATOM     69  N3  7MG d   1     -11.458  31.694  74.906  0.00  0.00    -0.045 NA
BRANCH  59  70
ATOM     70  CM7 7MG d   1     -16.116  31.436  73.163  0.00  0.00    -0.017 C 
ATOM     71  H26 GDP d   1     -16.236  32.529  73.160  0.00  0.00     0.056 H 
ATOM     72  H27 GDP d   1     -16.869  30.986  73.827  0.00  0.00     0.056 H 
ATOM     73  H28 GDP d   1     -16.250  31.050  72.142  0.00  0.00     0.056 H 
ENDBRANCH  59  70
BRANCH  67  74
ATOM     74  N2  7MG d   1     -10.354  33.660  75.429  0.00  0.00    -0.233 N 
ATOM     75  H24 GDP d   1      -9.526  33.123  75.724  0.00  0.00     0.174 HD
ATOM     76  H25 GDP d   1     -10.347  34.689  75.483  0.00  0.00     0.174 HD
ENDBRANCH  67  74
ENDBRANCH  50  57
BRANCH  51  77
ATOM     77  O2  7MG d   1     -11.672  28.625  76.915  0.00  0.00    -0.388 OA
ATOM     78  H19 GDP d   1     -12.018  29.498  77.058  0.00  0.00     0.210 HD
ENDBRANCH  51  77
BRANCH  53  79
ATOM     79  O3  7MG d   1     -10.476  26.509  75.715  0.00  0.00    -0.390 OA
ATOM     80  H17 GDP d   1     -10.169  25.662  75.413  0.00  0.00     0.210 HD
ENDBRANCH  53  79
ENDBRANCH  45  48
ENDBRANCH  44  45
ENDBRANCH  41  44
ENDBRANCH   1  41
TORSDOF 19
