REMARK  8 active torsions:
REMARK  status: ('A' for Active; 'I' for Inactive)
REMARK    1  A    between atoms: C1_1  and  O1_11 
REMARK    2  A    between atoms: O1_11  and  C11_12 
REMARK    3  A    between atoms: C11_12  and  C12_13 
REMARK    4  A    between atoms: C12_13  and  O2_14 
REMARK    5  A    between atoms: C12_13  and  C13_15 
REMARK    6  A    between atoms: N1_16  and  C14_17 
REMARK    7  A    between atoms: C14_17  and  C15_18 
REMARK    8  A    between atoms: C14_17  and  C16_19 
ROOT
ATOM      1  C11 RNP d   1       5.105   7.165  24.898  0.00  0.00     0.054 C 
ATOM      2  H8  RNP d   1       5.869   7.855  24.512  0.00  0.00     0.079 H 
ATOM      3  H9  RNP d   1       4.376   6.944  24.105  0.00  0.00     0.079 H 
ENDROOT
BRANCH   1   4
ATOM      4  O1  RNP d   1       4.414   7.806  25.998  0.00  0.00    -0.347 OA
BRANCH   4   5
ATOM      5  C1  RNP d   1       3.931   9.075  25.832  0.00  0.00     0.080 A 
ATOM      6  C2  RNP d   1       4.012   9.770  24.636  0.00  0.00    -0.050 A 
ATOM      7  C3  RNP d   1       3.494  11.071  24.541  0.00  0.00    -0.080 A 
ATOM      8  H1  RNP d   1       4.476   9.308  23.772  0.00  0.00     0.087 H 
ATOM      9  C4  RNP d   1       2.894  11.718  25.630  0.00  0.00    -0.072 A 
ATOM     10  H2  RNP d   1       3.560  11.593  23.593  0.00  0.00     0.083 H 
ATOM     11  C10 RNP d   1       2.787  11.087  26.867  0.00  0.00    -0.023 A 
ATOM     12  H3  RNP d   1       2.508  12.723  25.508  0.00  0.00     0.084 H 
ATOM     13  C5  RNP d   1       2.216  11.672  27.992  0.00  0.00    -0.072 A 
ATOM     14  C9  RNP d   1       3.322   9.717  27.017  0.00  0.00     0.007 A 
ATOM     15  C6  RNP d   1       2.161  10.956  29.189  0.00  0.00    -0.082 A 
ATOM     16  H4  RNP d   1       1.816  12.678  27.940  0.00  0.00     0.084 H 
ATOM     17  C7  RNP d   1       2.658   9.660  29.312  0.00  0.00    -0.082 A 
ATOM     18  H5  RNP d   1       1.714  11.427  30.057  0.00  0.00     0.083 H 
ATOM     19  C8  RNP d   1       3.246   9.032  28.219  0.00  0.00    -0.070 A 
ATOM     20  H6  RNP d   1       2.586   9.140  30.261  0.00  0.00     0.083 H 
ATOM     21  H7  RNP d   1       3.638   8.025  28.306  0.00  0.00     0.085 H 
ENDBRANCH   4   5
ENDBRANCH   1   4
BRANCH   1  22
ATOM     22  C12 RNP d   1       5.780   5.875  25.309  0.00  0.00     0.088 C 
ATOM     23  H10 RNP d   1       5.037   5.064  25.337  0.00  0.00     0.094 H 
BRANCH  22  24
ATOM     24  O2  RNP d   1       6.377   6.029  26.600  0.00  0.00    -0.388 OA
ATOM     25  H11 RNP d   1       5.705   6.248  27.235  0.00  0.00     0.210 HD
ENDBRANCH  22  24
BRANCH  22  26
ATOM     26  C13 RNP d   1       6.866   5.538  24.322  0.00  0.00     0.006 C 
ATOM     27  N1  RNP d   1       7.246   4.258  24.260  0.00  0.00    -0.299 NA
ATOM     28  H12 RNP d   1       7.320   6.300  23.690  0.00  0.00     0.111 H 
BRANCH  27  29
ATOM     29  C14 RNP d   1       7.192   3.347  25.401  0.00  0.00     0.025 C 
ATOM     30  H13 RNP d   1       6.428   3.692  26.113  0.00  0.00     0.074 H 
BRANCH  29  31
ATOM     31  C15 RNP d   1       6.838   1.949  24.898  0.00  0.00    -0.056 C 
ATOM     32  H14 RNP d   1       6.794   1.253  25.749  0.00  0.00     0.030 H 
ATOM     33  H15 RNP d   1       7.605   1.610  24.186  0.00  0.00     0.030 H 
ATOM     34  H16 RNP d   1       5.859   1.977  24.396  0.00  0.00     0.030 H 
ENDBRANCH  29  31
BRANCH  29  35
ATOM     35  C16 RNP d   1       8.550   3.294  26.096  0.00  0.00    -0.056 C 
ATOM     36  H17 RNP d   1       8.497   2.606  26.952  0.00  0.00     0.030 H 
ATOM     37  H18 RNP d   1       8.820   4.300  26.450  0.00  0.00     0.030 H 
ATOM     38  H19 RNP d   1       9.312   2.938  25.386  0.00  0.00     0.030 H 
ENDBRANCH  29  35
ENDBRANCH  27  29
ENDBRANCH  22  26
ENDBRANCH   1  22
TORSDOF 8
