REMARK  31 active torsions:
REMARK  status: ('A' for Active; 'I' for Inactive)
REMARK    1  A    between atoms: S4_22  and  C1_1 
REMARK    2  A    between atoms: C2_2  and  O2_7 
REMARK    3  A    between atoms: C3_3  and  O3_8 
REMARK    4  A    between atoms: C4_4  and  O4_9 
REMARK    5  A    between atoms: C5_5  and  C6_6 
REMARK    6  A    between atoms: C6_6  and  O6_11 
REMARK    7  A    between atoms: S4_33  and  C1_12 
REMARK    8  A    between atoms: C2_13  and  O2_14 
REMARK    9  A    between atoms: C3_15  and  O3_16 
REMARK   10  A    between atoms: C4_17  and  S4_22 
REMARK   11  A    between atoms: C5_18  and  C6_20 
REMARK   12  A    between atoms: C6_20  and  O6_21 
REMARK   13  A    between atoms: S4_44  and  C1_23 
REMARK   14  A    between atoms: C2_24  and  O2_25 
REMARK   15  A    between atoms: C3_26  and  O3_27 
REMARK   16  A    between atoms: C4_28  and  S4_33 
REMARK   17  A    between atoms: C5_29  and  C6_31 
REMARK   18  A    between atoms: C6_31  and  O6_32 
REMARK   19  A    between atoms: S4_55  and  C1_34 
REMARK   20  A    between atoms: C2_35  and  O2_36 
REMARK   21  A    between atoms: C3_37  and  O3_38 
REMARK   22  A    between atoms: C4_39  and  S4_44 
REMARK   23  A    between atoms: C5_40  and  C6_42 
REMARK   24  A    between atoms: C6_42  and  O6_43 
REMARK   25  A    between atoms: C1_45  and  O1_52 
REMARK   26  A    between atoms: C2_46  and  O2_53 
REMARK   27  A    between atoms: C3_47  and  O3_54 
REMARK   28  A    between atoms: S4_55  and  C4_48 
REMARK   29  A    between atoms: C5_49  and  C6_50 
REMARK   30  A    between atoms: C6_50  and  O6_57 
REMARK   31  A    between atoms: O1_52  and  C7_51 
ROOT
ATOM      1  H22 GLC d   1       5.795  41.428   8.435  0.00  0.00     0.104 H 
ATOM      2  H23 GLC d   1       3.980  43.420   7.092  0.00  0.00     0.092 H 
ATOM      3  H25 GLC d   1       5.152  43.978   9.854  0.00  0.00     0.089 H 
ATOM      4  H27 GLC d   1       2.290  43.077   9.348  0.00  0.00     0.065 H 
ATOM      5  H28 GLC d   1       4.681  41.669  10.546  0.00  0.00     0.088 H 
ATOM      6  C1  SGC d   1       4.822  41.675   7.984  0.00  0.00     0.110 C 
ATOM      7  C2  SGC d   1       4.710  43.173   7.877  0.00  0.00     0.095 C 
ATOM      8  C3  SGC d   1       4.276  43.866   9.198  0.00  0.00     0.078 C 
ATOM      9  C4  SGC d   1       3.220  43.083   9.935  0.00  0.00     0.048 C 
ATOM     10  C5  SGC d   1       3.695  41.653  10.059  0.00  0.00     0.074 C 
ATOM     11  O5  SGC d   1       3.798  41.076   8.758  0.00  0.00    -0.364 OA
ENDROOT
BRANCH   6  12
ATOM     12  S4  SGC d   1       4.724  40.982   6.317  0.00  0.00    -0.124 SA
BRANCH  12  13
ATOM     13  C4  SGC d   1       5.630  39.429   6.495  0.00  0.00     0.048 C 
ATOM     14  C3  SGC d   1       4.764  38.306   5.925  0.00  0.00     0.078 C 
ATOM     15  C2  SGC d   1       5.547  37.014   5.900  0.00  0.00     0.095 C 
ATOM     16  H35 GLC d   1       4.495  38.575   4.893  0.00  0.00     0.089 H 
ATOM     17  C1  SGC d   1       6.873  37.176   5.157  0.00  0.00     0.110 C 
ATOM     18  H33 GLC d   1       5.762  36.713   6.936  0.00  0.00     0.092 H 
ATOM     19  O5  SGC d   1       7.579  38.206   5.877  0.00  0.00    -0.364 OA
ATOM     20  H32 GLC d   1       6.679  37.491   4.121  0.00  0.00     0.104 H 
ATOM     21  C5  SGC d   1       6.953  39.467   5.765  0.00  0.00     0.074 C 
ATOM     22  H38 GLC d   1       6.751  39.680   4.705  0.00  0.00     0.088 H 
ATOM     23  H37 GLC d   1       5.819  39.243   7.562  0.00  0.00     0.065 H 
BRANCH  14  24
ATOM     24  O3  SGC d   1       3.561  38.113   6.660  0.00  0.00    -0.392 OA
ATOM     25  H36 GLC d   1       3.068  38.925   6.676  0.00  0.00     0.210 HD
ENDBRANCH  14  24
BRANCH  15  26
ATOM     26  O2  SGC d   1       4.737  35.968   5.256  0.00  0.00    -0.390 OA
ATOM     27  H34 GLC d   1       4.564  36.213   4.355  0.00  0.00     0.210 HD
ENDBRANCH  15  26
BRANCH  17  28
ATOM     28  S4  MA3 d   1       7.883  35.689   5.132  0.00  0.00    -0.124 SA
BRANCH  28  29
ATOM     29  C4  MA3 d   1       9.098  36.103   3.858  0.00  0.00     0.048 C 
ATOM     30  C3  MA3 d   1      10.378  36.660   4.510  0.00  0.00     0.079 C 
ATOM     31  C2  MA3 d   1      11.447  36.862   3.416  0.00  0.00     0.108 C 
ATOM     32  H44 GLC d   1      10.758  35.931   5.240  0.00  0.00     0.089 H 
ATOM     33  C1  MA3 d   1      11.631  35.544   2.634  0.00  0.00     0.158 C 
ATOM     34  H43 GLC d   1      11.082  37.631   2.720  0.00  0.00     0.094 H 
ATOM     35  O5  MA3 d   1      10.424  35.146   2.000  0.00  0.00    -0.350 OA
ATOM     36  H42 GLC d   1      12.364  35.744   1.839  0.00  0.00     0.133 H 
ATOM     37  C5  MA3 d   1       9.398  34.889   2.951  0.00  0.00     0.076 C 
ATOM     38  H46 GLC d   1       9.761  34.085   3.608  0.00  0.00     0.088 H 
ATOM     39  H45 GLC d   1       8.670  36.894   3.225  0.00  0.00     0.065 H 
BRANCH  30  40
ATOM     40  O3  MA3 d   1      10.070  37.865   5.196  0.00  0.00    -0.392 OA
ATOM     41  H53 GLC d   1       9.421  37.689   5.867  0.00  0.00     0.210 HD
ENDBRANCH  30  40
BRANCH  31  42
ATOM     42  O2  MA3 d   1      12.681  37.307   3.943  0.00  0.00    -0.388 OA
ATOM     43  H52 GLC d   1      13.011  36.665   4.561  0.00  0.00     0.210 HD
ENDBRANCH  31  42
BRANCH  33  44
ATOM     44  O1  MA3 d   1      12.162  34.507   3.429  0.00  0.00    -0.363 OA
BRANCH  44  45
ATOM     45  C7  MA3 d   1      12.568  33.401   2.651  0.00  0.00     0.007 C 
ATOM     46  H49 GLC d   1      12.974  32.619   3.309  0.00  0.00     0.066 H 
ATOM     47  H50 GLC d   1      13.343  33.719   1.938  0.00  0.00     0.066 H 
ATOM     48  H51 GLC d   1      11.703  33.003   2.100  0.00  0.00     0.066 H 
ENDBRANCH  44  45
ENDBRANCH  33  44
BRANCH  37  49
ATOM     49  C6  MA3 d   1       8.129  34.362   2.242  0.00  0.00     0.042 C 
ATOM     50  H47 GLC d   1       7.447  33.974   3.013  0.00  0.00     0.077 H 
ATOM     51  H48 GLC d   1       8.431  33.542   1.574  0.00  0.00     0.077 H 
BRANCH  49  52
ATOM     52  O6  MA3 d   1       7.415  35.314   1.468  0.00  0.00    -0.398 OA
ATOM     53  H54 GLC d   1       7.981  35.653   0.784  0.00  0.00     0.209 HD
ENDBRANCH  49  52
ENDBRANCH  37  49
ENDBRANCH  28  29
ENDBRANCH  17  28
BRANCH  21  54
ATOM     54  C6  SGC d   1       7.893  40.483   6.268  0.00  0.00     0.042 C 
ATOM     55  H39 GLC d   1       7.459  41.482   6.112  0.00  0.00     0.077 H 
ATOM     56  H40 GLC d   1       8.839  40.403   5.712  0.00  0.00     0.077 H 
BRANCH  54  57
ATOM     57  O6  SGC d   1       8.153  40.303   7.649  0.00  0.00    -0.398 OA
ATOM     58  H41 GLC d   1       8.761  40.970   7.945  0.00  0.00     0.209 HD
ENDBRANCH  54  57
ENDBRANCH  21  54
ENDBRANCH  12  13
ENDBRANCH   6  12
BRANCH   7  59
ATOM     59  O2  SGC d   1       6.006  43.675   7.520  0.00  0.00    -0.390 OA
ATOM     60  H24 GLC d   1       5.968  44.621   7.444  0.00  0.00     0.210 HD
ENDBRANCH   7  59
BRANCH   8  61
ATOM     61  O3  SGC d   1       3.772  45.160   8.840  0.00  0.00    -0.392 OA
ATOM     62  H26 GLC d   1       4.456  45.657   8.407  0.00  0.00     0.210 HD
ENDBRANCH   8  61
BRANCH  10  63
ATOM     63  C6  SGC d   1       2.794  40.699  10.820  0.00  0.00     0.042 C 
ATOM     64  H29 GLC d   1       2.708  41.043  11.861  0.00  0.00     0.077 H 
ATOM     65  H30 GLC d   1       3.241  39.694  10.801  0.00  0.00     0.077 H 
BRANCH  63  66
ATOM     66  O6  SGC d   1       1.499  40.637  10.248  0.00  0.00    -0.398 OA
ATOM     67  H31 GLC d   1       1.565  40.336   9.350  0.00  0.00     0.209 HD
ENDBRANCH  63  66
ENDBRANCH  10  63
BRANCH   9  68
ATOM     68  S4  SGC d   1       2.888  43.963  11.503  0.00  0.00    -0.124 SA
BRANCH  68  69
ATOM     69  C1  SSG d   1       1.225  43.492  11.758  0.00  0.00     0.110 C 
ATOM     70  C2  SSG d   1       0.620  43.910  13.088  0.00  0.00     0.095 C 
ATOM     71  C3  SSG d   1      -0.732  43.184  13.243  0.00  0.00     0.078 C 
ATOM     72  H13 GLC d   1       0.461  44.998  13.104  0.00  0.00     0.092 H 
ATOM     73  C4  SSG d   1      -1.641  43.578  12.070  0.00  0.00     0.048 C 
ATOM     74  H15 GLC d   1      -0.565  42.097  13.220  0.00  0.00     0.089 H 
ATOM     75  C5  SSG d   1      -0.926  43.415  10.726  0.00  0.00     0.074 C 
ATOM     76  H17 GLC d   1      -1.953  44.626  12.188  0.00  0.00     0.065 H 
ATOM     77  O5  SSG d   1       0.351  44.073  10.750  0.00  0.00    -0.364 OA
ATOM     78  H18 GLC d   1      -0.769  42.338  10.567  0.00  0.00     0.088 H 
ATOM     79  H12 GLC d   1       1.183  42.395  11.687  0.00  0.00     0.104 H 
BRANCH  70  80
ATOM     80  O2  SSG d   1       1.532  43.535  14.167  0.00  0.00    -0.390 OA
ATOM     81  H14 GLC d   1       1.158  43.794  15.001  0.00  0.00     0.210 HD
ENDBRANCH  70  80
BRANCH  71  82
ATOM     82  O3  SSG d   1      -1.335  43.531  14.484  0.00  0.00    -0.392 OA
ATOM     83  H16 GLC d   1      -0.760  43.276  15.196  0.00  0.00     0.210 HD
ENDBRANCH  71  82
BRANCH  73  84
ATOM     84  S4  SSG d   1      -3.107  42.489  12.095  0.00  0.00    -0.124 SA
BRANCH  84  85
ATOM     85  C1  GLC d   1      -4.427  43.728  11.973  0.00  0.00     0.111 C 
ATOM     86  C2  GLC d   1      -5.707  43.023  11.640  0.00  0.00     0.096 C 
ATOM     87  C3  GLC d   1      -6.888  43.975  11.759  0.00  0.00     0.090 C 
ATOM     88  H2  GLC d   1      -5.841  42.192  12.348  0.00  0.00     0.092 H 
ATOM     89  C4  GLC d   1      -6.888  44.683  13.095  0.00  0.00     0.089 C 
ATOM     90  H3  GLC d   1      -6.814  44.727  10.960  0.00  0.00     0.091 H 
ATOM     91  C5  GLC d   1      -5.519  45.358  13.275  0.00  0.00     0.087 C 
ATOM     92  H4  GLC d   1      -7.046  43.956  13.906  0.00  0.00     0.091 H 
ATOM     93  O5  GLC d   1      -4.501  44.391  13.234  0.00  0.00    -0.363 OA
ATOM     94  H5  GLC d   1      -5.379  46.076  12.453  0.00  0.00     0.090 H 
ATOM     95  H1  GLC d   1      -4.195  44.458  11.184  0.00  0.00     0.104 H 
BRANCH  86  96
ATOM     96  O2  GLC d   1      -5.689  42.495  10.293  0.00  0.00    -0.389 OA
ATOM     97  H8  GLC d   1      -5.597  43.211   9.675  0.00  0.00     0.210 HD
ENDBRANCH  86  96
BRANCH  87  98
ATOM     98  O3  GLC d   1      -8.122  43.252  11.609  0.00  0.00    -0.390 OA
ATOM     99  H9  GLC d   1      -8.851  43.860  11.649  0.00  0.00     0.210 HD
ENDBRANCH  87  98
BRANCH  89 100
ATOM    100  O4  GLC d   1      -7.952  45.636  13.103  0.00  0.00    -0.390 OA
ATOM    101  H10 GLC d   1      -8.780  45.185  12.990  0.00  0.00     0.210 HD
ENDBRANCH  89 100
BRANCH  91 102
ATOM    102  C6  GLC d   1      -5.372  46.085  14.586  0.00  0.00     0.043 C 
ATOM    103  H6  GLC d   1      -6.119  46.892  14.627  0.00  0.00     0.078 H 
ATOM    104  H7  GLC d   1      -4.362  46.517  14.638  0.00  0.00     0.078 H 
BRANCH 102 105
ATOM    105  O6  GLC d   1      -5.557  45.247  15.689  0.00  0.00    -0.398 OA
ATOM    106  H11 GLC d   1      -5.455  45.750  16.488  0.00  0.00     0.209 HD
ENDBRANCH 102 105
ENDBRANCH  91 102
ENDBRANCH  84  85
ENDBRANCH  73  84
BRANCH  75 107
ATOM    107  C6  SSG d   1      -1.682  43.959   9.531  0.00  0.00     0.042 C 
ATOM    108  H19 GLC d   1      -2.590  43.357   9.379  0.00  0.00     0.077 H 
ATOM    109  H20 GLC d   1      -1.041  43.887   8.640  0.00  0.00     0.077 H 
BRANCH 107 110
ATOM    110  O6  SSG d   1      -2.055  45.312   9.720  0.00  0.00    -0.398 OA
ATOM    111  H21 GLC d   1      -1.275  45.840   9.847  0.00  0.00     0.209 HD
ENDBRANCH 107 110
ENDBRANCH  75 107
ENDBRANCH  68  69
ENDBRANCH   9  68
TORSDOF 31
