REMARK  22 active torsions:
REMARK  status: ('A' for Active; 'I' for Inactive)
REMARK    1  A    between atoms: C1_1  and  O1_7 
REMARK    2  A    between atoms: C2_2  and  O2_8 
REMARK    3  A    between atoms: C3_3  and  O3_9 
REMARK    4  A    between atoms: C4_4  and  O4_10 
REMARK    5  A    between atoms: C5_5  and  O5_11 
REMARK    6  A    between atoms: C6_6  and  O6_12 
REMARK    7  A    between atoms: O1_7  and  P1_13 
REMARK    8  A    between atoms: O3_9  and  P3_17 
REMARK    9  A    between atoms: P1_13  and  O13_16 
REMARK   10  A    between atoms: O13_16  and  C7_21 
REMARK   11  A    between atoms: C7_21  and  C8_22 
REMARK   12  A    between atoms: C8_22  and  O14_32 
REMARK   13  A    between atoms: C8_22  and  C9_23 
REMARK   14  A    between atoms: C9_23  and  O15_33 
REMARK   15  A    between atoms: O15_33  and  C10_24 
REMARK   16  A    between atoms: C10_24  and  C11_25 
REMARK   17  A    between atoms: C11_25  and  C12_26 
REMARK   18  A    between atoms: C12_26  and  C13_27 
REMARK   19  A    between atoms: O14_32  and  C14_28 
REMARK   20  A    between atoms: C14_28  and  C15_29 
REMARK   21  A    between atoms: C15_29  and  C16_30 
REMARK   22  A    between atoms: C16_30  and  C17_31 
ROOT
ATOM      1  C7  PIB d   1       9.896  24.590   5.058  0.00  0.00     0.058 C 
ATOM      2  H11 PIB d   1       9.062  24.645   5.773  0.00  0.00     0.079 H 
ATOM      3  H12 PIB d   1       9.536  24.175   4.105  0.00  0.00     0.079 H 
ENDROOT
BRANCH   1   4
ATOM      4  O13 PIB d   1      10.945  23.797   5.580  0.00  0.00    -0.287 OA
BRANCH   4   5
ATOM      5  P1  PIB d   1      11.707  22.698   4.680  0.00  0.00     0.408 P 
ATOM      6  O12 PIB d   1      13.130  22.437   5.281  0.00  0.00    -0.624 OA
ATOM      7  O11 PIB d   1      11.785  23.207   3.170  0.00  0.00    -0.624 OA
BRANCH   5   8
ATOM      8  O1  PIB d   1      10.822  21.385   4.702  0.00  0.00    -0.279 OA
BRANCH   8   9
ATOM      9  C1  PIB d   1      10.949  20.316   5.651  0.00  0.00     0.105 C 
ATOM     10  C6  PIB d   1       9.540  19.745   5.974  0.00  0.00     0.090 C 
ATOM     11  C5  PIB d   1       9.650  18.531   6.953  0.00  0.00     0.090 C 
ATOM     12  H6  PIB d   1       9.064  19.413   5.039  0.00  0.00     0.091 H 
ATOM     13  C4  PIB d   1      10.528  17.424   6.300  0.00  0.00     0.090 C 
ATOM     14  H5  PIB d   1      10.107  18.854   7.900  0.00  0.00     0.091 H 
ATOM     15  C3  PIB d   1      11.967  18.000   6.002  0.00  0.00     0.106 C 
ATOM     16  H4  PIB d   1      10.067  17.095   5.357  0.00  0.00     0.091 H 
ATOM     17  C2  PIB d   1      11.863  19.232   5.031  0.00  0.00     0.091 C 
ATOM     18  H3  PIB d   1      12.423  18.312   6.953  0.00  0.00     0.092 H 
ATOM     19  H2  PIB d   1      12.867  19.651   4.872  0.00  0.00     0.091 H 
ATOM     20  H1  PIB d   1      11.406  20.693   6.577  0.00  0.00     0.092 H 
BRANCH  10  21
ATOM     21  O6  PIB d   1       8.737  20.758   6.580  0.00  0.00    -0.390 OA
ATOM     22  H10 PIB d   1       9.141  21.037   7.393  0.00  0.00     0.210 HD
ENDBRANCH  10  21
BRANCH  11  23
ATOM     23  O5  PIB d   1       8.345  18.028   7.197  0.00  0.00    -0.390 OA
ATOM     24  H9  PIB d   1       7.814  18.708   7.595  0.00  0.00     0.210 HD
ENDBRANCH  11  23
BRANCH  13  25
ATOM     25  O4  PIB d   1      10.608  16.311   7.206  0.00  0.00    -0.390 OA
ATOM     26  H8  PIB d   1      11.141  15.626   6.819  0.00  0.00     0.210 HD
ENDBRANCH  13  25
BRANCH  15  27
ATOM     27  O3  PIB d   1      12.821  17.048   5.358  0.00  0.00    -0.272 OA
BRANCH  27  28
ATOM     28  P3  PIB d   1      13.808  16.037   6.151  0.00  0.00     0.422 P 
ATOM     29  O33 PIB d   1      14.669  15.255   5.063  0.00  0.00    -0.617 OA
ATOM     30  O32 PIB d   1      14.698  16.907   7.127  0.00  0.00    -0.617 OA
ATOM     31  O31 PIB d   1      12.926  15.026   6.997  0.00  0.00    -0.617 OA
ENDBRANCH  27  28
ENDBRANCH  15  27
BRANCH  17  32
ATOM     32  O2  PIB d   1      11.324  18.824   3.783  0.00  0.00    -0.390 OA
ATOM     33  H7  PIB d   1      11.276  19.573   3.200  0.00  0.00     0.210 HD
ENDBRANCH  17  32
ENDBRANCH   8   9
ENDBRANCH   5   8
ENDBRANCH   4   5
ENDBRANCH   1   4
BRANCH   1  34
ATOM     34  C8  PIB d   1      10.507  25.965   4.844  0.00  0.00     0.090 C 
ATOM     35  H13 PIB d   1      11.589  25.814   4.717  0.00  0.00     0.090 H 
BRANCH  34  36
ATOM     36  O14 PIB d   1      10.038  26.576   3.616  0.00  0.00    -0.312 OA
BRANCH  36  37
ATOM     37  C14 PIB d   1      10.873  26.620   2.493  0.00  0.00     0.259 C 
ATOM     38  O17 PIB d   1      12.021  26.179   2.429  0.00  0.00    -0.265 OA
BRANCH  37  39
ATOM     39  C15 PIB d   1      10.365  27.626   1.467  0.00  0.00     0.015 C 
ATOM     40  H23 PIB d   1       9.272  27.695   1.568  0.00  0.00     0.048 H 
ATOM     41  H24 PIB d   1      10.618  27.250   0.465  0.00  0.00     0.048 H 
BRANCH  39  42
ATOM     42  C16 PIB d   1      10.948  29.042   1.607  0.00  0.00    -0.060 C 
ATOM     43  H25 PIB d   1      11.143  29.446   0.603  0.00  0.00     0.033 H 
ATOM     44  H26 PIB d   1      11.892  28.983   2.168  0.00  0.00     0.033 H 
BRANCH  42  45
ATOM     45  C17 PIB d   1       9.996  29.985   2.342  0.00  0.00    -0.076 C 
ATOM     46  H27 PIB d   1      10.454  30.982   2.418  0.00  0.00     0.027 H 
ATOM     47  H28 PIB d   1       9.799  29.594   3.351  0.00  0.00     0.027 H 
ATOM     48  H29 PIB d   1       9.050  30.058   1.786  0.00  0.00     0.027 H 
ENDBRANCH  42  45
ENDBRANCH  39  42
ENDBRANCH  37  39
ENDBRANCH  36  37
ENDBRANCH  34  36
BRANCH  34  49
ATOM     49  C9  PIB d   1      10.339  26.856   6.100  0.00  0.00     0.055 C 
ATOM     50  H14 PIB d   1      11.314  26.932   6.603  0.00  0.00     0.079 H 
ATOM     51  H15 PIB d   1       9.616  26.372   6.773  0.00  0.00     0.079 H 
BRANCH  49  52
ATOM     52  O15 PIB d   1       9.870  28.191   5.816  0.00  0.00    -0.319 OA
BRANCH  52  53
ATOM     53  C10 PIB d   1       9.120  28.835   6.797  0.00  0.00     0.258 C 
ATOM     54  O16 PIB d   1       8.810  28.366   7.906  0.00  0.00    -0.265 OA
BRANCH  53  55
ATOM     55  C11 PIB d   1       8.928  30.319   6.455  0.00  0.00     0.015 C 
ATOM     56  H16 PIB d   1       7.902  30.444   6.078  0.00  0.00     0.048 H 
ATOM     57  H17 PIB d   1       9.645  30.573   5.660  0.00  0.00     0.048 H 
BRANCH  55  58
ATOM     58  C12 PIB d   1       9.129  31.328   7.606  0.00  0.00    -0.060 C 
ATOM     59  H18 PIB d   1      10.098  31.124   8.086  0.00  0.00     0.033 H 
ATOM     60  H19 PIB d   1       8.321  31.189   8.339  0.00  0.00     0.033 H 
BRANCH  58  61
ATOM     61  C13 PIB d   1       9.115  32.790   7.132  0.00  0.00    -0.076 C 
ATOM     62  H20 PIB d   1       9.262  33.456   7.995  0.00  0.00     0.027 H 
ATOM     63  H21 PIB d   1       8.148  33.013   6.658  0.00  0.00     0.027 H 
ATOM     64  H22 PIB d   1       9.925  32.947   6.404  0.00  0.00     0.027 H 
ENDBRANCH  58  61
ENDBRANCH  55  58
ENDBRANCH  53  55
ENDBRANCH  52  53
ENDBRANCH  49  52
ENDBRANCH  34  49
ENDBRANCH   1  34
TORSDOF 22
