REMARK  23 active torsions:
REMARK  status: ('A' for Active; 'I' for Inactive)
REMARK    1  A    between atoms: C2_2  and  N1_1 
REMARK    2  A    between atoms: C2_2  and  C3_3 
REMARK    3  A    between atoms: C2_2  and  C4_4 
REMARK       I    between atoms: C4_4  and  N6_6 
REMARK    4  A    between atoms: N6_6  and  C7_7 
REMARK    5  A    between atoms: C7_7  and  C8_8 
REMARK    6  A    between atoms: C7_7  and  C9_9 
REMARK    7  A    between atoms: C11_11  and  C12_12 
REMARK    8  A    between atoms: C12_12  and  C13_13 
REMARK    9  A    between atoms: N22_22  and  C23_23 
REMARK   10  A    between atoms: C23_23  and  C24_24 
REMARK   11  A    between atoms: C23_23  and  C25_25 
REMARK       I    between atoms: C25_25  and  N27_27 
REMARK   12  A    between atoms: N27_27  and  C28_28 
REMARK   13  A    between atoms: C28_28  and  C29_29 
REMARK   14  A    between atoms: C28_28  and  C32_32 
REMARK   15  A    between atoms: C29_29  and  C30_30 
REMARK   16  A    between atoms: C29_29  and  C31_31 
REMARK       I    between atoms: C32_32  and  N34_34 
REMARK   17  A    between atoms: N34_34  and  C35_35 
REMARK   18  A    between atoms: C35_35  and  C37_36 
REMARK   19  A    between atoms: C35_35  and  C40_39 
REMARK   20  A    between atoms: C37_36  and  C38_37 
REMARK   21  A    between atoms: C37_36  and  C39_38 
REMARK   22  A    between atoms: C40_39  and  O41_41 
REMARK   23  A    between atoms: O41_41  and  C42_42 
ROOT
ATOM      1  C9  GAN d   1      -7.694  17.345  23.727  0.00  0.00    -0.059 C 
ATOM      2  C10 GAN d   1      -7.053  18.271  24.548  0.00  0.00    -0.093 C 
ATOM      3  C11 GAN d   1      -7.006  18.130  26.090  0.00  0.00    -0.010 C 
ATOM      4  C19 GAN d   1      -8.340  18.440  26.767  0.00  0.00     0.091 C 
ATOM      5  C20 GAN d   1      -8.308  16.071  24.274  0.00  0.00    -0.020 C 
ATOM      6  C21 GAN d   1      -8.842  16.131  25.739  0.00  0.00     0.088 C 
ATOM      7  N22 GAN d   1      -9.322  17.468  26.209  0.00  0.00    -0.058 N 
ATOM      8  H13 GAN d   1      -6.565  19.128  24.087  0.00  0.00     0.077 H 
ATOM      9  H14 GAN d   1      -6.755  17.084  26.322  0.00  0.00     0.049 H 
ATOM     10  H22 GAN d   1      -8.652  19.470  26.541  0.00  0.00     0.077 H 
ATOM     11  H23 GAN d   1      -8.254  18.313  27.856  0.00  0.00     0.077 H 
ATOM     12  H24 GAN d   1      -7.541  15.284  24.230  0.00  0.00     0.042 H 
ATOM     13  H25 GAN d   1      -9.151  15.799  23.622  0.00  0.00     0.042 H 
ATOM     14  H26 GAN d   1      -8.028  15.812  26.407  0.00  0.00     0.076 H 
ATOM     15  H27 GAN d   1      -9.681  15.425  25.820  0.00  0.00     0.076 H 
ATOM     16  H28 GAN d   1      -9.434  17.899  25.305  0.00  0.00     0.281 HD
ENDROOT
BRANCH   7  17
ATOM     17  C23 GAN d   1     -10.734  17.552  26.653  0.00  0.00     0.176 C 
ATOM     18  H29 GAN d   1     -11.010  18.613  26.571  0.00  0.00     0.099 H 
BRANCH  17  19
ATOM     19  C24 GAN d   1     -11.512  16.770  25.572  0.00  0.00    -0.041 C 
ATOM     20  H30 GAN d   1     -12.585  16.776  25.816  0.00  0.00     0.030 H 
ATOM     21  H31 GAN d   1     -11.149  15.732  25.538  0.00  0.00     0.030 H 
ATOM     22  H32 GAN d   1     -11.357  17.245  24.592  0.00  0.00     0.030 H 
ENDBRANCH  17  19
BRANCH  17  23
ATOM     23  C25 GAN d   1     -11.187  17.144  28.089  0.00  0.00     0.249 C 
ATOM     24  O26 GAN d   1     -10.883  17.863  29.048  0.00  0.00    -0.271 OA
ATOM     25  N27 GAN d   1     -11.916  16.021  28.246  0.00  0.00    -0.346 N 
ATOM     26  H33 GAN d   1     -12.124  15.492  27.423  0.00  0.00     0.163 HD
BRANCH  25  27
ATOM     27  C28 GAN d   1     -12.428  15.510  29.515  0.00  0.00     0.092 C 
ATOM     28  H34 GAN d   1     -12.980  16.322  30.011  0.00  0.00     0.088 H 
BRANCH  27  29
ATOM     29  C29 GAN d   1     -13.448  14.302  29.247  0.00  0.00    -0.033 C 
ATOM     30  H35 GAN d   1     -14.080  14.567  28.386  0.00  0.00     0.042 H 
BRANCH  29  31
ATOM     31  C30 GAN d   1     -14.296  14.147  30.466  0.00  0.00    -0.071 C 
ATOM     32  H36 GAN d   1     -15.009  13.323  30.314  0.00  0.00     0.028 H 
ATOM     33  H37 GAN d   1     -14.848  15.081  30.650  0.00  0.00     0.028 H 
ATOM     34  H38 GAN d   1     -13.656  13.923  31.332  0.00  0.00     0.028 H 
ENDBRANCH  29  31
BRANCH  29  35
ATOM     35  C31 GAN d   1     -12.794  12.971  28.962  0.00  0.00    -0.071 C 
ATOM     36  H39 GAN d   1     -12.162  13.058  28.066  0.00  0.00     0.028 H 
ATOM     37  H40 GAN d   1     -13.570  12.210  28.791  0.00  0.00     0.028 H 
ATOM     38  H41 GAN d   1     -12.174  12.676  29.821  0.00  0.00     0.028 H 
ENDBRANCH  29  35
ENDBRANCH  27  29
BRANCH  27  39
ATOM     39  C32 GAN d   1     -11.297  15.075  30.450  0.00  0.00     0.241 C 
ATOM     40  O33 GAN d   1     -10.354  14.382  30.032  0.00  0.00    -0.271 OA
ATOM     41  N34 GAN d   1     -11.405  15.449  31.711  0.00  0.00    -0.345 N 
ATOM     42  H42 GAN d   1     -12.190  16.015  31.962  0.00  0.00     0.163 HD
BRANCH  41  43
ATOM     43  C35 GAN d   1     -10.458  15.095  32.766  0.00  0.00     0.099 C 
ATOM     44  H43 GAN d   1     -10.096  14.066  32.625  0.00  0.00     0.089 H 
BRANCH  43  45
ATOM     45  C37 GAN d   1      -9.235  16.034  33.034  0.00  0.00    -0.032 C 
ATOM     46  H44 GAN d   1      -9.410  16.622  33.947  0.00  0.00     0.042 H 
BRANCH  45  47
ATOM     47  C38 GAN d   1      -8.809  16.948  31.916  0.00  0.00    -0.071 C 
ATOM     48  H45 GAN d   1      -7.945  17.546  32.240  0.00  0.00     0.028 H 
ATOM     49  H46 GAN d   1      -9.641  17.618  31.653  0.00  0.00     0.028 H 
ATOM     50  H47 GAN d   1      -8.530  16.348  31.038  0.00  0.00     0.028 H 
ENDBRANCH  45  47
BRANCH  45  51
ATOM     51  C39 GAN d   1      -8.081  15.070  33.178  0.00  0.00    -0.071 C 
ATOM     52  H48 GAN d   1      -8.301  14.352  33.982  0.00  0.00     0.028 H 
ATOM     53  H49 GAN d   1      -7.166  15.628  33.425  0.00  0.00     0.028 H 
ATOM     54  H50 GAN d   1      -7.936  14.528  32.232  0.00  0.00     0.028 H 
ENDBRANCH  45  51
ENDBRANCH  43  45
BRANCH  43  55
ATOM     55  C40 GAN d   1     -11.390  15.250  33.991  0.00  0.00     0.281 C 
ATOM     56  O36 GAN d   1     -12.024  16.312  34.142  0.00  0.00    -0.263 OA
BRANCH  55  57
ATOM     57  O41 GAN d   1     -11.890  14.167  34.625  0.00  0.00    -0.325 OA
BRANCH  57  58
ATOM     58  C42 GAN d   1     -12.454  13.101  33.796  0.00  0.00     0.013 C 
ATOM     59  H51 GAN d   1     -12.820  12.289  34.442  0.00  0.00     0.067 H 
ATOM     60  H52 GAN d   1     -11.677  12.711  33.122  0.00  0.00     0.067 H 
ATOM     61  H53 GAN d   1     -13.288  13.501  33.201  0.00  0.00     0.067 H 
ENDBRANCH  57  58
ENDBRANCH  55  57
ENDBRANCH  43  55
ENDBRANCH  41  43
ENDBRANCH  27  39
ENDBRANCH  25  27
ENDBRANCH  17  23
ENDBRANCH   7  17
BRANCH   3  62
ATOM     62  C12 GAN d   1      -5.896  19.021  26.648  0.00  0.00    -0.033 C 
ATOM     63  H15 GAN d   1      -5.875  18.976  27.747  0.00  0.00     0.041 H 
ATOM     64  H16 GAN d   1      -6.034  20.064  26.326  0.00  0.00     0.041 H 
BRANCH  62  65
ATOM     65  C13 GAN d   1      -4.621  18.440  26.061  0.00  0.00    -0.058 A 
ATOM     66  C14 GAN d   1      -3.837  19.234  25.219  0.00  0.00    -0.077 A 
ATOM     67  C15 GAN d   1      -2.721  18.687  24.585  0.00  0.00    -0.082 A 
ATOM     68  H17 GAN d   1      -4.096  20.274  25.059  0.00  0.00     0.084 H 
ATOM     69  C16 GAN d   1      -2.398  17.352  24.789  0.00  0.00    -0.083 A 
ATOM     70  H18 GAN d   1      -2.108  19.302  23.936  0.00  0.00     0.083 H 
ATOM     71  C17 GAN d   1      -3.180  16.566  25.633  0.00  0.00    -0.082 A 
ATOM     72  H19 GAN d   1      -1.537  16.921  24.291  0.00  0.00     0.083 H 
ATOM     73  C18 GAN d   1      -4.290  17.096  26.277  0.00  0.00    -0.077 A 
ATOM     74  H20 GAN d   1      -2.918  15.526  25.789  0.00  0.00     0.083 H 
ATOM     75  H21 GAN d   1      -4.891  16.480  26.936  0.00  0.00     0.084 H 
ENDBRANCH  62  65
ENDBRANCH   3  62
BRANCH   1  76
ATOM     76  C7  GAN d   1      -7.683  17.564  22.218  0.00  0.00     0.030 C 
ATOM     77  H9  GAN d   1      -7.861  18.627  21.995  0.00  0.00     0.079 H 
BRANCH  76  78
ATOM     78  N6  GAN d   1      -6.357  17.156  21.779  0.00  0.00    -0.351 N 
ATOM     79  C4  GAN d   1      -5.760  17.700  20.729  0.00  0.00     0.248 C 
ATOM     80  O5  GAN d   1      -6.283  18.590  20.058  0.00  0.00    -0.271 OA
ATOM     81  H8  GAN d   1      -5.880  16.440  22.288  0.00  0.00     0.163 HD
BRANCH  79  82
ATOM     82  C2  GAN d   1      -4.368  17.218  20.328  0.00  0.00     0.172 C 
ATOM     83  H4  GAN d   1      -4.062  16.379  20.970  0.00  0.00     0.098 H 
BRANCH  82  84
ATOM     84  N1  GAN d   1      -4.428  16.771  18.898  0.00  0.00    -0.067 N 
ATOM     85  H1  GAN d   1      -3.518  16.447  18.609  0.00  0.00     0.275 HD
ATOM     86  H2  GAN d   1      -4.710  17.544  18.316  0.00  0.00     0.275 HD
ATOM     87  H3  GAN d   1      -5.096  16.021  18.808  0.00  0.00     0.275 HD
ENDBRANCH  82  84
BRANCH  82  88
ATOM     88  C3  GAN d   1      -3.362  18.372  20.475  0.00  0.00    -0.042 C 
ATOM     89  H5  GAN d   1      -3.324  18.694  21.526  0.00  0.00     0.030 H 
ATOM     90  H6  GAN d   1      -3.678  19.216  19.844  0.00  0.00     0.030 H 
ATOM     91  H7  GAN d   1      -2.365  18.032  20.160  0.00  0.00     0.030 H 
ENDBRANCH  82  88
ENDBRANCH  79  82
ENDBRANCH  76  78
BRANCH  76  92
ATOM     92  C8  GAN d   1      -8.705  16.717  21.472  0.00  0.00    -0.054 C 
ATOM     93  H10 GAN d   1      -9.719  17.005  21.786  0.00  0.00     0.030 H 
ATOM     94  H11 GAN d   1      -8.538  15.654  21.702  0.00  0.00     0.030 H 
ATOM     95  H12 GAN d   1      -8.596  16.880  20.390  0.00  0.00     0.030 H 
ENDBRANCH  76  92
ENDBRANCH   1  76
TORSDOF 23
