REMARK  5 active torsions:
REMARK  status: ('A' for Active; 'I' for Inactive)
REMARK    1  A    between atoms: CA_2  and  N_1 
REMARK       I    between atoms: N_1  and  C1_13 
REMARK    2  A    between atoms: CB_5  and  CA_2 
REMARK    3  A    between atoms: CA_2  and  C_3 
REMARK    4  A    between atoms: CB_5  and  CG_6 
REMARK       I    between atoms: C1_13  and  N2_15 
REMARK    5  A    between atoms: N2_15  and  O2_16 
ROOT
ATOM      1  CB  INF d   1      -1.756  32.737  -7.567  0.00  0.00    -0.013 C 
ATOM      2  H3  INF d   1      -1.000  33.508  -7.778  0.00  0.00     0.043 H 
ATOM      3  H4  INF d   1      -2.694  33.219  -7.256  0.00  0.00     0.043 H 
ENDROOT
BRANCH   1   4
ATOM      4  CA  INF d   1      -1.239  31.885  -6.360  0.00  0.00     0.101 C 
ATOM      5  H2  INF d   1      -1.203  32.528  -5.468  0.00  0.00     0.090 H 
BRANCH   4   6
ATOM      6  C   INF d   1       0.182  31.341  -6.646  0.00  0.00     0.197 C 
ATOM      7  O   INF d   1       1.161  32.017  -6.655  0.00  0.00    -0.646 OA
ATOM      8  OXT INF d   1       0.208  30.021  -6.901  0.00  0.00    -0.646 OA
ENDBRANCH   4   6
BRANCH   4   9
ATOM      9  N   INF d   1      -2.133  30.750  -6.092  0.00  0.00    -0.327 N 
ATOM     10  C1  INF d   1      -2.751  30.536  -4.914  0.00  0.00     0.340 C 
ATOM     11  N2  INF d   1      -3.520  29.438  -4.923  0.00  0.00    -0.219 N 
ATOM     12  O1  INF d   1      -2.639  31.258  -3.931  0.00  0.00    -0.245 OA
ATOM     13  H10 INF d   1      -4.026  29.177  -4.101  0.00  0.00     0.199 HD
ATOM     14  H1  INF d   1      -2.293  30.095  -6.831  0.00  0.00     0.165 HD
BRANCH  11  15
ATOM     15  O2  INF d   1      -3.617  28.653  -6.085  0.00  0.00    -0.286 OA
ATOM     16  H11 INF d   1      -3.964  29.181  -6.795  0.00  0.00     0.244 HD
ENDBRANCH  11  15
ENDBRANCH   4   9
ENDBRANCH   1   4
BRANCH   1  17
ATOM     17  CG  INF d   1      -2.031  31.992  -8.870  0.00  0.00    -0.056 A 
ATOM     18  CD1 INF d   1      -1.035  31.951  -9.893  0.00  0.00    -0.077 A 
ATOM     19  CE1 INF d   1      -1.266  31.264 -11.108  0.00  0.00    -0.082 A 
ATOM     20  H5  INF d   1      -0.088  32.454  -9.736  0.00  0.00     0.084 H 
ATOM     21  CZ  INF d   1      -2.500  30.603 -11.324  0.00  0.00    -0.083 A 
ATOM     22  H7  INF d   1      -0.499  31.244 -11.873  0.00  0.00     0.083 H 
ATOM     23  CE2 INF d   1      -3.501  30.636 -10.320  0.00  0.00    -0.082 A 
ATOM     24  H9  INF d   1      -2.679  30.074 -12.253  0.00  0.00     0.083 H 
ATOM     25  CD2 INF d   1      -3.267  31.326  -9.102  0.00  0.00    -0.077 A 
ATOM     26  H8  INF d   1      -4.447  30.133 -10.483  0.00  0.00     0.083 H 
ATOM     27  H6  INF d   1      -4.038  31.346  -8.340  0.00  0.00     0.084 H 
ENDBRANCH   1  17
TORSDOF 5
