REMARK  5 active torsions:
REMARK  status: ('A' for Active; 'I' for Inactive)
REMARK    1  A    between atoms: CA_2  and  N_1 
REMARK       I    between atoms: N_1  and  C1_13 
REMARK    2  A    between atoms: CB_5  and  CA_2 
REMARK    3  A    between atoms: CA_2  and  C_3 
REMARK    4  A    between atoms: CB_5  and  CG_6 
REMARK       I    between atoms: C1_13  and  N2_15 
REMARK    5  A    between atoms: N2_15  and  O2_16 
ROOT
ATOM      1  CB  LHY d   1       4.858  10.409  -2.944  0.00  0.00    -0.013 C 
ATOM      2  H3  LHY d   1       5.597  11.133  -3.320  0.00  0.00     0.043 H 
ATOM      3  H4  LHY d   1       4.217  10.895  -2.193  0.00  0.00     0.043 H 
ENDROOT
BRANCH   1   4
ATOM      4  CA  LHY d   1       5.608   9.231  -2.274  0.00  0.00     0.101 C 
ATOM      5  H2  LHY d   1       4.922   8.374  -2.196  0.00  0.00     0.090 H 
BRANCH   4   6
ATOM      6  C   LHY d   1       6.813   8.841  -3.152  0.00  0.00     0.197 C 
ATOM      7  O   LHY d   1       7.868   9.391  -3.103  0.00  0.00    -0.646 OA
ATOM      8  OXT LHY d   1       6.524   7.823  -3.979  0.00  0.00    -0.646 OA
ENDBRANCH   4   6
BRANCH   4   9
ATOM      9  N   LHY d   1       6.092   9.580  -0.908  0.00  0.00    -0.327 N 
ATOM     10  C1  LHY d   1       6.846   8.745  -0.146  0.00  0.00     0.340 C 
ATOM     11  N2  LHY d   1       7.211   9.166   1.085  0.00  0.00    -0.219 N 
ATOM     12  O1  LHY d   1       7.191   7.652  -0.532  0.00  0.00    -0.245 OA
ATOM     13  H10 LHY d   1       7.767   8.592   1.686  0.00  0.00     0.199 HD
ATOM     14  H1  LHY d   1       5.849  10.475  -0.533  0.00  0.00     0.165 HD
BRANCH  11  15
ATOM     15  O2  LHY d   1       6.781  10.436   1.487  0.00  0.00    -0.286 OA
ATOM     16  H11 LHY d   1       5.831  10.464   1.482  0.00  0.00     0.244 HD
ENDBRANCH  11  15
ENDBRANCH   4   9
ENDBRANCH   1   4
BRANCH   1  17
ATOM     17  CG  LHY d   1       3.995   9.949  -4.098  0.00  0.00    -0.056 A 
ATOM     18  CD1 LHY d   1       2.715   9.378  -3.858  0.00  0.00    -0.077 A 
ATOM     19  CE1 LHY d   1       1.911   8.940  -4.938  0.00  0.00    -0.082 A 
ATOM     20  H5  LHY d   1       2.352   9.277  -2.841  0.00  0.00     0.084 H 
ATOM     21  CZ  LHY d   1       2.380   9.066  -6.268  0.00  0.00    -0.083 A 
ATOM     22  H7  LHY d   1       0.935   8.508  -4.746  0.00  0.00     0.083 H 
ATOM     23  CE2 LHY d   1       3.647   9.631  -6.519  0.00  0.00    -0.082 A 
ATOM     24  H9  LHY d   1       1.764   8.728  -7.094  0.00  0.00     0.083 H 
ATOM     25  CD2 LHY d   1       4.453  10.072  -5.440  0.00  0.00    -0.077 A 
ATOM     26  H8  LHY d   1       4.005   9.728  -7.538  0.00  0.00     0.083 H 
ATOM     27  H6  LHY d   1       5.426  10.507  -5.638  0.00  0.00     0.084 H 
ENDBRANCH   1  17
TORSDOF 5
