REMARK  8 active torsions:
REMARK  status: ('A' for Active; 'I' for Inactive)
REMARK    1  A    between atoms: P1_1  and  O2'_16 
REMARK    2  A    between atoms: O5'_9  and  P2_5 
REMARK    3  A    between atoms: C5'_10  and  O5'_9 
REMARK    4  A    between atoms: C4'_11  and  C5'_10 
REMARK    5  A    between atoms: C3'_13  and  O3'_14 
REMARK    6  A    between atoms: O2'_16  and  C2'_15 
REMARK    7  A    between atoms: C1'_17  and  N9_18 
REMARK    8  A    between atoms: C6_22  and  N6_23 
ROOT
ATOM      1  C4' A2P d   1      14.025  17.584   5.939  0.00  0.00     0.089 C 
ATOM      2  O4' A2P d   1      14.410  18.588   6.923  0.00  0.00    -0.353 OA
ATOM      3  C3' A2P d   1      14.640  16.288   6.447  0.00  0.00     0.092 C 
ATOM      4  C2' A2P d   1      14.539  16.470   7.958  0.00  0.00     0.121 C 
ATOM      5  C1' A2P d   1      14.898  17.951   8.096  0.00  0.00     0.140 C 
ATOM      6  H3  A2P d   1      14.447  17.828   4.953  0.00  0.00     0.090 H 
ATOM      7  H4  A2P d   1      14.099  15.395   6.101  0.00  0.00     0.091 H 
ATOM      8  H6  A2P d   1      13.510  16.295   8.304  0.00  0.00     0.095 H 
ATOM      9  H7  A2P d   1      15.992  18.048   8.158  0.00  0.00     0.123 H 
ENDROOT
BRANCH   5  10
ATOM     10  N9  A2P d   1      14.303  18.630   9.251  0.00  0.00    -0.294 N 
ATOM     11  C8  A2P d   1      13.107  18.371   9.887  0.00  0.00     0.071 A 
ATOM     12  N7  A2P d   1      12.847  19.193  10.877  0.00  0.00    -0.236 NA
ATOM     13  H8  A2P d   1      12.441  17.561   9.595  0.00  0.00     0.144 H 
ATOM     14  C5  A2P d   1      13.947  20.047  10.900  0.00  0.00     0.149 A 
ATOM     15  C4  A2P d   1      14.855  19.702   9.910  0.00  0.00     0.167 A 
ATOM     16  C6  A2P d   1      14.294  21.158  11.723  0.00  0.00     0.155 A 
ATOM     17  N3  A2P d   1      16.036  20.304   9.646  0.00  0.00    -0.222 NA
ATOM     18  C2  A2P d   1      16.256  21.325  10.482  0.00  0.00     0.091 A 
ATOM     19  N1  A2P d   1      15.477  21.783  11.479  0.00  0.00    -0.222 NA
ATOM     20  H11 A2P d   1      17.190  21.856  10.336  0.00  0.00     0.146 H 
BRANCH  16  21
ATOM     21  N6  A2P d   1      13.526  21.621  12.712  0.00  0.00    -0.382 N 
ATOM     22  H9  A2P d   1      13.836  22.429  13.270  0.00  0.00     0.157 HD
ATOM     23  H10 A2P d   1      12.623  21.170  12.917  0.00  0.00     0.157 HD
ENDBRANCH  16  21
ENDBRANCH   5  10
BRANCH   4  24
ATOM     24  O2' A2P d   1      15.398  15.580   8.661  0.00  0.00    -0.270 OA
BRANCH  24  25
ATOM     25  P1  A2P d   1      14.853  14.452   9.707  0.00  0.00     0.422 P 
ATOM     26  O3P A2P d   1      16.103  13.684  10.089  0.00  0.00    -0.617 OA
ATOM     27  O2P A2P d   1      13.843  13.610   8.945  0.00  0.00    -0.617 OA
ATOM     28  O1P A2P d   1      14.236  15.203  10.876  0.00  0.00    -0.617 OA
ENDBRANCH  24  25
ENDBRANCH   4  24
BRANCH   3  29
ATOM     29  O3' A2P d   1      15.997  16.255   6.024  0.00  0.00    -0.390 OA
ATOM     30  H5  A2P d   1      16.442  15.531   6.448  0.00  0.00     0.210 HD
ENDBRANCH   3  29
BRANCH   1  31
ATOM     31  C5' A2P d   1      12.515  17.556   5.824  0.00  0.00     0.059 C 
ATOM     32  H1  A2P d   1      12.218  16.778   5.106  0.00  0.00     0.079 H 
ATOM     33  H2  A2P d   1      12.157  18.535   5.473  0.00  0.00     0.079 H 
BRANCH  31  34
ATOM     34  O5' A2P d   1      11.931  17.267   7.112  0.00  0.00    -0.280 OA
BRANCH  34  35
ATOM     35  P2  A2P d   1      10.348  16.895   7.260  0.00  0.00     0.422 P 
ATOM     36  O6P A2P d   1      10.045  15.878   6.162  0.00  0.00    -0.617 OA
ATOM     37  O5P A2P d   1       9.610  18.218   7.080  0.00  0.00    -0.617 OA
ATOM     38  O4P A2P d   1      10.184  16.318   8.663  0.00  0.00    -0.617 OA
ENDBRANCH  34  35
ENDBRANCH  31  34
ENDBRANCH   1  31
TORSDOF 8
