REMARK  7 active torsions:
REMARK  status: ('A' for Active; 'I' for Inactive)
REMARK    1  A    between atoms: O3_14  and  P1_1 
REMARK    2  A    between atoms: O5_9  and  P2_5 
REMARK    3  A    between atoms: C5_10  and  O5_9 
REMARK    4  A    between atoms: C4_11  and  C5_10 
REMARK    5  A    between atoms: C3_13  and  O3_14 
REMARK    6  A    between atoms: C2_15  and  O2_16 
REMARK    7  A    between atoms: C1_17  and  N9_18 
ROOT
ATOM      1  C4  A3P d   1      13.774  17.313  12.394  0.00  0.00     0.090 C 
ATOM      2  O4  A3P d   1      14.705  18.458  12.488  0.00  0.00    -0.353 OA
ATOM      3  C3  A3P d   1      12.698  17.760  11.350  0.00  0.00     0.107 C 
ATOM      4  C2  A3P d   1      13.486  18.719  10.493  0.00  0.00     0.106 C 
ATOM      5  C1  A3P d   1      14.246  19.500  11.587  0.00  0.00     0.140 C 
ATOM      6  H3  A3P d   1      13.285  17.115  13.359  0.00  0.00     0.090 H 
ATOM      7  H4  A3P d   1      12.349  16.904  10.754  0.00  0.00     0.092 H 
ATOM      8  H5  A3P d   1      14.205  18.152   9.884  0.00  0.00     0.093 H 
ATOM      9  H7  A3P d   1      13.557  20.178  12.111  0.00  0.00     0.122 H 
ENDROOT
BRANCH   5  10
ATOM     10  N9  A3P d   1      15.387  20.315  11.043  0.00  0.00    -0.294 N 
ATOM     11  C8  A3P d   1      15.564  20.824   9.759  0.00  0.00     0.071 A 
ATOM     12  N7  A3P d   1      16.674  21.513   9.574  0.00  0.00    -0.236 NA
ATOM     13  H8  A3P d   1      14.838  20.665   8.964  0.00  0.00     0.144 H 
ATOM     14  C5  A3P d   1      17.300  21.478  10.811  0.00  0.00     0.149 A 
ATOM     15  C6  A3P d   1      18.542  22.035  11.295  0.00  0.00     0.155 A 
ATOM     16  C4  A3P d   1      16.527  20.735  11.762  0.00  0.00     0.167 A 
ATOM     17  N6  A3P d   1      19.354  22.743  10.524  0.00  0.00    -0.382 N 
ATOM     18  N1  A3P d   1      18.897  21.815  12.635  0.00  0.00    -0.222 NA
ATOM     19  H9  A3P d   1      20.230  23.122  10.910  0.00  0.00     0.157 HD
ATOM     20  H10 A3P d   1      19.109  22.915   9.538  0.00  0.00     0.157 HD
ATOM     21  C2  A3P d   1      18.065  21.078  13.461  0.00  0.00     0.091 A 
ATOM     22  N3  A3P d   1      16.854  20.493  13.112  0.00  0.00    -0.222 NA
ATOM     23  H11 A3P d   1      18.392  20.944  14.486  0.00  0.00     0.146 H 
ENDBRANCH   5  10
BRANCH   4  24
ATOM     24  O2  A3P d   1      12.734  19.517   9.582  0.00  0.00    -0.388 OA
ATOM     25  H6  A3P d   1      13.324  20.081   9.096  0.00  0.00     0.210 HD
ENDBRANCH   4  24
BRANCH   1  26
ATOM     26  C5  A3P d   1      14.638  16.068  11.995  0.00  0.00     0.059 C 
ATOM     27  H1  A3P d   1      15.545  16.418  11.480  0.00  0.00     0.079 H 
ATOM     28  H2  A3P d   1      14.921  15.527  12.910  0.00  0.00     0.079 H 
BRANCH  26  29
ATOM     29  O5  A3P d   1      13.926  15.158  11.117  0.00  0.00    -0.280 OA
BRANCH  29  30
ATOM     30  P2  A3P d   1      14.439  14.632   9.639  0.00  0.00     0.422 P 
ATOM     31  O4P A3P d   1      15.690  13.926  10.051  0.00  0.00    -0.617 OA
ATOM     32  O5P A3P d   1      13.280  13.743   9.338  0.00  0.00    -0.617 OA
ATOM     33  O6P A3P d   1      14.518  15.922   8.955  0.00  0.00    -0.617 OA
ENDBRANCH  29  30
ENDBRANCH  26  29
ENDBRANCH   1  26
BRANCH   3  34
ATOM     34  O3  A3P d   1      11.532  18.389  12.004  0.00  0.00    -0.272 OA
BRANCH  34  35
ATOM     35  P1  A3P d   1      10.096  17.755  12.385  0.00  0.00     0.422 P 
ATOM     36  O1P A3P d   1      10.514  16.344  12.662  0.00  0.00    -0.617 OA
ATOM     37  O2P A3P d   1       9.438  17.985  11.056  0.00  0.00    -0.617 OA
ATOM     38  O3P A3P d   1       9.792  18.632  13.534  0.00  0.00    -0.617 OA
ENDBRANCH  34  35
ENDBRANCH   3  34
TORSDOF 7
