REMARK  9 active torsions:
REMARK  status: ('A' for Active; 'I' for Inactive)
REMARK    1  A    between atoms: O3A_8  and  PB_1 
REMARK    2  A    between atoms: PA_5  and  O3A_8 
REMARK    3  A    between atoms: PA_5  and  O5_9 
REMARK    4  A    between atoms: O5_9  and  C5_10 
REMARK    5  A    between atoms: C5_10  and  C4_11 
REMARK    6  A    between atoms: C3_13  and  O3_14 
REMARK    7  A    between atoms: C2_15  and  O2_16 
REMARK    8  A    between atoms: C1_17  and  N9_18 
REMARK    9  A    between atoms: C6_22  and  N6_23 
ROOT
ATOM      1  C4  ADP d   1      10.865  15.142   5.406  0.00  0.00     0.089 C 
ATOM      2  O4  ADP d   1      11.671  15.011   4.200  0.00  0.00    -0.353 OA
ATOM      3  C3  ADP d   1       9.783  14.065   5.321  0.00  0.00     0.091 C 
ATOM      4  C2  ADP d   1      10.410  13.024   4.401  0.00  0.00     0.105 C 
ATOM      5  C1  ADP d   1      11.222  13.901   3.440  0.00  0.00     0.139 C 
ATOM      6  H3  ADP d   1      10.370  16.124   5.412  0.00  0.00     0.090 H 
ATOM      7  H4  ADP d   1       9.568  13.642   6.314  0.00  0.00     0.091 H 
ATOM      8  H6  ADP d   1      11.067  12.345   4.965  0.00  0.00     0.093 H 
ATOM      9  H8  ADP d   1      10.573  14.234   2.616  0.00  0.00     0.122 H 
ENDROOT
BRANCH   5  10
ATOM     10  N9  ADP d   1      12.405  13.235   2.877  0.00  0.00    -0.294 N 
ATOM     11  C8  ADP d   1      13.257  12.364   3.527  0.00  0.00     0.071 A 
ATOM     12  N7  ADP d   1      14.239  11.916   2.774  0.00  0.00    -0.236 NA
ATOM     13  H9  ADP d   1      13.128  12.074   4.569  0.00  0.00     0.144 H 
ATOM     14  C5  ADP d   1      14.028  12.531   1.549  0.00  0.00     0.149 A 
ATOM     15  C6  ADP d   1      14.733  12.472   0.319  0.00  0.00     0.155 A 
ATOM     16  C4  ADP d   1      12.896  13.348   1.593  0.00  0.00     0.167 A 
ATOM     17  N1  ADP d   1      14.258  13.209  -0.725  0.00  0.00    -0.222 NA
ATOM     18  C2  ADP d   1      13.146  13.957  -0.536  0.00  0.00     0.091 A 
ATOM     19  N3  ADP d   1      12.397  14.092   0.578  0.00  0.00    -0.222 NA
ATOM     20  H12 ADP d   1      12.812  14.525  -1.397  0.00  0.00     0.146 H 
BRANCH  15  21
ATOM     21  N6  ADP d   1      15.832  11.735   0.137  0.00  0.00    -0.382 N 
ATOM     22  H10 ADP d   1      16.303  11.730  -0.779  0.00  0.00     0.157 HD
ATOM     23  H11 ADP d   1      16.208  11.171   0.913  0.00  0.00     0.157 HD
ENDBRANCH  15  21
ENDBRANCH   5  10
BRANCH   4  24
ATOM     24  O2  ADP d   1       9.431  12.258   3.722  0.00  0.00    -0.388 OA
ATOM     25  H7  ADP d   1       8.890  12.834   3.194  0.00  0.00     0.210 HD
ENDBRANCH   4  24
BRANCH   1  26
ATOM     26  C5  ADP d   1      11.770  15.078   6.622  0.00  0.00     0.058 C 
ATOM     27  H1  ADP d   1      12.512  15.888   6.564  0.00  0.00     0.079 H 
ATOM     28  H2  ADP d   1      11.164  15.201   7.532  0.00  0.00     0.079 H 
BRANCH  26  29
ATOM     29  O5  ADP d   1      12.456  13.806   6.675  0.00  0.00    -0.287 OA
BRANCH  29  30
ATOM     30  PA  ADP d   1      14.064  13.720   6.935  0.00  0.00     0.418 P 
ATOM     31  O1A ADP d   1      14.370  12.249   7.172  0.00  0.00    -0.624 OA
ATOM     32  O2A ADP d   1      14.724  14.252   5.676  0.00  0.00    -0.624 OA
BRANCH  30  33
ATOM     33  O3A ADP d   1      14.366  14.604   8.145  0.00  0.00    -0.173 OA
BRANCH  33  34
ATOM     34  PB  ADP d   1      14.596  14.374   9.630  0.00  0.00     0.431 P 
ATOM     35  O1B ADP d   1      14.616  15.712  10.348  0.00  0.00    -0.616 OA
ATOM     36  O2B ADP d   1      15.918  13.671   9.860  0.00  0.00    -0.616 OA
ATOM     37  O3B ADP d   1      13.444  13.543  10.163  0.00  0.00    -0.616 OA
ENDBRANCH  33  34
ENDBRANCH  30  33
ENDBRANCH  29  30
ENDBRANCH  26  29
ENDBRANCH   1  26
BRANCH   3  38
ATOM     38  O3  ADP d   1       8.577  14.577   4.748  0.00  0.00    -0.390 OA
ATOM     39  H5  ADP d   1       7.927  13.885   4.710  0.00  0.00     0.210 HD
ENDBRANCH   3  38
TORSDOF 9
