REMARK  22 active torsions:
REMARK  status: ('A' for Active; 'I' for Inactive)
REMARK    1  A    between atoms: C1_1  and  C2_2 
REMARK       I    between atoms: C2_2  and  N4_4 
REMARK    2  A    between atoms: N4_4  and  C5_5 
REMARK    3  A    between atoms: C5_5  and  C9_9 
REMARK    4  A    between atoms: C5_5  and  C6_6 
REMARK    5  A    between atoms: C6_6  and  C8_8 
REMARK    6  A    between atoms: C6_6  and  C7_7 
REMARK       I    between atoms: C9_9  and  N11_11 
REMARK    7  A    between atoms: N11_11  and  C12_12 
REMARK    8  A    between atoms: C12_12  and  C20_20 
REMARK    9  A    between atoms: C12_12  and  C13_13 
REMARK   10  A    between atoms: C13_13  and  C14_14 
REMARK   11  A    between atoms: C20_20  and  C22_22 
REMARK   12  A    between atoms: C20_20  and  O21_21 
REMARK   13  A    between atoms: C22_22  and  N23_23 
REMARK   14  A    between atoms: N23_23  and  N31_31 
REMARK   15  A    between atoms: N23_23  and  C24_24 
REMARK   16  A    between atoms: C24_24  and  C25_25 
REMARK       I    between atoms: N31_31  and  C32_32 
REMARK   17  A    between atoms: C32_32  and  C34_34 
REMARK   18  A    between atoms: C34_34  and  C36_36 
REMARK   19  A    between atoms: C34_34  and  N35_35 
REMARK       I    between atoms: N35_35  and  C39_39 
REMARK   20  A    between atoms: C36_36  and  C38_38 
REMARK   21  A    between atoms: C36_36  and  C37_37 
REMARK   22  A    between atoms: C39_39  and  C41_41 
ROOT
ATOM      1  C22 C20 d   1       5.952  -0.050  14.842  0.00  0.00     0.129 C 
ATOM      2  H24 C20 d   1       6.869  -0.598  15.105  0.00  0.00     0.083 H 
ATOM      3  H25 C20 d   1       6.091   1.020  15.053  0.00  0.00     0.083 H 
ENDROOT
BRANCH   1   4
ATOM      4  C20 C20 d   1       4.810  -0.572  15.688  0.00  0.00     0.080 C 
ATOM      5  H22 C20 d   1       3.864  -0.120  15.354  0.00  0.00     0.088 H 
BRANCH   4   6
ATOM      6  C12 C20 d   1       4.699  -2.107  15.577  0.00  0.00     0.042 C 
ATOM      7  H14 C20 d   1       4.677  -2.373  14.510  0.00  0.00     0.077 H 
BRANCH   6   8
ATOM      8  N11 C20 d   1       5.813  -2.801  16.199  0.00  0.00    -0.352 N 
ATOM      9  C9  C20 d   1       6.598  -3.629  15.519  0.00  0.00     0.241 C 
ATOM     10  O10 C20 d   1       6.499  -3.803  14.307  0.00  0.00    -0.271 OA
ATOM     11  H13 C20 d   1       5.995  -2.651  17.171  0.00  0.00     0.163 HD
BRANCH   9  12
ATOM     12  C5  C20 d   1       7.712  -4.325  16.310  0.00  0.00     0.092 C 
ATOM     13  H5  C20 d   1       7.831  -3.829  17.285  0.00  0.00     0.088 H 
BRANCH  12  14
ATOM     14  N4  C20 d   1       7.337  -5.736  16.529  0.00  0.00    -0.348 N 
ATOM     15  C2  C20 d   1       7.181  -6.301  17.728  0.00  0.00     0.214 C 
ATOM     16  O3  C20 d   1       7.332  -5.692  18.787  0.00  0.00    -0.274 OA
ATOM     17  H4  C20 d   1       7.190  -6.309  15.723  0.00  0.00     0.163 HD
BRANCH  15  18
ATOM     18  C1  C20 d   1       6.772  -7.777  17.737  0.00  0.00    -0.003 C 
ATOM     19  H1  C20 d   1       6.676  -8.125  18.776  0.00  0.00     0.040 H 
ATOM     20  H2  C20 d   1       7.539  -8.373  17.220  0.00  0.00     0.040 H 
ATOM     21  H3  C20 d   1       5.808  -7.893  17.221  0.00  0.00     0.040 H 
ENDBRANCH  15  18
ENDBRANCH  12  14
BRANCH  12  22
ATOM     22  C6  C20 d   1       9.051  -4.224  15.524  0.00  0.00    -0.033 C 
ATOM     23  H6  C20 d   1       8.916  -4.728  14.556  0.00  0.00     0.042 H 
BRANCH  22  24
ATOM     24  C8  C20 d   1      10.166  -4.949  16.294  0.00  0.00    -0.071 C 
ATOM     25  H10 C20 d   1       9.864  -5.989  16.484  0.00  0.00     0.028 H 
ATOM     26  H11 C20 d   1      10.342  -4.438  17.252  0.00  0.00     0.028 H 
ATOM     27  H12 C20 d   1      11.090  -4.939  15.697  0.00  0.00     0.028 H 
ENDBRANCH  22  24
BRANCH  22  28
ATOM     28  C7  C20 d   1       9.445  -2.778  15.247  0.00  0.00    -0.071 C 
ATOM     29  H7  C20 d   1      10.394  -2.757  14.691  0.00  0.00     0.028 H 
ATOM     30  H8  C20 d   1       9.566  -2.242  16.200  0.00  0.00     0.028 H 
ATOM     31  H9  C20 d   1       8.660  -2.292  14.650  0.00  0.00     0.028 H 
ENDBRANCH  22  28
ENDBRANCH  12  22
ENDBRANCH   9  12
ENDBRANCH   6   8
BRANCH   6  32
ATOM     32  C13 C20 d   1       3.408  -2.577  16.233  0.00  0.00    -0.020 C 
ATOM     33  H15 C20 d   1       2.556  -2.176  15.664  0.00  0.00     0.043 H 
ATOM     34  H16 C20 d   1       3.375  -2.192  17.263  0.00  0.00     0.043 H 
BRANCH  32  35
ATOM     35  C14 C20 d   1       3.297  -4.086  16.275  0.00  0.00    -0.056 A 
ATOM     36  C19 C20 d   1       3.020  -4.834  15.060  0.00  0.00    -0.077 A 
ATOM     37  C18 C20 d   1       2.852  -6.205  15.135  0.00  0.00    -0.082 A 
ATOM     38  H21 C20 d   1       2.946  -4.324  14.107  0.00  0.00     0.084 H 
ATOM     39  C17 C20 d   1       2.949  -6.868  16.347  0.00  0.00    -0.083 A 
ATOM     40  H20 C20 d   1       2.642  -6.768  14.233  0.00  0.00     0.083 H 
ATOM     41  C16 C20 d   1       3.215  -6.185  17.540  0.00  0.00    -0.082 A 
ATOM     42  H19 C20 d   1       2.816  -7.944  16.373  0.00  0.00     0.083 H 
ATOM     43  C15 C20 d   1       3.392  -4.829  17.551  0.00  0.00    -0.077 A 
ATOM     44  H18 C20 d   1       3.282  -6.739  18.469  0.00  0.00     0.083 H 
ATOM     45  H17 C20 d   1       3.598  -4.308  18.479  0.00  0.00     0.084 H 
ENDBRANCH  32  35
ENDBRANCH   6  32
ENDBRANCH   4   6
BRANCH   4  46
ATOM     46  O21 C20 d   1       5.081  -0.184  17.037  0.00  0.00    -0.392 OA
ATOM     47  H23 C20 d   1       5.133   0.763  17.088  0.00  0.00     0.210 HD
ENDBRANCH   4  46
ENDBRANCH   1   4
BRANCH   1  48
ATOM     48  N23 C20 d   1       5.694  -0.219  13.426  0.00  0.00     0.014 N 
ATOM     49  H26 C20 d   1       5.515  -1.184  13.195  0.00  0.00     0.309 HD
BRANCH  48  50
ATOM     50  N31 C20 d   1       4.524   0.562  13.069  0.00  0.00    -0.185 N 
ATOM     51  C32 C20 d   1       3.611   0.148  12.191  0.00  0.00     0.264 C 
ATOM     52  O33 C20 d   1       3.599  -0.997  11.710  0.00  0.00    -0.269 OA
ATOM     53  H40 C20 d   1       4.397   1.454  13.503  0.00  0.00     0.197 HD
BRANCH  51  54
ATOM     54  C34 C20 d   1       2.578   1.196  11.770  0.00  0.00     0.093 C 
ATOM     55  H41 C20 d   1       2.538   1.966  12.555  0.00  0.00     0.088 H 
BRANCH  54  56
ATOM     56  C36 C20 d   1       1.167   0.574  11.648  0.00  0.00    -0.033 C 
ATOM     57  H43 C20 d   1       1.169  -0.145  10.816  0.00  0.00     0.042 H 
BRANCH  56  58
ATOM     58  C38 C20 d   1       0.134   1.692  11.343  0.00  0.00    -0.071 C 
ATOM     59  H47 C20 d   1       0.422   2.216  10.420  0.00  0.00     0.028 H 
ATOM     60  H48 C20 d   1       0.111   2.407  12.178  0.00  0.00     0.028 H 
ATOM     61  H49 C20 d   1      -0.863   1.245  11.215  0.00  0.00     0.028 H 
ENDBRANCH  56  58
BRANCH  56  62
ATOM     62  C37 C20 d   1       0.783  -0.161  12.923  0.00  0.00    -0.071 C 
ATOM     63  H44 C20 d   1      -0.222  -0.592  12.809  0.00  0.00     0.028 H 
ATOM     64  H45 C20 d   1       0.786   0.544  13.768  0.00  0.00     0.028 H 
ATOM     65  H46 C20 d   1       1.508  -0.966  13.115  0.00  0.00     0.028 H 
ENDBRANCH  56  62
ENDBRANCH  54  56
BRANCH  54  66
ATOM     66  N35 C20 d   1       2.986   1.849  10.520  0.00  0.00    -0.348 N 
ATOM     67  C39 C20 d   1       3.218   3.154  10.449  0.00  0.00     0.214 C 
ATOM     68  O40 C20 d   1       3.036   3.910  11.408  0.00  0.00    -0.274 OA
ATOM     69  H42 C20 d   1       3.092   1.293   9.696  0.00  0.00     0.163 HD
BRANCH  67  70
ATOM     70  C41 C20 d   1       3.709   3.732   9.148  0.00  0.00    -0.003 C 
ATOM     71  H50 C20 d   1       3.850   4.817   9.259  0.00  0.00     0.040 H 
ATOM     72  H51 C20 d   1       2.969   3.537   8.358  0.00  0.00     0.040 H 
ATOM     73  H52 C20 d   1       4.667   3.264   8.877  0.00  0.00     0.040 H 
ENDBRANCH  67  70
ENDBRANCH  54  66
ENDBRANCH  51  54
ENDBRANCH  48  50
BRANCH  48  74
ATOM     74  C24 C20 d   1       6.976   0.200  12.849  0.00  0.00     0.107 C 
ATOM     75  H27 C20 d   1       7.627  -0.686  12.859  0.00  0.00     0.080 H 
ATOM     76  H28 C20 d   1       7.387   0.965  13.525  0.00  0.00     0.080 H 
BRANCH  74  77
ATOM     77  C25 C20 d   1       7.055   0.777  11.447  0.00  0.00    -0.029 C 
ATOM     78  C30 C20 d   1       6.568   2.217  11.593  0.00  0.00    -0.060 C 
ATOM     79  C29 C20 d   1       7.077   3.163  10.540  0.00  0.00    -0.065 C 
ATOM     80  H38 C20 d   1       6.893   2.591  12.575  0.00  0.00     0.033 H 
ATOM     81  H39 C20 d   1       5.469   2.213  11.548  0.00  0.00     0.033 H 
ATOM     82  C28 C20 d   1       8.596   3.143  10.491  0.00  0.00    -0.065 C 
ATOM     83  H36 C20 d   1       6.680   2.860   9.560  0.00  0.00     0.033 H 
ATOM     84  H37 C20 d   1       6.736   4.182  10.775  0.00  0.00     0.033 H 
ATOM     85  C27 C20 d   1       9.084   1.740  10.189  0.00  0.00    -0.065 C 
ATOM     86  H34 C20 d   1       8.944   3.828   9.704  0.00  0.00     0.033 H 
ATOM     87  H35 C20 d   1       8.996   3.467  11.463  0.00  0.00     0.033 H 
ATOM     88  C26 C20 d   1       8.577   0.775  11.247  0.00  0.00    -0.060 C 
ATOM     89  H32 C20 d   1       8.710   1.429   9.203  0.00  0.00     0.033 H 
ATOM     90  H33 C20 d   1      10.184   1.730  10.184  0.00  0.00     0.033 H 
ATOM     91  H30 C20 d   1       8.882  -0.241  10.957  0.00  0.00     0.033 H 
ATOM     92  H31 C20 d   1       9.048   1.040  12.205  0.00  0.00     0.033 H 
ATOM     93  H29 C20 d   1       6.503   0.212  10.681  0.00  0.00     0.042 H 
ENDBRANCH  74  77
ENDBRANCH  48  74
ENDBRANCH   1  48
TORSDOF 22
