REMARK  22 active torsions:
REMARK  status: ('A' for Active; 'I' for Inactive)
REMARK    1  A    between atoms: C1_1  and  C2_2 
REMARK       I    between atoms: C2_2  and  N4_4 
REMARK    2  A    between atoms: N4_4  and  C5_5 
REMARK    3  A    between atoms: C5_5  and  C9_9 
REMARK    4  A    between atoms: C5_5  and  C6_6 
REMARK    5  A    between atoms: C6_6  and  C8_8 
REMARK    6  A    between atoms: C6_6  and  C7_7 
REMARK       I    between atoms: C9_9  and  N11_11 
REMARK    7  A    between atoms: N11_11  and  C12_12 
REMARK    8  A    between atoms: C12_12  and  C20_20 
REMARK    9  A    between atoms: C12_12  and  C13_13 
REMARK   10  A    between atoms: C13_13  and  C14_14 
REMARK   11  A    between atoms: C20_20  and  C22_22 
REMARK   12  A    between atoms: C20_20  and  O21_21 
REMARK   13  A    between atoms: C22_22  and  N23_23 
REMARK   14  A    between atoms: N23_23  and  N31_31 
REMARK   15  A    between atoms: N23_23  and  C24_24 
REMARK   16  A    between atoms: C24_24  and  C25_25 
REMARK       I    between atoms: N31_31  and  C32_32 
REMARK   17  A    between atoms: C32_32  and  C34_34 
REMARK   18  A    between atoms: C34_34  and  C36_36 
REMARK   19  A    between atoms: C34_34  and  N35_35 
REMARK       I    between atoms: N35_35  and  C39_39 
REMARK   20  A    between atoms: C36_36  and  C38_38 
REMARK   21  A    between atoms: C36_36  and  C37_37 
REMARK   22  A    between atoms: C39_39  and  C41_41 
ROOT
ATOM      1  C22 C20 d   1      16.106  29.424  13.614  0.00  0.00     0.129 C 
ATOM      2  H24 C20 d   1      16.022  30.102  14.476  0.00  0.00     0.083 H 
ATOM      3  H25 C20 d   1      16.495  28.451  13.949  0.00  0.00     0.083 H 
ENDROOT
BRANCH   1   4
ATOM      4  C20 C20 d   1      17.072  30.015  12.629  0.00  0.00     0.080 C 
ATOM      5  H22 C20 d   1      16.983  29.508  11.657  0.00  0.00     0.088 H 
BRANCH   4   6
ATOM      6  C12 C20 d   1      16.853  31.533  12.416  0.00  0.00     0.042 C 
ATOM      7  H14 C20 d   1      15.795  31.701  12.167  0.00  0.00     0.077 H 
BRANCH   6   8
ATOM      8  N11 C20 d   1      17.173  32.313  13.610  0.00  0.00    -0.352 N 
ATOM      9  C9  C20 d   1      16.304  33.148  14.183  0.00  0.00     0.241 C 
ATOM     10  O10 C20 d   1      15.163  33.356  13.736  0.00  0.00    -0.271 OA
ATOM     11  H13 C20 d   1      18.082  32.217  14.015  0.00  0.00     0.163 HD
BRANCH   9  12
ATOM     12  C5  C20 d   1      16.794  33.868  15.455  0.00  0.00     0.092 C 
ATOM     13  H5  C20 d   1      17.729  33.378  15.765  0.00  0.00     0.088 H 
BRANCH  12  14
ATOM     14  N4  C20 d   1      17.098  35.276  15.224  0.00  0.00    -0.348 N 
ATOM     15  C2  C20 d   1      18.321  35.770  15.416  0.00  0.00     0.214 C 
ATOM     16  O3  C20 d   1      19.244  35.111  15.921  0.00  0.00    -0.274 OA
ATOM     17  H4  C20 d   1      16.370  35.887  14.913  0.00  0.00     0.163 HD
BRANCH  15  18
ATOM     18  C1  C20 d   1      18.542  37.227  14.994  0.00  0.00    -0.003 C 
ATOM     19  H1  C20 d   1      19.583  37.515  15.202  0.00  0.00     0.040 H 
ATOM     20  H2  C20 d   1      17.861  37.880  15.560  0.00  0.00     0.040 H 
ATOM     21  H3  C20 d   1      18.340  37.332  13.918  0.00  0.00     0.040 H 
ENDBRANCH  15  18
ENDBRANCH  12  14
BRANCH  12  22
ATOM     22  C6  C20 d   1      15.773  33.717  16.622  0.00  0.00    -0.033 C 
ATOM     23  H6  C20 d   1      14.856  34.262  16.352  0.00  0.00     0.042 H 
BRANCH  22  24
ATOM     24  C8  C20 d   1      16.358  34.341  17.912  0.00  0.00    -0.071 C 
ATOM     25  H10 C20 d   1      16.619  35.393  17.725  0.00  0.00     0.028 H 
ATOM     26  H11 C20 d   1      17.260  33.787  18.211  0.00  0.00     0.028 H 
ATOM     27  H12 C20 d   1      15.611  34.286  18.717  0.00  0.00     0.028 H 
ENDBRANCH  22  24
BRANCH  22  28
ATOM     28  C7  C20 d   1      15.402  32.240  16.869  0.00  0.00    -0.071 C 
ATOM     29  H7  C20 d   1      14.682  32.177  17.698  0.00  0.00     0.028 H 
ATOM     30  H8  C20 d   1      16.308  31.672  17.127  0.00  0.00     0.028 H 
ATOM     31  H9  C20 d   1      14.951  31.818  15.959  0.00  0.00     0.028 H 
ENDBRANCH  22  28
ENDBRANCH  12  22
ENDBRANCH   9  12
ENDBRANCH   6   8
BRANCH   6  32
ATOM     32  C13 C20 d   1      17.713  31.996  11.253  0.00  0.00    -0.020 C 
ATOM     33  H15 C20 d   1      17.354  31.509  10.334  0.00  0.00     0.043 H 
ATOM     34  H16 C20 d   1      18.754  31.696  11.444  0.00  0.00     0.043 H 
BRANCH  32  35
ATOM     35  C14 C20 d   1      17.670  33.494  11.054  0.00  0.00    -0.056 A 
ATOM     36  C19 C20 d   1      16.812  34.085   9.999  0.00  0.00    -0.077 A 
ATOM     37  C18 C20 d   1      16.777  35.472   9.850  0.00  0.00    -0.082 A 
ATOM     38  H21 C20 d   1      16.220  33.448   9.352  0.00  0.00     0.084 H 
ATOM     39  C17 C20 d   1      17.550  36.299  10.679  0.00  0.00    -0.083 A 
ATOM     40  H20 C20 d   1      16.147  35.914   9.087  0.00  0.00     0.083 H 
ATOM     41  C16 C20 d   1      18.381  35.774  11.693  0.00  0.00    -0.082 A 
ATOM     42  H19 C20 d   1      17.508  37.373  10.537  0.00  0.00     0.083 H 
ATOM     43  C15 C20 d   1      18.479  34.398  11.909  0.00  0.00    -0.077 A 
ATOM     44  H18 C20 d   1      18.954  36.452  12.315  0.00  0.00     0.083 H 
ATOM     45  H17 C20 d   1      19.129  34.001  12.681  0.00  0.00     0.084 H 
ENDBRANCH  32  35
ENDBRANCH   6  32
ENDBRANCH   4   6
BRANCH   4  46
ATOM     46  O21 C20 d   1      18.339  29.746  13.215  0.00  0.00    -0.392 OA
ATOM     47  H23 C20 d   1      18.448  28.808  13.314  0.00  0.00     0.210 HD
ENDBRANCH   4  46
ENDBRANCH   1   4
BRANCH   1  48
ATOM     48  N23 C20 d   1      14.808  29.230  13.057  0.00  0.00     0.014 N 
ATOM     49  H26 C20 d   1      14.327  30.107  12.932  0.00  0.00     0.309 HD
BRANCH  48  50
ATOM     50  N31 C20 d   1      14.940  28.565  11.776  0.00  0.00    -0.185 N 
ATOM     51  C32 C20 d   1      14.288  28.996  10.692  0.00  0.00     0.264 C 
ATOM     52  O33 C20 d   1      13.743  30.107  10.623  0.00  0.00    -0.269 OA
ATOM     53  H40 C20 d   1      15.534  27.764  11.701  0.00  0.00     0.197 HD
BRANCH  51  54
ATOM     54  C34 C20 d   1      14.241  28.036   9.501  0.00  0.00     0.093 C 
ATOM     55  H41 C20 d   1      15.056  27.306   9.616  0.00  0.00     0.088 H 
BRANCH  54  56
ATOM     56  C36 C20 d   1      14.468  28.809   8.167  0.00  0.00    -0.033 C 
ATOM     57  H43 C20 d   1      13.595  29.449   7.972  0.00  0.00     0.042 H 
BRANCH  56  58
ATOM     58  C38 C20 d   1      14.630  27.813   7.028  0.00  0.00    -0.071 C 
ATOM     59  H47 C20 d   1      13.733  27.179   6.965  0.00  0.00     0.028 H 
ATOM     60  H48 C20 d   1      15.512  27.183   7.214  0.00  0.00     0.028 H 
ATOM     61  H49 C20 d   1      14.761  28.357   6.081  0.00  0.00     0.028 H 
ENDBRANCH  56  58
BRANCH  56  62
ATOM     62  C37 C20 d   1      15.720  29.682   8.241  0.00  0.00    -0.071 C 
ATOM     63  H44 C20 d   1      15.853  30.214   7.287  0.00  0.00     0.028 H 
ATOM     64  H45 C20 d   1      16.598  29.048   8.433  0.00  0.00     0.028 H 
ATOM     65  H46 C20 d   1      15.610  30.413   9.056  0.00  0.00     0.028 H 
ENDBRANCH  56  62
ENDBRANCH  54  56
BRANCH  54  66
ATOM     66  N35 C20 d   1      12.979  27.304   9.480  0.00  0.00    -0.348 N 
ATOM     67  C39 C20 d   1      12.929  25.981   9.621  0.00  0.00     0.214 C 
ATOM     68  O40 C20 d   1      13.943  25.276   9.760  0.00  0.00    -0.274 OA
ATOM     69  H42 C20 d   1      12.126  27.811   9.356  0.00  0.00     0.163 HD
BRANCH  67  70
ATOM     70  C41 C20 d   1      11.579  25.288   9.590  0.00  0.00    -0.003 C 
ATOM     71  H50 C20 d   1      11.720  24.205   9.720  0.00  0.00     0.040 H 
ATOM     72  H51 C20 d   1      11.090  25.481   8.624  0.00  0.00     0.040 H 
ATOM     73  H52 C20 d   1      10.949  25.676  10.404  0.00  0.00     0.040 H 
ENDBRANCH  67  70
ENDBRANCH  54  66
ENDBRANCH  51  54
ENDBRANCH  48  50
BRANCH  48  74
ATOM     74  C24 C20 d   1      14.137  28.421  14.049  0.00  0.00     0.107 C 
ATOM     75  H27 C20 d   1      14.248  28.873  15.046  0.00  0.00     0.080 H 
ATOM     76  H28 C20 d   1      14.557  27.405  14.058  0.00  0.00     0.080 H 
BRANCH  74  77
ATOM     77  C25 C20 d   1      12.683  28.379  13.656  0.00  0.00    -0.029 C 
ATOM     78  C30 C20 d   1      12.299  26.945  13.351  0.00  0.00    -0.060 C 
ATOM     79  C29 C20 d   1      10.867  26.839  12.954  0.00  0.00    -0.065 C 
ATOM     80  H38 C20 d   1      12.468  26.331  14.248  0.00  0.00     0.033 H 
ATOM     81  H39 C20 d   1      12.927  26.573  12.528  0.00  0.00     0.033 H 
ATOM     82  C28 C20 d   1       9.976  27.385  14.050  0.00  0.00    -0.065 C 
ATOM     83  H36 C20 d   1      10.703  27.416  12.032  0.00  0.00     0.033 H 
ATOM     84  H37 C20 d   1      10.617  25.783  12.776  0.00  0.00     0.033 H 
ATOM     85  C27 C20 d   1      10.339  28.793  14.404  0.00  0.00    -0.065 C 
ATOM     86  H34 C20 d   1       8.931  27.361  13.706  0.00  0.00     0.033 H 
ATOM     87  H35 C20 d   1      10.082  26.753  14.944  0.00  0.00     0.033 H 
ATOM     88  C26 C20 d   1      11.787  28.873  14.775  0.00  0.00    -0.060 C 
ATOM     89  H32 C20 d   1      10.148  29.446  13.540  0.00  0.00     0.033 H 
ATOM     90  H33 C20 d   1       9.726  29.123  15.256  0.00  0.00     0.033 H 
ATOM     91  H30 C20 d   1      12.040  29.920  14.998  0.00  0.00     0.033 H 
ATOM     92  H31 C20 d   1      11.960  28.256  15.669  0.00  0.00     0.033 H 
ATOM     93  H29 C20 d   1      12.532  29.005  12.764  0.00  0.00     0.042 H 
ENDBRANCH  74  77
ENDBRANCH  48  74
ENDBRANCH   1  48
TORSDOF 22
