REMARK  7 active torsions:
REMARK  status: ('A' for Active; 'I' for Inactive)
REMARK    1  A    between atoms: C1_1  and  C7_7 
REMARK    2  A    between atoms: O4_17  and  C4_4 
REMARK    3  A    between atoms: C7_7  and  C8_8 
REMARK    4  A    between atoms: C8_8  and  C9_9 
REMARK    5  A    between atoms: C8_8  and  N8_16 
REMARK    6  A    between atoms: O4_17  and  C1'_10 
REMARK    7  A    between atoms: C4'_13  and  O4'_18 
ROOT
ATOM      1  C1  T44 d   1      19.939  10.571  28.470  0.00  0.00    -0.053 A 
ATOM      2  C2  T44 d   1      21.146  10.187  27.862  0.00  0.00    -0.058 A 
ATOM      3  C3  T44 d   1      21.381  10.359  26.482  0.00  0.00     0.042 A 
ATOM      4  C4  T44 d   1      20.359  10.950  25.655  0.00  0.00     0.109 A 
ATOM      5  C5  T44 d   1      19.167  11.329  26.256  0.00  0.00     0.042 A 
ATOM      6  C6  T44 d   1      18.928  11.158  27.648  0.00  0.00    -0.058 A 
ATOM      7  I3  T44 d   1      23.213   9.765  25.674  0.00  0.00    -0.042 I 
ATOM      8  I5  T44 d   1      17.648  12.201  25.082  0.00  0.00    -0.042 I 
ATOM      9  H1  T44 d   1      21.923   9.743  28.474  0.00  0.00     0.086 H 
ATOM     10  H2  T44 d   1      17.985  11.471  28.082  0.00  0.00     0.086 H 
ENDROOT
BRANCH   4  11
ATOM     11  O4  T44 d   1      20.596  11.119  24.295  0.00  0.00    -0.308 OA
BRANCH  11  12
ATOM     12  C1' T44 d   1      21.259  12.244  23.761  0.00  0.00     0.078 A 
ATOM     13  C2' T44 d   1      21.464  12.222  22.366  0.00  0.00    -0.032 A 
ATOM     14  C3' T44 d   1      22.122  13.317  21.768  0.00  0.00     0.043 A 
ATOM     15  H6  T44 d   1      21.124  11.384  21.768  0.00  0.00     0.089 H 
ATOM     16  C4' T44 d   1      22.600  14.482  22.519  0.00  0.00     0.098 A 
ATOM     17  I3' T44 d   1      22.434  13.323  19.699  0.00  0.00    -0.042 I 
ATOM     18  C5' T44 d   1      22.347  14.407  23.911  0.00  0.00     0.043 A 
ATOM     19  C6' T44 d   1      21.697  13.341  24.550  0.00  0.00    -0.032 A 
ATOM     20  I5' T44 d   1      22.968  15.987  25.111  0.00  0.00    -0.042 I 
ATOM     21  H7  T44 d   1      21.533  13.354  25.621  0.00  0.00     0.089 H 
BRANCH  16  22
ATOM     22  O4' T44 d   1      23.205  15.486  21.937  0.00  0.00    -0.358 OA
ATOM     23  H11 T44 d   1      23.264  15.321  21.003  0.00  0.00     0.217 HD
ENDBRANCH  16  22
ENDBRANCH  11  12
ENDBRANCH   4  11
BRANCH   1  24
ATOM     24  C7  T44 d   1      19.755  10.365  29.974  0.00  0.00    -0.005 C 
ATOM     25  H3  T44 d   1      18.705  10.593  30.210  0.00  0.00     0.044 H 
ATOM     26  H4  T44 d   1      20.411  11.085  30.486  0.00  0.00     0.044 H 
BRANCH  24  27
ATOM     27  C8  T44 d   1      20.059   8.988  30.547  0.00  0.00     0.186 C 
ATOM     28  H5  T44 d   1      20.980   8.619  30.073  0.00  0.00     0.101 H 
BRANCH  27  29
ATOM     29  C9  T44 d   1      20.256   8.939  32.091  0.00  0.00     0.204 C 
ATOM     30  O9  T44 d   1      19.500   9.638  32.786  0.00  0.00    -0.646 OA
ATOM     31  O10 T44 d   1      21.151   8.204  32.521  0.00  0.00    -0.646 OA
ENDBRANCH  27  29
BRANCH  27  32
ATOM     32  N8  T44 d   1      18.917   8.072  30.206  0.00  0.00    -0.065 N 
ATOM     33  H8  T44 d   1      19.101   7.153  30.578  0.00  0.00     0.275 HD
ATOM     34  H9  T44 d   1      18.819   8.015  29.204  0.00  0.00     0.275 HD
ATOM     35  H10 T44 d   1      18.066   8.433  30.607  0.00  0.00     0.275 HD
ENDBRANCH  27  32
ENDBRANCH  24  27
ENDBRANCH   1  24
TORSDOF 7
