REMARK  6 active torsions:
REMARK  status: ('A' for Active; 'I' for Inactive)
REMARK    1  A    between atoms: C1_1  and  O17_16 
REMARK    2  A    between atoms: C5_5  and  C18_17 
REMARK    3  A    between atoms: C6_6  and  O16_15 
REMARK    4  A    between atoms: C13_12  and  C26_21 
REMARK    5  A    between atoms: C15_14  and  O20_19 
REMARK    6  A    between atoms: O20_19  and  C22_20 
ROOT
ATOM      1  C1  113 d   1      -8.306 -25.213  16.785  0.00  0.00     0.102 C 
ATOM      2  C2  113 d   1      -8.767 -26.236  15.955  0.00  0.00    -0.015 C 
ATOM      3  C3  113 d   1      -8.971 -27.503  16.499  0.00  0.00     0.093 C 
ATOM      4  C4  113 d   1      -8.653 -27.758  17.847  0.00  0.00     0.069 C 
ATOM      5  C5  113 d   1      -7.863 -26.811  18.552  0.00  0.00     0.093 C 
ATOM      6  C6  113 d   1      -7.767 -25.498  18.038  0.00  0.00     0.117 C 
ATOM      7  O8  113 d   1      -9.495 -28.497  15.700  0.00  0.00    -0.313 OA
ATOM      8  C9  113 d   1      -9.699 -29.777  16.173  0.00  0.00     0.071 C 
ATOM      9  C10 113 d   1      -9.588 -30.098  17.485  0.00  0.00     0.077 C 
ATOM     10  C11 113 d   1      -9.180 -29.007  18.439  0.00  0.00     0.199 C 
ATOM     11  C12 113 d   1     -10.050 -30.785  15.108  0.00  0.00     0.004 C 
ATOM     12  C13 113 d   1      -9.715 -32.213  15.565  0.00  0.00     0.044 C 
ATOM     13  O14 113 d   1     -10.167 -32.443  16.904  0.00  0.00    -0.352 OA
ATOM     14  C15 113 d   1      -9.873 -31.519  17.960  0.00  0.00     0.163 C 
ATOM     15  O31 113 d   1      -9.319 -29.195  19.626  0.00  0.00    -0.287 OA
ATOM     16  H1  113 d   1      -8.963 -26.048  14.905  0.00  0.00     0.092 H 
ATOM     17  H2  113 d   1      -9.479 -30.557  14.196  0.00  0.00     0.046 H 
ATOM     18  H3  113 d   1     -11.127 -30.720  14.893  0.00  0.00     0.046 H 
ATOM     19  H4  113 d   1      -8.621 -32.326  15.538  0.00  0.00     0.083 H 
ATOM     20  H5  113 d   1     -10.795 -31.447  18.556  0.00  0.00     0.137 H 
ENDROOT
BRANCH  14  21
ATOM     21  O20 113 d   1      -8.877 -32.028  18.846  0.00  0.00    -0.362 OA
BRANCH  21  22
ATOM     22  C22 113 d   1      -7.654 -32.545  18.369  0.00  0.00     0.007 C 
ATOM     23  H8  113 d   1      -7.041 -32.879  19.219  0.00  0.00     0.066 H 
ATOM     24  H9  113 d   1      -7.116 -31.762  17.815  0.00  0.00     0.066 H 
ATOM     25  H10 113 d   1      -7.851 -33.397  17.702  0.00  0.00     0.066 H 
ENDBRANCH  21  22
ENDBRANCH  14  21
BRANCH  12  26
ATOM     26  C26 113 d   1     -10.334 -33.288  14.662  0.00  0.00    -0.052 C 
ATOM     27  H11 113 d   1     -10.060 -34.285  15.038  0.00  0.00     0.030 H 
ATOM     28  H12 113 d   1      -9.957 -33.167  13.636  0.00  0.00     0.030 H 
ATOM     29  H13 113 d   1     -11.429 -33.183  14.665  0.00  0.00     0.030 H 
ENDBRANCH  12  26
BRANCH   5  30
ATOM     30  C18 113 d   1      -7.133 -27.142  19.791  0.00  0.00     0.213 C 
ATOM     31  O19 113 d   1      -7.736 -26.754  20.926  0.00  0.00    -0.644 OA
ATOM     32  O30 113 d   1      -6.075 -27.727  19.782  0.00  0.00    -0.644 OA
ENDBRANCH   5  30
BRANCH   6  33
ATOM     33  O16 113 d   1      -7.164 -24.437  18.695  0.00  0.00    -0.357 OA
ATOM     34  H6  113 d   1      -7.222 -23.657  18.155  0.00  0.00     0.217 HD
ENDBRANCH   6  33
BRANCH   1  35
ATOM     35  O17 113 d   1      -8.370 -23.885  16.415  0.00  0.00    -0.358 OA
ATOM     36  H7  113 d   1      -7.494 -23.517  16.405  0.00  0.00     0.217 HD
ENDBRANCH   1  35
TORSDOF 6
