REMARK  16 active torsions:
REMARK  status: ('A' for Active; 'I' for Inactive)
REMARK    1  A    between atoms: CA_1  and  C3_5 
REMARK    2  A    between atoms: CA_1  and  C_2 
REMARK    3  A    between atoms: C3_5  and  C4_6 
REMARK    4  A    between atoms: C4_6  and  C5_7 
REMARK    5  A    between atoms: C5_7  and  C6_8 
REMARK    6  A    between atoms: C6_8  and  C7_9 
REMARK    7  A    between atoms: C7_9  and  C8_10 
REMARK    8  A    between atoms: C8_10  and  C9_11 
REMARK    9  A    between atoms: C10_12  and  C11_13 
REMARK   10  A    between atoms: C11_13  and  C12_14 
REMARK   11  A    between atoms: C12_14  and  C13_15 
REMARK   12  A    between atoms: C13_15  and  C14_16 
REMARK   13  A    between atoms: C14_16  and  C15_17 
REMARK   14  A    between atoms: C15_17  and  C16_18 
REMARK   15  A    between atoms: C16_18  and  C17_19 
REMARK   16  A    between atoms: C17_19  and  C18_20 
ROOT
ATOM      1  C9  OLA d   1      22.642  34.052  59.804  0.00  0.00    -0.107 C 
ATOM      2  C10 OLA d   1      21.721  34.138  60.860  0.00  0.00    -0.107 C 
ATOM      3  H15 OLA d   1      23.354  33.228  59.803  0.00  0.00     0.076 H 
ATOM      4  H16 OLA d   1      21.709  33.325  61.585  0.00  0.00     0.076 H 
ENDROOT
BRANCH   2   5
ATOM      5  C11 OLA d   1      20.778  35.236  61.059  0.00  0.00    -0.050 C 
ATOM      6  H17 OLA d   1      21.049  36.024  60.340  0.00  0.00     0.038 H 
ATOM      7  H18 OLA d   1      20.930  35.606  62.084  0.00  0.00     0.038 H 
BRANCH   5   8
ATOM      8  C12 OLA d   1      19.336  34.993  60.903  0.00  0.00    -0.062 C 
ATOM      9  H19 OLA d   1      18.798  35.911  61.183  0.00  0.00     0.033 H 
ATOM     10  H20 OLA d   1      19.047  34.177  61.582  0.00  0.00     0.033 H 
BRANCH   8  11
ATOM     11  C13 OLA d   1      18.923  34.610  59.496  0.00  0.00    -0.065 C 
ATOM     12  H21 OLA d   1      19.602  33.830  59.119  0.00  0.00     0.033 H 
ATOM     13  H22 OLA d   1      18.986  35.496  58.847  0.00  0.00     0.033 H 
BRANCH  11  14
ATOM     14  C14 OLA d   1      17.506  34.084  59.484  0.00  0.00    -0.065 C 
ATOM     15  H23 OLA d   1      16.988  34.455  60.381  0.00  0.00     0.033 H 
ATOM     16  H24 OLA d   1      17.541  32.985  59.509  0.00  0.00     0.033 H 
BRANCH  14  17
ATOM     17  C15 OLA d   1      16.731  34.508  58.278  0.00  0.00    -0.065 C 
ATOM     18  H25 OLA d   1      15.714  34.780  58.596  0.00  0.00     0.033 H 
ATOM     19  H26 OLA d   1      16.682  33.659  57.580  0.00  0.00     0.033 H 
BRANCH  17  20
ATOM     20  C16 OLA d   1      17.327  35.668  57.566  0.00  0.00    -0.065 C 
ATOM     21  H27 OLA d   1      18.124  35.303  56.901  0.00  0.00     0.033 H 
ATOM     22  H28 OLA d   1      17.756  36.356  58.309  0.00  0.00     0.033 H 
BRANCH  20  23
ATOM     23  C17 OLA d   1      16.304  36.426  56.732  0.00  0.00    -0.069 C 
ATOM     24  H29 OLA d   1      15.314  36.354  57.206  0.00  0.00     0.032 H 
ATOM     25  H30 OLA d   1      16.259  35.995  55.721  0.00  0.00     0.032 H 
BRANCH  23  26
ATOM     26  C18 OLA d   1      16.728  37.892  56.648  0.00  0.00    -0.077 C 
ATOM     27  H31 OLA d   1      15.996  38.452  56.047  0.00  0.00     0.027 H 
ATOM     28  H32 OLA d   1      17.719  37.961  56.176  0.00  0.00     0.027 H 
ATOM     29  H33 OLA d   1      16.774  38.319  57.661  0.00  0.00     0.027 H 
ENDBRANCH  23  26
ENDBRANCH  20  23
ENDBRANCH  17  20
ENDBRANCH  14  17
ENDBRANCH  11  14
ENDBRANCH   8  11
ENDBRANCH   5   8
ENDBRANCH   2   5
BRANCH   1  30
ATOM     30  C8  OLA d   1      22.693  35.032  58.687  0.00  0.00    -0.050 C 
ATOM     31  H13 OLA d   1      21.669  35.218  58.332  0.00  0.00     0.038 H 
ATOM     32  H14 OLA d   1      23.128  35.971  59.060  0.00  0.00     0.038 H 
BRANCH  30  33
ATOM     33  C7  OLA d   1      23.537  34.531  57.514  0.00  0.00    -0.062 C 
ATOM     34  H11 OLA d   1      24.564  34.350  57.863  0.00  0.00     0.033 H 
ATOM     35  H12 OLA d   1      23.106  33.591  57.138  0.00  0.00     0.033 H 
BRANCH  33  36
ATOM     36  C6  OLA d   1      23.569  35.534  56.400  0.00  0.00    -0.065 C 
ATOM     37  H9  OLA d   1      23.732  36.527  56.843  0.00  0.00     0.033 H 
ATOM     38  H10 OLA d   1      24.415  35.283  55.743  0.00  0.00     0.033 H 
BRANCH  36  39
ATOM     39  C5  OLA d   1      22.341  35.602  55.561  0.00  0.00    -0.065 C 
ATOM     40  H7  OLA d   1      21.552  36.081  56.158  0.00  0.00     0.033 H 
ATOM     41  H8  OLA d   1      22.567  36.226  54.684  0.00  0.00     0.033 H 
BRANCH  39  42
ATOM     42  C4  OLA d   1      21.803  34.275  55.060  0.00  0.00    -0.065 C 
ATOM     43  H5  OLA d   1      22.596  33.747  54.509  0.00  0.00     0.033 H 
ATOM     44  H6  OLA d   1      21.485  33.665  55.919  0.00  0.00     0.033 H 
BRANCH  42  45
ATOM     45  C3  OLA d   1      20.600  34.503  54.125  0.00  0.00    -0.056 C 
ATOM     46  H3  OLA d   1      19.823  35.038  54.690  0.00  0.00     0.033 H 
ATOM     47  H4  OLA d   1      20.934  35.125  53.282  0.00  0.00     0.033 H 
BRANCH  45  48
ATOM     48  CA  OLA d   1      20.002  33.266  53.577  0.00  0.00     0.016 C 
ATOM     49  H1  OLA d   1      19.503  32.757  54.415  0.00  0.00     0.049 H 
ATOM     50  H2  OLA d   1      20.835  32.645  53.215  0.00  0.00     0.049 H 
BRANCH  48  51
ATOM     51  C   OLA d   1      19.030  33.338  52.492  0.00  0.00     0.172 C 
ATOM     52  OXT OLA d   1      18.321  32.334  52.411  0.00  0.00    -0.648 OA
ATOM     53  O   OLA d   1      19.014  34.416  51.910  0.00  0.00    -0.648 OA
ENDBRANCH  48  51
ENDBRANCH  45  48
ENDBRANCH  42  45
ENDBRANCH  39  42
ENDBRANCH  36  39
ENDBRANCH  33  36
ENDBRANCH  30  33
ENDBRANCH   1  30
TORSDOF 16
