REMARK  26 active torsions:
REMARK  status: ('A' for Active; 'I' for Inactive)
REMARK    1  A    between atoms: C2_3  and  C1_1 
REMARK    2  A    between atoms: C1_1  and  O1_2 
REMARK    3  A    between atoms: O1_2  and  C11_14 
REMARK    4  A    between atoms: C2_3  and  C3_5 
REMARK    5  A    between atoms: C2_3  and  O2_4 
REMARK    6  A    between atoms: O2_4  and  P2_9 
REMARK    7  A    between atoms: C3_5  and  O3_6 
REMARK    8  A    between atoms: O3_6  and  C31_7 
REMARK    9  A    between atoms: C31_7  and  C32_8 
REMARK   10  A    between atoms: P2_9  and  O23_13 
REMARK   11  A    between atoms: O23_13  and  C2P_12 
REMARK   12  A    between atoms: C11_14  and  C12_15 
REMARK   13  A    between atoms: C12_15  and  C13_16 
REMARK   14  A    between atoms: C13_16  and  C14_17 
REMARK   15  A    between atoms: C14_17  and  C15_18 
REMARK   16  A    between atoms: C15_18  and  C16_19 
REMARK   17  A    between atoms: C16_19  and  C17_20 
REMARK   18  A    between atoms: C17_20  and  C18_21 
REMARK   19  A    between atoms: C18_21  and  C19_22 
REMARK   20  A    between atoms: C19_22  and  C20_23 
REMARK   21  A    between atoms: C20_23  and  C21_24 
REMARK   22  A    between atoms: C21_24  and  C22_25 
REMARK   23  A    between atoms: C22_25  and  C23_26 
REMARK   24  A    between atoms: C23_26  and  C24_27 
REMARK   25  A    between atoms: C24_27  and  C25_28 
REMARK   26  A    between atoms: C25_28  and  C26_29 
ROOT
ATOM      1  C14 MJI d   1      14.694  16.967  15.798  0.00  0.00    -0.065 C 
ATOM      2  H17 MJI d   1      14.873  15.882  15.810  0.00  0.00     0.033 H 
ATOM      3  H18 MJI d   1      13.619  17.163  15.925  0.00  0.00     0.033 H 
ENDROOT
BRANCH   1   4
ATOM      4  C13 MJI d   1      15.165  17.547  14.468  0.00  0.00    -0.063 C 
ATOM      5  H15 MJI d   1      14.560  18.432  14.221  0.00  0.00     0.033 H 
ATOM      6  H16 MJI d   1      16.223  17.837  14.550  0.00  0.00     0.033 H 
BRANCH   4   7
ATOM      7  C12 MJI d   1      15.010  16.506  13.367  0.00  0.00    -0.045 C 
ATOM      8  H13 MJI d   1      14.093  15.923  13.540  0.00  0.00     0.036 H 
ATOM      9  H14 MJI d   1      14.945  17.011  12.392  0.00  0.00     0.036 H 
BRANCH   7  10
ATOM     10  C11 MJI d   1      16.208  15.577  13.376  0.00  0.00     0.020 C 
ATOM     11  H11 MJI d   1      16.826  15.781  14.263  0.00  0.00     0.074 H 
ATOM     12  H12 MJI d   1      15.865  14.532  13.400  0.00  0.00     0.074 H 
BRANCH  10  13
ATOM     13  O1  MJI d   1      16.959  15.797  12.220  0.00  0.00    -0.389 OA
BRANCH  13  14
ATOM     14  C1  MJI d   1      17.662  14.639  11.851  0.00  0.00     0.046 C 
ATOM     15  H1  MJI d   1      18.266  14.293  12.703  0.00  0.00     0.078 H 
ATOM     16  H2  MJI d   1      16.946  13.854  11.566  0.00  0.00     0.078 H 
BRANCH  14  17
ATOM     17  C2  MJI d   1      18.569  14.936  10.684  0.00  0.00     0.091 C 
ATOM     18  H3  MJI d   1      18.897  13.985  10.240  0.00  0.00     0.090 H 
BRANCH  17  19
ATOM     19  C3  MJI d   1      19.782  15.706  11.158  0.00  0.00     0.046 C 
ATOM     20  H4  MJI d   1      20.499  15.010  11.617  0.00  0.00     0.078 H 
ATOM     21  H5  MJI d   1      19.471  16.455  11.901  0.00  0.00     0.078 H 
BRANCH  19  22
ATOM     22  O3  MJI d   1      20.393  16.355  10.071  0.00  0.00    -0.380 OA
BRANCH  22  23
ATOM     23  C31 MJI d   1      21.272  15.502   9.374  0.00  0.00     0.109 C 
ATOM     24  H6  MJI d   1      20.690  14.868   8.689  0.00  0.00     0.088 H 
ATOM     25  H7  MJI d   1      21.806  14.868  10.097  0.00  0.00     0.088 H 
BRANCH  23  26
ATOM     26  C32 MJI d   1      22.278  16.296   8.576  0.00  0.00     0.408 C 
ATOM     27  F31 MJI d   1      23.022  17.162   9.325  0.00  0.00    -0.169 F 
ATOM     28  F33 MJI d   1      23.120  15.447   8.023  0.00  0.00    -0.169 F 
ATOM     29  F32 MJI d   1      21.744  17.013   7.561  0.00  0.00    -0.169 F 
ENDBRANCH  23  26
ENDBRANCH  22  23
ENDBRANCH  19  22
ENDBRANCH  17  19
BRANCH  17  30
ATOM     30  O2  MJI d   1      17.876  15.712   9.674  0.00  0.00    -0.280 OA
BRANCH  30  31
ATOM     31  P2  MJI d   1      17.333  15.027   8.322  0.00  0.00     0.408 P 
ATOM     32  O22 MJI d   1      18.306  13.977   7.864  0.00  0.00    -0.624 OA
ATOM     33  O21 MJI d   1      16.921  16.121   7.369  0.00  0.00    -0.624 OA
BRANCH  31  34
ATOM     34  O23 MJI d   1      16.011  14.271   8.821  0.00  0.00    -0.295 OA
BRANCH  34  35
ATOM     35  C2P MJI d   1      14.909  15.002   9.382  0.00  0.00     0.016 C 
ATOM     36  H8  MJI d   1      14.107  14.302   9.659  0.00  0.00     0.067 H 
ATOM     37  H9  MJI d   1      14.529  15.719   8.640  0.00  0.00     0.067 H 
ATOM     38  H10 MJI d   1      15.247  15.545  10.277  0.00  0.00     0.067 H 
ENDBRANCH  34  35
ENDBRANCH  31  34
ENDBRANCH  30  31
ENDBRANCH  17  30
ENDBRANCH  14  17
ENDBRANCH  13  14
ENDBRANCH  10  13
ENDBRANCH   7  10
ENDBRANCH   4   7
ENDBRANCH   1   4
BRANCH   1  39
ATOM     39  C15 MJI d   1      15.466  17.621  16.930  0.00  0.00    -0.065 C 
ATOM     40  H19 MJI d   1      14.810  18.325  17.463  0.00  0.00     0.033 H 
ATOM     41  H20 MJI d   1      16.329  18.165  16.519  0.00  0.00     0.033 H 
BRANCH  39  42
ATOM     42  C16 MJI d   1      15.953  16.551  17.895  0.00  0.00    -0.065 C 
ATOM     43  H21 MJI d   1      15.784  15.557  17.456  0.00  0.00     0.033 H 
ATOM     44  H22 MJI d   1      15.400  16.633  18.843  0.00  0.00     0.033 H 
BRANCH  42  45
ATOM     45  C17 MJI d   1      17.435  16.744  18.155  0.00  0.00    -0.065 C 
ATOM     46  H23 MJI d   1      17.906  17.195  17.269  0.00  0.00     0.033 H 
ATOM     47  H24 MJI d   1      17.900  15.769  18.361  0.00  0.00     0.033 H 
BRANCH  45  48
ATOM     48  C18 MJI d   1      17.632  17.661  19.353  0.00  0.00    -0.065 C 
ATOM     49  H25 MJI d   1      16.716  18.246  19.523  0.00  0.00     0.033 H 
ATOM     50  H26 MJI d   1      18.473  18.343  19.160  0.00  0.00     0.033 H 
BRANCH  48  51
ATOM     51  C19 MJI d   1      17.933  16.819  20.584  0.00  0.00    -0.065 C 
ATOM     52  H27 MJI d   1      17.742  15.759  20.360  0.00  0.00     0.033 H 
ATOM     53  H28 MJI d   1      17.288  17.140  21.415  0.00  0.00     0.033 H 
BRANCH  51  54
ATOM     54  C20 MJI d   1      19.392  17.001  20.975  0.00  0.00    -0.065 C 
ATOM     55  H29 MJI d   1      19.580  18.059  21.209  0.00  0.00     0.033 H 
ATOM     56  H30 MJI d   1      20.037  16.689  20.141  0.00  0.00     0.033 H 
BRANCH  54  57
ATOM     57  C21 MJI d   1      19.697  16.147  22.201  0.00  0.00    -0.065 C 
ATOM     58  H31 MJI d   1      18.762  15.933  22.739  0.00  0.00     0.033 H 
ATOM     59  H32 MJI d   1      20.385  16.692  22.864  0.00  0.00     0.033 H 
BRANCH  57  60
ATOM     60  C22 MJI d   1      20.343  14.836  21.770  0.00  0.00    -0.065 C 
ATOM     61  H33 MJI d   1      21.024  15.022  20.926  0.00  0.00     0.033 H 
ATOM     62  H34 MJI d   1      19.562  14.125  21.462  0.00  0.00     0.033 H 
BRANCH  60  63
ATOM     63  C23 MJI d   1      21.128  14.254  22.938  0.00  0.00    -0.065 C 
ATOM     64  H35 MJI d   1      20.655  14.558  23.883  0.00  0.00     0.033 H 
ATOM     65  H36 MJI d   1      22.161  14.631  22.907  0.00  0.00     0.033 H 
BRANCH  63  66
ATOM     66  C24 MJI d   1      21.142  12.734  22.847  0.00  0.00    -0.065 C 
ATOM     67  H37 MJI d   1      21.751  12.423  21.985  0.00  0.00     0.033 H 
ATOM     68  H38 MJI d   1      20.114  12.364  22.722  0.00  0.00     0.033 H 
BRANCH  66  69
ATOM     69  C25 MJI d   1      21.739  12.157  24.127  0.00  0.00    -0.069 C 
ATOM     70  H39 MJI d   1      20.977  12.161  24.921  0.00  0.00     0.032 H 
ATOM     71  H40 MJI d   1      22.597  12.770  24.439  0.00  0.00     0.032 H 
BRANCH  69  72
ATOM     72  C26 MJI d   1      22.203  10.724  23.876  0.00  0.00    -0.077 C 
ATOM     73  H41 MJI d   1      22.633  10.311  24.800  0.00  0.00     0.027 H 
ATOM     74  H42 MJI d   1      22.965  10.719  23.083  0.00  0.00     0.027 H 
ATOM     75  H43 MJI d   1      21.345  10.110  23.564  0.00  0.00     0.027 H 
ENDBRANCH  69  72
ENDBRANCH  66  69
ENDBRANCH  63  66
ENDBRANCH  60  63
ENDBRANCH  57  60
ENDBRANCH  54  57
ENDBRANCH  51  54
ENDBRANCH  48  51
ENDBRANCH  45  48
ENDBRANCH  42  45
ENDBRANCH  39  42
ENDBRANCH   1  39
TORSDOF 26
