REMARK  24 active torsions:
REMARK  status: ('A' for Active; 'I' for Inactive)
REMARK       I    between atoms: C1_1  and  N2_11 
REMARK    1  A    between atoms: C1_1  and  OA1_3 
REMARK    2  A    between atoms: OA1_3  and  CB1_4 
REMARK    3  A    between atoms: CB1_4  and  CG1_5 
REMARK    4  A    between atoms: N2_11  and  CA2_12 
REMARK    5  A    between atoms: CA2_12  and  C2_16 
REMARK    6  A    between atoms: CA2_12  and  CB2_13 
REMARK    7  A    between atoms: CB2_13  and  C15_15 
REMARK    8  A    between atoms: CB2_13  and  C14_14 
REMARK       I    between atoms: C2_16  and  N3_18 
REMARK    9  A    between atoms: N3_18  and  CA3_19 
REMARK   10  A    between atoms: CA3_19  and  P3_27 
REMARK   11  A    between atoms: CA3_19  and  CB3_20 
REMARK   12  A    between atoms: CB3_20  and  CG3_21 
REMARK   13  A    between atoms: P3_27  and  CA4_31 
REMARK   14  A    between atoms: CA4_31  and  N4_30 
REMARK       I    between atoms: N4_30  and  C5_44 
REMARK   15  A    between atoms: CA4_31  and  CB4_32 
REMARK   16  A    between atoms: CB4_32  and  CG4_33 
REMARK   17  A    between atoms: CA5_40  and  N5_39 
REMARK       I    between atoms: N5_39  and  C6_54 
REMARK   18  A    between atoms: C5_44  and  CA5_40 
REMARK   19  A    between atoms: CA5_40  and  CB5_41 
REMARK   20  A    between atoms: CB5_41  and  C43_43 
REMARK   21  A    between atoms: CB5_41  and  C42_42 
REMARK   22  A    between atoms: OA6_53  and  CB6_46 
REMARK   23  A    between atoms: CB6_46  and  CG6_47 
REMARK   24  A    between atoms: C6_54  and  OA6_53 
ROOT
ATOM      1  P3  PHP d   1     -10.106  17.544  27.607  0.00  0.00     0.153 P 
ATOM      2  O3  PHP d   1     -10.376  18.524  28.676  0.00  0.00    -0.665 OA
ATOM      3  O3' PHP d   1     -10.858  18.089  26.448  0.00  0.00    -0.665 OA
ENDROOT
BRANCH   1   4
ATOM      4  CA3 PHP d   1     -10.650  15.904  28.145  0.00  0.00     0.093 C 
ATOM      5  H18 PHP d   1      -9.957  15.109  27.832  0.00  0.00     0.089 H 
BRANCH   4   6
ATOM      6  N3  PHP d   1     -10.672  16.066  29.599  0.00  0.00    -0.345 N 
ATOM      7  C2  PHP d   1      -9.945  15.355  30.459  0.00  0.00     0.241 C 
ATOM      8  O2  PHP d   1      -9.170  14.463  30.101  0.00  0.00    -0.271 OA
ATOM      9  H17 PHP d   1     -11.280  16.765  29.976  0.00  0.00     0.163 HD
BRANCH   7  10
ATOM     10  CA2 PHP d   1     -10.132  15.683  31.937  0.00  0.00     0.094 C 
ATOM     11  H9  PHP d   1     -10.854  16.499  32.086  0.00  0.00     0.088 H 
BRANCH  10  12
ATOM     12  N2  PHP d   1     -10.632  14.411  32.371  0.00  0.00    -0.323 N 
ATOM     13  C1  PHP d   1     -11.806  14.281  32.973  0.00  0.00     0.361 C 
ATOM     14  O1  PHP d   1     -12.537  15.266  33.201  0.00  0.00    -0.238 OA
ATOM     15  H8  PHP d   1     -10.076  13.595  32.214  0.00  0.00     0.165 HD
BRANCH  13  16
ATOM     16  OA1 PHP d   1     -12.140  13.031  33.308  0.00  0.00    -0.299 OA
BRANCH  16  17
ATOM     17  CB1 PHP d   1     -13.545  12.679  33.344  0.00  0.00     0.054 C 
ATOM     18  H1  PHP d   1     -14.065  13.160  32.503  0.00  0.00     0.082 H 
ATOM     19  H2  PHP d   1     -13.985  13.022  34.292  0.00  0.00     0.082 H 
BRANCH  17  20
ATOM     20  CG1 PHP d   1     -13.690  11.178  33.235  0.00  0.00    -0.034 A 
ATOM     21  C7  PHP d   1     -14.632  10.543  34.016  0.00  0.00    -0.075 A 
ATOM     22  C9  PHP d   1     -14.766   9.180  33.923  0.00  0.00    -0.082 A 
ATOM     23  H4  PHP d   1     -15.258  11.112  34.694  0.00  0.00     0.084 H 
ATOM     24  CZ1 PHP d   1     -13.967   8.455  33.061  0.00  0.00    -0.083 A 
ATOM     25  H6  PHP d   1     -15.504   8.669  34.531  0.00  0.00     0.083 H 
ATOM     26  C8  PHP d   1     -13.024   9.089  32.279  0.00  0.00    -0.082 A 
ATOM     27  H7  PHP d   1     -14.082   7.379  32.998  0.00  0.00     0.083 H 
ATOM     28  C6  PHP d   1     -12.883  10.457  32.367  0.00  0.00    -0.075 A 
ATOM     29  H5  PHP d   1     -12.400   8.517  31.602  0.00  0.00     0.083 H 
ATOM     30  H3  PHP d   1     -12.144  10.968  31.760  0.00  0.00     0.084 H 
ENDBRANCH  17  20
ENDBRANCH  16  17
ENDBRANCH  13  16
ENDBRANCH  10  12
BRANCH  10  31
ATOM     31  CB2 PHP d   1      -8.819  16.007  32.687  0.00  0.00    -0.033 C 
ATOM     32  H10 PHP d   1      -8.167  15.121  32.704  0.00  0.00     0.042 H 
BRANCH  31  33
ATOM     33  C15 PHP d   1      -9.102  16.527  34.100  0.00  0.00    -0.071 C 
ATOM     34  H14 PHP d   1      -9.608  15.745  34.684  0.00  0.00     0.028 H 
ATOM     35  H15 PHP d   1      -9.747  17.416  34.041  0.00  0.00     0.028 H 
ATOM     36  H16 PHP d   1      -8.154  16.794  34.589  0.00  0.00     0.028 H 
ENDBRANCH  31  33
BRANCH  31  37
ATOM     37  C14 PHP d   1      -8.143  17.184  32.058  0.00  0.00    -0.071 C 
ATOM     38  H11 PHP d   1      -7.211  17.404  32.600  0.00  0.00     0.028 H 
ATOM     39  H12 PHP d   1      -8.810  18.058  32.105  0.00  0.00     0.028 H 
ATOM     40  H13 PHP d   1      -7.911  16.955  31.007  0.00  0.00     0.028 H 
ENDBRANCH  31  37
ENDBRANCH  10  31
ENDBRANCH   7  10
ENDBRANCH   4   6
BRANCH   4  41
ATOM     41  CB3 PHP d   1     -12.069  15.635  27.581  0.00  0.00    -0.013 C 
ATOM     42  H19 PHP d   1     -11.997  15.436  26.502  0.00  0.00     0.044 H 
ATOM     43  H20 PHP d   1     -12.698  16.521  27.749  0.00  0.00     0.044 H 
BRANCH  41  44
ATOM     44  CG3 PHP d   1     -12.702  14.435  28.269  0.00  0.00    -0.056 A 
ATOM     45  C23 PHP d   1     -12.111  13.178  28.165  0.00  0.00    -0.077 A 
ATOM     46  C25 PHP d   1     -12.626  12.110  28.871  0.00  0.00    -0.082 A 
ATOM     47  H22 PHP d   1     -11.245  13.038  27.528  0.00  0.00     0.084 H 
ATOM     48  CZ3 PHP d   1     -13.723  12.304  29.669  0.00  0.00    -0.083 A 
ATOM     49  H24 PHP d   1     -12.169  11.130  28.795  0.00  0.00     0.083 H 
ATOM     50  C24 PHP d   1     -14.312  13.542  29.768  0.00  0.00    -0.082 A 
ATOM     51  H25 PHP d   1     -14.131  11.471  30.229  0.00  0.00     0.083 H 
ATOM     52  C22 PHP d   1     -13.811  14.614  29.070  0.00  0.00    -0.077 A 
ATOM     53  H23 PHP d   1     -15.181  13.674  30.403  0.00  0.00     0.083 H 
ATOM     54  H21 PHP d   1     -14.281  15.588  29.148  0.00  0.00     0.084 H 
ENDBRANCH  41  44
ENDBRANCH   4  41
ENDBRANCH   1   4
BRANCH   1  55
ATOM     55  CA4 PHP d   1      -8.375  17.326  27.150  0.00  0.00     0.093 C 
ATOM     56  H27 PHP d   1      -7.983  16.373  27.534  0.00  0.00     0.089 H 
BRANCH  55  57
ATOM     57  N4  PHP d   1      -8.391  17.345  25.699  0.00  0.00    -0.345 N 
ATOM     58  C5  PHP d   1      -7.990  16.332  24.931  0.00  0.00     0.241 C 
ATOM     59  O5  PHP d   1      -7.558  15.285  25.405  0.00  0.00    -0.271 OA
ATOM     60  H26 PHP d   1      -8.725  18.172  25.246  0.00  0.00     0.163 HD
BRANCH  58  61
ATOM     61  CA5 PHP d   1      -8.049  16.487  23.428  0.00  0.00     0.094 C 
ATOM     62  H36 PHP d   1      -8.604  17.383  23.113  0.00  0.00     0.088 H 
BRANCH  61  63
ATOM     63  CB5 PHP d   1      -8.705  15.237  22.840  0.00  0.00    -0.033 C 
ATOM     64  H37 PHP d   1      -8.283  14.342  23.320  0.00  0.00     0.042 H 
BRANCH  63  65
ATOM     65  C43 PHP d   1      -8.505  15.143  21.350  0.00  0.00    -0.071 C 
ATOM     66  H41 PHP d   1      -7.430  15.076  21.128  0.00  0.00     0.028 H 
ATOM     67  H42 PHP d   1      -8.924  16.038  20.867  0.00  0.00     0.028 H 
ATOM     68  H43 PHP d   1      -9.015  14.247  20.967  0.00  0.00     0.028 H 
ENDBRANCH  63  65
BRANCH  63  69
ATOM     69  C42 PHP d   1     -10.197  15.329  23.123  0.00  0.00    -0.071 C 
ATOM     70  H38 PHP d   1     -10.703  14.443  22.713  0.00  0.00     0.028 H 
ATOM     71  H39 PHP d   1     -10.604  16.235  22.651  0.00  0.00     0.028 H 
ATOM     72  H40 PHP d   1     -10.362  15.375  24.210  0.00  0.00     0.028 H 
ENDBRANCH  63  69
ENDBRANCH  61  63
BRANCH  61  73
ATOM     73  N5  PHP d   1      -6.632  16.611  23.142  0.00  0.00    -0.323 N 
ATOM     74  C6  PHP d   1      -6.134  17.718  22.589  0.00  0.00     0.361 C 
ATOM     75  O6  PHP d   1      -6.868  18.675  22.298  0.00  0.00    -0.238 OA
ATOM     76  H35 PHP d   1      -6.018  15.853  23.363  0.00  0.00     0.165 HD
BRANCH  74  77
ATOM     77  OA6 PHP d   1      -4.825  17.849  22.338  0.00  0.00    -0.299 OA
BRANCH  77  78
ATOM     78  CB6 PHP d   1      -3.960  16.886  21.655  0.00  0.00     0.054 C 
ATOM     79  H44 PHP d   1      -3.836  17.186  20.604  0.00  0.00     0.082 H 
ATOM     80  H45 PHP d   1      -4.417  15.886  21.700  0.00  0.00     0.082 H 
BRANCH  78  81
ATOM     81  CG6 PHP d   1      -2.584  16.852  22.345  0.00  0.00    -0.034 A 
ATOM     82  C51 PHP d   1      -1.882  15.663  22.454  0.00  0.00    -0.075 A 
ATOM     83  C50 PHP d   1      -0.639  15.624  23.059  0.00  0.00    -0.082 A 
ATOM     84  H49 PHP d   1      -2.313  14.750  22.059  0.00  0.00     0.084 H 
ATOM     85  CZ6 PHP d   1      -0.077  16.781  23.564  0.00  0.00    -0.083 A 
ATOM     86  H48 PHP d   1      -0.105  14.684  23.137  0.00  0.00     0.083 H 
ATOM     87  C49 PHP d   1      -0.770  17.966  23.460  0.00  0.00    -0.082 A 
ATOM     88  H50 PHP d   1       0.898  16.756  24.037  0.00  0.00     0.083 H 
ATOM     89  C48 PHP d   1      -2.015  18.007  22.856  0.00  0.00    -0.075 A 
ATOM     90  H47 PHP d   1      -0.336  18.877  23.855  0.00  0.00     0.083 H 
ATOM     91  H46 PHP d   1      -2.548  18.948  22.782  0.00  0.00     0.084 H 
ENDBRANCH  78  81
ENDBRANCH  77  78
ENDBRANCH  74  77
ENDBRANCH  61  73
ENDBRANCH  58  61
ENDBRANCH  55  57
BRANCH  55  92
ATOM     92  CB4 PHP d   1      -7.511  18.495  27.665  0.00  0.00    -0.013 C 
ATOM     93  H28 PHP d   1      -7.613  18.582  28.757  0.00  0.00     0.044 H 
ATOM     94  H29 PHP d   1      -7.832  19.434  27.190  0.00  0.00     0.044 H 
BRANCH  92  95
ATOM     95  CG4 PHP d   1      -6.063  18.203  27.304  0.00  0.00    -0.056 A 
ATOM     96  C35 PHP d   1      -5.391  17.184  27.952  0.00  0.00    -0.077 A 
ATOM     97  C37 PHP d   1      -4.132  16.822  27.538  0.00  0.00    -0.082 A 
ATOM     98  H31 PHP d   1      -5.857  16.671  28.786  0.00  0.00     0.084 H 
ATOM     99  CZ4 PHP d   1      -3.541  17.476  26.484  0.00  0.00    -0.083 A 
ATOM    100  H33 PHP d   1      -3.605  16.020  28.043  0.00  0.00     0.083 H 
ATOM    101  C36 PHP d   1      -4.200  18.499  25.848  0.00  0.00    -0.082 A 
ATOM    102  H34 PHP d   1      -2.551  17.183  26.153  0.00  0.00     0.083 H 
ATOM    103  C34 PHP d   1      -5.462  18.873  26.252  0.00  0.00    -0.077 A 
ATOM    104  H32 PHP d   1      -3.724  19.015  25.023  0.00  0.00     0.083 H 
ATOM    105  H30 PHP d   1      -5.980  19.683  25.752  0.00  0.00     0.084 H 
ENDBRANCH  92  95
ENDBRANCH  55  92
ENDBRANCH   1  55
TORSDOF 24
