REMARK  5 active torsions:
REMARK  status: ('A' for Active; 'I' for Inactive)
REMARK    1  A    between atoms: C3_3  and  O3_11 
REMARK    2  A    between atoms: C4_4  and  O4_12 
REMARK    3  A    between atoms: C5_5  and  C6_6 
REMARK    4  A    between atoms: C6_6  and  O6_14 
REMARK    5  A    between atoms: C7_7  and  C8_8 
ROOT
ATOM      1  C1  NGT d   1      -5.806  65.559   9.960  0.00  0.00     0.112 C 
ATOM      2  C2  NGT d   1      -6.579  66.476   8.966  0.00  0.00     0.094 C 
ATOM      3  C3  NGT d   1      -5.602  67.266   8.030  0.00  0.00     0.087 C 
ATOM      4  C4  NGT d   1      -4.370  67.809   8.775  0.00  0.00     0.089 C 
ATOM      5  C5  NGT d   1      -3.663  66.668   9.538  0.00  0.00     0.087 C 
ATOM      6  C7  NGT d   1      -7.038  64.431   8.057  0.00  0.00     0.064 C 
ATOM      7  N2  NGT d   1      -7.439  65.624   8.155  0.00  0.00    -0.276 NA
ATOM      8  S1  NGT d   1      -5.587  64.002   8.967  0.00  0.00    -0.081 SA
ATOM      9  O5  NGT d   1      -4.603  66.034  10.488  0.00  0.00    -0.363 OA
ATOM     10  H1  NGT d   1      -6.460  65.354  10.820  0.00  0.00     0.104 H 
ATOM     11  H2  NGT d   1      -7.191  67.193   9.532  0.00  0.00     0.085 H 
ATOM     12  H3  NGT d   1      -5.244  66.572   7.255  0.00  0.00     0.090 H 
ATOM     13  H4  NGT d   1      -4.692  68.575   9.495  0.00  0.00     0.091 H 
ATOM     14  H5  NGT d   1      -3.338  65.920   8.800  0.00  0.00     0.090 H 
ENDROOT
BRANCH   5  15
ATOM     15  C6  NGT d   1      -2.440  67.120  10.332  0.00  0.00     0.043 C 
ATOM     16  H6  NGT d   1      -2.766  67.770  11.157  0.00  0.00     0.078 H 
ATOM     17  H7  NGT d   1      -1.766  67.681   9.668  0.00  0.00     0.078 H 
BRANCH  15  18
ATOM     18  O6  NGT d   1      -1.740  65.997  10.869  0.00  0.00    -0.398 OA
ATOM     19  H13 NGT d   1      -0.984  66.301  11.358  0.00  0.00     0.209 HD
ENDBRANCH  15  18
ENDBRANCH   5  15
BRANCH   4  20
ATOM     20  O4  NGT d   1      -3.483  68.394   7.838  0.00  0.00    -0.390 OA
ATOM     21  H12 NGT d   1      -2.728  68.746   8.295  0.00  0.00     0.210 HD
ENDBRANCH   4  20
BRANCH   3  22
ATOM     22  O3  NGT d   1      -6.301  68.324   7.392  0.00  0.00    -0.391 OA
ATOM     23  H11 NGT d   1      -7.058  67.973   6.937  0.00  0.00     0.210 HD
ENDBRANCH   3  22
BRANCH   6  24
ATOM     24  C8  NGT d   1      -7.695  63.335   7.251  0.00  0.00    -0.030 C 
ATOM     25  H8  NGT d   1      -8.581  63.738   6.738  0.00  0.00     0.036 H 
ATOM     26  H9  NGT d   1      -7.999  62.518   7.922  0.00  0.00     0.036 H 
ATOM     27  H10 NGT d   1      -6.983  62.951   6.506  0.00  0.00     0.036 H 
ENDBRANCH   6  24
TORSDOF 5
