REMARK  7 active torsions:
REMARK  status: ('A' for Active; 'I' for Inactive)
REMARK    1  A    between atoms: CA_1  and  CG1_15 
REMARK    2  A    between atoms: CA6_7  and  OA6_8 
REMARK    3  A    between atoms: CG1_15  and  CB1_9 
REMARK    4  A    between atoms: CB5_13  and  N_25 
REMARK    5  A    between atoms: CG1_15  and  CG2_16 
REMARK    6  A    between atoms: N_25  and  S_26 
REMARK    7  A    between atoms: S_26  and  CZ1_29 
ROOT
ATOM      1  CZ1 UNI d   1      19.180  18.995   6.838  0.00  0.00     0.080 A 
ATOM      2  CZ2 UNI d   1      19.119  18.540   8.189  0.00  0.00    -0.059 A 
ATOM      3  CZ3 UNI d   1      19.673  19.340   9.224  0.00  0.00    -0.061 A 
ATOM      4  CZ4 UNI d   1      20.281  20.578   8.898  0.00  0.00     0.044 A 
ATOM      5  CZ5 UNI d   1      20.331  21.020   7.560  0.00  0.00    -0.061 A 
ATOM      6  CZ6 UNI d   1      19.785  20.235   6.536  0.00  0.00    -0.059 A 
ATOM      7  CZ7 UNI d   1      20.874  21.354   9.889  0.00  0.00     0.099 C 
ATOM      8  NZ7 UNI d   1      21.378  22.005  10.722  0.00  0.00    -0.191 NA
ATOM      9  H25 UNI d   1      18.653  17.590   8.424  0.00  0.00     0.086 H 
ATOM     10  H26 UNI d   1      19.631  19.006  10.255  0.00  0.00     0.085 H 
ATOM     11  H27 UNI d   1      20.794  21.971   7.323  0.00  0.00     0.085 H 
ATOM     12  H28 UNI d   1      19.827  20.580   5.509  0.00  0.00     0.086 H 
ENDROOT
BRANCH   1  13
ATOM     13  S   UNI d   1      18.535  18.098   5.493  0.00  0.00     0.263 S 
ATOM     14  O2  UNI d   1      18.917  18.839   4.292  0.00  0.00    -0.200 OA
ATOM     15  O1  UNI d   1      18.870  16.683   5.503  0.00  0.00    -0.200 OA
BRANCH  13  16
ATOM     16  N   UNI d   1      16.983  17.942   5.308  0.00  0.00    -0.281 N 
ATOM     17  H24 UNI d   1      16.489  17.113   5.569  0.00  0.00     0.179 HD
BRANCH  16  18
ATOM     18  CB5 UNI d   1      16.351  19.048   4.753  0.00  0.00     0.043 A 
ATOM     19  CB4 UNI d   1      16.129  19.141   3.357  0.00  0.00    -0.057 A 
ATOM     20  CB3 UNI d   1      15.522  20.283   2.834  0.00  0.00    -0.080 A 
ATOM     21  H4  UNI d   1      16.428  18.332   2.701  0.00  0.00     0.086 H 
ATOM     22  CB2 UNI d   1      15.154  21.369   3.667  0.00  0.00    -0.076 A 
ATOM     23  H3  UNI d   1      15.328  20.341   1.769  0.00  0.00     0.083 H 
ATOM     24  CB1 UNI d   1      15.397  21.288   5.066  0.00  0.00    -0.047 A 
ATOM     25  H2  UNI d   1      14.692  22.253   3.242  0.00  0.00     0.084 H 
ATOM     26  CB6 UNI d   1      15.996  20.124   5.587  0.00  0.00    -0.050 A 
ATOM     27  H5  UNI d   1      16.187  20.056   6.652  0.00  0.00     0.087 H 
BRANCH  24  28
ATOM     28  CG1 UNI d   1      15.055  22.453   5.988  0.00  0.00     0.009 C 
ATOM     29  H6  UNI d   1      15.721  23.260   5.648  0.00  0.00     0.056 H 
BRANCH  28  30
ATOM     30  CA  UNI d   1      13.644  23.055   5.758  0.00  0.00     0.060 A 
ATOM     31  CA6 UNI d   1      13.544  24.255   5.079  0.00  0.00     0.087 A 
ATOM     32  CA5 UNI d   1      12.283  24.834   4.870  0.00  0.00     0.006 A 
ATOM     33  CA4 UNI d   1      11.173  24.178   5.371  0.00  0.00     0.066 A 
ATOM     34  CD6 UNI d   1      12.132  26.133   4.102  0.00  0.00    -0.036 C 
ATOM     35  OA3 UNI d   1      11.232  22.953   6.075  0.00  0.00    -0.279 OA
ATOM     36  CD1 UNI d   1       9.756  24.721   5.200  0.00  0.00    -0.020 C 
ATOM     37  CA2 UNI d   1      12.462  22.430   6.233  0.00  0.00     0.297 A 
ATOM     38  OA2 UNI d   1      12.522  21.371   6.752  0.00  0.00    -0.259 OA
ATOM     39  CD2 UNI d   1       9.092  24.576   3.819  0.00  0.00    -0.060 C 
ATOM     40  H12 UNI d   1       9.785  25.794   5.439  0.00  0.00     0.043 H 
ATOM     41  H13 UNI d   1       9.116  24.201   5.928  0.00  0.00     0.043 H 
ATOM     42  CD3 UNI d   1       9.877  23.890   2.751  0.00  0.00    -0.065 C 
ATOM     43  H14 UNI d   1       8.159  24.010   3.959  0.00  0.00     0.033 H 
ATOM     44  H15 UNI d   1       8.856  25.588   3.458  0.00  0.00     0.033 H 
ATOM     45  CD4 UNI d   1      11.045  24.663   2.198  0.00  0.00    -0.065 C 
ATOM     46  H16 UNI d   1      10.263  22.948   3.168  0.00  0.00     0.033 H 
ATOM     47  H17 UNI d   1       9.193  23.670   1.918  0.00  0.00     0.033 H 
ATOM     48  CD5 UNI d   1      11.285  26.069   2.798  0.00  0.00    -0.061 C 
ATOM     49  H18 UNI d   1      11.953  24.066   2.370  0.00  0.00     0.033 H 
ATOM     50  H19 UNI d   1      10.885  24.784   1.116  0.00  0.00     0.033 H 
ATOM     51  H20 UNI d   1      11.798  26.674   2.036  0.00  0.00     0.033 H 
ATOM     52  H21 UNI d   1      10.302  26.511   3.016  0.00  0.00     0.033 H 
ATOM     53  H22 UNI d   1      13.140  26.481   3.830  0.00  0.00     0.040 H 
ATOM     54  H23 UNI d   1      11.660  26.866   4.773  0.00  0.00     0.040 H 
BRANCH  31  55
ATOM     55  OA6 UNI d   1      14.720  24.821   4.703  0.00  0.00    -0.359 OA
ATOM     56  H1  UNI d   1      14.722  24.949   3.762  0.00  0.00     0.217 HD
ENDBRANCH  31  55
ENDBRANCH  28  30
BRANCH  28  57
ATOM     57  CG2 UNI d   1      15.514  22.214   7.444  0.00  0.00    -0.043 A 
ATOM     58  CG4 UNI d   1      16.772  22.931   7.934  0.00  0.00    -0.060 A 
ATOM     59  CG3 UNI d   1      15.409  23.341   8.474  0.00  0.00    -0.060 A 
ATOM     60  H10 UNI d   1      17.320  23.604   7.258  0.00  0.00     0.033 H 
ATOM     61  H11 UNI d   1      17.485  22.405   8.585  0.00  0.00     0.033 H 
ATOM     62  H8  UNI d   1      15.138  23.111   9.515  0.00  0.00     0.033 H 
ATOM     63  H9  UNI d   1      14.973  24.309   8.187  0.00  0.00     0.033 H 
ATOM     64  H7  UNI d   1      15.308  21.174   7.738  0.00  0.00     0.041 H 
ENDBRANCH  28  57
ENDBRANCH  24  28
ENDBRANCH  16  18
ENDBRANCH  13  16
ENDBRANCH   1  13
TORSDOF 7
