REMARK  22 active torsions:
REMARK  status: ('A' for Active; 'I' for Inactive)
REMARK    1  A    between atoms: C1_1  and  C5'_10 
REMARK    2  A    between atoms: C1_1  and  C3_3 
REMARK    3  A    between atoms: C3_3  and  C5_5 
REMARK    4  A    between atoms: C3_3  and  C4_4 
REMARK    5  A    between atoms: C2'_7  and  C1_11 
REMARK    6  A    between atoms: C1_11  and  CA_26 
REMARK    7  A    between atoms: C1_11  and  C2_12 
REMARK    8  A    between atoms: C2_12  and  C3_13 
REMARK    9  A    between atoms: C3_13  and  C4_15 
REMARK   10  A    between atoms: C3_13  and  O3_14 
REMARK   11  A    between atoms: C4_15  and  CB_33 
REMARK   12  A    between atoms: C4_15  and  N5_16 
REMARK       I    between atoms: N5_16  and  C6_17 
REMARK   13  A    between atoms: C6_17  and  C7_19 
REMARK   14  A    between atoms: C7_19  and  C10_23 
REMARK   15  A    between atoms: C7_19  and  N8_20 
REMARK       I    between atoms: N8_20  and  C9_21 
REMARK   16  A    between atoms: C9_21  and  OC_40 
REMARK   17  A    between atoms: C10_23  and  C12_25 
REMARK   18  A    between atoms: C10_23  and  C11_24 
REMARK   19  A    between atoms: CA_26  and  C1A_27 
REMARK   20  A    between atoms: CB_33  and  C1B_34 
REMARK   21  A    between atoms: OC_40  and  CC_41 
REMARK   22  A    between atoms: CC_41  and  C1C_42 
ROOT
ATOM      1  C4  RUN d   1     -10.949  15.981  28.571  0.00  0.00     0.041 C 
ATOM      2  H15 RUN d   1     -10.241  15.201  28.254  0.00  0.00     0.076 H 
ENDROOT
BRANCH   1   3
ATOM      3  C3  RUN d   1     -10.420  17.368  28.095  0.00  0.00     0.056 C 
ATOM      4  H13 RUN d   1     -10.730  17.545  27.054  0.00  0.00     0.086 H 
BRANCH   3   5
ATOM      5  C2  RUN d   1      -8.909  17.425  28.199  0.00  0.00    -0.029 C 
ATOM      6  H11 RUN d   1      -8.671  17.951  29.136  0.00  0.00     0.038 H 
ATOM      7  H12 RUN d   1      -8.552  16.386  28.261  0.00  0.00     0.038 H 
BRANCH   5   8
ATOM      8  C1  RUN d   1      -8.121  18.095  27.108  0.00  0.00     0.010 C 
ATOM      9  H10 RUN d   1      -8.618  19.037  26.834  0.00  0.00     0.052 H 
BRANCH   8  10
ATOM     10  C2' RUN d   1      -8.028  17.232  25.834  0.00  0.00     0.108 A 
ATOM     11  N1' RUN d   1      -7.967  17.895  24.683  0.00  0.00    -0.340 N 
ATOM     12  C5' RUN d   1      -7.882  16.880  23.827  0.00  0.00     0.098 A 
ATOM     13  H8  RUN d   1      -7.981  18.909  24.504  0.00  0.00     0.167 HD
ATOM     14  C4' RUN d   1      -7.896  15.656  24.473  0.00  0.00     0.034 A 
ATOM     15  N3' RUN d   1      -7.988  15.903  25.766  0.00  0.00    -0.245 NA
ATOM     16  H9  RUN d   1      -7.841  14.675  24.003  0.00  0.00     0.118 H 
BRANCH  12  17
ATOM     17  C1  RUN d   1      -7.793  17.189  22.477  0.00  0.00     0.180 C 
ATOM     18  O2  RUN d   1      -7.803  18.396  22.177  0.00  0.00    -0.290 OA
BRANCH  17  19
ATOM     19  C3  RUN d   1      -7.694  16.128  21.386  0.00  0.00     0.003 C 
ATOM     20  H1  RUN d   1      -7.499  15.138  21.825  0.00  0.00     0.051 H 
BRANCH  19  21
ATOM     21  C5  RUN d   1      -9.040  16.141  20.669  0.00  0.00    -0.066 C 
ATOM     22  H5  RUN d   1      -9.837  15.880  21.381  0.00  0.00     0.028 H 
ATOM     23  H6  RUN d   1      -9.026  15.408  19.849  0.00  0.00     0.028 H 
ATOM     24  H7  RUN d   1      -9.228  17.145  20.260  0.00  0.00     0.028 H 
ENDBRANCH  19  21
BRANCH  19  25
ATOM     25  C4  RUN d   1      -6.578  16.488  20.411  0.00  0.00    -0.066 C 
ATOM     26  H2  RUN d   1      -6.513  15.718  19.628  0.00  0.00     0.028 H 
ATOM     27  H3  RUN d   1      -5.622  16.542  20.952  0.00  0.00     0.028 H 
ATOM     28  H4  RUN d   1      -6.794  17.463  19.950  0.00  0.00     0.028 H 
ENDBRANCH  19  25
ENDBRANCH  17  19
ENDBRANCH  12  17
ENDBRANCH   8  10
BRANCH   8  29
ATOM     29  CA  RUN d   1      -6.748  18.418  27.723  0.00  0.00    -0.031 C 
ATOM     30  H26 RUN d   1      -6.456  17.579  28.371  0.00  0.00     0.041 H 
ATOM     31  H27 RUN d   1      -6.849  19.331  28.328  0.00  0.00     0.041 H 
BRANCH  29  32
ATOM     32  C1A RUN d   1      -5.640  18.642  26.708  0.00  0.00    -0.057 A 
ATOM     33  C6A RUN d   1      -5.678  19.748  25.853  0.00  0.00    -0.077 A 
ATOM     34  C5A RUN d   1      -4.704  19.892  24.872  0.00  0.00    -0.082 A 
ATOM     35  H32 RUN d   1      -6.463  20.489  25.955  0.00  0.00     0.084 H 
ATOM     36  C4A RUN d   1      -3.693  18.933  24.751  0.00  0.00    -0.083 A 
ATOM     37  H31 RUN d   1      -4.728  20.745  24.203  0.00  0.00     0.083 H 
ATOM     38  C3A RUN d   1      -3.649  17.831  25.613  0.00  0.00    -0.082 A 
ATOM     39  H30 RUN d   1      -2.937  19.044  23.983  0.00  0.00     0.083 H 
ATOM     40  C2A RUN d   1      -4.623  17.681  26.598  0.00  0.00    -0.077 A 
ATOM     41  H29 RUN d   1      -2.859  17.096  25.514  0.00  0.00     0.083 H 
ATOM     42  H28 RUN d   1      -4.596  16.832  27.271  0.00  0.00     0.084 H 
ENDBRANCH  29  32
ENDBRANCH   8  29
ENDBRANCH   5   8
ENDBRANCH   3   5
BRANCH   3  43
ATOM     43  O3  RUN d   1     -10.952  18.375  28.943  0.00  0.00    -0.393 OA
ATOM     44  H14 RUN d   1     -10.635  19.225  28.661  0.00  0.00     0.210 HD
ENDBRANCH   3  43
ENDBRANCH   1   3
BRANCH   1  45
ATOM     45  CB  RUN d   1     -12.335  15.650  28.004  0.00  0.00    -0.020 C 
ATOM     46  H33 RUN d   1     -12.285  15.699  26.906  0.00  0.00     0.043 H 
ATOM     47  H34 RUN d   1     -13.052  16.399  28.372  0.00  0.00     0.043 H 
BRANCH  45  48
ATOM     48  C1B RUN d   1     -12.827  14.279  28.401  0.00  0.00    -0.056 A 
ATOM     49  C6B RUN d   1     -13.846  14.151  29.358  0.00  0.00    -0.077 A 
ATOM     50  C5B RUN d   1     -14.275  12.877  29.734  0.00  0.00    -0.082 A 
ATOM     51  H39 RUN d   1     -14.295  15.033  29.801  0.00  0.00     0.084 H 
ATOM     52  C4B RUN d   1     -13.699  11.746  29.166  0.00  0.00    -0.083 A 
ATOM     53  H38 RUN d   1     -15.061  12.769  30.473  0.00  0.00     0.083 H 
ATOM     54  C3B RUN d   1     -12.687  11.878  28.214  0.00  0.00    -0.082 A 
ATOM     55  H37 RUN d   1     -14.037  10.760  29.463  0.00  0.00     0.083 H 
ATOM     56  C2B RUN d   1     -12.248  13.146  27.829  0.00  0.00    -0.077 A 
ATOM     57  H36 RUN d   1     -12.241  10.994  27.773  0.00  0.00     0.083 H 
ATOM     58  H35 RUN d   1     -11.462  13.250  27.090  0.00  0.00     0.084 H 
ENDBRANCH  45  48
ENDBRANCH   1  45
BRANCH   1  59
ATOM     59  N5  RUN d   1     -11.034  16.007  30.019  0.00  0.00    -0.352 N 
ATOM     60  C6  RUN d   1     -10.211  15.273  30.750  0.00  0.00     0.241 C 
ATOM     61  O6  RUN d   1      -9.379  14.527  30.224  0.00  0.00    -0.271 OA
ATOM     62  H16 RUN d   1     -11.718  16.583  30.467  0.00  0.00     0.163 HD
BRANCH  60  63
ATOM     63  C7  RUN d   1     -10.423  15.443  32.253  0.00  0.00     0.094 C 
ATOM     64  H17 RUN d   1     -10.896  16.414  32.461  0.00  0.00     0.088 H 
BRANCH  63  65
ATOM     65  C10 RUN d   1      -9.069  15.382  33.005  0.00  0.00    -0.033 C 
ATOM     66  H19 RUN d   1      -8.525  14.469  32.720  0.00  0.00     0.042 H 
BRANCH  65  67
ATOM     67  C12 RUN d   1      -8.285  16.630  32.638  0.00  0.00    -0.071 C 
ATOM     68  H23 RUN d   1      -8.124  16.655  31.550  0.00  0.00     0.028 H 
ATOM     69  H24 RUN d   1      -7.313  16.616  33.152  0.00  0.00     0.028 H 
ATOM     70  H25 RUN d   1      -8.850  17.522  32.946  0.00  0.00     0.028 H 
ENDBRANCH  65  67
BRANCH  65  71
ATOM     71  C11 RUN d   1      -9.232  15.449  34.517  0.00  0.00    -0.071 C 
ATOM     72  H20 RUN d   1      -8.242  15.402  34.995  0.00  0.00     0.028 H 
ATOM     73  H21 RUN d   1      -9.845  14.601  34.858  0.00  0.00     0.028 H 
ATOM     74  H22 RUN d   1      -9.727  16.392  34.791  0.00  0.00     0.028 H 
ENDBRANCH  65  71
ENDBRANCH  63  65
BRANCH  63  75
ATOM     75  N8  RUN d   1     -11.319  14.378  32.627  0.00  0.00    -0.323 N 
ATOM     76  C9  RUN d   1     -12.497  14.657  33.187  0.00  0.00     0.361 C 
ATOM     77  O9  RUN d   1     -12.794  15.834  33.385  0.00  0.00    -0.238 OA
ATOM     78  H18 RUN d   1     -11.057  13.427  32.466  0.00  0.00     0.165 HD
BRANCH  76  79
ATOM     79  OC  RUN d   1     -13.423  13.687  33.564  0.00  0.00    -0.299 OA
BRANCH  79  80
ATOM     80  CC  RUN d   1     -12.835  12.406  33.800  0.00  0.00     0.054 C 
ATOM     81  H40 RUN d   1     -12.312  12.453  34.767  0.00  0.00     0.082 H 
ATOM     82  H41 RUN d   1     -12.106  12.222  32.997  0.00  0.00     0.082 H 
BRANCH  80  83
ATOM     83  C1C RUN d   1     -13.767  11.230  33.845  0.00  0.00    -0.034 A 
ATOM     84  C6C RUN d   1     -13.606  10.186  32.938  0.00  0.00    -0.075 A 
ATOM     85  C5C RUN d   1     -14.446   9.086  33.016  0.00  0.00    -0.082 A 
ATOM     86  H46 RUN d   1     -12.833  10.233  32.180  0.00  0.00     0.084 H 
ATOM     87  C4C RUN d   1     -15.431   9.033  33.991  0.00  0.00    -0.083 A 
ATOM     88  H45 RUN d   1     -14.333   8.267  32.315  0.00  0.00     0.083 H 
ATOM     89  C3C RUN d   1     -15.589  10.082  34.894  0.00  0.00    -0.082 A 
ATOM     90  H44 RUN d   1     -16.083   8.169  34.051  0.00  0.00     0.083 H 
ATOM     91  C2C RUN d   1     -14.755  11.189  34.822  0.00  0.00    -0.075 A 
ATOM     92  H43 RUN d   1     -16.362  10.034  35.652  0.00  0.00     0.083 H 
ATOM     93  H42 RUN d   1     -14.873  12.011  35.519  0.00  0.00     0.084 H 
ENDBRANCH  80  83
ENDBRANCH  79  80
ENDBRANCH  76  79
ENDBRANCH  63  75
ENDBRANCH  60  63
ENDBRANCH   1  59
TORSDOF 22
