REMARK  16 active torsions:
REMARK  status: ('A' for Active; 'I' for Inactive)
REMARK    1  A    between atoms: C3_3  and  O1_29 
REMARK       I    between atoms: C3_3  and  N1_26 
REMARK    2  A    between atoms: O1_29  and  C4_4 
REMARK    3  A    between atoms: C5_5  and  C6_6 
REMARK    4  A    between atoms: C5_5  and  C7_7 
REMARK    5  A    between atoms: N1_26  and  C5_5 
REMARK    6  A    between atoms: C6_6  and  C14_14 
REMARK    7  A    between atoms: C6_6  and  O3_31 
REMARK    8  A    between atoms: C7_7  and  C8_8 
REMARK    9  A    between atoms: C14_14  and  N2_27 
REMARK   10  A    between atoms: C15_15  and  C16_16 
REMARK   11  A    between atoms: N2_27  and  C15_15 
REMARK   12  A    between atoms: C16_16  and  C23_23 
REMARK   13  A    between atoms: C16_16  and  C24_24 
REMARK   14  A    between atoms: S1_35  and  C17_17 
REMARK   15  A    between atoms: C20_20  and  N3_28 
REMARK   16  A    between atoms: N2_27  and  S1_35 
ROOT
ATOM      1  C6  478 d   1      10.387  18.119   8.484  0.00  0.00     0.071 C 
ATOM      2  H7  478 d   1       9.659  18.361   7.696  0.00  0.00     0.088 H 
ENDROOT
BRANCH   1   3
ATOM      3  C5  478 d   1      10.960  16.662   8.145  0.00  0.00     0.044 C 
ATOM      4  H6  478 d   1      10.267  15.942   8.604  0.00  0.00     0.077 H 
BRANCH   3   5
ATOM      5  C7  478 d   1      12.416  16.278   8.652  0.00  0.00    -0.020 C 
ATOM      6  H8  478 d   1      12.424  16.285   9.752  0.00  0.00     0.043 H 
ATOM      7  H9  478 d   1      13.133  17.023   8.275  0.00  0.00     0.043 H 
BRANCH   5   8
ATOM      8  C8  478 d   1      12.831  14.914   8.170  0.00  0.00    -0.056 A 
ATOM      9  C9  478 d   1      13.636  14.825   6.978  0.00  0.00    -0.077 A 
ATOM     10  C11 478 d   1      13.891  13.566   6.331  0.00  0.00    -0.082 A 
ATOM     11  H10 478 d   1      14.060  15.730   6.558  0.00  0.00     0.084 H 
ATOM     12  C13 478 d   1      13.371  12.357   6.887  0.00  0.00    -0.083 A 
ATOM     13  H12 478 d   1      14.478  13.534   5.420  0.00  0.00     0.083 H 
ATOM     14  C12 478 d   1      12.574  12.434   8.116  0.00  0.00    -0.082 A 
ATOM     15  H14 478 d   1      13.562  11.402   6.410  0.00  0.00     0.083 H 
ATOM     16  C10 478 d   1      12.299  13.706   8.765  0.00  0.00    -0.077 A 
ATOM     17  H13 478 d   1      12.181  11.522   8.550  0.00  0.00     0.083 H 
ATOM     18  H11 478 d   1      11.709  13.749   9.674  0.00  0.00     0.084 H 
ENDBRANCH   5   8
ENDBRANCH   3   5
BRANCH   3  19
ATOM     19  N1  478 d   1      10.940  16.472   6.713  0.00  0.00    -0.329 N 
ATOM     20  C3  478 d   1      10.149  15.702   5.999  0.00  0.00     0.361 C 
ATOM     21  O2  478 d   1       9.081  15.313   6.287  0.00  0.00    -0.238 OA
ATOM     22  H32 478 d   1      11.618  16.995   6.197  0.00  0.00     0.165 HD
BRANCH  20  23
ATOM     23  O1  478 d   1      10.726  15.662   4.731  0.00  0.00    -0.296 OA
BRANCH  23  24
ATOM     24  C4  478 d   1      10.113  15.149   3.548  0.00  0.00     0.072 C 
ATOM     25  C1  478 d   1      11.169  14.977   2.445  0.00  0.00     0.044 C 
ATOM     26  O6  478 d   1      11.053  16.082   1.515  0.00  0.00    -0.389 OA
ATOM     27  H1  478 d   1      11.000  14.028   1.915  0.00  0.00     0.078 H 
ATOM     28  H2  478 d   1      12.174  14.973   2.892  0.00  0.00     0.078 H 
ATOM     29  C25 478 d   1       9.751  16.626   1.633  0.00  0.00     0.022 C 
ATOM     30  C2  478 d   1       9.176  16.224   2.997  0.00  0.00    -0.018 C 
ATOM     31  H30 478 d   1       9.111  16.232   0.830  0.00  0.00     0.074 H 
ATOM     32  H31 478 d   1       9.799  17.723   1.560  0.00  0.00     0.074 H 
ATOM     33  H3  478 d   1       8.159  15.821   2.880  0.00  0.00     0.040 H 
ATOM     34  H4  478 d   1       9.151  17.092   3.672  0.00  0.00     0.040 H 
ATOM     35  H5  478 d   1       9.585  14.207   3.756  0.00  0.00     0.087 H 
ENDBRANCH  23  24
ENDBRANCH  20  23
ENDBRANCH   3  19
ENDBRANCH   1   3
BRANCH   1  36
ATOM     36  C14 478 d   1       9.695  18.411   9.891  0.00  0.00     0.031 C 
ATOM     37  H15 478 d   1       9.375  19.463   9.895  0.00  0.00     0.069 H 
ATOM     38  H16 478 d   1      10.450  18.254  10.675  0.00  0.00     0.069 H 
BRANCH  36  39
ATOM     39  N2  478 d   1       8.516  17.580  10.228  0.00  0.00    -0.304 N 
BRANCH  39  40
ATOM     40  C15 478 d   1       7.381  17.697   9.170  0.00  0.00     0.008 C 
ATOM     41  H17 478 d   1       7.742  18.274   8.306  0.00  0.00     0.066 H 
ATOM     42  H18 478 d   1       7.081  16.691   8.840  0.00  0.00     0.066 H 
BRANCH  40  43
ATOM     43  C16 478 d   1       6.186  18.406   9.790  0.00  0.00    -0.045 C 
ATOM     44  H19 478 d   1       6.423  18.317  10.861  0.00  0.00     0.041 H 
BRANCH  43  45
ATOM     45  C23 478 d   1       6.146  19.937   9.614  0.00  0.00    -0.072 C 
ATOM     46  H24 478 d   1       5.244  20.338  10.099  0.00  0.00     0.028 H 
ATOM     47  H25 478 d   1       6.125  20.183   8.542  0.00  0.00     0.028 H 
ATOM     48  H26 478 d   1       7.040  20.383  10.075  0.00  0.00     0.028 H 
ENDBRANCH  43  45
BRANCH  43  49
ATOM     49  C24 478 d   1       4.822  17.695   9.731  0.00  0.00    -0.072 C 
ATOM     50  H27 478 d   1       4.966  16.613   9.867  0.00  0.00     0.028 H 
ATOM     51  H28 478 d   1       4.353  17.882   8.754  0.00  0.00     0.028 H 
ATOM     52  H29 478 d   1       4.172  18.082  10.530  0.00  0.00     0.028 H 
ENDBRANCH  43  49
ENDBRANCH  40  43
ENDBRANCH  39  40
BRANCH  39  53
ATOM     53  S1  478 d   1       8.765  16.112  11.200  0.00  0.00     0.260 S 
ATOM     54  O5  478 d   1       7.707  15.160  11.071  0.00  0.00    -0.200 OA
ATOM     55  O4  478 d   1      10.051  15.511  10.847  0.00  0.00    -0.200 OA
BRANCH  53  56
ATOM     56  C17 478 d   1       8.832  16.381  12.886  0.00  0.00     0.079 A 
ATOM     57  C18 478 d   1      10.073  16.363  13.604  0.00  0.00    -0.058 A 
ATOM     58  C19 478 d   1      10.092  16.692  14.992  0.00  0.00    -0.056 A 
ATOM     59  H20 478 d   1      10.993  16.101  13.094  0.00  0.00     0.086 H 
ATOM     60  C20 478 d   1       8.865  17.054  15.620  0.00  0.00     0.025 A 
ATOM     61  H21 478 d   1      11.018  16.667  15.556  0.00  0.00     0.086 H 
ATOM     62  C21 478 d   1       7.652  17.006  14.926  0.00  0.00    -0.056 A 
ATOM     63  C22 478 d   1       7.639  16.669  13.555  0.00  0.00    -0.058 A 
ATOM     64  H22 478 d   1       6.723  17.227  15.440  0.00  0.00     0.086 H 
ATOM     65  H23 478 d   1       6.698  16.633  13.018  0.00  0.00     0.086 H 
BRANCH  60  66
ATOM     66  N3  478 d   1       8.840  17.322  16.898  0.00  0.00    -0.399 N 
ATOM     67  H33 478 d   1       9.719  17.363  17.433  0.00  0.00     0.156 HD
ATOM     68  H34 478 d   1       7.941  17.492  17.371  0.00  0.00     0.156 HD
ENDBRANCH  60  66
ENDBRANCH  53  56
ENDBRANCH  39  53
ENDBRANCH  36  39
ENDBRANCH   1  36
BRANCH   1  69
ATOM     69  O3  478 d   1      11.432  19.030   8.466  0.00  0.00    -0.392 OA
ATOM     70  H35 478 d   1      11.083  19.911   8.529  0.00  0.00     0.210 HD
ENDBRANCH   1  69
TORSDOF 16
