REMARK  19 active torsions:
REMARK  status: ('A' for Active; 'I' for Inactive)
REMARK    1  A    between atoms: C6_6  and  O1_39 
REMARK    2  A    between atoms: O1_39  and  C10_10 
REMARK    3  A    between atoms: C10_10  and  C11_11 
REMARK       I    between atoms: C11_11  and  N2_35 
REMARK    4  A    between atoms: C26_26  and  C12_12 
REMARK    5  A    between atoms: C12_12  and  S1_45 
REMARK    6  A    between atoms: C26_26  and  C13_13 
REMARK       I    between atoms: C13_13  and  N3_36 
REMARK    7  A    between atoms: N3_36  and  C14_14 
REMARK    8  A    between atoms: C14_14  and  C16_16 
REMARK    9  A    between atoms: C14_14  and  C15_15 
REMARK   10  A    between atoms: C15_15  and  O2_40 
REMARK   11  A    between atoms: C15_15  and  C17_17 
REMARK   12  A    between atoms: C16_16  and  C28_28 
REMARK       I    between atoms: C17_17  and  N4_37 
REMARK   13  A    between atoms: C18_18  and  C21_21 
REMARK       I    between atoms: C21_21  and  N5_38 
REMARK   14  A    between atoms: N5_38  and  C22_22 
REMARK   15  A    between atoms: C22_22  and  C25_25 
REMARK   16  A    between atoms: C22_22  and  C24_24 
REMARK   17  A    between atoms: C22_22  and  C23_23 
REMARK   18  A    between atoms: N2_35  and  C26_26 
REMARK   19  A    between atoms: S1_45  and  C27_27 
ROOT
ATOM      1  C14 KNI d   1       5.350   0.082  14.274  0.00  0.00     0.049 C 
ATOM      2  H11 KNI d   1       5.409  -0.882  13.748  0.00  0.00     0.077 H 
ENDROOT
BRANCH   1   3
ATOM      3  N3  KNI d   1       4.496   0.982  13.492  0.00  0.00    -0.351 N 
ATOM      4  C13 KNI d   1       3.783   0.542  12.457  0.00  0.00     0.241 C 
ATOM      5  O6  KNI d   1       3.758  -0.629  12.111  0.00  0.00    -0.271 OA
ATOM      6  H39 KNI d   1       4.448   1.949  13.742  0.00  0.00     0.163 HD
BRANCH   4   7
ATOM      7  C26 KNI d   1       3.028   1.603  11.696  0.00  0.00     0.097 C 
ATOM      8  H29 KNI d   1       2.550   2.275  12.424  0.00  0.00     0.088 H 
BRANCH   7   9
ATOM      9  N2  KNI d   1       3.955   2.384  10.893  0.00  0.00    -0.345 N 
ATOM     10  C11 KNI d   1       4.067   3.683  11.106  0.00  0.00     0.242 C 
ATOM     11  O3  KNI d   1       3.327   4.297  11.852  0.00  0.00    -0.271 OA
ATOM     12  H38 KNI d   1       4.504   1.941  10.184  0.00  0.00     0.163 HD
BRANCH  10  13
ATOM     13  C10 KNI d   1       5.140   4.375  10.352  0.00  0.00     0.099 C 
ATOM     14  H7  KNI d   1       4.895   5.443  10.253  0.00  0.00     0.089 H 
ATOM     15  H8  KNI d   1       6.097   4.266  10.883  0.00  0.00     0.089 H 
BRANCH  13  16
ATOM     16  O1  KNI d   1       5.235   3.791   9.082  0.00  0.00    -0.341 OA
BRANCH  16  17
ATOM     17  C6  KNI d   1       6.352   4.170   8.347  0.00  0.00     0.080 A 
ATOM     18  C3  KNI d   1       6.886   3.273   7.363  0.00  0.00     0.010 A 
ATOM     19  C2  KNI d   1       6.303   2.017   7.116  0.00  0.00    -0.053 A 
ATOM     20  C4  KNI d   1       7.991   3.592   6.613  0.00  0.00    -0.006 A 
ATOM     21  C1  KNI d   1       6.848   1.181   6.159  0.00  0.00     0.003 A 
ATOM     22  H2  KNI d   1       5.428   1.705   7.675  0.00  0.00     0.087 H 
ATOM     23  N1  KNI d   1       7.907   1.459   5.427  0.00  0.00    -0.272 NA
ATOM     24  H1  KNI d   1       6.367   0.223   5.999  0.00  0.00     0.114 H 
ATOM     25  C5  KNI d   1       8.468   2.649   5.645  0.00  0.00     0.013 A 
ATOM     26  H3  KNI d   1       9.336   2.919   5.055  0.00  0.00     0.116 H 
ATOM     27  C9  KNI d   1       8.629   4.846   6.816  0.00  0.00    -0.071 A 
ATOM     28  C8  KNI d   1       8.109   5.715   7.774  0.00  0.00    -0.079 A 
ATOM     29  H6  KNI d   1       9.503   5.121   6.237  0.00  0.00     0.084 H 
ATOM     30  C7  KNI d   1       7.000   5.388   8.521  0.00  0.00    -0.050 A 
ATOM     31  H5  KNI d   1       8.590   6.673   7.935  0.00  0.00     0.083 H 
ATOM     32  H4  KNI d   1       6.626   6.091   9.257  0.00  0.00     0.087 H 
ENDBRANCH  16  17
ENDBRANCH  13  16
ENDBRANCH  10  13
ENDBRANCH   7   9
BRANCH   7  33
ATOM     33  C12 KNI d   1       1.944   1.001  10.835  0.00  0.00     0.003 C 
ATOM     34  H9  KNI d   1       2.339   0.155  10.254  0.00  0.00     0.052 H 
ATOM     35  H10 KNI d   1       1.533   1.756  10.149  0.00  0.00     0.052 H 
BRANCH  33  36
ATOM     36  S1  KNI d   1       0.668   0.435  11.993  0.00  0.00    -0.171 SA
BRANCH  36  37
ATOM     37  C27 KNI d   1      -0.158   2.056  12.160  0.00  0.00    -0.035 C 
ATOM     38  H30 KNI d   1      -1.010   1.964  12.850  0.00  0.00     0.041 H 
ATOM     39  H31 KNI d   1      -0.518   2.388  11.175  0.00  0.00     0.041 H 
ATOM     40  H32 KNI d   1       0.556   2.792  12.556  0.00  0.00     0.041 H 
ENDBRANCH  36  37
ENDBRANCH  33  36
ENDBRANCH   7  33
ENDBRANCH   4   7
ENDBRANCH   1   3
BRANCH   1  41
ATOM     41  C16 KNI d   1       6.775   0.654  14.347  0.00  0.00    -0.019 C 
ATOM     42  H13 KNI d   1       7.414  -0.059  14.887  0.00  0.00     0.043 H 
ATOM     43  H14 KNI d   1       6.745   1.607  14.895  0.00  0.00     0.043 H 
BRANCH  41  44
ATOM     44  C28 KNI d   1       7.372   0.900  12.976  0.00  0.00    -0.056 A 
ATOM     45  C33 KNI d   1       7.899  -0.146  12.245  0.00  0.00    -0.077 A 
ATOM     46  C32 KNI d   1       8.437   0.066  10.993  0.00  0.00    -0.082 A 
ATOM     47  H37 KNI d   1       7.890  -1.147  12.661  0.00  0.00     0.084 H 
ATOM     48  C31 KNI d   1       8.465   1.319  10.446  0.00  0.00    -0.083 A 
ATOM     49  H36 KNI d   1       8.843  -0.771  10.436  0.00  0.00     0.083 H 
ATOM     50  C30 KNI d   1       7.949   2.368  11.171  0.00  0.00    -0.082 A 
ATOM     51  H35 KNI d   1       8.886   1.482   9.460  0.00  0.00     0.083 H 
ATOM     52  C29 KNI d   1       7.401   2.166  12.426  0.00  0.00    -0.077 A 
ATOM     53  H34 KNI d   1       7.972   3.368  10.753  0.00  0.00     0.083 H 
ATOM     54  H33 KNI d   1       6.993   3.005  12.979  0.00  0.00     0.084 H 
ENDBRANCH  41  44
ENDBRANCH   1  41
BRANCH   1  55
ATOM     55  C15 KNI d   1       4.705  -0.180  15.642  0.00  0.00     0.132 C 
ATOM     56  H12 KNI d   1       3.624  -0.343  15.524  0.00  0.00     0.101 H 
BRANCH  55  57
ATOM     57  O2  KNI d   1       4.949   0.934  16.427  0.00  0.00    -0.384 OA
ATOM     58  H41 KNI d   1       4.562   0.806  17.285  0.00  0.00     0.210 HD
ENDBRANCH  55  57
BRANCH  55  59
ATOM     59  C17 KNI d   1       5.339  -1.386  16.330  0.00  0.00     0.252 C 
ATOM     60  N4  KNI d   1       4.742  -2.565  16.064  0.00  0.00    -0.327 N 
ATOM     61  C18 KNI d   1       5.373  -3.819  16.506  0.00  0.00     0.100 C 
ATOM     62  C20 KNI d   1       3.544  -2.664  15.224  0.00  0.00     0.040 C 
ATOM     63  C19 KNI d   1       4.427  -4.993  16.258  0.00  0.00     0.005 C 
ATOM     64  H15 KNI d   1       5.596  -3.762  17.582  0.00  0.00     0.089 H 
ATOM     65  S2  KNI d   1       3.263  -4.440  14.973  0.00  0.00    -0.147 SA
ATOM     66  H16 KNI d   1       4.991  -5.871  15.910  0.00  0.00     0.052 H 
ATOM     67  H17 KNI d   1       3.885  -5.248  17.180  0.00  0.00     0.052 H 
ATOM     68  H18 KNI d   1       3.710  -2.162  14.259  0.00  0.00     0.080 H 
ATOM     69  H19 KNI d   1       2.681  -2.208  15.731  0.00  0.00     0.080 H 
ATOM     70  O4  KNI d   1       6.324  -1.234  17.045  0.00  0.00    -0.270 OA
BRANCH  61  71
ATOM     71  C21 KNI d   1       6.653  -3.979  15.741  0.00  0.00     0.242 C 
ATOM     72  N5  KNI d   1       7.637  -4.575  16.403  0.00  0.00    -0.351 N 
ATOM     73  H40 KNI d   1       7.433  -4.998  17.286  0.00  0.00     0.163 HD
ATOM     74  O5  KNI d   1       6.746  -3.574  14.588  0.00  0.00    -0.271 OA
BRANCH  72  75
ATOM     75  C22 KNI d   1       9.013  -4.639  15.892  0.00  0.00     0.022 C 
BRANCH  75  76
ATOM     76  C25 KNI d   1       9.880  -5.183  17.021  0.00  0.00    -0.054 C 
ATOM     77  H26 KNI d   1      10.925  -5.249  16.682  0.00  0.00     0.030 H 
ATOM     78  H27 KNI d   1       9.524  -6.184  17.307  0.00  0.00     0.030 H 
ATOM     79  H28 KNI d   1       9.818  -4.510  17.888  0.00  0.00     0.030 H 
ENDBRANCH  75  76
BRANCH  75  80
ATOM     80  C24 KNI d   1       9.097  -5.567  14.678  0.00  0.00    -0.054 C 
ATOM     81  H23 KNI d   1      10.134  -5.600  14.313  0.00  0.00     0.030 H 
ATOM     82  H24 KNI d   1       8.439  -5.189  13.881  0.00  0.00     0.030 H 
ATOM     83  H25 KNI d   1       8.778  -6.579  14.967  0.00  0.00     0.030 H 
ENDBRANCH  75  80
BRANCH  75  84
ATOM     84  C23 KNI d   1       9.556  -3.249  15.542  0.00  0.00    -0.054 C 
ATOM     85  H20 KNI d   1      10.585  -3.342  15.165  0.00  0.00     0.030 H 
ATOM     86  H21 KNI d   1       9.551  -2.616  16.442  0.00  0.00     0.030 H 
ATOM     87  H22 KNI d   1       8.922  -2.792  14.768  0.00  0.00     0.030 H 
ENDBRANCH  75  84
ENDBRANCH  72  75
ENDBRANCH  61  71
ENDBRANCH  55  59
ENDBRANCH   1  55
TORSDOF 19
