REMARK  17 active torsions:
REMARK  status: ('A' for Active; 'I' for Inactive)
REMARK    1  A    between atoms: N1_1  and  C31_39 
REMARK    2  A    between atoms: C2_3  and  C3_4 
REMARK       I    between atoms: C3_4  and  N2_6 
REMARK    3  A    between atoms: N2_6  and  C4_7 
REMARK    4  A    between atoms: C4_7  and  C7_10 
REMARK    5  A    between atoms: C4_7  and  C6_9 
REMARK    6  A    between atoms: C4_7  and  C5_8 
REMARK    7  A    between atoms: N3_11  and  C10_14 
REMARK    8  A    between atoms: C10_14  and  C11_15 
REMARK    9  A    between atoms: C11_15  and  C12_17 
REMARK   10  A    between atoms: C11_15  and  O2_16 
REMARK   11  A    between atoms: C12_17  and  C13_18 
REMARK   12  A    between atoms: C13_18  and  C21_26 
REMARK   13  A    between atoms: C13_18  and  C14_19 
REMARK   14  A    between atoms: C14_19  and  C15_20 
REMARK       I    between atoms: C21_26  and  N4_28 
REMARK   15  A    between atoms: N4_28  and  C22_29 
REMARK   16  A    between atoms: C23_30  and  O4_31 
REMARK   17  A    between atoms: C31_39  and  C32_40 
ROOT
ATOM      1  C10 MK1 d   1      12.707   2.040   6.302  0.00  0.00     0.108 C 
ATOM      2  H20 MK1 d   1      13.679   1.541   6.432  0.00  0.00     0.080 H 
ATOM      3  H21 MK1 d   1      12.820   2.890   5.613  0.00  0.00     0.080 H 
ENDROOT
BRANCH   1   4
ATOM      4  N3  MK1 d   1      12.260   2.538   7.591  0.00  0.00    -0.053 N 
ATOM      5  C2  MK1 d   1      13.308   2.691   8.607  0.00  0.00     0.203 C 
ATOM      6  C1  MK1 d   1      12.733   3.197   9.937  0.00  0.00     0.119 C 
ATOM      7  H4  MK1 d   1      14.012   3.447   8.229  0.00  0.00     0.102 H 
ATOM      8  N1  MK1 d   1      11.834   4.359   9.906  0.00  0.00    -0.063 N 
ATOM      9  H2  MK1 d   1      12.175   2.364  10.389  0.00  0.00     0.080 H 
ATOM     10  H3  MK1 d   1      13.585   3.460  10.582  0.00  0.00     0.080 H 
ATOM     11  C9  MK1 d   1      10.752   4.137   8.910  0.00  0.00     0.106 C 
ATOM     12  H1  MK1 d   1      12.398   5.078   9.481  0.00  0.00     0.280 HD
ATOM     13  C8  MK1 d   1      11.247   3.634   7.541  0.00  0.00     0.107 C 
ATOM     14  H18 MK1 d   1      10.223   5.089   8.757  0.00  0.00     0.078 H 
ATOM     15  H19 MK1 d   1      10.054   3.392   9.319  0.00  0.00     0.078 H 
ATOM     16  H16 MK1 d   1      10.376   3.266   6.979  0.00  0.00     0.078 H 
ATOM     17  H17 MK1 d   1      11.694   4.486   7.008  0.00  0.00     0.078 H 
ATOM     18  H15 MK1 d   1      11.723   1.763   7.948  0.00  0.00     0.281 HD
BRANCH   5  19
ATOM     19  C3  MK1 d   1      14.100   1.424   8.882  0.00  0.00     0.251 C 
ATOM     20  N2  MK1 d   1      15.430   1.517   8.822  0.00  0.00    -0.351 N 
ATOM     21  H5  MK1 d   1      15.814   2.404   8.566  0.00  0.00     0.163 HD
ATOM     22  O1  MK1 d   1      13.509   0.383   9.185  0.00  0.00    -0.271 OA
BRANCH  20  23
ATOM     23  C4  MK1 d   1      16.430   0.373   9.114  0.00  0.00     0.022 C 
BRANCH  23  24
ATOM     24  C7  MK1 d   1      16.120  -0.314  10.549  0.00  0.00    -0.054 C 
ATOM     25  H12 MK1 d   1      16.843  -1.122  10.732  0.00  0.00     0.030 H 
ATOM     26  H13 MK1 d   1      15.101  -0.728  10.545  0.00  0.00     0.030 H 
ATOM     27  H14 MK1 d   1      16.206   0.442  11.344  0.00  0.00     0.030 H 
ENDBRANCH  23  24
BRANCH  23  28
ATOM     28  C6  MK1 d   1      16.494  -0.660   7.953  0.00  0.00    -0.054 C 
ATOM     29  H9  MK1 d   1      17.215  -1.451   8.206  0.00  0.00     0.030 H 
ATOM     30  H10 MK1 d   1      16.813  -0.154   7.029  0.00  0.00     0.030 H 
ATOM     31  H11 MK1 d   1      15.499  -1.105   7.803  0.00  0.00     0.030 H 
ENDBRANCH  23  28
BRANCH  23  32
ATOM     32  C5  MK1 d   1      17.904   0.864   9.022  0.00  0.00    -0.054 C 
ATOM     33  H6  MK1 d   1      18.584   0.026   9.235  0.00  0.00     0.030 H 
ATOM     34  H7  MK1 d   1      18.070   1.666   9.756  0.00  0.00     0.030 H 
ATOM     35  H8  MK1 d   1      18.100   1.247   8.010  0.00  0.00     0.030 H 
ENDBRANCH  23  32
ENDBRANCH  20  23
ENDBRANCH   5  19
BRANCH   8  36
ATOM     36  C31 MK1 d   1      11.466   4.987  11.206  0.00  0.00     0.108 C 
ATOM     37  H44 MK1 d   1      10.758   4.294  11.684  0.00  0.00     0.083 H 
ATOM     38  H45 MK1 d   1      10.947   5.923  10.950  0.00  0.00     0.083 H 
BRANCH  36  39
ATOM     39  C32 MK1 d   1      12.518   5.370  12.328  0.00  0.00    -0.015 A 
ATOM     40  C36 MK1 d   1      12.284   4.942  13.637  0.00  0.00    -0.072 A 
ATOM     41  C35 MK1 d   1      13.123   5.349  14.679  0.00  0.00    -0.066 A 
ATOM     42  H49 MK1 d   1      11.445   4.289  13.847  0.00  0.00     0.084 H 
ATOM     43  C34 MK1 d   1      14.194   6.176  14.418  0.00  0.00     0.002 A 
ATOM     44  H48 MK1 d   1      12.931   5.014  15.692  0.00  0.00     0.085 H 
ATOM     45  N5  MK1 d   1      14.519   6.656  13.134  0.00  0.00    -0.273 NA
ATOM     46  H47 MK1 d   1      14.823   6.474  15.249  0.00  0.00     0.114 H 
ATOM     47  C33 MK1 d   1      13.604   6.200  12.093  0.00  0.00     0.009 A 
ATOM     48  H46 MK1 d   1      13.784   6.529  11.076  0.00  0.00     0.115 H 
ENDBRANCH  36  39
ENDBRANCH   8  36
ENDBRANCH   1   4
BRANCH   1  49
ATOM     49  C11 MK1 d   1      11.717   1.042   5.697  0.00  0.00     0.059 C 
ATOM     50  H22 MK1 d   1      10.708   1.358   6.000  0.00  0.00     0.085 H 
BRANCH  49  51
ATOM     51  C12 MK1 d   1      11.896  -0.423   6.091  0.00  0.00    -0.028 C 
ATOM     52  H24 MK1 d   1      11.686  -0.507   7.167  0.00  0.00     0.038 H 
ATOM     53  H25 MK1 d   1      12.945  -0.694   5.900  0.00  0.00     0.038 H 
BRANCH  51  54
ATOM     54  C13 MK1 d   1      11.014  -1.440   5.365  0.00  0.00     0.029 C 
ATOM     55  H26 MK1 d   1      11.030  -1.268   4.279  0.00  0.00     0.055 H 
BRANCH  54  56
ATOM     56  C21 MK1 d   1       9.557  -1.385   5.863  0.00  0.00     0.222 C 
ATOM     57  N4  MK1 d   1       8.638  -1.901   5.049  0.00  0.00    -0.350 N 
ATOM     58  H34 MK1 d   1       8.932  -2.226   4.150  0.00  0.00     0.163 HD
ATOM     59  O3  MK1 d   1       9.274  -0.904   6.959  0.00  0.00    -0.273 OA
BRANCH  57  60
ATOM     60  C22 MK1 d   1       7.220  -2.018   5.398  0.00  0.00     0.063 C 
ATOM     61  C30 MK1 d   1       6.417  -0.704   5.510  0.00  0.00    -0.027 A 
ATOM     62  C25 MK1 d   1       5.026  -0.850   4.822  0.00  0.00    -0.047 A 
ATOM     63  C29 MK1 d   1       6.674   0.571   6.022  0.00  0.00    -0.074 A 
ATOM     64  C24 MK1 d   1       5.039  -2.275   4.335  0.00  0.00    -0.014 C 
ATOM     65  C26 MK1 d   1       4.127   0.201   4.720  0.00  0.00    -0.076 A 
ATOM     66  C23 MK1 d   1       6.439  -2.830   4.337  0.00  0.00     0.063 C 
ATOM     67  H38 MK1 d   1       4.408  -2.887   4.996  0.00  0.00     0.044 H 
ATOM     68  H39 MK1 d   1       4.639  -2.309   3.311  0.00  0.00     0.044 H 
ATOM     69  H36 MK1 d   1       6.348  -3.861   4.708  0.00  0.00     0.087 H 
ATOM     70  C27 MK1 d   1       4.501   1.436   5.250  0.00  0.00    -0.082 A 
ATOM     71  H40 MK1 d   1       3.163   0.067   4.243  0.00  0.00     0.084 H 
ATOM     72  C28 MK1 d   1       5.740   1.618   5.889  0.00  0.00    -0.082 A 
ATOM     73  H41 MK1 d   1       3.820   2.275   5.167  0.00  0.00     0.083 H 
ATOM     74  H42 MK1 d   1       5.985   2.594   6.292  0.00  0.00     0.083 H 
ATOM     75  H43 MK1 d   1       7.612   0.758   6.532  0.00  0.00     0.084 H 
ATOM     76  H35 MK1 d   1       7.172  -2.537   6.366  0.00  0.00     0.084 H 
BRANCH  66  77
ATOM     77  O4  MK1 d   1       7.182  -2.947   3.122  0.00  0.00    -0.393 OA
ATOM     78  H37 MK1 d   1       6.717  -3.517   2.521  0.00  0.00     0.210 HD
ENDBRANCH  66  77
ENDBRANCH  57  60
ENDBRANCH  54  56
BRANCH  54  79
ATOM     79  C14 MK1 d   1      11.683  -2.769   5.716  0.00  0.00    -0.029 C 
ATOM     80  H27 MK1 d   1      11.911  -2.772   6.792  0.00  0.00     0.041 H 
ATOM     81  H28 MK1 d   1      12.618  -2.851   5.143  0.00  0.00     0.041 H 
BRANCH  79  82
ATOM     82  C15 MK1 d   1      10.833  -3.955   5.408  0.00  0.00    -0.057 A 
ATOM     83  C20 MK1 d   1      10.326  -4.692   6.483  0.00  0.00    -0.077 A 
ATOM     84  C19 MK1 d   1       9.379  -5.679   6.270  0.00  0.00    -0.082 A 
ATOM     85  H33 MK1 d   1      10.677  -4.489   7.489  0.00  0.00     0.084 H 
ATOM     86  C18 MK1 d   1       8.936  -5.943   4.981  0.00  0.00    -0.083 A 
ATOM     87  H32 MK1 d   1       8.985  -6.244   7.107  0.00  0.00     0.083 H 
ATOM     88  C17 MK1 d   1       9.447  -5.218   3.899  0.00  0.00    -0.082 A 
ATOM     89  H31 MK1 d   1       8.192  -6.713   4.812  0.00  0.00     0.083 H 
ATOM     90  C16 MK1 d   1      10.400  -4.223   4.115  0.00  0.00    -0.077 A 
ATOM     91  H30 MK1 d   1       9.102  -5.430   2.893  0.00  0.00     0.083 H 
ATOM     92  H29 MK1 d   1      10.801  -3.662   3.279  0.00  0.00     0.084 H 
ENDBRANCH  79  82
ENDBRANCH  54  79
ENDBRANCH  51  54
ENDBRANCH  49  51
BRANCH  49  93
ATOM     93  O2  MK1 d   1      11.816   1.060   4.269  0.00  0.00    -0.394 OA
ATOM     94  H23 MK1 d   1      12.667   0.729   4.008  0.00  0.00     0.210 HD
ENDBRANCH  49  93
ENDBRANCH   1  49
TORSDOF 17
