REMARK  4 active torsions:
REMARK  status: ('A' for Active; 'I' for Inactive)
REMARK    1  A    between atoms: CA_2  and  N_1 
REMARK    2  A    between atoms: CA_2  and  CB_5 
REMARK    3  A    between atoms: CA_2  and  C_3 
REMARK    4  A    between atoms: CB_5  and  CG_6 
ROOT
ATOM      1  CB  HIS d   1     -20.371 -32.684  -4.038  0.00  0.00     0.013 C 
ATOM      2  H5  HIS d   1     -20.718 -31.767  -4.536  0.00  0.00     0.046 H 
ATOM      3  H6  HIS d   1     -19.769 -33.278  -4.742  0.00  0.00     0.046 H 
ENDROOT
BRANCH   1   4
ATOM      4  CA  HIS d   1     -21.660 -33.527  -3.789  0.00  0.00     0.187 C 
ATOM      5  H4  HIS d   1     -22.112 -33.760  -4.764  0.00  0.00     0.101 H 
BRANCH   4   6
ATOM      6  N   HIS d   1     -22.680 -32.902  -2.959  0.00  0.00    -0.065 N 
ATOM      7  H1  HIS d   1     -22.989 -32.047  -3.393  0.00  0.00     0.275 HD
ATOM      8  H2  HIS d   1     -22.295 -32.697  -2.050  0.00  0.00     0.275 HD
ATOM      9  H3  HIS d   1     -23.462 -33.529  -2.859  0.00  0.00     0.275 HD
ENDBRANCH   4   6
BRANCH   4  10
ATOM     10  C   HIS d   1     -21.225 -34.791  -3.116  0.00  0.00     0.204 C 
ATOM     11  O   HIS d   1     -20.505 -35.546  -3.735  0.00  0.00    -0.646 OA
ATOM     12  OXT HIS d   1     -21.677 -35.049  -1.996  0.00  0.00    -0.646 OA
ENDBRANCH   4  10
ENDBRANCH   1   4
BRANCH   1  13
ATOM     13  CG  HIS d   1     -19.377 -32.207  -2.957  0.00  0.00     0.053 A 
ATOM     14  ND1 HIS d   1     -18.132 -31.775  -3.210  0.00  0.00    -0.247 NA
ATOM     15  CE1 HIS d   1     -17.602 -31.360  -2.085  0.00  0.00     0.064 A 
ATOM     16  NE2 HIS d   1     -18.490 -31.526  -1.152  0.00  0.00    -0.359 N 
ATOM     17  H8  HIS d   1     -16.601 -30.951  -1.956  0.00  0.00     0.143 H 
ATOM     18  CD2 HIS d   1     -19.599 -32.044  -1.604  0.00  0.00     0.002 A 
ATOM     19  H9  HIS d   1     -18.336 -31.276  -0.165  0.00  0.00     0.166 HD
ATOM     20  H7  HIS d   1     -20.497 -32.292  -1.041  0.00  0.00     0.114 H 
ENDBRANCH   1  13
TORSDOF 4
