REMARK  15 active torsions:
REMARK  status: ('A' for Active; 'I' for Inactive)
REMARK    1  A    between atoms: N11_1  and  C1_6 
REMARK    2  A    between atoms: C4_9  and  O4_2 
REMARK    3  A    between atoms: C5_10  and  O5_3 
REMARK    4  A    between atoms: N7_4  and  C7_12 
REMARK    5  A    between atoms: N2_5  and  C2_7 
REMARK    6  A    between atoms: C2_7  and  C20_13 
REMARK    7  A    between atoms: C3_8  and  C31_19 
REMARK    8  A    between atoms: C6_11  and  C61_26 
REMARK    9  A    between atoms: C7_12  and  C70_33 
REMARK   10  A    between atoms: C23_16  and  C26_42 
REMARK   11  A    between atoms: C31_19  and  C32_20 
REMARK   12  A    between atoms: C61_26  and  C62_27 
REMARK   13  A    between atoms: C73_36  and  C76_41 
REMARK   14  A    between atoms: C76_41  and  O76_43 
REMARK   15  A    between atoms: C26_42  and  O26_44 
ROOT
ATOM      1  N11 Q82 d   1      -7.733  14.499  28.218  0.00  0.00    -0.126 N 
ATOM      2  C12 Q82 d   1      -7.145  13.959  27.200  0.00  0.00     0.196 C 
ATOM      3  N13 Q82 d   1      -6.626  13.456  26.281  0.00  0.00    -0.171 NA
ATOM      4  H1  Q82 d   1      -7.426  14.247  29.169  0.00  0.00     0.197 HD
ENDROOT
BRANCH   1   5
ATOM      5  C1  Q82 d   1      -8.690  15.342  28.070  0.00  0.00     0.688 C 
ATOM      6  N7  Q82 d   1      -8.893  15.970  26.900  0.00  0.00    -0.205 N 
ATOM      7  C6  Q82 d   1      -8.607  17.390  26.821  0.00  0.00     0.060 C 
ATOM      8  C5  Q82 d   1      -9.794  18.220  27.260  0.00  0.00     0.082 C 
ATOM      9  H9  Q82 d   1      -8.375  17.654  25.779  0.00  0.00     0.078 H 
ATOM     10  C4  Q82 d   1     -10.174  17.987  28.712  0.00  0.00     0.082 C 
ATOM     11  H8  Q82 d   1     -10.659  18.012  26.614  0.00  0.00     0.090 H 
ATOM     12  C3  Q82 d   1     -10.591  16.549  29.045  0.00  0.00     0.060 C 
ATOM     13  H7  Q82 d   1      -9.308  18.242  29.340  0.00  0.00     0.090 H 
ATOM     14  N2  Q82 d   1      -9.502  15.575  29.117  0.00  0.00    -0.205 N 
ATOM     15  H6  Q82 d   1     -11.036  16.610  30.049  0.00  0.00     0.078 H 
BRANCH   6  16
ATOM     16  C7  Q82 d   1      -9.346  15.293  25.675  0.00  0.00     0.036 C 
ATOM     17  H10 Q82 d   1     -10.441  15.389  25.625  0.00  0.00     0.072 H 
ATOM     18  H11 Q82 d   1      -9.075  14.230  25.761  0.00  0.00     0.072 H 
BRANCH  16  19
ATOM     19  C70 Q82 d   1      -8.773  15.814  24.355  0.00  0.00    -0.040 A 
ATOM     20  C75 Q82 d   1      -9.646  15.948  23.268  0.00  0.00    -0.075 A 
ATOM     21  C74 Q82 d   1      -9.213  16.415  22.024  0.00  0.00    -0.074 A 
ATOM     22  H33 Q82 d   1     -10.689  15.681  23.395  0.00  0.00     0.084 H 
ATOM     23  C73 Q82 d   1      -7.884  16.753  21.811  0.00  0.00    -0.035 A 
ATOM     24  H32 Q82 d   1      -9.926  16.515  21.213  0.00  0.00     0.084 H 
ATOM     25  C72 Q82 d   1      -6.991  16.600  22.974  0.00  0.00    -0.074 A 
ATOM     26  C71 Q82 d   1      -7.524  16.130  24.172  0.00  0.00    -0.075 A 
ATOM     27  H31 Q82 d   1      -5.939  16.849  22.898  0.00  0.00     0.084 H 
ATOM     28  H30 Q82 d   1      -6.849  16.019  25.013  0.00  0.00     0.084 H 
BRANCH  23  29
ATOM     29  C76 Q82 d   1      -7.398  17.257  20.484  0.00  0.00     0.040 C 
ATOM     30  H34 Q82 d   1      -7.697  18.310  20.380  0.00  0.00     0.081 H 
ATOM     31  H35 Q82 d   1      -7.871  16.661  19.690  0.00  0.00     0.081 H 
BRANCH  29  32
ATOM     32  O76 Q82 d   1      -5.989  17.172  20.332  0.00  0.00    -0.396 OA
ATOM     33  H38 Q82 d   1      -5.743  17.504  19.477  0.00  0.00     0.209 HD
ENDBRANCH  29  32
ENDBRANCH  23  29
ENDBRANCH  16  19
ENDBRANCH   6  16
BRANCH   7  34
ATOM     34  C61 Q82 d   1      -7.365  17.634  27.683  0.00  0.00    -0.019 C 
ATOM     35  H23 Q82 d   1      -7.093  16.695  28.188  0.00  0.00     0.043 H 
ATOM     36  H24 Q82 d   1      -7.600  18.401  28.436  0.00  0.00     0.043 H 
BRANCH  34  37
ATOM     37  C62 Q82 d   1      -6.191  18.103  26.858  0.00  0.00    -0.056 A 
ATOM     38  C67 Q82 d   1      -5.059  17.289  26.807  0.00  0.00    -0.077 A 
ATOM     39  C66 Q82 d   1      -4.124  17.453  25.789  0.00  0.00    -0.082 A 
ATOM     40  H29 Q82 d   1      -4.907  16.527  27.562  0.00  0.00     0.084 H 
ATOM     41  C65 Q82 d   1      -4.321  18.438  24.828  0.00  0.00    -0.083 A 
ATOM     42  H28 Q82 d   1      -3.248  16.817  25.746  0.00  0.00     0.083 H 
ATOM     43  C64 Q82 d   1      -5.450  19.249  24.874  0.00  0.00    -0.082 A 
ATOM     44  H27 Q82 d   1      -3.591  18.575  24.039  0.00  0.00     0.083 H 
ATOM     45  C63 Q82 d   1      -6.383  19.085  25.894  0.00  0.00    -0.077 A 
ATOM     46  H26 Q82 d   1      -5.603  20.009  24.116  0.00  0.00     0.083 H 
ATOM     47  H25 Q82 d   1      -7.258  19.723  25.936  0.00  0.00     0.084 H 
ENDBRANCH  34  37
ENDBRANCH   7  34
BRANCH   8  48
ATOM     48  O5  Q82 d   1      -9.379  19.557  27.138  0.00  0.00    -0.391 OA
ATOM     49  H3  Q82 d   1     -10.091  20.133  27.391  0.00  0.00     0.210 HD
ENDBRANCH   8  48
BRANCH  10  50
ATOM     50  O4  Q82 d   1     -11.240  18.855  29.011  0.00  0.00    -0.391 OA
ATOM     51  H2  Q82 d   1     -10.987  19.748  28.806  0.00  0.00     0.210 HD
ENDBRANCH  10  50
BRANCH  12  52
ATOM     52  C31 Q82 d   1     -11.647  15.910  28.129  0.00  0.00    -0.019 C 
ATOM     53  H16 Q82 d   1     -11.162  15.598  27.192  0.00  0.00     0.043 H 
ATOM     54  H17 Q82 d   1     -12.424  16.656  27.909  0.00  0.00     0.043 H 
BRANCH  52  55
ATOM     55  C32 Q82 d   1     -12.298  14.700  28.769  0.00  0.00    -0.056 A 
ATOM     56  C37 Q82 d   1     -13.286  14.848  29.747  0.00  0.00    -0.077 A 
ATOM     57  C36 Q82 d   1     -13.949  13.729  30.265  0.00  0.00    -0.082 A 
ATOM     58  H22 Q82 d   1     -13.541  15.838  30.108  0.00  0.00     0.084 H 
ATOM     59  C35 Q82 d   1     -13.666  12.432  29.847  0.00  0.00    -0.083 A 
ATOM     60  H21 Q82 d   1     -14.712  13.879  31.020  0.00  0.00     0.083 H 
ATOM     61  C34 Q82 d   1     -12.689  12.255  28.883  0.00  0.00    -0.082 A 
ATOM     62  H20 Q82 d   1     -14.196  11.584  30.265  0.00  0.00     0.083 H 
ATOM     63  C33 Q82 d   1     -12.053  13.385  28.383  0.00  0.00    -0.077 A 
ATOM     64  H19 Q82 d   1     -12.428  11.264  28.529  0.00  0.00     0.083 H 
ATOM     65  H18 Q82 d   1     -11.297  13.228  27.622  0.00  0.00     0.084 H 
ENDBRANCH  52  55
ENDBRANCH  12  52
BRANCH  14  66
ATOM     66  C2  Q82 d   1      -9.432  14.721  30.312  0.00  0.00     0.036 C 
ATOM     67  H4  Q82 d   1      -8.422  14.288  30.365  0.00  0.00     0.072 H 
ATOM     68  H5  Q82 d   1     -10.172  13.915  30.201  0.00  0.00     0.072 H 
BRANCH  66  69
ATOM     69  C20 Q82 d   1      -9.707  15.436  31.619  0.00  0.00    -0.040 A 
ATOM     70  C25 Q82 d   1     -10.726  14.966  32.449  0.00  0.00    -0.075 A 
ATOM     71  C24 Q82 d   1     -10.921  15.460  33.728  0.00  0.00    -0.074 A 
ATOM     72  H15 Q82 d   1     -11.386  14.189  32.081  0.00  0.00     0.084 H 
ATOM     73  C23 Q82 d   1     -10.062  16.430  34.230  0.00  0.00    -0.035 A 
ATOM     74  H14 Q82 d   1     -11.740  15.092  34.335  0.00  0.00     0.084 H 
ATOM     75  C22 Q82 d   1      -8.971  16.929  33.362  0.00  0.00    -0.074 A 
ATOM     76  C21 Q82 d   1      -8.825  16.408  32.080  0.00  0.00    -0.075 A 
ATOM     77  H13 Q82 d   1      -8.292  17.693  33.722  0.00  0.00     0.084 H 
ATOM     78  H12 Q82 d   1      -8.024  16.760  31.440  0.00  0.00     0.084 H 
BRANCH  73  79
ATOM     79  C26 Q82 d   1     -10.249  16.968  35.620  0.00  0.00     0.040 C 
ATOM     80  H36 Q82 d   1     -10.515  18.033  35.550  0.00  0.00     0.081 H 
ATOM     81  H37 Q82 d   1      -9.300  16.863  36.166  0.00  0.00     0.081 H 
BRANCH  79  82
ATOM     82  O26 Q82 d   1     -11.268  16.295  36.351  0.00  0.00    -0.396 OA
ATOM     83  H39 Q82 d   1     -11.339  16.677  37.218  0.00  0.00     0.209 HD
ENDBRANCH  79  82
ENDBRANCH  73  79
ENDBRANCH  66  69
ENDBRANCH  14  66
ENDBRANCH   1   5
TORSDOF 15
