REMARK  27 active torsions:
REMARK  status: ('A' for Active; 'I' for Inactive)
REMARK       I    between atoms: C1_1  and  N3_3 
REMARK       I    between atoms: N21_12  and  C1_1 
REMARK    1  A    between atoms: N3_3  and  C4_4 
REMARK    2  A    between atoms: N3_3  and  C5_5 
REMARK    3  A    between atoms: C5_5  and  C6_6 
REMARK    4  A    between atoms: C22_13  and  N21_12 
REMARK    5  A    between atoms: C23_14  and  C22_13 
REMARK    6  A    between atoms: C22_13  and  C25_16 
REMARK       I    between atoms: N37_19  and  C23_14 
REMARK    7  A    between atoms: C25_16  and  C26_17 
REMARK    8  A    between atoms: C25_16  and  C27_18 
REMARK    9  A    between atoms: C38_20  and  N37_19 
REMARK   10  A    between atoms: C38_20  and  C39_21 
REMARK   11  A    between atoms: C46_28  and  C38_20 
REMARK   12  A    between atoms: C39_21  and  C40_22 
REMARK   13  A    between atoms: C46_28  and  O47_29 
REMARK   14  A    between atoms: C49_31  and  C46_28 
REMARK   15  A    between atoms: C49_31  and  O48_30 
REMARK   16  A    between atoms: C51_33  and  C49_31 
REMARK       I    between atoms: N50_32  and  C83_43 
REMARK   17  A    between atoms: C51_33  and  N50_32 
REMARK   18  A    between atoms: C51_33  and  C52_34 
REMARK   19  A    between atoms: C52_34  and  C53_35 
REMARK   20  A    between atoms: C82_42  and  N81_41 
REMARK       I    between atoms: N81_41  and  C97_48 
REMARK   21  A    between atoms: C83_43  and  C82_42 
REMARK   22  A    between atoms: C82_42  and  C85_45 
REMARK   23  A    between atoms: C85_45  and  C86_46 
REMARK   24  A    between atoms: C85_45  and  C87_47 
REMARK       I    between atoms: C97_48  and  N99_50 
REMARK   25  A    between atoms: N99_50  and  C2_51 
REMARK   26  A    between atoms: N99_50  and  C3_52 
REMARK   27  A    between atoms: C3_52  and  C8_53 
ROOT
ATOM      1  C46 A77 d   1       6.246   0.164  15.076  0.00  0.00     0.082 C 
ATOM      2  H28 A77 d   1       6.341   1.188  15.465  0.00  0.00     0.090 H 
ENDROOT
BRANCH   1   3
ATOM      3  C38 A77 d   1       6.139   0.294  13.554  0.00  0.00     0.043 C 
ATOM      4  H20 A77 d   1       6.219  -0.696  13.082  0.00  0.00     0.077 H 
BRANCH   3   5
ATOM      5  N37 A77 d   1       4.847   0.937  13.183  0.00  0.00    -0.352 N 
ATOM      6  C23 A77 d   1       3.932   0.378  12.380  0.00  0.00     0.241 C 
ATOM      7  O24 A77 d   1       4.028  -0.768  11.974  0.00  0.00    -0.271 OA
ATOM      8  H19 A77 d   1       4.651   1.843  13.557  0.00  0.00     0.163 HD
BRANCH   6   9
ATOM      9  C22 A77 d   1       2.786   1.298  11.960  0.00  0.00     0.093 C 
ATOM     10  H11 A77 d   1       2.618   2.021  12.772  0.00  0.00     0.088 H 
BRANCH   9  11
ATOM     11  N21 A77 d   1       3.165   2.047  10.748  0.00  0.00    -0.329 N 
ATOM     12  C1  A77 d   1       3.484   3.332  10.744  0.00  0.00     0.319 C 
ATOM     13  O2  A77 d   1       3.336   4.024  11.730  0.00  0.00    -0.247 OA
ATOM     14  N3  A77 d   1       3.986   3.834   9.598  0.00  0.00    -0.333 N 
ATOM     15  H10 A77 d   1       3.182   1.555   9.877  0.00  0.00     0.165 HD
BRANCH  14  16
ATOM     16  C4  A77 d   1       4.186   3.015   8.397  0.00  0.00    -0.014 C 
ATOM     17  H1  A77 d   1       4.604   3.639   7.593  0.00  0.00     0.056 H 
ATOM     18  H2  A77 d   1       3.221   2.598   8.073  0.00  0.00     0.056 H 
ATOM     19  H3  A77 d   1       4.883   2.195   8.624  0.00  0.00     0.056 H 
ENDBRANCH  14  16
BRANCH  14  20
ATOM     20  C5  A77 d   1       4.366   5.248   9.533  0.00  0.00     0.038 C 
ATOM     21  H4  A77 d   1       3.909   5.768  10.387  0.00  0.00     0.074 H 
ATOM     22  H5  A77 d   1       3.974   5.668   8.595  0.00  0.00     0.074 H 
BRANCH  20  23
ATOM     23  C6  A77 d   1       5.860   5.489   9.574  0.00  0.00     0.052 A 
ATOM     24  C7  A77 d   1       6.595   5.555   8.390  0.00  0.00    -0.058 A 
ATOM     25  C9  A77 d   1       7.951   5.862   8.490  0.00  0.00    -0.080 A 
ATOM     26  H6  A77 d   1       6.129   5.374   7.428  0.00  0.00     0.086 H 
ATOM     27  C11 A77 d   1       8.525   6.077   9.751  0.00  0.00    -0.066 A 
ATOM     28  H7  A77 d   1       8.560   5.934   7.596  0.00  0.00     0.083 H 
ATOM     29  C10 A77 d   1       7.702   5.966  10.862  0.00  0.00     0.003 A 
ATOM     30  H9  A77 d   1       9.576   6.322   9.854  0.00  0.00     0.085 H 
ATOM     31  N8  A77 d   1       6.404   5.681  10.778  0.00  0.00    -0.264 NA
ATOM     32  H8  A77 d   1       8.135   6.118  11.844  0.00  0.00     0.114 H 
ENDBRANCH  20  23
ENDBRANCH  14  20
ENDBRANCH   9  11
BRANCH   9  33
ATOM     33  C25 A77 d   1       1.469   0.526  11.740  0.00  0.00    -0.033 C 
ATOM     34  H12 A77 d   1       1.646  -0.198  10.931  0.00  0.00     0.042 H 
BRANCH  33  35
ATOM     35  C26 A77 d   1       1.041  -0.268  12.988  0.00  0.00    -0.071 C 
ATOM     36  H13 A77 d   1       0.100  -0.799  12.780  0.00  0.00     0.028 H 
ATOM     37  H14 A77 d   1       0.893   0.424  13.830  0.00  0.00     0.028 H 
ATOM     38  H15 A77 d   1       1.824  -0.997  13.245  0.00  0.00     0.028 H 
ENDBRANCH  33  35
BRANCH  33  39
ATOM     39  C27 A77 d   1       0.334   1.457  11.293  0.00  0.00    -0.071 C 
ATOM     40  H16 A77 d   1       0.650   2.019  10.402  0.00  0.00     0.028 H 
ATOM     41  H17 A77 d   1       0.096   2.160  12.104  0.00  0.00     0.028 H 
ATOM     42  H18 A77 d   1      -0.557   0.859  11.052  0.00  0.00     0.028 H 
ENDBRANCH  33  39
ENDBRANCH   9  33
ENDBRANCH   6   9
ENDBRANCH   3   5
BRANCH   3  43
ATOM     43  C39 A77 d   1       7.277   1.214  13.081  0.00  0.00    -0.020 C 
ATOM     44  H21 A77 d   1       8.188   0.946  13.636  0.00  0.00     0.043 H 
ATOM     45  H22 A77 d   1       6.998   2.252  13.314  0.00  0.00     0.043 H 
BRANCH  43  46
ATOM     46  C40 A77 d   1       7.580   1.130  11.622  0.00  0.00    -0.056 A 
ATOM     47  C41 A77 d   1       7.184   2.149  10.761  0.00  0.00    -0.077 A 
ATOM     48  C42 A77 d   1       7.454   2.042   9.393  0.00  0.00    -0.082 A 
ATOM     49  H23 A77 d   1       6.669   3.021  11.149  0.00  0.00     0.084 H 
ATOM     50  C43 A77 d   1       8.129   0.929   8.897  0.00  0.00    -0.083 A 
ATOM     51  H24 A77 d   1       7.137   2.828   8.717  0.00  0.00     0.083 H 
ATOM     52  C44 A77 d   1       8.534  -0.080   9.783  0.00  0.00    -0.082 A 
ATOM     53  H25 A77 d   1       8.339   0.844   7.837  0.00  0.00     0.083 H 
ATOM     54  C45 A77 d   1       8.255   0.017  11.147  0.00  0.00    -0.077 A 
ATOM     55  H26 A77 d   1       9.069  -0.944   9.405  0.00  0.00     0.083 H 
ATOM     56  H27 A77 d   1       8.563  -0.769  11.827  0.00  0.00     0.084 H 
ENDBRANCH  43  46
ENDBRANCH   3  43
ENDBRANCH   1   3
BRANCH   1  57
ATOM     57  O47 A77 d   1       7.473  -0.492  15.358  0.00  0.00    -0.391 OA
ATOM     58  H29 A77 d   1       7.570  -0.589  16.298  0.00  0.00     0.210 HD
ENDBRANCH   1  57
BRANCH   1  59
ATOM     59  C49 A77 d   1       5.012  -0.427  15.813  0.00  0.00     0.082 C 
ATOM     60  H31 A77 d   1       4.131   0.115  15.439  0.00  0.00     0.090 H 
BRANCH  59  61
ATOM     61  C51 A77 d   1       4.738  -1.926  15.594  0.00  0.00     0.043 C 
ATOM     62  H33 A77 d   1       4.753  -2.105  14.509  0.00  0.00     0.077 H 
BRANCH  61  63
ATOM     63  C52 A77 d   1       3.349  -2.327  16.127  0.00  0.00    -0.020 C 
ATOM     64  H34 A77 d   1       2.587  -1.820  15.517  0.00  0.00     0.043 H 
ATOM     65  H35 A77 d   1       3.269  -1.988  17.170  0.00  0.00     0.043 H 
BRANCH  63  66
ATOM     66  C53 A77 d   1       3.072  -3.822  16.090  0.00  0.00    -0.056 A 
ATOM     67  C54 A77 d   1       3.253  -4.613  17.238  0.00  0.00    -0.077 A 
ATOM     68  C55 A77 d   1       3.044  -6.000  17.178  0.00  0.00    -0.082 A 
ATOM     69  H36 A77 d   1       3.554  -4.151  18.171  0.00  0.00     0.084 H 
ATOM     70  C56 A77 d   1       2.644  -6.619  15.985  0.00  0.00    -0.083 A 
ATOM     71  H37 A77 d   1       3.194  -6.601  18.067  0.00  0.00     0.083 H 
ATOM     72  C57 A77 d   1       2.442  -5.838  14.845  0.00  0.00    -0.082 A 
ATOM     73  H38 A77 d   1       2.493  -7.692  15.948  0.00  0.00     0.083 H 
ATOM     74  C58 A77 d   1       2.658  -4.449  14.899  0.00  0.00    -0.077 A 
ATOM     75  H39 A77 d   1       2.119  -6.301  13.920  0.00  0.00     0.083 H 
ATOM     76  H40 A77 d   1       2.503  -3.851  14.008  0.00  0.00     0.084 H 
ENDBRANCH  63  66
ENDBRANCH  61  63
BRANCH  61  77
ATOM     77  N50 A77 d   1       5.754  -2.802  16.209  0.00  0.00    -0.352 N 
ATOM     78  C83 A77 d   1       6.432  -3.755  15.559  0.00  0.00     0.241 C 
ATOM     79  O84 A77 d   1       6.313  -3.944  14.365  0.00  0.00    -0.271 OA
ATOM     80  H32 A77 d   1       5.950  -2.674  17.181  0.00  0.00     0.163 HD
BRANCH  78  81
ATOM     81  C82 A77 d   1       7.418  -4.588  16.402  0.00  0.00     0.093 C 
ATOM     82  H42 A77 d   1       7.541  -4.072  17.366  0.00  0.00     0.088 H 
BRANCH  81  83
ATOM     83  N81 A77 d   1       6.910  -5.919  16.684  0.00  0.00    -0.329 N 
ATOM     84  C97 A77 d   1       6.768  -6.393  17.922  0.00  0.00     0.319 C 
ATOM     85  O98 A77 d   1       7.143  -5.764  18.901  0.00  0.00    -0.247 OA
ATOM     86  N99 A77 d   1       6.226  -7.635  18.023  0.00  0.00    -0.333 N 
ATOM     87  H41 A77 d   1       6.655  -6.506  15.915  0.00  0.00     0.165 HD
BRANCH  86  88
ATOM     88  C2  A77 d   1       5.791  -8.392  16.839  0.00  0.00    -0.014 C 
ATOM     89  H50 A77 d   1       5.386  -9.365  17.154  0.00  0.00     0.056 H 
ATOM     90  H51 A77 d   1       6.649  -8.551  16.170  0.00  0.00     0.056 H 
ATOM     91  H52 A77 d   1       5.012  -7.826  16.308  0.00  0.00     0.056 H 
ENDBRANCH  86  88
BRANCH  86  92
ATOM     92  C3  A77 d   1       5.994  -8.253  19.345  0.00  0.00     0.038 C 
ATOM     93  H53 A77 d   1       6.778  -7.917  20.039  0.00  0.00     0.074 H 
ATOM     94  H54 A77 d   1       6.041  -9.347  19.241  0.00  0.00     0.074 H 
BRANCH  92  95
ATOM     95  C8  A77 d   1       4.644  -7.870  19.906  0.00  0.00     0.052 A 
ATOM     96  C12 A77 d   1       3.555  -8.734  19.771  0.00  0.00    -0.058 A 
ATOM     97  C13 A77 d   1       2.317  -8.344  20.282  0.00  0.00    -0.080 A 
ATOM     98  H55 A77 d   1       3.670  -9.692  19.277  0.00  0.00     0.086 H 
ATOM     99  C15 A77 d   1       2.211  -7.098  20.901  0.00  0.00    -0.066 A 
ATOM    100  H56 A77 d   1       1.455  -8.996  20.200  0.00  0.00     0.083 H 
ATOM    101  C14 A77 d   1       3.355  -6.296  20.983  0.00  0.00     0.003 A 
ATOM    102  H58 A77 d   1       1.265  -6.759  21.309  0.00  0.00     0.085 H 
ATOM    103  N10 A77 d   1       4.555  -6.668  20.511  0.00  0.00    -0.264 NA
ATOM    104  H57 A77 d   1       3.267  -5.323  21.453  0.00  0.00     0.114 H 
ENDBRANCH  92  95
ENDBRANCH  86  92
ENDBRANCH  81  83
BRANCH  81 105
ATOM    105  C85 A77 d   1       8.809  -4.660  15.732  0.00  0.00    -0.033 C 
ATOM    106  H43 A77 d   1       8.698  -5.186  14.772  0.00  0.00     0.042 H 
BRANCH 105 107
ATOM    107  C86 A77 d   1       9.366  -3.253  15.463  0.00  0.00    -0.071 C 
ATOM    108  H44 A77 d   1      10.354  -3.335  14.987  0.00  0.00     0.028 H 
ATOM    109  H45 A77 d   1       9.461  -2.708  16.414  0.00  0.00     0.028 H 
ATOM    110  H46 A77 d   1       8.681  -2.709  14.796  0.00  0.00     0.028 H 
ENDBRANCH 105 107
BRANCH 105 111
ATOM    111  C87 A77 d   1       9.817  -5.422  16.589  0.00  0.00    -0.071 C 
ATOM    112  H47 A77 d   1       9.435  -6.433  16.792  0.00  0.00     0.028 H 
ATOM    113  H48 A77 d   1       9.967  -4.889  17.539  0.00  0.00     0.028 H 
ATOM    114  H49 A77 d   1      10.775  -5.493  16.053  0.00  0.00     0.028 H 
ENDBRANCH 105 111
ENDBRANCH  81 105
ENDBRANCH  78  81
ENDBRANCH  61  77
ENDBRANCH  59  61
BRANCH  59 115
ATOM    115  O48 A77 d   1       5.129  -0.172  17.213  0.00  0.00    -0.391 OA
ATOM    116  H30 A77 d   1       5.298   0.752  17.352  0.00  0.00     0.210 HD
ENDBRANCH  59 115
ENDBRANCH   1  59
TORSDOF 27
