REMARK  26 active torsions:
REMARK  status: ('A' for Active; 'I' for Inactive)
REMARK       I    between atoms: C1_1  and  N3_3 
REMARK       I    between atoms: N22_12  and  C1_1 
REMARK    1  A    between atoms: N3_3  and  C4_4 
REMARK    2  A    between atoms: N3_3  and  C5_5 
REMARK    3  A    between atoms: C5_5  and  C6_6 
REMARK    4  A    between atoms: C23_13  and  N22_12 
REMARK    5  A    between atoms: C24_14  and  C23_13 
REMARK    6  A    between atoms: C23_13  and  C26_16 
REMARK       I    between atoms: N38_19  and  C24_14 
REMARK    7  A    between atoms: C26_16  and  C27_17 
REMARK    8  A    between atoms: C26_16  and  C28_18 
REMARK    9  A    between atoms: C39_20  and  N38_19 
REMARK   10  A    between atoms: C39_20  and  C40_21 
REMARK   11  A    between atoms: C47_28  and  C39_20 
REMARK   12  A    between atoms: C40_21  and  C41_22 
REMARK   13  A    between atoms: C49_30  and  C47_28 
REMARK   14  A    between atoms: C49_30  and  O48_29 
REMARK   15  A    between atoms: C51_32  and  C49_30 
REMARK       I    between atoms: N50_31  and  C83_42 
REMARK   16  A    between atoms: C51_32  and  N50_31 
REMARK   17  A    between atoms: C51_32  and  C52_33 
REMARK   18  A    between atoms: C52_33  and  C53_34 
REMARK   19  A    between atoms: C82_41  and  N81_40 
REMARK       I    between atoms: N81_40  and  C97_47 
REMARK   20  A    between atoms: C83_42  and  C82_41 
REMARK   21  A    between atoms: C82_41  and  C85_44 
REMARK   22  A    between atoms: C85_44  and  C86_45 
REMARK   23  A    between atoms: C85_44  and  C87_46 
REMARK       I    between atoms: C97_47  and  N99_49 
REMARK   24  A    between atoms: N99_49  and  C2_50 
REMARK   25  A    between atoms: N99_49  and  C3_51 
REMARK   26  A    between atoms: C3_51  and  C8_52 
ROOT
ATOM      1  C49 A78 d   1       4.947  -0.439  15.906  0.00  0.00     0.057 C 
ATOM      2  H31 A78 d   1       4.072   0.127  15.552  0.00  0.00     0.086 H 
ENDROOT
BRANCH   1   3
ATOM      3  C47 A78 d   1       6.200   0.122  15.283  0.00  0.00    -0.020 C 
ATOM      4  H28 A78 d   1       6.362   1.131  15.690  0.00  0.00     0.040 H 
ATOM      5  H29 A78 d   1       7.042  -0.527  15.565  0.00  0.00     0.040 H 
BRANCH   3   6
ATOM      6  C39 A78 d   1       6.168   0.222  13.783  0.00  0.00     0.018 C 
ATOM      7  H20 A78 d   1       6.170  -0.782  13.334  0.00  0.00     0.073 H 
BRANCH   6   8
ATOM      8  N38 A78 d   1       4.974   0.964  13.308  0.00  0.00    -0.354 N 
ATOM      9  C24 A78 d   1       4.064   0.448  12.454  0.00  0.00     0.241 C 
ATOM     10  O25 A78 d   1       4.113  -0.690  12.027  0.00  0.00    -0.271 OA
ATOM     11  H19 A78 d   1       4.836   1.898  13.639  0.00  0.00     0.162 HD
BRANCH   9  12
ATOM     12  C23 A78 d   1       2.907   1.346  11.989  0.00  0.00     0.093 C 
ATOM     13  H11 A78 d   1       2.735   2.103  12.769  0.00  0.00     0.088 H 
BRANCH  12  14
ATOM     14  N22 A78 d   1       3.269   2.045  10.734  0.00  0.00    -0.329 N 
ATOM     15  C1  A78 d   1       3.527   3.346  10.758  0.00  0.00     0.319 C 
ATOM     16  O2  A78 d   1       3.335   4.009  11.766  0.00  0.00    -0.247 OA
ATOM     17  N3  A78 d   1       4.010   3.909   9.633  0.00  0.00    -0.333 N 
ATOM     18  H10 A78 d   1       3.319   1.539   9.873  0.00  0.00     0.165 HD
BRANCH  17  19
ATOM     19  C4  A78 d   1       4.205   3.139   8.401  0.00  0.00    -0.014 C 
ATOM     20  H1  A78 d   1       4.606   3.798   7.617  0.00  0.00     0.056 H 
ATOM     21  H2  A78 d   1       3.241   2.722   8.073  0.00  0.00     0.056 H 
ATOM     22  H3  A78 d   1       4.914   2.319   8.589  0.00  0.00     0.056 H 
ENDBRANCH  17  19
BRANCH  17  23
ATOM     23  C5  A78 d   1       4.400   5.336   9.691  0.00  0.00     0.038 C 
ATOM     24  H4  A78 d   1       4.088   5.739  10.666  0.00  0.00     0.074 H 
ATOM     25  H5  A78 d   1       3.873   5.871   8.887  0.00  0.00     0.074 H 
BRANCH  23  26
ATOM     26  C6  A78 d   1       5.886   5.581   9.529  0.00  0.00     0.052 A 
ATOM     27  C7  A78 d   1       6.406   5.723   8.242  0.00  0.00    -0.058 A 
ATOM     28  C9  A78 d   1       7.780   5.941   8.112  0.00  0.00    -0.080 A 
ATOM     29  H6  A78 d   1       5.764   5.666   7.370  0.00  0.00     0.086 H 
ATOM     30  C11 A78 d   1       8.573   5.997   9.264  0.00  0.00    -0.066 A 
ATOM     31  H7  A78 d   1       8.226   6.065   7.132  0.00  0.00     0.083 H 
ATOM     32  C10 A78 d   1       7.952   5.847  10.507  0.00  0.00     0.003 A 
ATOM     33  H9  A78 d   1       9.643   6.153   9.194  0.00  0.00     0.085 H 
ATOM     34  N8  A78 d   1       6.635   5.652  10.639  0.00  0.00    -0.264 NA
ATOM     35  H8  A78 d   1       8.563   5.891  11.401  0.00  0.00     0.114 H 
ENDBRANCH  23  26
ENDBRANCH  17  23
ENDBRANCH  12  14
BRANCH  12  36
ATOM     36  C26 A78 d   1       1.582   0.556  11.790  0.00  0.00    -0.033 C 
ATOM     37  H12 A78 d   1       1.777  -0.177  10.993  0.00  0.00     0.042 H 
BRANCH  36  38
ATOM     38  C27 A78 d   1       1.155  -0.239  13.031  0.00  0.00    -0.071 C 
ATOM     39  H13 A78 d   1       0.215  -0.771  12.820  0.00  0.00     0.028 H 
ATOM     40  H14 A78 d   1       1.005   0.451  13.875  0.00  0.00     0.028 H 
ATOM     41  H15 A78 d   1       1.938  -0.967  13.287  0.00  0.00     0.028 H 
ENDBRANCH  36  38
BRANCH  36  42
ATOM     42  C28 A78 d   1       0.417   1.447  11.306  0.00  0.00    -0.071 C 
ATOM     43  H16 A78 d   1       0.733   2.012  10.417  0.00  0.00     0.028 H 
ATOM     44  H17 A78 d   1       0.135   2.148  12.105  0.00  0.00     0.028 H 
ATOM     45  H18 A78 d   1      -0.447   0.815  11.051  0.00  0.00     0.028 H 
ENDBRANCH  36  42
ENDBRANCH  12  36
ENDBRANCH   9  12
ENDBRANCH   6   8
BRANCH   6  46
ATOM     46  C40 A78 d   1       7.438   0.969  13.419  0.00  0.00    -0.022 C 
ATOM     47  H21 A78 d   1       8.289   0.487  13.922  0.00  0.00     0.043 H 
ATOM     48  H22 A78 d   1       7.349   2.009  13.765  0.00  0.00     0.043 H 
BRANCH  46  49
ATOM     49  C41 A78 d   1       7.688   0.971  11.948  0.00  0.00    -0.056 A 
ATOM     50  C42 A78 d   1       7.246   2.035  11.156  0.00  0.00    -0.077 A 
ATOM     51  C43 A78 d   1       7.467   2.011   9.773  0.00  0.00    -0.082 A 
ATOM     52  H23 A78 d   1       6.734   2.876  11.611  0.00  0.00     0.084 H 
ATOM     53  C44 A78 d   1       8.123   0.932   9.194  0.00  0.00    -0.083 A 
ATOM     54  H24 A78 d   1       7.126   2.834   9.155  0.00  0.00     0.083 H 
ATOM     55  C45 A78 d   1       8.572  -0.125   9.997  0.00  0.00    -0.082 A 
ATOM     56  H25 A78 d   1       8.287   0.908   8.123  0.00  0.00     0.083 H 
ATOM     57  C46 A78 d   1       8.357  -0.111  11.379  0.00  0.00    -0.077 A 
ATOM     58  H26 A78 d   1       9.091  -0.961   9.543  0.00  0.00     0.083 H 
ATOM     59  H27 A78 d   1       8.706  -0.930  11.998  0.00  0.00     0.084 H 
ENDBRANCH  46  49
ENDBRANCH   6  46
ENDBRANCH   3   6
ENDBRANCH   1   3
BRANCH   1  60
ATOM     60  C51 A78 d   1       4.725  -1.934  15.616  0.00  0.00     0.041 C 
ATOM     61  H33 A78 d   1       4.723  -2.073  14.525  0.00  0.00     0.076 H 
BRANCH  60  62
ATOM     62  C52 A78 d   1       3.372  -2.422  16.165  0.00  0.00    -0.020 C 
ATOM     63  H34 A78 d   1       2.573  -1.892  15.626  0.00  0.00     0.043 H 
ATOM     64  H35 A78 d   1       3.325  -2.166  17.234  0.00  0.00     0.043 H 
BRANCH  62  65
ATOM     65  C53 A78 d   1       3.125  -3.907  16.027  0.00  0.00    -0.056 A 
ATOM     66  C54 A78 d   1       3.391  -4.776  17.098  0.00  0.00    -0.077 A 
ATOM     67  C55 A78 d   1       3.155  -6.150  16.955  0.00  0.00    -0.082 A 
ATOM     68  H36 A78 d   1       3.778  -4.385  18.032  0.00  0.00     0.084 H 
ATOM     69  C56 A78 d   1       2.656  -6.669  15.752  0.00  0.00    -0.083 A 
ATOM     70  H37 A78 d   1       3.360  -6.819  17.783  0.00  0.00     0.083 H 
ATOM     71  C57 A78 d   1       2.384  -5.809  14.686  0.00  0.00    -0.082 A 
ATOM     72  H38 A78 d   1       2.482  -7.734  15.650  0.00  0.00     0.083 H 
ATOM     73  C58 A78 d   1       2.619  -4.428  14.822  0.00  0.00    -0.077 A 
ATOM     74  H39 A78 d   1       1.993  -6.204  13.756  0.00  0.00     0.083 H 
ATOM     75  H40 A78 d   1       2.409  -3.762  13.993  0.00  0.00     0.084 H 
ENDBRANCH  62  65
ENDBRANCH  60  62
BRANCH  60  76
ATOM     76  N50 A78 d   1       5.812  -2.736  16.180  0.00  0.00    -0.352 N 
ATOM     77  C83 A78 d   1       6.451  -3.712  15.529  0.00  0.00     0.241 C 
ATOM     78  O84 A78 d   1       6.267  -3.961  14.350  0.00  0.00    -0.271 OA
ATOM     79  H32 A78 d   1       6.096  -2.539  17.118  0.00  0.00     0.163 HD
BRANCH  77  80
ATOM     80  C82 A78 d   1       7.476  -4.481  16.382  0.00  0.00     0.093 C 
ATOM     81  H42 A78 d   1       7.598  -3.941  17.333  0.00  0.00     0.088 H 
BRANCH  80  82
ATOM     82  N81 A78 d   1       7.053  -5.853  16.709  0.00  0.00    -0.329 N 
ATOM     83  C97 A78 d   1       6.929  -6.364  17.926  0.00  0.00     0.319 C 
ATOM     84  O98 A78 d   1       7.255  -5.760  18.936  0.00  0.00    -0.247 OA
ATOM     85  N99 A78 d   1       6.402  -7.611  17.999  0.00  0.00    -0.333 N 
ATOM     86  H41 A78 d   1       6.839  -6.456  15.941  0.00  0.00     0.165 HD
BRANCH  85  87
ATOM     87  C2  A78 d   1       6.012  -8.380  16.812  0.00  0.00    -0.014 C 
ATOM     88  H50 A78 d   1       5.613  -9.357  17.123  0.00  0.00     0.056 H 
ATOM     89  H51 A78 d   1       6.891  -8.531  16.168  0.00  0.00     0.056 H 
ATOM     90  H52 A78 d   1       5.240  -7.829  16.255  0.00  0.00     0.056 H 
ENDBRANCH  85  87
BRANCH  85  91
ATOM     91  C3  A78 d   1       6.142  -8.234  19.299  0.00  0.00     0.038 C 
ATOM     92  H53 A78 d   1       6.941  -7.944  19.998  0.00  0.00     0.074 H 
ATOM     93  H54 A78 d   1       6.143  -9.327  19.175  0.00  0.00     0.074 H 
BRANCH  91  94
ATOM     94  C8  A78 d   1       4.815  -7.811  19.875  0.00  0.00     0.052 A 
ATOM     95  C12 A78 d   1       3.714  -8.679  19.817  0.00  0.00    -0.058 A 
ATOM     96  C13 A78 d   1       2.500  -8.242  20.357  0.00  0.00    -0.080 A 
ATOM     97  H55 A78 d   1       3.802  -9.661  19.366  0.00  0.00     0.086 H 
ATOM     98  C15 A78 d   1       2.432  -6.969  20.932  0.00  0.00    -0.066 A 
ATOM     99  H56 A78 d   1       1.625  -8.881  20.330  0.00  0.00     0.083 H 
ATOM    100  C14 A78 d   1       3.592  -6.184  20.934  0.00  0.00     0.003 A 
ATOM    101  H58 A78 d   1       1.508  -6.601  21.364  0.00  0.00     0.085 H 
ATOM    102  N10 A78 d   1       4.767  -6.587  20.423  0.00  0.00    -0.264 NA
ATOM    103  H57 A78 d   1       3.538  -5.194  21.373  0.00  0.00     0.114 H 
ENDBRANCH  91  94
ENDBRANCH  85  91
ENDBRANCH  80  82
BRANCH  80 104
ATOM    104  C85 A78 d   1       8.822  -4.467  15.644  0.00  0.00    -0.033 C 
ATOM    105  H43 A78 d   1       8.693  -5.004  14.693  0.00  0.00     0.042 H 
BRANCH 104 106
ATOM    106  C86 A78 d   1       9.290  -3.027  15.325  0.00  0.00    -0.071 C 
ATOM    107  H44 A78 d   1      10.255  -3.063  14.798  0.00  0.00     0.028 H 
ATOM    108  H45 A78 d   1       9.405  -2.463  16.262  0.00  0.00     0.028 H 
ATOM    109  H46 A78 d   1       8.543  -2.531  14.688  0.00  0.00     0.028 H 
ENDBRANCH 104 106
BRANCH 104 110
ATOM    110  C87 A78 d   1       9.900  -5.191  16.469  0.00  0.00    -0.071 C 
ATOM    111  H47 A78 d   1       9.564  -6.214  16.694  0.00  0.00     0.028 H 
ATOM    112  H48 A78 d   1      10.070  -4.646  17.409  0.00  0.00     0.028 H 
ATOM    113  H49 A78 d   1      10.837  -5.231  15.894  0.00  0.00     0.028 H 
ENDBRANCH 104 110
ENDBRANCH  80 104
ENDBRANCH  77  80
ENDBRANCH  60  76
ENDBRANCH   1  60
BRANCH   1 114
ATOM    114  O48 A78 d   1       5.125  -0.265  17.302  0.00  0.00    -0.393 OA
ATOM    115  H30 A78 d   1       5.263   0.656  17.490  0.00  0.00     0.210 HD
ENDBRANCH   1 114
TORSDOF 26
