REMARK  27 active torsions:
REMARK  status: ('A' for Active; 'I' for Inactive)
REMARK       I    between atoms: C1_1  and  N3_3 
REMARK       I    between atoms: N21_12  and  C1_1 
REMARK    1  A    between atoms: N3_3  and  C4_4 
REMARK    2  A    between atoms: N3_3  and  C5_5 
REMARK    3  A    between atoms: C5_5  and  C6_6 
REMARK    4  A    between atoms: C22_13  and  N21_12 
REMARK    5  A    between atoms: C23_14  and  C22_13 
REMARK    6  A    between atoms: C22_13  and  C25_16 
REMARK       I    between atoms: N37_19  and  C23_14 
REMARK    7  A    between atoms: C25_16  and  C26_17 
REMARK    8  A    between atoms: C25_16  and  C27_18 
REMARK    9  A    between atoms: C38_20  and  N37_19 
REMARK   10  A    between atoms: C38_20  and  C39_21 
REMARK   11  A    between atoms: C46_28  and  C38_20 
REMARK   12  A    between atoms: C39_21  and  C40_22 
REMARK   13  A    between atoms: C46_28  and  O47_29 
REMARK   14  A    between atoms: C49_31  and  C46_28 
REMARK   15  A    between atoms: C49_31  and  O48_30 
REMARK   16  A    between atoms: C51_33  and  C49_31 
REMARK       I    between atoms: N50_32  and  C83_43 
REMARK   17  A    between atoms: C51_33  and  N50_32 
REMARK   18  A    between atoms: C51_33  and  C52_34 
REMARK   19  A    between atoms: C52_34  and  C53_35 
REMARK   20  A    between atoms: C82_42  and  N81_41 
REMARK       I    between atoms: N81_41  and  C97_48 
REMARK   21  A    between atoms: C83_43  and  C82_42 
REMARK   22  A    between atoms: C82_42  and  C85_45 
REMARK   23  A    between atoms: C85_45  and  C86_46 
REMARK   24  A    between atoms: C85_45  and  C87_47 
REMARK       I    between atoms: C97_48  and  N99_50 
REMARK   25  A    between atoms: N99_50  and  C2_51 
REMARK   26  A    between atoms: N99_50  and  C3_52 
REMARK   27  A    between atoms: C3_52  and  C8_53 
ROOT
ATOM      1  C46 A79 d   1       4.704   0.106  15.647  0.00  0.00     0.082 C 
ATOM      2  H28 A79 d   1       3.645  -0.185  15.589  0.00  0.00     0.090 H 
ENDROOT
BRANCH   1   3
ATOM      3  C38 A79 d   1       5.247   0.231  14.198  0.00  0.00     0.043 C 
ATOM      4  H20 A79 d   1       5.298  -0.786  13.783  0.00  0.00     0.077 H 
BRANCH   3   5
ATOM      5  N37 A79 d   1       4.287   1.003  13.374  0.00  0.00    -0.352 N 
ATOM      6  C23 A79 d   1       3.550   0.442  12.421  0.00  0.00     0.241 C 
ATOM      7  O24 A79 d   1       3.683  -0.723  12.084  0.00  0.00    -0.271 OA
ATOM      8  H19 A79 d   1       4.190   1.984  13.542  0.00  0.00     0.163 HD
BRANCH   6   9
ATOM      9  C22 A79 d   1       2.538   1.381  11.776  0.00  0.00     0.093 C 
ATOM     10  H11 A79 d   1       2.300   2.158  12.518  0.00  0.00     0.088 H 
BRANCH   9  11
ATOM     11  N21 A79 d   1       3.157   2.063  10.623  0.00  0.00    -0.329 N 
ATOM     12  C1  A79 d   1       3.442   3.364  10.664  0.00  0.00     0.319 C 
ATOM     13  O2  A79 d   1       3.103   4.065  11.606  0.00  0.00    -0.247 OA
ATOM     14  N3  A79 d   1       4.108   3.876   9.623  0.00  0.00    -0.333 N 
ATOM     15  H10 A79 d   1       3.366   1.540   9.797  0.00  0.00     0.165 HD
BRANCH  14  16
ATOM     16  C4  A79 d   1       4.659   3.034   8.566  0.00  0.00    -0.014 C 
ATOM     17  H1  A79 d   1       5.161   3.666   7.819  0.00  0.00     0.056 H 
ATOM     18  H2  A79 d   1       3.846   2.472   8.084  0.00  0.00     0.056 H 
ATOM     19  H3  A79 d   1       5.385   2.330   8.999  0.00  0.00     0.056 H 
ENDBRANCH  14  16
BRANCH  14  20
ATOM     20  C5  A79 d   1       4.376   5.322   9.613  0.00  0.00     0.038 C 
ATOM     21  H4  A79 d   1       3.688   5.806  10.322  0.00  0.00     0.074 H 
ATOM     22  H5  A79 d   1       4.184   5.702   8.599  0.00  0.00     0.074 H 
BRANCH  20  23
ATOM     23  C6  A79 d   1       5.786   5.690   9.997  0.00  0.00     0.052 A 
ATOM     24  C7  A79 d   1       6.687   6.018   8.994  0.00  0.00    -0.058 A 
ATOM     25  C9  A79 d   1       7.961   6.391   9.394  0.00  0.00    -0.080 A 
ATOM     26  H6  A79 d   1       6.408   5.984   7.947  0.00  0.00     0.086 H 
ATOM     27  C11 A79 d   1       8.287   6.420  10.747  0.00  0.00    -0.066 A 
ATOM     28  H7  A79 d   1       8.704   6.660   8.652  0.00  0.00     0.083 H 
ATOM     29  C10 A79 d   1       7.314   6.070  11.663  0.00  0.00     0.003 A 
ATOM     30  H9  A79 d   1       9.279   6.710  11.073  0.00  0.00     0.085 H 
ATOM     31  N8  A79 d   1       6.094   5.711  11.294  0.00  0.00    -0.264 NA
ATOM     32  H8  A79 d   1       7.557   6.090  12.719  0.00  0.00     0.114 H 
ENDBRANCH  20  23
ENDBRANCH  14  20
ENDBRANCH   9  11
BRANCH   9  33
ATOM     33  C25 A79 d   1       1.189   0.675  11.432  0.00  0.00    -0.033 C 
ATOM     34  H12 A79 d   1       1.423  -0.153  10.746  0.00  0.00     0.042 H 
BRANCH  33  35
ATOM     35  C26 A79 d   1       0.190   1.610  10.709  0.00  0.00    -0.071 C 
ATOM     36  H13 A79 d   1      -0.738   1.059  10.493  0.00  0.00     0.028 H 
ATOM     37  H14 A79 d   1       0.634   1.963   9.767  0.00  0.00     0.028 H 
ATOM     38  H15 A79 d   1      -0.037   2.472  11.353  0.00  0.00     0.028 H 
ENDBRANCH  33  35
BRANCH  33  39
ATOM     39  C27 A79 d   1       0.529   0.077  12.675  0.00  0.00    -0.071 C 
ATOM     40  H16 A79 d   1       1.242  -0.587  13.186  0.00  0.00     0.028 H 
ATOM     41  H17 A79 d   1      -0.359  -0.499  12.377  0.00  0.00     0.028 H 
ATOM     42  H18 A79 d   1       0.229   0.887  13.357  0.00  0.00     0.028 H 
ENDBRANCH  33  39
ENDBRANCH   9  33
ENDBRANCH   6   9
ENDBRANCH   3   5
BRANCH   3  43
ATOM     43  C39 A79 d   1       6.659   0.814  14.110  0.00  0.00    -0.020 C 
ATOM     44  H21 A79 d   1       7.341   0.155  14.667  0.00  0.00     0.043 H 
ATOM     45  H22 A79 d   1       6.652   1.811  14.575  0.00  0.00     0.043 H 
BRANCH  43  46
ATOM     46  C40 A79 d   1       7.175   0.951  12.706  0.00  0.00    -0.056 A 
ATOM     47  C41 A79 d   1       7.699  -0.170  12.045  0.00  0.00    -0.077 A 
ATOM     48  C42 A79 d   1       8.181  -0.036  10.738  0.00  0.00    -0.082 A 
ATOM     49  H23 A79 d   1       7.730  -1.133  12.543  0.00  0.00     0.084 H 
ATOM     50  C43 A79 d   1       8.125   1.207  10.094  0.00  0.00    -0.083 A 
ATOM     51  H24 A79 d   1       8.598  -0.894  10.224  0.00  0.00     0.083 H 
ATOM     52  C44 A79 d   1       7.602   2.323  10.753  0.00  0.00    -0.082 A 
ATOM     53  H25 A79 d   1       8.490   1.304   9.078  0.00  0.00     0.083 H 
ATOM     54  C45 A79 d   1       7.127   2.198  12.064  0.00  0.00    -0.077 A 
ATOM     55  H26 A79 d   1       7.564   3.283  10.250  0.00  0.00     0.083 H 
ATOM     56  H27 A79 d   1       6.724   3.061  12.581  0.00  0.00     0.084 H 
ENDBRANCH  43  46
ENDBRANCH   3  43
ENDBRANCH   1   3
BRANCH   1  57
ATOM     57  O47 A79 d   1       4.772   1.393  16.223  0.00  0.00    -0.391 OA
ATOM     58  H29 A79 d   1       4.447   1.357  17.115  0.00  0.00     0.210 HD
ENDBRANCH   1  57
BRANCH   1  59
ATOM     59  C49 A79 d   1       5.411  -0.969  16.471  0.00  0.00     0.082 C 
ATOM     60  H31 A79 d   1       6.485  -0.920  16.239  0.00  0.00     0.090 H 
BRANCH  59  61
ATOM     61  C51 A79 d   1       4.884  -2.366  16.108  0.00  0.00     0.043 C 
ATOM     62  H33 A79 d   1       4.816  -2.413  15.011  0.00  0.00     0.077 H 
BRANCH  61  63
ATOM     63  C52 A79 d   1       3.490  -2.702  16.659  0.00  0.00    -0.020 C 
ATOM     64  H34 A79 d   1       2.754  -2.022  16.206  0.00  0.00     0.043 H 
ATOM     65  H35 A79 d   1       3.495  -2.563  17.750  0.00  0.00     0.043 H 
BRANCH  63  66
ATOM     66  C53 A79 d   1       3.097  -4.124  16.349  0.00  0.00    -0.056 A 
ATOM     67  C54 A79 d   1       2.555  -4.439  15.098  0.00  0.00    -0.077 A 
ATOM     68  C55 A79 d   1       2.268  -5.777  14.777  0.00  0.00    -0.082 A 
ATOM     69  H36 A79 d   1       2.357  -3.653  14.378  0.00  0.00     0.084 H 
ATOM     70  C56 A79 d   1       2.524  -6.794  15.704  0.00  0.00    -0.083 A 
ATOM     71  H37 A79 d   1       1.847  -6.022  13.809  0.00  0.00     0.083 H 
ATOM     72  C57 A79 d   1       3.048  -6.483  16.961  0.00  0.00    -0.082 A 
ATOM     73  H38 A79 d   1       2.315  -7.826  15.446  0.00  0.00     0.083 H 
ATOM     74  C58 A79 d   1       3.332  -5.153  17.293  0.00  0.00    -0.077 A 
ATOM     75  H39 A79 d   1       3.235  -7.272  17.680  0.00  0.00     0.083 H 
ATOM     76  H40 A79 d   1       3.731  -4.911  18.271  0.00  0.00     0.084 H 
ENDBRANCH  63  66
ENDBRANCH  61  63
BRANCH  61  77
ATOM     77  N50 A79 d   1       5.848  -3.362  16.546  0.00  0.00    -0.352 N 
ATOM     78  C83 A79 d   1       6.629  -4.056  15.726  0.00  0.00     0.241 C 
ATOM     79  O84 A79 d   1       6.558  -3.989  14.512  0.00  0.00    -0.271 OA
ATOM     80  H32 A79 d   1       5.928  -3.536  17.527  0.00  0.00     0.163 HD
BRANCH  78  81
ATOM     81  C82 A79 d   1       7.637  -4.915  16.465  0.00  0.00     0.093 C 
ATOM     82  H42 A79 d   1       7.859  -4.390  17.406  0.00  0.00     0.088 H 
BRANCH  81  83
ATOM     83  N81 A79 d   1       7.096  -6.218  16.845  0.00  0.00    -0.329 N 
ATOM     84  C97 A79 d   1       6.898  -6.625  18.101  0.00  0.00     0.319 C 
ATOM     85  O98 A79 d   1       7.217  -5.932  19.059  0.00  0.00    -0.247 OA
ATOM     86  N99 A79 d   1       6.322  -7.851  18.248  0.00  0.00    -0.333 N 
ATOM     87  H41 A79 d   1       6.856  -6.852  16.110  0.00  0.00     0.165 HD
BRANCH  86  88
ATOM     88  C2  A79 d   1       5.868  -8.636  17.097  0.00  0.00    -0.014 C 
ATOM     89  H50 A79 d   1       5.438  -9.586  17.448  0.00  0.00     0.056 H 
ATOM     90  H51 A79 d   1       6.721  -8.842  16.434  0.00  0.00     0.056 H 
ATOM     91  H52 A79 d   1       5.104  -8.069  16.545  0.00  0.00     0.056 H 
ENDBRANCH  86  88
BRANCH  86  92
ATOM     92  C3  A79 d   1       6.017  -8.388  19.577  0.00  0.00     0.038 C 
ATOM     93  H53 A79 d   1       6.781  -8.035  20.285  0.00  0.00     0.074 H 
ATOM     94  H54 A79 d   1       6.042  -9.487  19.529  0.00  0.00     0.074 H 
BRANCH  92  95
ATOM     95  C8  A79 d   1       4.653  -7.953  20.075  0.00  0.00     0.052 A 
ATOM     96  C12 A79 d   1       3.550  -8.805  19.928  0.00  0.00    -0.058 A 
ATOM     97  C13 A79 d   1       2.301  -8.377  20.393  0.00  0.00    -0.080 A 
ATOM     98  H55 A79 d   1       3.662  -9.778  19.463  0.00  0.00     0.086 H 
ATOM     99  C15 A79 d   1       2.207  -7.125  20.990  0.00  0.00    -0.066 A 
ATOM    100  H56 A79 d   1       1.426  -9.008  20.290  0.00  0.00     0.083 H 
ATOM    101  C14 A79 d   1       3.366  -6.345  21.090  0.00  0.00     0.003 A 
ATOM    102  H58 A79 d   1       1.259  -6.761  21.369  0.00  0.00     0.085 H 
ATOM    103  N10 A79 d   1       4.573  -6.742  20.648  0.00  0.00    -0.264 NA
ATOM    104  H57 A79 d   1       3.286  -5.366  21.549  0.00  0.00     0.114 H 
ENDBRANCH  92  95
ENDBRANCH  86  92
ENDBRANCH  81  83
BRANCH  81 105
ATOM    105  C85 A79 d   1       8.960  -5.019  15.710  0.00  0.00    -0.033 C 
ATOM    106  H43 A79 d   1       8.786  -5.516  14.744  0.00  0.00     0.042 H 
BRANCH 105 107
ATOM    107  C86 A79 d   1       9.927  -5.868  16.551  0.00  0.00    -0.071 C 
ATOM    108  H44 A79 d   1      10.889  -5.957  16.025  0.00  0.00     0.028 H 
ATOM    109  H45 A79 d   1       9.498  -6.870  16.703  0.00  0.00     0.028 H 
ATOM    110  H46 A79 d   1      10.085  -5.385  17.527  0.00  0.00     0.028 H 
ENDBRANCH 105 107
BRANCH 105 111
ATOM    111  C87 A79 d   1       9.556  -3.628  15.447  0.00  0.00    -0.071 C 
ATOM    112  H47 A79 d   1       8.852  -3.035  14.845  0.00  0.00     0.028 H 
ATOM    113  H48 A79 d   1      10.506  -3.733  14.902  0.00  0.00     0.028 H 
ATOM    114  H49 A79 d   1       9.737  -3.119  16.405  0.00  0.00     0.028 H 
ENDBRANCH 105 111
ENDBRANCH  81 105
ENDBRANCH  78  81
ENDBRANCH  61  77
ENDBRANCH  59  61
BRANCH  59 115
ATOM    115  O48 A79 d   1       5.245  -0.800  17.860  0.00  0.00    -0.391 OA
ATOM    116  H30 A79 d   1       5.564   0.058  18.114  0.00  0.00     0.210 HD
ENDBRANCH  59 115
ENDBRANCH   1  59
TORSDOF 27
