REMARK  27 active torsions:
REMARK  status: ('A' for Active; 'I' for Inactive)
REMARK       I    between atoms: C1_1  and  N3_3 
REMARK       I    between atoms: N21_12  and  C1_1 
REMARK    1  A    between atoms: N3_3  and  C4_4 
REMARK    2  A    between atoms: N3_3  and  C5_5 
REMARK    3  A    between atoms: C5_5  and  C6_6 
REMARK    4  A    between atoms: C22_13  and  N21_12 
REMARK    5  A    between atoms: C23_14  and  C22_13 
REMARK    6  A    between atoms: C22_13  and  C25_16 
REMARK       I    between atoms: N37_19  and  C23_14 
REMARK    7  A    between atoms: C25_16  and  C26_17 
REMARK    8  A    between atoms: C25_16  and  C27_18 
REMARK    9  A    between atoms: C38_20  and  N37_19 
REMARK   10  A    between atoms: C38_20  and  C39_21 
REMARK   11  A    between atoms: C46_28  and  C38_20 
REMARK   12  A    between atoms: C39_21  and  C40_22 
REMARK   13  A    between atoms: C46_28  and  O47_29 
REMARK   14  A    between atoms: C49_31  and  C46_28 
REMARK   15  A    between atoms: C49_31  and  O48_30 
REMARK   16  A    between atoms: C51_33  and  C49_31 
REMARK       I    between atoms: N50_32  and  C83_43 
REMARK   17  A    between atoms: C51_33  and  N50_32 
REMARK   18  A    between atoms: C51_33  and  C52_34 
REMARK   19  A    between atoms: C52_34  and  C53_35 
REMARK   20  A    between atoms: C82_42  and  N81_41 
REMARK       I    between atoms: N81_41  and  C97_48 
REMARK   21  A    between atoms: C83_43  and  C82_42 
REMARK   22  A    between atoms: C82_42  and  C85_45 
REMARK   23  A    between atoms: C85_45  and  C86_46 
REMARK   24  A    between atoms: C85_45  and  C87_47 
REMARK       I    between atoms: C97_48  and  N99_50 
REMARK   25  A    between atoms: N99_50  and  C2_51 
REMARK   26  A    between atoms: N99_50  and  C3_52 
REMARK   27  A    between atoms: C3_52  and  C8_53 
ROOT
ATOM      1  C46 A76 d   1       5.769  -0.185  15.504  0.00  0.00     0.082 C 
ATOM      2  H28 A76 d   1       6.654  -0.724  15.873  0.00  0.00     0.090 H 
ENDROOT
BRANCH   1   3
ATOM      3  C38 A76 d   1       5.863  -0.078  13.997  0.00  0.00     0.043 C 
ATOM      4  H20 A76 d   1       5.910  -1.085  13.556  0.00  0.00     0.077 H 
BRANCH   3   5
ATOM      5  N37 A76 d   1       4.695   0.640  13.402  0.00  0.00    -0.352 N 
ATOM      6  C23 A76 d   1       3.843   0.172  12.474  0.00  0.00     0.241 C 
ATOM      7  O24 A76 d   1       3.935  -0.949  12.014  0.00  0.00    -0.271 OA
ATOM      8  H19 A76 d   1       4.529   1.570  13.730  0.00  0.00     0.163 HD
BRANCH   6   9
ATOM      9  C22 A76 d   1       2.734   1.160  12.022  0.00  0.00     0.093 C 
ATOM     10  H11 A76 d   1       2.602   1.897  12.828  0.00  0.00     0.088 H 
BRANCH   9  11
ATOM     11  N21 A76 d   1       3.163   1.895  10.804  0.00  0.00    -0.329 N 
ATOM     12  C1  A76 d   1       3.375   3.213  10.802  0.00  0.00     0.319 C 
ATOM     13  O2  A76 d   1       3.089   3.915  11.751  0.00  0.00    -0.247 OA
ATOM     14  N3  A76 d   1       3.922   3.749   9.700  0.00  0.00    -0.333 N 
ATOM     15  H10 A76 d   1       3.298   1.384   9.955  0.00  0.00     0.165 HD
BRANCH  14  16
ATOM     16  C4  A76 d   1       4.273   2.946   8.525  0.00  0.00    -0.014 C 
ATOM     17  H1  A76 d   1       4.704   3.598   7.751  0.00  0.00     0.056 H 
ATOM     18  H2  A76 d   1       3.369   2.457   8.132  0.00  0.00     0.056 H 
ATOM     19  H3  A76 d   1       5.009   2.180   8.811  0.00  0.00     0.056 H 
ENDBRANCH  14  16
BRANCH  14  20
ATOM     20  C5  A76 d   1       4.261   5.173   9.727  0.00  0.00     0.038 C 
ATOM     21  H4  A76 d   1       3.710   5.642  10.556  0.00  0.00     0.074 H 
ATOM     22  H5  A76 d   1       3.941   5.620   8.774  0.00  0.00     0.074 H 
BRANCH  20  23
ATOM     23  C6  A76 d   1       5.735   5.464   9.915  0.00  0.00     0.052 A 
ATOM     24  C7  A76 d   1       6.514   5.719   8.793  0.00  0.00    -0.058 A 
ATOM     25  C9  A76 d   1       7.833   6.103   9.005  0.00  0.00    -0.080 A 
ATOM     26  H6  A76 d   1       6.109   5.622   7.792  0.00  0.00     0.086 H 
ATOM     27  C11 A76 d   1       8.316   6.223  10.310  0.00  0.00    -0.066 A 
ATOM     28  H7  A76 d   1       8.483   6.308   8.162  0.00  0.00     0.083 H 
ATOM     29  C10 A76 d   1       7.461   5.925  11.358  0.00  0.00     0.003 A 
ATOM     30  H9  A76 d   1       9.335   6.542  10.498  0.00  0.00     0.085 H 
ATOM     31  N8  A76 d   1       6.205   5.548  11.155  0.00  0.00    -0.264 NA
ATOM     32  H8  A76 d   1       7.829   6.002  12.375  0.00  0.00     0.114 H 
ENDBRANCH  20  23
ENDBRANCH  14  20
ENDBRANCH   9  11
BRANCH   9  33
ATOM     33  C25 A76 d   1       1.353   0.459  11.805  0.00  0.00    -0.033 C 
ATOM     34  H12 A76 d   1       1.499  -0.279  11.002  0.00  0.00     0.042 H 
BRANCH  33  35
ATOM     35  C26 A76 d   1       0.259   1.437  11.339  0.00  0.00    -0.071 C 
ATOM     36  H13 A76 d   1      -0.687   0.892  11.203  0.00  0.00     0.028 H 
ATOM     37  H14 A76 d   1       0.559   1.895  10.385  0.00  0.00     0.028 H 
ATOM     38  H15 A76 d   1       0.123   2.223  12.096  0.00  0.00     0.028 H 
ENDBRANCH  33  35
BRANCH  33  39
ATOM     39  C27 A76 d   1       0.854  -0.302  13.035  0.00  0.00    -0.071 C 
ATOM     40  H16 A76 d   1       1.632  -1.003  13.373  0.00  0.00     0.028 H 
ATOM     41  H17 A76 d   1      -0.056  -0.862  12.775  0.00  0.00     0.028 H 
ATOM     42  H18 A76 d   1       0.628   0.412  13.841  0.00  0.00     0.028 H 
ENDBRANCH  33  39
ENDBRANCH   9  33
ENDBRANCH   6   9
ENDBRANCH   3   5
BRANCH   3  43
ATOM     43  C39 A76 d   1       7.180   0.663  13.741  0.00  0.00    -0.020 C 
ATOM     44  H21 A76 d   1       7.999   0.099  14.212  0.00  0.00     0.043 H 
ATOM     45  H22 A76 d   1       7.115   1.663  14.195  0.00  0.00     0.043 H 
BRANCH  43  46
ATOM     46  C40 A76 d   1       7.477   0.815  12.301  0.00  0.00    -0.056 A 
ATOM     47  C41 A76 d   1       7.952  -0.281  11.595  0.00  0.00    -0.077 A 
ATOM     48  C42 A76 d   1       8.217  -0.147  10.250  0.00  0.00    -0.082 A 
ATOM     49  H23 A76 d   1       8.112  -1.229  12.095  0.00  0.00     0.084 H 
ATOM     50  C43 A76 d   1       8.000   1.075   9.607  0.00  0.00    -0.083 A 
ATOM     51  H24 A76 d   1       8.595  -0.993   9.688  0.00  0.00     0.083 H 
ATOM     52  C44 A76 d   1       7.543   2.168  10.326  0.00  0.00    -0.082 A 
ATOM     53  H25 A76 d   1       8.190   1.168   8.544  0.00  0.00     0.083 H 
ATOM     54  C45 A76 d   1       7.277   2.043  11.678  0.00  0.00    -0.077 A 
ATOM     55  H26 A76 d   1       7.394   3.120   9.830  0.00  0.00     0.083 H 
ATOM     56  H27 A76 d   1       6.917   2.893  12.246  0.00  0.00     0.084 H 
ENDBRANCH  43  46
ENDBRANCH   3  43
ENDBRANCH   1   3
BRANCH   1  57
ATOM     57  O47 A76 d   1       5.757   1.159  15.977  0.00  0.00    -0.391 OA
ATOM     58  H29 A76 d   1       5.699   1.159  16.925  0.00  0.00     0.210 HD
ENDBRANCH   1  57
BRANCH   1  59
ATOM     59  C49 A76 d   1       4.541  -0.835  16.081  0.00  0.00     0.082 C 
ATOM     60  H31 A76 d   1       3.651  -0.275  15.758  0.00  0.00     0.090 H 
BRANCH  59  61
ATOM     61  C51 A76 d   1       4.369  -2.286  15.675  0.00  0.00     0.043 C 
ATOM     62  H33 A76 d   1       4.365  -2.349  14.577  0.00  0.00     0.077 H 
BRANCH  61  63
ATOM     63  C52 A76 d   1       3.049  -2.825  16.211  0.00  0.00    -0.020 C 
ATOM     64  H34 A76 d   1       2.226  -2.283  15.723  0.00  0.00     0.043 H 
ATOM     65  H35 A76 d   1       3.013  -2.646  17.296  0.00  0.00     0.043 H 
BRANCH  63  66
ATOM     66  C53 A76 d   1       2.864  -4.307  15.961  0.00  0.00    -0.056 A 
ATOM     67  C54 A76 d   1       2.408  -4.750  14.712  0.00  0.00    -0.077 A 
ATOM     68  C55 A76 d   1       2.244  -6.121  14.476  0.00  0.00    -0.082 A 
ATOM     69  H36 A76 d   1       2.183  -4.033  13.930  0.00  0.00     0.084 H 
ATOM     70  C56 A76 d   1       2.540  -7.046  15.481  0.00  0.00    -0.083 A 
ATOM     71  H37 A76 d   1       1.887  -6.465  13.512  0.00  0.00     0.083 H 
ATOM     72  C57 A76 d   1       2.992  -6.608  16.727  0.00  0.00    -0.082 A 
ATOM     73  H38 A76 d   1       2.418  -8.107  15.292  0.00  0.00     0.083 H 
ATOM     74  C58 A76 d   1       3.157  -5.246  16.973  0.00  0.00    -0.077 A 
ATOM     75  H39 A76 d   1       3.215  -7.329  17.505  0.00  0.00     0.083 H 
ATOM     76  H40 A76 d   1       3.510  -4.908  17.941  0.00  0.00     0.084 H 
ENDBRANCH  63  66
ENDBRANCH  61  63
BRANCH  61  77
ATOM     77  N50 A76 d   1       5.466  -3.100  16.195  0.00  0.00    -0.352 N 
ATOM     78  C83 A76 d   1       6.268  -3.878  15.465  0.00  0.00     0.241 C 
ATOM     79  O84 A76 d   1       6.176  -3.942  14.259  0.00  0.00    -0.271 OA
ATOM     80  H32 A76 d   1       5.630  -3.072  17.181  0.00  0.00     0.163 HD
BRANCH  78  81
ATOM     81  C82 A76 d   1       7.361  -4.632  16.266  0.00  0.00     0.093 C 
ATOM     82  H42 A76 d   1       7.510  -4.077  17.204  0.00  0.00     0.088 H 
BRANCH  81  83
ATOM     83  N81 A76 d   1       6.948  -5.990  16.646  0.00  0.00    -0.329 N 
ATOM     84  C97 A76 d   1       6.797  -6.405  17.902  0.00  0.00     0.319 C 
ATOM     85  O98 A76 d   1       7.087  -5.712  18.868  0.00  0.00    -0.247 OA
ATOM     86  N99 A76 d   1       6.311  -7.660  18.056  0.00  0.00    -0.333 N 
ATOM     87  H41 A76 d   1       6.769  -6.646  15.913  0.00  0.00     0.165 HD
BRANCH  86  88
ATOM     88  C2  A76 d   1       5.891  -8.506  16.934  0.00  0.00    -0.014 C 
ATOM     89  H50 A76 d   1       5.536  -9.474  17.317  0.00  0.00     0.056 H 
ATOM     90  H51 A76 d   1       6.744  -8.670  16.259  0.00  0.00     0.056 H 
ATOM     91  H52 A76 d   1       5.078  -8.009  16.384  0.00  0.00     0.056 H 
ENDBRANCH  86  88
BRANCH  86  92
ATOM     92  C3  A76 d   1       6.095  -8.158  19.423  0.00  0.00     0.038 C 
ATOM     93  H53 A76 d   1       6.825  -7.683  20.095  0.00  0.00     0.074 H 
ATOM     94  H54 A76 d   1       6.243  -9.248  19.433  0.00  0.00     0.074 H 
BRANCH  92  95
ATOM     95  C8  A76 d   1       4.700  -7.849  19.918  0.00  0.00     0.052 A 
ATOM     96  C12 A76 d   1       3.663  -8.755  19.654  0.00  0.00    -0.058 A 
ATOM     97  C13 A76 d   1       2.378  -8.441  20.092  0.00  0.00    -0.080 A 
ATOM     98  H55 A76 d   1       3.857  -9.679  19.121  0.00  0.00     0.086 H 
ATOM     99  C15 A76 d   1       2.179  -7.234  20.765  0.00  0.00    -0.066 A 
ATOM    100  H56 A76 d   1       1.551  -9.119  19.914  0.00  0.00     0.083 H 
ATOM    101  C14 A76 d   1       3.280  -6.395  20.982  0.00  0.00     0.003 A 
ATOM    102  H58 A76 d   1       1.192  -6.952  21.113  0.00  0.00     0.085 H 
ATOM    103  N10 A76 d   1       4.524  -6.694  20.577  0.00  0.00    -0.264 NA
ATOM    104  H57 A76 d   1       3.119  -5.458  21.503  0.00  0.00     0.114 H 
ENDBRANCH  92  95
ENDBRANCH  86  92
ENDBRANCH  81  83
BRANCH  81 105
ATOM    105  C85 A76 d   1       8.711  -4.608  15.510  0.00  0.00    -0.033 C 
ATOM    106  H43 A76 d   1       8.553  -5.040  14.511  0.00  0.00     0.042 H 
BRANCH 105 107
ATOM    107  C86 A76 d   1       9.769  -5.434  16.235  0.00  0.00    -0.071 C 
ATOM    108  H44 A76 d   1      10.713  -5.396  15.672  0.00  0.00     0.028 H 
ATOM    109  H45 A76 d   1       9.430  -6.478  16.312  0.00  0.00     0.028 H 
ATOM    110  H46 A76 d   1       9.926  -5.024  17.244  0.00  0.00     0.028 H 
ENDBRANCH 105 107
BRANCH 105 111
ATOM    111  C87 A76 d   1       9.226  -3.170  15.347  0.00  0.00    -0.071 C 
ATOM    112  H47 A76 d   1       8.469  -2.567  14.825  0.00  0.00     0.028 H 
ATOM    113  H48 A76 d   1      10.157  -3.178  14.761  0.00  0.00     0.028 H 
ATOM    114  H49 A76 d   1       9.421  -2.736  16.339  0.00  0.00     0.028 H 
ENDBRANCH 105 111
ENDBRANCH  81 105
ENDBRANCH  78  81
ENDBRANCH  61  77
ENDBRANCH  59  61
BRANCH  59 115
ATOM    115  O48 A76 d   1       4.681  -0.754  17.502  0.00  0.00    -0.391 OA
ATOM    116  H30 A76 d   1       4.789   0.155  17.757  0.00  0.00     0.210 HD
ENDBRANCH  59 115
ENDBRANCH   1  59
TORSDOF 27
