REMARK  10 active torsions:
REMARK  status: ('A' for Active; 'I' for Inactive)
REMARK    1  A    between atoms: N2_3  and  C2_4 
REMARK    2  A    between atoms: C2_4  and  C20_13 
REMARK    3  A    between atoms: C3_5  and  C31_23 
REMARK    4  A    between atoms: C4_6  and  O4_7 
REMARK    5  A    between atoms: C5_8  and  O5_9 
REMARK    6  A    between atoms: C6_10  and  C61_30 
REMARK    7  A    between atoms: N7_11  and  C7_12 
REMARK    8  A    between atoms: C7_12  and  C70_37 
REMARK    9  A    between atoms: C31_23  and  C32_24 
REMARK   10  A    between atoms: C61_30  and  C62_31 
ROOT
ATOM      1  C1  XK2 d   1      -8.611  15.060  27.954  0.00  0.00     0.322 C 
ATOM      2  O1  XK2 d   1      -7.939  14.039  27.941  0.00  0.00    -0.247 OA
ATOM      3  N2  XK2 d   1      -8.461  15.923  26.905  0.00  0.00    -0.322 N 
ATOM      4  C3  XK2 d   1      -8.627  17.388  27.011  0.00  0.00     0.047 C 
ATOM      5  C4  XK2 d   1     -10.029  17.910  27.298  0.00  0.00     0.082 C 
ATOM      6  C5  XK2 d   1     -10.461  17.645  28.733  0.00  0.00     0.082 C 
ATOM      7  C6  XK2 d   1     -10.657  16.152  28.964  0.00  0.00     0.047 C 
ATOM      8  N7  XK2 d   1      -9.461  15.294  29.004  0.00  0.00    -0.322 N 
ATOM      9  H3  XK2 d   1      -8.421  17.764  25.998  0.00  0.00     0.077 H 
ATOM     10  H4  XK2 d   1     -10.756  17.430  26.627  0.00  0.00     0.090 H 
ATOM     11  H6  XK2 d   1      -9.688  18.031  29.414  0.00  0.00     0.090 H 
ATOM     12  H8  XK2 d   1     -11.066  16.109  29.984  0.00  0.00     0.077 H 
ENDROOT
BRANCH   3  13
ATOM     13  C2  XK2 d   1      -7.854  15.351  25.696  0.00  0.00     0.024 C 
ATOM     14  H1  XK2 d   1      -7.949  14.258  25.780  0.00  0.00     0.071 H 
ATOM     15  H2  XK2 d   1      -6.790  15.629  25.713  0.00  0.00     0.071 H 
BRANCH  13  16
ATOM     16  C20 XK2 d   1      -8.381  15.730  24.336  0.00  0.00    -0.039 A 
ATOM     17  C21 XK2 d   1      -9.769  15.712  24.022  0.00  0.00    -0.074 A 
ATOM     18  C22 XK2 d   1     -10.195  15.919  22.694  0.00  0.00    -0.072 A 
ATOM     19  H11 XK2 d   1     -10.499  15.539  24.804  0.00  0.00     0.084 H 
ATOM     20  C23 XK2 d   1      -9.219  16.152  21.693  0.00  0.00    -0.026 A 
ATOM     21  H12 XK2 d   1     -11.249  15.900  22.443  0.00  0.00     0.084 H 
ATOM     22  C24 XK2 d   1      -9.608  16.304  20.349  0.00  0.00    -0.072 A 
ATOM     23  C28 XK2 d   1      -7.828  16.192  22.022  0.00  0.00    -0.025 A 
ATOM     24  C25 XK2 d   1      -8.626  16.508  19.349  0.00  0.00    -0.082 A 
ATOM     25  H13 XK2 d   1     -10.657  16.265  20.080  0.00  0.00     0.084 H 
ATOM     26  C26 XK2 d   1      -7.263  16.562  19.662  0.00  0.00    -0.082 A 
ATOM     27  H14 XK2 d   1      -8.937  16.625  18.317  0.00  0.00     0.083 H 
ATOM     28  C27 XK2 d   1      -6.860  16.403  21.006  0.00  0.00    -0.072 A 
ATOM     29  H15 XK2 d   1      -6.527  16.724  18.883  0.00  0.00     0.083 H 
ATOM     30  H16 XK2 d   1      -5.808  16.442  21.262  0.00  0.00     0.084 H 
ATOM     31  C29 XK2 d   1      -7.408  15.983  23.346  0.00  0.00    -0.065 A 
ATOM     32  H17 XK2 d   1      -6.355  16.015  23.603  0.00  0.00     0.085 H 
ENDBRANCH  13  16
ENDBRANCH   3  13
BRANCH   4  33
ATOM     33  C31 XK2 d   1      -7.476  17.972  27.894  0.00  0.00    -0.019 C 
ATOM     34  H18 XK2 d   1      -7.425  17.402  28.834  0.00  0.00     0.043 H 
ATOM     35  H19 XK2 d   1      -7.698  19.026  28.116  0.00  0.00     0.043 H 
BRANCH  33  36
ATOM     36  C32 XK2 d   1      -6.124  17.890  27.193  0.00  0.00    -0.056 A 
ATOM     37  C33 XK2 d   1      -5.226  16.826  27.494  0.00  0.00    -0.077 A 
ATOM     38  C34 XK2 d   1      -4.029  16.667  26.750  0.00  0.00    -0.082 A 
ATOM     39  H20 XK2 d   1      -5.459  16.134  28.296  0.00  0.00     0.084 H 
ATOM     40  C35 XK2 d   1      -3.730  17.585  25.723  0.00  0.00    -0.083 A 
ATOM     41  H21 XK2 d   1      -3.352  15.849  26.969  0.00  0.00     0.083 H 
ATOM     42  C36 XK2 d   1      -4.607  18.660  25.432  0.00  0.00    -0.082 A 
ATOM     43  H22 XK2 d   1      -2.818  17.468  25.149  0.00  0.00     0.083 H 
ATOM     44  C37 XK2 d   1      -5.803  18.811  26.163  0.00  0.00    -0.077 A 
ATOM     45  H23 XK2 d   1      -4.358  19.366  24.648  0.00  0.00     0.083 H 
ATOM     46  H24 XK2 d   1      -6.477  19.630  25.938  0.00  0.00     0.084 H 
ENDBRANCH  33  36
ENDBRANCH   4  33
BRANCH   8  47
ATOM     47  C7  XK2 d   1      -9.271  14.491  30.215  0.00  0.00     0.024 C 
ATOM     48  H9  XK2 d   1      -8.266  14.049  30.150  0.00  0.00     0.071 H 
ATOM     49  H10 XK2 d   1     -10.026  13.691  30.190  0.00  0.00     0.071 H 
BRANCH  47  50
ATOM     50  C70 XK2 d   1      -9.374  15.148  31.571  0.00  0.00    -0.039 A 
ATOM     51  C71 XK2 d   1     -10.228  14.492  32.477  0.00  0.00    -0.065 A 
ATOM     52  C72 XK2 d   1     -10.272  14.926  33.800  0.00  0.00    -0.025 A 
ATOM     53  H32 XK2 d   1     -10.843  13.661  32.150  0.00  0.00     0.085 H 
ATOM     54  C73 XK2 d   1     -11.156  14.282  34.709  0.00  0.00    -0.072 A 
ATOM     55  C77 XK2 d   1      -9.455  16.028  34.212  0.00  0.00    -0.026 A 
ATOM     56  C74 XK2 d   1     -11.245  14.748  36.044  0.00  0.00    -0.082 A 
ATOM     57  H33 XK2 d   1     -11.757  13.441  34.383  0.00  0.00     0.084 H 
ATOM     58  C75 XK2 d   1     -10.435  15.837  36.451  0.00  0.00    -0.082 A 
ATOM     59  H34 XK2 d   1     -11.924  14.277  36.745  0.00  0.00     0.083 H 
ATOM     60  C76 XK2 d   1      -9.540  16.475  35.553  0.00  0.00    -0.072 A 
ATOM     61  H35 XK2 d   1     -10.501  16.192  37.473  0.00  0.00     0.083 H 
ATOM     62  H36 XK2 d   1      -8.925  17.300  35.892  0.00  0.00     0.084 H 
ATOM     63  C78 XK2 d   1      -8.605  16.691  33.288  0.00  0.00    -0.072 A 
ATOM     64  C79 XK2 d   1      -8.574  16.252  31.962  0.00  0.00    -0.074 A 
ATOM     65  H37 XK2 d   1      -7.990  17.525  33.606  0.00  0.00     0.084 H 
ATOM     66  H38 XK2 d   1      -7.942  16.752  31.237  0.00  0.00     0.084 H 
ENDBRANCH  47  50
ENDBRANCH   8  47
BRANCH   5  67
ATOM     67  O4  XK2 d   1      -9.929  19.274  26.998  0.00  0.00    -0.391 OA
ATOM     68  H5  XK2 d   1     -10.768  19.693  27.149  0.00  0.00     0.210 HD
ENDBRANCH   5  67
BRANCH   7  69
ATOM     69  C61 XK2 d   1     -11.712  15.451  28.079  0.00  0.00    -0.019 C 
ATOM     70  H25 XK2 d   1     -11.233  15.120  27.145  0.00  0.00     0.043 H 
ATOM     71  H26 XK2 d   1     -12.515  16.165  27.846  0.00  0.00     0.043 H 
BRANCH  69  72
ATOM     72  C62 XK2 d   1     -12.310  14.248  28.779  0.00  0.00    -0.056 A 
ATOM     73  C63 XK2 d   1     -13.167  14.422  29.898  0.00  0.00    -0.077 A 
ATOM     74  C64 XK2 d   1     -13.700  13.281  30.542  0.00  0.00    -0.082 A 
ATOM     75  H27 XK2 d   1     -13.410  15.417  30.254  0.00  0.00     0.084 H 
ATOM     76  C65 XK2 d   1     -13.374  11.982  30.058  0.00  0.00    -0.083 A 
ATOM     77  H28 XK2 d   1     -14.353  13.395  31.399  0.00  0.00     0.083 H 
ATOM     78  C66 XK2 d   1     -12.529  11.814  28.944  0.00  0.00    -0.082 A 
ATOM     79  H29 XK2 d   1     -13.783  11.109  30.555  0.00  0.00     0.083 H 
ATOM     80  C67 XK2 d   1     -11.992  12.954  28.304  0.00  0.00    -0.077 A 
ATOM     81  H30 XK2 d   1     -12.293  10.820  28.581  0.00  0.00     0.083 H 
ATOM     82  H31 XK2 d   1     -11.336  12.837  27.449  0.00  0.00     0.084 H 
ENDBRANCH  69  72
ENDBRANCH   7  69
BRANCH   6  83
ATOM     83  O5  XK2 d   1     -11.692  18.254  29.020  0.00  0.00    -0.391 OA
ATOM     84  H7  XK2 d   1     -11.616  19.193  28.897  0.00  0.00     0.210 HD
ENDBRANCH   6  83
TORSDOF 10
