REMARK  27 active torsions:
REMARK  status: ('A' for Active; 'I' for Inactive)
REMARK       I    between atoms: C1_1  and  N3_3 
REMARK       I    between atoms: N21_12  and  C1_1 
REMARK    1  A    between atoms: N3_3  and  C4_4 
REMARK    2  A    between atoms: N3_3  and  C5_5 
REMARK    3  A    between atoms: C5_5  and  C6_6 
REMARK    4  A    between atoms: C22_13  and  N21_12 
REMARK    5  A    between atoms: C23_14  and  C22_13 
REMARK    6  A    between atoms: C22_13  and  C25_16 
REMARK       I    between atoms: N37_19  and  C23_14 
REMARK    7  A    between atoms: C25_16  and  C26_17 
REMARK    8  A    between atoms: C25_16  and  C27_18 
REMARK    9  A    between atoms: C38_20  and  N37_19 
REMARK   10  A    between atoms: C38_20  and  C39_21 
REMARK   11  A    between atoms: C46_28  and  C38_20 
REMARK   12  A    between atoms: C39_21  and  C40_22 
REMARK   13  A    between atoms: C46_28  and  O47_29 
REMARK   14  A    between atoms: C49_31  and  C46_28 
REMARK   15  A    between atoms: C49_31  and  O48_30 
REMARK   16  A    between atoms: C51_33  and  C49_31 
REMARK       I    between atoms: N50_32  and  C83_43 
REMARK   17  A    between atoms: C51_33  and  N50_32 
REMARK   18  A    between atoms: C51_33  and  C52_34 
REMARK   19  A    between atoms: C52_34  and  C53_35 
REMARK   20  A    between atoms: C82_42  and  N81_41 
REMARK       I    between atoms: N81_41  and  C97_48 
REMARK   21  A    between atoms: C83_43  and  C82_42 
REMARK   22  A    between atoms: C82_42  and  C85_45 
REMARK   23  A    between atoms: C85_45  and  C86_46 
REMARK   24  A    between atoms: C85_45  and  C87_47 
REMARK       I    between atoms: C97_48  and  N99_50 
REMARK   25  A    between atoms: N99_50  and  C2_51 
REMARK   26  A    between atoms: N99_50  and  C3_52 
REMARK   27  A    between atoms: C3_52  and  C8_53 
ROOT
ATOM      1  C46 A77 d   1       6.014   0.288  15.165  0.00  0.00     0.082 C 
ATOM      2  H28 A77 d   1       6.046   1.314  15.560  0.00  0.00     0.090 H 
ENDROOT
BRANCH   1   3
ATOM      3  C38 A77 d   1       6.042   0.414  13.690  0.00  0.00     0.043 C 
ATOM      4  H20 A77 d   1       6.095  -0.572  13.206  0.00  0.00     0.077 H 
BRANCH   3   5
ATOM      5  N37 A77 d   1       4.841   1.118  13.286  0.00  0.00    -0.352 N 
ATOM      6  C23 A77 d   1       3.902   0.557  12.542  0.00  0.00     0.241 C 
ATOM      7  O24 A77 d   1       3.950  -0.613  12.190  0.00  0.00    -0.271 OA
ATOM      8  H19 A77 d   1       4.717   2.065  13.581  0.00  0.00     0.163 HD
BRANCH   6   9
ATOM      9  C22 A77 d   1       2.763   1.493  12.158  0.00  0.00     0.093 C 
ATOM     10  H11 A77 d   1       2.603   2.215  12.972  0.00  0.00     0.088 H 
BRANCH   9  11
ATOM     11  N21 A77 d   1       3.175   2.187  10.977  0.00  0.00    -0.329 N 
ATOM     12  C1  A77 d   1       3.510   3.480  10.912  0.00  0.00     0.319 C 
ATOM     13  O2  A77 d   1       3.401   4.220  11.874  0.00  0.00    -0.247 OA
ATOM     14  N3  A77 d   1       3.977   3.948   9.734  0.00  0.00    -0.333 N 
ATOM     15  H10 A77 d   1       3.216   1.661  10.128  0.00  0.00     0.165 HD
BRANCH  14  16
ATOM     16  C4  A77 d   1       4.257   3.087   8.579  0.00  0.00    -0.014 C 
ATOM     17  H1  A77 d   1       4.626   3.701   7.745  0.00  0.00     0.056 H 
ATOM     18  H2  A77 d   1       3.335   2.571   8.274  0.00  0.00     0.056 H 
ATOM     19  H3  A77 d   1       5.020   2.344   8.852  0.00  0.00     0.056 H 
ENDBRANCH  14  16
BRANCH  14  20
ATOM     20  C5  A77 d   1       4.245   5.340   9.555  0.00  0.00     0.038 C 
ATOM     21  H4  A77 d   1       3.768   5.915  10.362  0.00  0.00     0.074 H 
ATOM     22  H5  A77 d   1       3.848   5.671   8.584  0.00  0.00     0.074 H 
BRANCH  20  23
ATOM     23  C6  A77 d   1       5.726   5.554   9.592  0.00  0.00     0.052 A 
ATOM     24  C7  A77 d   1       6.471   5.604   8.426  0.00  0.00    -0.058 A 
ATOM     25  C9  A77 d   1       7.818   5.862   8.519  0.00  0.00    -0.080 A 
ATOM     26  H6  A77 d   1       6.003   5.443   7.462  0.00  0.00     0.086 H 
ATOM     27  C11 A77 d   1       8.367   6.045   9.765  0.00  0.00    -0.066 A 
ATOM     28  H7  A77 d   1       8.434   5.920   7.629  0.00  0.00     0.083 H 
ATOM     29  C10 A77 d   1       7.530   5.955  10.853  0.00  0.00     0.003 A 
ATOM     30  H9  A77 d   1       9.424   6.253   9.887  0.00  0.00     0.085 H 
ATOM     31  N8  A77 d   1       6.233   5.721  10.790  0.00  0.00    -0.264 NA
ATOM     32  H8  A77 d   1       7.969   6.086  11.835  0.00  0.00     0.114 H 
ENDBRANCH  20  23
ENDBRANCH  14  20
ENDBRANCH   9  11
BRANCH   9  33
ATOM     33  C25 A77 d   1       1.445   0.750  11.905  0.00  0.00    -0.033 C 
ATOM     34  H12 A77 d   1       1.642   0.021  11.105  0.00  0.00     0.042 H 
BRANCH  33  35
ATOM     35  C26 A77 d   1       0.935  -0.052  13.128  0.00  0.00    -0.071 C 
ATOM     36  H13 A77 d   1      -0.009  -0.554  12.870  0.00  0.00     0.028 H 
ATOM     37  H14 A77 d   1       0.767   0.633  13.972  0.00  0.00     0.028 H 
ATOM     38  H15 A77 d   1       1.685  -0.805  13.411  0.00  0.00     0.028 H 
ENDBRANCH  33  35
BRANCH  33  39
ATOM     39  C27 A77 d   1       0.358   1.699  11.398  0.00  0.00    -0.071 C 
ATOM     40  H16 A77 d   1       0.736   2.260  10.531  0.00  0.00     0.028 H 
ATOM     41  H17 A77 d   1       0.083   2.402  12.198  0.00  0.00     0.028 H 
ATOM     42  H18 A77 d   1      -0.527   1.117  11.101  0.00  0.00     0.028 H 
ENDBRANCH  33  39
ENDBRANCH   9  33
ENDBRANCH   6   9
ENDBRANCH   3   5
BRANCH   3  43
ATOM     43  C39 A77 d   1       7.275   1.258  13.349  0.00  0.00    -0.020 C 
ATOM     44  H21 A77 d   1       8.133   0.878  13.923  0.00  0.00     0.043 H 
ATOM     45  H22 A77 d   1       7.078   2.302  13.633  0.00  0.00     0.043 H 
BRANCH  43  46
ATOM     46  C40 A77 d   1       7.612   1.213  11.899  0.00  0.00    -0.056 A 
ATOM     47  C41 A77 d   1       7.232   2.239  11.057  0.00  0.00    -0.077 A 
ATOM     48  C42 A77 d   1       7.510   2.164   9.719  0.00  0.00    -0.082 A 
ATOM     49  H23 A77 d   1       6.714   3.104  11.456  0.00  0.00     0.084 H 
ATOM     50  C43 A77 d   1       8.160   1.060   9.231  0.00  0.00    -0.083 A 
ATOM     51  H24 A77 d   1       7.220   2.968   9.053  0.00  0.00     0.083 H 
ATOM     52  C44 A77 d   1       8.558   0.040  10.074  0.00  0.00    -0.082 A 
ATOM     53  H25 A77 d   1       8.365   0.986   8.169  0.00  0.00     0.083 H 
ATOM     54  C45 A77 d   1       8.289   0.115  11.413  0.00  0.00    -0.077 A 
ATOM     55  H26 A77 d   1       9.084  -0.820   9.674  0.00  0.00     0.083 H 
ATOM     56  H27 A77 d   1       8.604  -0.677  12.082  0.00  0.00     0.084 H 
ENDBRANCH  43  46
ENDBRANCH   3  43
ENDBRANCH   1   3
BRANCH   1  57
ATOM     57  O47 A77 d   1       7.210  -0.364  15.546  0.00  0.00    -0.391 OA
ATOM     58  H29 A77 d   1       7.228  -0.463  16.491  0.00  0.00     0.210 HD
ENDBRANCH   1  57
BRANCH   1  59
ATOM     59  C49 A77 d   1       4.823  -0.366  15.834  0.00  0.00     0.082 C 
ATOM     60  H31 A77 d   1       3.893   0.157  15.569  0.00  0.00     0.090 H 
BRANCH  59  61
ATOM     61  C51 A77 d   1       4.646  -1.862  15.643  0.00  0.00     0.043 C 
ATOM     62  H33 A77 d   1       4.654  -2.097  14.568  0.00  0.00     0.077 H 
BRANCH  61  63
ATOM     63  C52 A77 d   1       3.280  -2.233  16.247  0.00  0.00    -0.020 C 
ATOM     64  H34 A77 d   1       2.503  -1.677  15.702  0.00  0.00     0.043 H 
ATOM     65  H35 A77 d   1       3.278  -1.925  17.303  0.00  0.00     0.043 H 
BRANCH  63  66
ATOM     66  C53 A77 d   1       2.931  -3.721  16.186  0.00  0.00    -0.056 A 
ATOM     67  C54 A77 d   1       2.996  -4.516  17.331  0.00  0.00    -0.077 A 
ATOM     68  C55 A77 d   1       2.686  -5.861  17.276  0.00  0.00    -0.082 A 
ATOM     69  H36 A77 d   1       3.293  -4.073  18.275  0.00  0.00     0.084 H 
ATOM     70  C56 A77 d   1       2.310  -6.449  16.097  0.00  0.00    -0.083 A 
ATOM     71  H37 A77 d   1       2.741  -6.460  18.178  0.00  0.00     0.083 H 
ATOM     72  C57 A77 d   1       2.231  -5.678  14.952  0.00  0.00    -0.082 A 
ATOM     73  H38 A77 d   1       2.077  -7.507  16.062  0.00  0.00     0.083 H 
ATOM     74  C58 A77 d   1       2.538  -4.323  14.995  0.00  0.00    -0.077 A 
ATOM     75  H39 A77 d   1       1.928  -6.133  14.016  0.00  0.00     0.083 H 
ATOM     76  H40 A77 d   1       2.470  -3.729  14.091  0.00  0.00     0.084 H 
ENDBRANCH  63  66
ENDBRANCH  61  63
BRANCH  61  77
ATOM     77  N50 A77 d   1       5.722  -2.633  16.307  0.00  0.00    -0.352 N 
ATOM     78  C83 A77 d   1       6.375  -3.646  15.703  0.00  0.00     0.241 C 
ATOM     79  O84 A77 d   1       6.190  -3.922  14.528  0.00  0.00    -0.271 OA
ATOM     80  H32 A77 d   1       5.975  -2.392  17.244  0.00  0.00     0.163 HD
BRANCH  78  81
ATOM     81  C82 A77 d   1       7.386  -4.434  16.522  0.00  0.00     0.093 C 
ATOM     82  H42 A77 d   1       7.550  -3.920  17.480  0.00  0.00     0.088 H 
BRANCH  81  83
ATOM     83  N81 A77 d   1       6.835  -5.760  16.755  0.00  0.00    -0.329 N 
ATOM     84  C97 A77 d   1       6.604  -6.254  17.982  0.00  0.00     0.319 C 
ATOM     85  O98 A77 d   1       7.051  -5.736  18.989  0.00  0.00    -0.247 OA
ATOM     86  N99 A77 d   1       5.892  -7.363  18.071  0.00  0.00    -0.333 N 
ATOM     87  H41 A77 d   1       6.618  -6.331  15.963  0.00  0.00     0.165 HD
BRANCH  86  88
ATOM     88  C2  A77 d   1       5.352  -7.989  16.856  0.00  0.00    -0.014 C 
ATOM     89  H50 A77 d   1       4.792  -8.896  17.129  0.00  0.00     0.056 H 
ATOM     90  H51 A77 d   1       6.180  -8.258  16.183  0.00  0.00     0.056 H 
ATOM     91  H52 A77 d   1       4.680  -7.282  16.347  0.00  0.00     0.056 H 
ENDBRANCH  86  88
BRANCH  86  92
ATOM     92  C3  A77 d   1       5.669  -7.973  19.375  0.00  0.00     0.038 C 
ATOM     93  H53 A77 d   1       6.336  -7.495  20.107  0.00  0.00     0.074 H 
ATOM     94  H54 A77 d   1       5.906  -9.045  19.308  0.00  0.00     0.074 H 
BRANCH  92  95
ATOM     95  C8  A77 d   1       4.244  -7.821  19.847  0.00  0.00     0.052 A 
ATOM     96  C12 A77 d   1       3.340  -8.848  19.581  0.00  0.00    -0.058 A 
ATOM     97  C13 A77 d   1       2.017  -8.712  19.923  0.00  0.00    -0.080 A 
ATOM     98  H55 A77 d   1       3.683  -9.758  19.102  0.00  0.00     0.086 H 
ATOM     99  C15 A77 d   1       1.653  -7.528  20.514  0.00  0.00    -0.066 A 
ATOM    100  H56 A77 d   1       1.297  -9.500  19.736  0.00  0.00     0.083 H 
ATOM    101  C14 A77 d   1       2.631  -6.568  20.744  0.00  0.00     0.003 A 
ATOM    102  H58 A77 d   1       0.622  -7.345  20.796  0.00  0.00     0.085 H 
ATOM    103  N10 A77 d   1       3.918  -6.689  20.458  0.00  0.00    -0.264 NA
ATOM    104  H57 A77 d   1       2.312  -5.637  21.198  0.00  0.00     0.114 H 
ENDBRANCH  92  95
ENDBRANCH  86  92
ENDBRANCH  81  83
BRANCH  81 105
ATOM    105  C85 A77 d   1       8.723  -4.600  15.812  0.00  0.00    -0.033 C 
ATOM    106  H43 A77 d   1       8.538  -5.143  14.873  0.00  0.00     0.042 H 
BRANCH 105 107
ATOM    107  C86 A77 d   1       9.352  -3.245  15.447  0.00  0.00    -0.071 C 
ATOM    108  H44 A77 d   1      10.313  -3.412  14.938  0.00  0.00     0.028 H 
ATOM    109  H45 A77 d   1       9.520  -2.660  16.363  0.00  0.00     0.028 H 
ATOM    110  H46 A77 d   1       8.674  -2.694  14.779  0.00  0.00     0.028 H 
ENDBRANCH 105 107
BRANCH 105 111
ATOM    111  C87 A77 d   1       9.683  -5.452  16.668  0.00  0.00    -0.071 C 
ATOM    112  H47 A77 d   1       9.204  -6.412  16.911  0.00  0.00     0.028 H 
ATOM    113  H48 A77 d   1       9.920  -4.915  17.598  0.00  0.00     0.028 H 
ATOM    114  H49 A77 d   1      10.610  -5.637  16.105  0.00  0.00     0.028 H 
ENDBRANCH 105 111
ENDBRANCH  81 105
ENDBRANCH  78  81
ENDBRANCH  61  77
ENDBRANCH  59  61
BRANCH  59 115
ATOM    115  O48 A77 d   1       5.178  -0.220  17.176  0.00  0.00    -0.391 OA
ATOM    116  H30 A77 d   1       5.306   0.701  17.370  0.00  0.00     0.210 HD
ENDBRANCH  59 115
ENDBRANCH   1  59
TORSDOF 27
