REMARK  10 active torsions:
REMARK  status: ('A' for Active; 'I' for Inactive)
REMARK    1  A    between atoms: C4_8  and  O4_2 
REMARK    2  A    between atoms: C5_9  and  O5_3 
REMARK    3  A    between atoms: N2_4  and  C21_11 
REMARK    4  A    between atoms: N7_5  and  C71_28 
REMARK    5  A    between atoms: C3_7  and  C31_14 
REMARK    6  A    between atoms: C6_10  and  C61_21 
REMARK    7  A    between atoms: C21_11  and  C22_12 
REMARK    8  A    between atoms: C31_14  and  C32_15 
REMARK    9  A    between atoms: C61_21  and  C62_22 
REMARK   10  A    between atoms: C71_28  and  C72_29 
ROOT
ATOM      1  O1  216 d   1      -8.028  14.281  27.778  0.00  0.00    -0.247 OA
ATOM      2  N2  216 d   1      -8.652  16.065  26.776  0.00  0.00    -0.323 N 
ATOM      3  N7  216 d   1      -9.427  15.568  28.938  0.00  0.00    -0.323 N 
ATOM      4  C1  216 d   1      -8.700  15.284  27.837  0.00  0.00     0.321 C 
ATOM      5  C3  216 d   1      -8.828  17.522  26.824  0.00  0.00     0.047 C 
ATOM      6  C4  216 d   1     -10.204  18.017  27.139  0.00  0.00     0.082 C 
ATOM      7  C5  216 d   1     -10.543  17.831  28.573  0.00  0.00     0.082 C 
ATOM      8  C6  216 d   1     -10.677  16.359  28.920  0.00  0.00     0.047 C 
ATOM      9  H3  216 d   1      -8.672  17.849  25.785  0.00  0.00     0.077 H 
ATOM     10  H4  216 d   1     -10.956  17.493  26.531  0.00  0.00     0.090 H 
ATOM     11  H5  216 d   1      -9.759  18.297  29.188  0.00  0.00     0.090 H 
ATOM     12  H6  216 d   1     -11.008  16.379  29.969  0.00  0.00     0.077 H 
ENDROOT
BRANCH   5  13
ATOM     13  C31 216 d   1      -7.684  18.183  27.609  0.00  0.00    -0.019 C 
ATOM     14  H12 216 d   1      -7.639  17.742  28.616  0.00  0.00     0.043 H 
ATOM     15  H13 216 d   1      -7.883  19.262  27.690  0.00  0.00     0.043 H 
BRANCH  13  16
ATOM     16  C32 216 d   1      -6.360  17.980  26.928  0.00  0.00    -0.056 A 
ATOM     17  C37 216 d   1      -5.927  18.898  25.945  0.00  0.00    -0.077 A 
ATOM     18  C36 216 d   1      -4.668  18.686  25.317  0.00  0.00    -0.082 A 
ATOM     19  H18 216 d   1      -6.543  19.748  25.674  0.00  0.00     0.084 H 
ATOM     20  C35 216 d   1      -3.848  17.570  25.668  0.00  0.00    -0.083 A 
ATOM     21  H17 216 d   1      -4.325  19.382  24.560  0.00  0.00     0.083 H 
ATOM     22  C34 216 d   1      -4.300  16.671  26.647  0.00  0.00    -0.082 A 
ATOM     23  H16 216 d   1      -2.889  17.419  25.185  0.00  0.00     0.083 H 
ATOM     24  C33 216 d   1      -5.552  16.872  27.270  0.00  0.00    -0.077 A 
ATOM     25  H15 216 d   1      -3.687  15.821  26.925  0.00  0.00     0.083 H 
ATOM     26  H14 216 d   1      -5.897  16.168  28.019  0.00  0.00     0.084 H 
ENDBRANCH  13  16
ENDBRANCH   5  13
BRANCH   6  27
ATOM     27  O4  216 d   1     -10.121  19.342  26.766  0.00  0.00    -0.391 OA
ATOM     28  H1  216 d   1     -10.957  19.766  26.921  0.00  0.00     0.210 HD
ENDBRANCH   6  27
BRANCH   2  29
ATOM     29  C21 216 d   1      -8.243  15.476  25.499  0.00  0.00     0.014 C 
ATOM     30  H7  216 d   1      -8.235  14.380  25.597  0.00  0.00     0.070 H 
ATOM     31  H8  216 d   1      -7.231  15.829  25.250  0.00  0.00     0.070 H 
BRANCH  29  32
ATOM     32  C22 216 d   1      -9.185  15.862  24.384  0.00  0.00    -0.095 C 
ATOM     33  C23 216 d   1      -8.749  16.380  23.231  0.00  0.00    -0.123 C 
ATOM     34  H10 216 d   1      -9.460  16.646  22.450  0.00  0.00     0.066 H 
ATOM     35  H11 216 d   1      -7.683  16.536  23.073  0.00  0.00     0.066 H 
ATOM     36  H9  216 d   1     -10.255  15.714  24.523  0.00  0.00     0.078 H 
ENDBRANCH  29  32
ENDBRANCH   2  29
BRANCH   7  37
ATOM     37  O5  216 d   1     -11.789  18.383  28.879  0.00  0.00    -0.391 OA
ATOM     38  H2  216 d   1     -11.778  19.313  28.685  0.00  0.00     0.210 HD
ENDBRANCH   7  37
BRANCH   8  39
ATOM     39  C61 216 d   1     -11.787  15.554  28.175  0.00  0.00    -0.019 C 
ATOM     40  H19 216 d   1     -11.350  15.151  27.250  0.00  0.00     0.043 H 
ATOM     41  H20 216 d   1     -12.600  16.251  27.923  0.00  0.00     0.043 H 
BRANCH  39  42
ATOM     42  C62 216 d   1     -12.391  14.392  28.953  0.00  0.00    -0.056 A 
ATOM     43  C67 216 d   1     -12.110  13.051  28.585  0.00  0.00    -0.077 A 
ATOM     44  C66 216 d   1     -12.750  12.018  29.306  0.00  0.00    -0.082 A 
ATOM     45  H25 216 d   1     -11.425  12.826  27.775  0.00  0.00     0.084 H 
ATOM     46  C65 216 d   1     -13.638  12.326  30.371  0.00  0.00    -0.083 A 
ATOM     47  H24 216 d   1     -12.562  10.983  29.044  0.00  0.00     0.083 H 
ATOM     48  C64 216 d   1     -13.912  13.663  30.738  0.00  0.00    -0.082 A 
ATOM     49  H23 216 d   1     -14.116  11.518  30.914  0.00  0.00     0.083 H 
ATOM     50  C63 216 d   1     -13.279  14.688  30.016  0.00  0.00    -0.077 A 
ATOM     51  H22 216 d   1     -14.590  13.891  31.552  0.00  0.00     0.083 H 
ATOM     52  H21 216 d   1     -13.473  15.722  30.276  0.00  0.00     0.084 H 
ENDBRANCH  39  42
ENDBRANCH   8  39
BRANCH   3  53
ATOM     53  C71 216 d   1      -9.119  15.018  30.272  0.00  0.00     0.014 C 
ATOM     54  H26 216 d   1      -8.162  14.480  30.210  0.00  0.00     0.070 H 
ATOM     55  H27 216 d   1      -9.918  14.314  30.547  0.00  0.00     0.070 H 
BRANCH  53  56
ATOM     56  C72 216 d   1      -9.007  16.063  31.370  0.00  0.00    -0.095 C 
ATOM     57  C73 216 d   1      -9.448  15.876  32.620  0.00  0.00    -0.123 C 
ATOM     58  H29 216 d   1      -9.337  16.667  33.361  0.00  0.00     0.066 H 
ATOM     59  H30 216 d   1      -9.918  14.933  32.896  0.00  0.00     0.066 H 
ATOM     60  H28 216 d   1      -8.542  17.017  31.126  0.00  0.00     0.078 H 
ENDBRANCH  53  56
ENDBRANCH   3  53
TORSDOF 10
