REMARK  17 active torsions:
REMARK  status: ('A' for Active; 'I' for Inactive)
REMARK    1  A    between atoms: C_2  and  C2_4 
REMARK       I    between atoms: N_13  and  C_2 
REMARK    2  A    between atoms: CA_14  and  N_13 
REMARK    3  A    between atoms: CA_14  and  CB_17 
REMARK    4  A    between atoms: C_15  and  CA_14 
REMARK       I    between atoms: N_24  and  C_15 
REMARK    5  A    between atoms: CB_17  and  CG_18 
REMARK       I    between atoms: CG_18  and  ND2_20 
REMARK    6  A    between atoms: C_21  and  O_22 
REMARK    7  A    between atoms: C_21  and  CA_23 
REMARK    8  A    between atoms: CM_33  and  C_21 
REMARK    9  A    between atoms: CA_23  and  N_24 
REMARK   10  A    between atoms: CA_23  and  CB_25 
REMARK   11  A    between atoms: CB_25  and  CG_26 
REMARK   12  A    between atoms: CM_33  and  N1_32 
REMARK   13  A    between atoms: C2_34  and  C_35 
REMARK       I    between atoms: C_35  and  N_45 
REMARK   14  A    between atoms: N_45  and  C_46 
REMARK   15  A    between atoms: C_46  and  C1_47 
REMARK   16  A    between atoms: C_46  and  C2_48 
REMARK   17  A    between atoms: C_46  and  C3_49 
ROOT
ATOM      1  C   ROC d   1      20.587   0.083  11.188  0.00  0.00     0.078 C 
ATOM      2  H13 ROC d   1      20.469   0.794  10.357  0.00  0.00     0.088 H 
ENDROOT
BRANCH   1   3
ATOM      3  O   ROC d   1      21.877  -0.510  11.108  0.00  0.00    -0.392 OA
ATOM      4  H14 ROC d   1      22.540   0.159  11.230  0.00  0.00     0.210 HD
ENDBRANCH   1   3
BRANCH   1   5
ATOM      5  CA  ROC d   1      19.559  -1.049  10.983  0.00  0.00     0.042 C 
ATOM      6  H15 ROC d   1      18.563  -0.688  11.278  0.00  0.00     0.077 H 
BRANCH   5   7
ATOM      7  N   ROC d   1      19.567  -1.387   9.569  0.00  0.00    -0.352 N 
ATOM      8  C   ROC d   1      18.626  -0.898   8.761  0.00  0.00     0.241 C 
ATOM      9  O   ROC d   1      17.709  -0.198   9.208  0.00  0.00    -0.271 OA
ATOM     10  H16 ROC d   1      20.279  -1.986   9.202  0.00  0.00     0.163 HD
BRANCH   8  11
ATOM     11  CA  ROC d   1      18.773  -1.291   7.300  0.00  0.00     0.097 C 
ATOM     12  H8  ROC d   1      19.841  -1.263   7.040  0.00  0.00     0.088 H 
BRANCH  11  13
ATOM     13  N   ROC d   1      18.279  -2.627   7.045  0.00  0.00    -0.342 N 
ATOM     14  C   ROC d   1      19.026  -3.599   6.516  0.00  0.00     0.271 C 
ATOM     15  O   ROC d   1      20.168  -3.421   6.080  0.00  0.00    -0.266 OA
ATOM     16  H7  ROC d   1      17.328  -2.833   7.277  0.00  0.00     0.163 HD
BRANCH  14  17
ATOM     17  C2  ROC d   1      18.340  -4.818   6.514  0.00  0.00     0.125 A 
ATOM     18  C3  ROC d   1      18.970  -6.034   6.225  0.00  0.00    -0.049 A 
ATOM     19  C4  ROC d   1      18.240  -7.219   6.333  0.00  0.00    -0.068 A 
ATOM     20  H1  ROC d   1      20.010  -6.055   5.921  0.00  0.00     0.087 H 
ATOM     21  C4A ROC d   1      16.898  -7.166   6.721  0.00  0.00    -0.007 A 
ATOM     22  H2  ROC d   1      18.710  -8.172   6.118  0.00  0.00     0.085 H 
ATOM     23  C5  ROC d   1      16.146  -8.333   6.845  0.00  0.00    -0.071 A 
ATOM     24  C8A ROC d   1      16.297  -5.929   6.995  0.00  0.00     0.068 A 
ATOM     25  C6  ROC d   1      14.806  -8.241   7.243  0.00  0.00    -0.082 A 
ATOM     26  H3  ROC d   1      16.592  -9.299   6.636  0.00  0.00     0.084 H 
ATOM     27  C7  ROC d   1      14.217  -7.001   7.516  0.00  0.00    -0.081 A 
ATOM     28  H4  ROC d   1      14.216  -9.145   7.341  0.00  0.00     0.083 H 
ATOM     29  C8  ROC d   1      14.966  -5.835   7.393  0.00  0.00    -0.054 A 
ATOM     30  H5  ROC d   1      13.179  -6.949   7.823  0.00  0.00     0.083 H 
ATOM     31  H6  ROC d   1      14.521  -4.869   7.604  0.00  0.00     0.087 H 
ATOM     32  N1  ROC d   1      17.031  -4.817   6.879  0.00  0.00    -0.243 NA
ENDBRANCH  14  17
ENDBRANCH  11  13
BRANCH  11  33
ATOM     33  CB  ROC d   1      18.041  -0.304   6.442  0.00  0.00     0.036 C 
ATOM     34  H9  ROC d   1      18.316   0.722   6.728  0.00  0.00     0.051 H 
ATOM     35  H10 ROC d   1      16.955  -0.437   6.556  0.00  0.00     0.051 H 
BRANCH  33  36
ATOM     36  CG  ROC d   1      18.449  -0.571   5.014  0.00  0.00     0.217 C 
ATOM     37  ND2 ROC d   1      17.556  -0.763   4.077  0.00  0.00    -0.370 N 
ATOM     38  H11 ROC d   1      17.848  -0.939   3.137  0.00  0.00     0.159 HD
ATOM     39  H12 ROC d   1      16.582  -0.734   4.301  0.00  0.00     0.159 HD
ATOM     40  OD1 ROC d   1      19.616  -0.691   4.675  0.00  0.00    -0.274 OA
ENDBRANCH  33  36
ENDBRANCH  11  33
ENDBRANCH   8  11
ENDBRANCH   5   7
BRANCH   5  41
ATOM     41  CB  ROC d   1      19.888  -2.314  11.792  0.00  0.00    -0.020 C 
ATOM     42  H17 ROC d   1      19.659  -2.128  12.852  0.00  0.00     0.043 H 
ATOM     43  H18 ROC d   1      20.959  -2.538  11.682  0.00  0.00     0.043 H 
BRANCH  41  44
ATOM     44  CG  ROC d   1      19.089  -3.505  11.321  0.00  0.00    -0.056 A 
ATOM     45  CD1 ROC d   1      17.728  -3.576  11.598  0.00  0.00    -0.077 A 
ATOM     46  CE1 ROC d   1      16.995  -4.656  11.117  0.00  0.00    -0.082 A 
ATOM     47  H19 ROC d   1      17.245  -2.800  12.181  0.00  0.00     0.084 H 
ATOM     48  CZ  ROC d   1      17.620  -5.640  10.370  0.00  0.00    -0.083 A 
ATOM     49  H21 ROC d   1      15.934  -4.727  11.327  0.00  0.00     0.083 H 
ATOM     50  CE2 ROC d   1      18.983  -5.560  10.101  0.00  0.00    -0.082 A 
ATOM     51  H23 ROC d   1      17.044  -6.477   9.993  0.00  0.00     0.083 H 
ATOM     52  CD2 ROC d   1      19.725  -4.494  10.572  0.00  0.00    -0.077 A 
ATOM     53  H22 ROC d   1      19.465  -6.338   9.519  0.00  0.00     0.083 H 
ATOM     54  H20 ROC d   1      20.786  -4.428  10.362  0.00  0.00     0.084 H 
ENDBRANCH  41  44
ENDBRANCH   5  41
ENDBRANCH   1   5
BRANCH   1  55
ATOM     55  CM  ROC d   1      20.464   0.886  12.488  0.00  0.00     0.110 C 
ATOM     56  H25 ROC d   1      20.226   0.194  13.309  0.00  0.00     0.080 H 
ATOM     57  H26 ROC d   1      21.427   1.378  12.691  0.00  0.00     0.080 H 
BRANCH  55  58
ATOM     58  N1  ROC d   1      19.421   1.907  12.419  0.00  0.00    -0.055 N 
ATOM     59  C2  ROC d   1      18.888   2.287  13.738  0.00  0.00     0.180 C 
ATOM     60  C3  ROC d   1      17.845   3.390  13.594  0.00  0.00    -0.026 C 
ATOM     61  H27 ROC d   1      19.737   2.679  14.317  0.00  0.00     0.100 H 
ATOM     62  C3A ROC d   1      18.440   4.608  12.931  0.00  0.00    -0.047 C 
ATOM     63  H28 ROC d   1      17.474   3.668  14.592  0.00  0.00     0.037 H 
ATOM     64  H29 ROC d   1      17.010   3.019  12.982  0.00  0.00     0.037 H 
ATOM     65  C4  ROC d   1      17.355   5.653  12.755  0.00  0.00    -0.061 C 
ATOM     66  C7A ROC d   1      19.066   4.216  11.543  0.00  0.00    -0.027 C 
ATOM     67  H30 ROC d   1      19.232   5.018  13.574  0.00  0.00     0.040 H 
ATOM     68  C5  ROC d   1      16.363   5.298  11.656  0.00  0.00    -0.065 C 
ATOM     69  H31 ROC d   1      17.830   6.613  12.503  0.00  0.00     0.033 H 
ATOM     70  H32 ROC d   1      16.807   5.753  13.704  0.00  0.00     0.033 H 
ATOM     71  C6  ROC d   1      17.072   5.081  10.333  0.00  0.00    -0.065 C 
ATOM     72  H33 ROC d   1      15.639   6.119  11.546  0.00  0.00     0.033 H 
ATOM     73  H34 ROC d   1      15.832   4.376  11.935  0.00  0.00     0.033 H 
ATOM     74  C7  ROC d   1      17.991   3.894  10.518  0.00  0.00    -0.060 C 
ATOM     75  H35 ROC d   1      17.656   5.974  10.066  0.00  0.00     0.033 H 
ATOM     76  H36 ROC d   1      16.339   4.872   9.540  0.00  0.00     0.033 H 
ATOM     77  H37 ROC d   1      18.467   3.650   9.557  0.00  0.00     0.033 H 
ATOM     78  H38 ROC d   1      17.404   3.031  10.866  0.00  0.00     0.033 H 
ATOM     79  C8  ROC d   1      20.022   3.051  11.743  0.00  0.00     0.088 C 
ATOM     80  H39 ROC d   1      19.642   5.075  11.168  0.00  0.00     0.043 H 
ATOM     81  H40 ROC d   1      20.380   2.722  10.756  0.00  0.00     0.076 H 
ATOM     82  H41 ROC d   1      20.874   3.401  12.344  0.00  0.00     0.076 H 
ATOM     83  H24 ROC d   1      18.656   1.556  11.865  0.00  0.00     0.281 HD
BRANCH  59  84
ATOM     84  C   ROC d   1      18.242   1.188  14.571  0.00  0.00     0.249 C 
ATOM     85  O   ROC d   1      17.366   0.483  14.069  0.00  0.00    -0.271 OA
ATOM     86  N   ROC d   1      18.721   1.120  15.814  0.00  0.00    -0.351 N 
ATOM     87  H42 ROC d   1      19.404   1.800  16.079  0.00  0.00     0.163 HD
BRANCH  86  88
ATOM     88  C   ROC d   1      18.334   0.142  16.813  0.00  0.00     0.022 C 
BRANCH  88  89
ATOM     89  C1  ROC d   1      19.154   0.456  18.037  0.00  0.00    -0.054 C 
ATOM     90  H43 ROC d   1      18.905  -0.256  18.838  0.00  0.00     0.030 H 
ATOM     91  H44 ROC d   1      18.932   1.479  18.374  0.00  0.00     0.030 H 
ATOM     92  H45 ROC d   1      20.223   0.374  17.793  0.00  0.00     0.030 H 
ENDBRANCH  88  89
BRANCH  88  93
ATOM     93  C2  ROC d   1      16.887   0.302  17.198  0.00  0.00    -0.054 C 
ATOM     94  H46 ROC d   1      16.624  -0.451  17.955  0.00  0.00     0.030 H 
ATOM     95  H47 ROC d   1      16.254   0.166  16.309  0.00  0.00     0.030 H 
ATOM     96  H48 ROC d   1      16.727   1.309  17.611  0.00  0.00     0.030 H 
ENDBRANCH  88  93
BRANCH  88  97
ATOM     97  C3  ROC d   1      18.633  -1.290  16.365  0.00  0.00    -0.054 C 
ATOM     98  H49 ROC d   1      18.323  -1.993  17.153  0.00  0.00     0.030 H 
ATOM     99  H50 ROC d   1      19.712  -1.399  16.180  0.00  0.00     0.030 H 
ATOM    100  H51 ROC d   1      18.079  -1.508  15.440  0.00  0.00     0.030 H 
ENDBRANCH  88  97
ENDBRANCH  86  88
ENDBRANCH  59  84
ENDBRANCH  55  58
ENDBRANCH   1  55
TORSDOF 17
