REMARK  5 active torsions:
REMARK  status: ('A' for Active; 'I' for Inactive)
REMARK    1  A    between atoms: C2_2  and  C4_4 
REMARK    2  A    between atoms: C4_4  and  C5_5 
REMARK    3  A    between atoms: C5_5  and  C9_7 
REMARK    4  A    between atoms: C9_7  and  P10_8 
REMARK    5  A    between atoms: P10_8  and  C15_11 
ROOT
ATOM      1  C9  NON d   1      47.317  41.806  58.922  0.00  0.00     0.062 C 
ATOM      2  H3  NON d   1      47.571  40.853  59.410  0.00  0.00     0.060 H 
ATOM      3  H4  NON d   1      47.663  41.787  57.878  0.00  0.00     0.060 H 
ENDROOT
BRANCH   1   4
ATOM      4  C5  NON d   1      47.974  42.967  59.670  0.00  0.00     0.146 C 
ATOM      5  O8  NON d   1      48.073  43.991  59.067  0.00  0.00    -0.297 OA
BRANCH   4   6
ATOM      6  C4  NON d   1      48.380  42.723  61.112  0.00  0.00     0.071 C 
ATOM      7  H1  NON d   1      48.220  41.659  61.342  0.00  0.00     0.060 H 
ATOM      8  H2  NON d   1      49.448  42.964  61.217  0.00  0.00     0.060 H 
BRANCH   6   9
ATOM      9  C2  NON d   1      47.603  43.551  62.116  0.00  0.00     0.179 C 
ATOM     10  O1  NON d   1      47.433  44.745  61.884  0.00  0.00    -0.648 OA
ATOM     11  O3  NON d   1      47.117  43.104  63.127  0.00  0.00    -0.648 OA
ENDBRANCH   6   9
ENDBRANCH   4   6
ENDBRANCH   1   4
BRANCH   1  12
ATOM     12  P10 NON d   1      45.482  42.078  58.977  0.00  0.00     0.109 P 
ATOM     13  O14 NON d   1      45.112  42.528  60.326  0.00  0.00    -0.667 OA
ATOM     14  O13 NON d   1      45.115  43.038  57.908  0.00  0.00    -0.667 OA
BRANCH  12  15
ATOM     15  C15 NON d   1      44.868  40.586  58.729  0.00  0.00    -0.005 C 
ATOM     16  H5  NON d   1      43.769  40.635  58.743  0.00  0.00     0.041 H 
ATOM     17  H6  NON d   1      45.215  39.910  59.524  0.00  0.00     0.041 H 
ATOM     18  H7  NON d   1      45.206  40.208  57.753  0.00  0.00     0.041 H 
ENDBRANCH  12  15
ENDBRANCH   1  12
TORSDOF 5
