REMARK  15 active torsions:
REMARK  status: ('A' for Active; 'I' for Inactive)
REMARK    1  A    between atoms: C4_4  and  O4_5 
REMARK    2  A    between atoms: O4_5  and  C21_30 
REMARK    3  A    between atoms: C6_7  and  O6_8 
REMARK    4  A    between atoms: C8_10  and  O8_11 
REMARK    5  A    between atoms: C10_13  and  O10_14 
REMARK    6  A    between atoms: O10_14  and  C1'_31 
REMARK    7  A    between atoms: C12_16  and  O12_17 
REMARK    8  A    between atoms: C12_16  and  C13_18 
REMARK    9  A    between atoms: C13_18  and  C14_20 
REMARK   10  A    between atoms: C14_20  and  O14_21 
REMARK   11  A    between atoms: C17_24  and  O17_25 
REMARK   12  A    between atoms: C19_27  and  O19_28 
REMARK   13  A    between atoms: C3'_33  and  N3'_34 
REMARK   14  A    between atoms: C4'_35  and  O4'_36 
REMARK   15  A    between atoms: C5'_37  and  C6'_39 
ROOT
ATOM      1  C1  DM2 d   1      32.639 -37.710 -36.445  0.00  0.00    -0.069 A 
ATOM      2  C2  DM2 d   1      33.965 -38.226 -36.249  0.00  0.00    -0.079 A 
ATOM      3  C3  DM2 d   1      35.094 -37.332 -36.349  0.00  0.00    -0.050 A 
ATOM      4  C4  DM2 d   1      34.904 -35.916 -36.640  0.00  0.00     0.082 A 
ATOM      5  C5  DM2 d   1      33.558 -35.390 -36.844  0.00  0.00     0.044 A 
ATOM      6  C6  DM2 d   1      33.297 -33.979 -37.145  0.00  0.00     0.093 A 
ATOM      7  C7  DM2 d   1      31.948 -33.432 -37.365  0.00  0.00     0.048 A 
ATOM      8  C8  DM2 d   1      31.651 -32.016 -37.673  0.00  0.00     0.089 A 
ATOM      9  C9  DM2 d   1      30.266 -31.591 -37.869  0.00  0.00     0.014 A 
ATOM     10  C10 DM2 d   1      30.005 -30.116 -38.186  0.00  0.00     0.073 C 
ATOM     11  C11 DM2 d   1      28.523 -29.588 -38.072  0.00  0.00    -0.005 C 
ATOM     12  C12 DM2 d   1      27.641 -30.684 -38.845  0.00  0.00     0.104 C 
ATOM     13  C15 DM2 d   1      27.775 -32.017 -37.987  0.00  0.00    -0.006 C 
ATOM     14  C16 DM2 d   1      29.201 -32.493 -37.776  0.00  0.00    -0.009 A 
ATOM     15  C17 DM2 d   1      29.475 -33.872 -37.474  0.00  0.00     0.086 A 
ATOM     16  C18 DM2 d   1      30.831 -34.371 -37.261  0.00  0.00     0.047 A 
ATOM     17  C19 DM2 d   1      31.086 -35.796 -36.948  0.00  0.00     0.091 A 
ATOM     18  C20 DM2 d   1      32.430 -36.280 -36.746  0.00  0.00     0.014 A 
ATOM     19  H1  DM2 d   1      31.786 -38.375 -36.371  0.00  0.00     0.085 H 
ATOM     20  H2  DM2 d   1      34.117 -39.276 -36.028  0.00  0.00     0.083 H 
ATOM     21  H3  DM2 d   1      36.096 -37.719 -36.206  0.00  0.00     0.087 H 
ATOM     22  H6  DM2 d   1      30.615 -29.480 -37.528  0.00  0.00     0.091 H 
ATOM     23  H7  DM2 d   1      28.424 -28.602 -38.550  0.00  0.00     0.042 H 
ATOM     24  H8  DM2 d   1      28.216 -29.516 -37.018  0.00  0.00     0.042 H 
ATOM     25  H13 DM2 d   1      27.220 -32.814 -38.503  0.00  0.00     0.044 H 
ATOM     26  H14 DM2 d   1      27.324 -31.836 -37.000  0.00  0.00     0.044 H 
ENDROOT
BRANCH  10  27
ATOM     27  O10 DM2 d   1      30.550 -30.121 -39.543  0.00  0.00    -0.351 OA
BRANCH  27  28
ATOM     28  C1' DM2 d   1      31.471 -29.143 -40.031  0.00  0.00     0.134 C 
ATOM     29  C2' DM2 d   1      32.372 -29.865 -41.126  0.00  0.00     0.010 C 
ATOM     30  C3' DM2 d   1      31.378 -30.321 -42.265  0.00  0.00     0.131 C 
ATOM     31  H21 DM2 d   1      32.881 -30.737 -40.690  0.00  0.00     0.043 H 
ATOM     32  H22 DM2 d   1      33.121 -29.166 -41.528  0.00  0.00     0.043 H 
ATOM     33  C4' DM2 d   1      30.621 -29.112 -42.839  0.00  0.00     0.087 C 
ATOM     34  H23 DM2 d   1      30.649 -31.030 -41.846  0.00  0.00     0.088 H 
ATOM     35  C5' DM2 d   1      29.775 -28.427 -41.748  0.00  0.00     0.065 C 
ATOM     36  H27 DM2 d   1      29.958 -29.427 -43.658  0.00  0.00     0.090 H 
ATOM     37  O5' DM2 d   1      30.702 -27.991 -40.611  0.00  0.00    -0.354 OA
ATOM     38  H29 DM2 d   1      29.043 -29.153 -41.366  0.00  0.00     0.086 H 
ATOM     39  H20 DM2 d   1      32.107 -28.777 -39.211  0.00  0.00     0.129 H 
BRANCH  30  40
ATOM     40  N3' DM2 d   1      32.187 -31.021 -43.376  0.00  0.00    -0.072 N 
ATOM     41  H24 DM2 d   1      31.563 -31.317 -44.110  0.00  0.00     0.274 HD
ATOM     42  H25 DM2 d   1      32.660 -31.824 -42.992  0.00  0.00     0.274 HD
ATOM     43  H26 DM2 d   1      32.867 -30.379 -43.752  0.00  0.00     0.274 HD
ENDBRANCH  30  40
BRANCH  33  44
ATOM     44  O4' DM2 d   1      31.699 -28.216 -43.363  0.00  0.00    -0.391 OA
ATOM     45  H28 DM2 d   1      32.278 -27.969 -42.651  0.00  0.00     0.210 HD
ENDBRANCH  33  44
BRANCH  35  46
ATOM     46  C6' DM2 d   1      29.009 -27.177 -42.267  0.00  0.00    -0.050 C 
ATOM     47  H30 DM2 d   1      28.427 -26.736 -41.444  0.00  0.00     0.031 H 
ATOM     48  H31 DM2 d   1      28.329 -27.475 -43.079  0.00  0.00     0.031 H 
ATOM     49  H32 DM2 d   1      29.729 -26.436 -42.645  0.00  0.00     0.031 H 
ENDBRANCH  35  46
ENDBRANCH  27  28
ENDBRANCH  10  27
BRANCH   8  50
ATOM     50  O8  DM2 d   1      32.615 -31.014 -37.806  0.00  0.00    -0.359 OA
ATOM     51  H5  DM2 d   1      32.188 -30.189 -38.004  0.00  0.00     0.217 HD
ENDBRANCH   8  50
BRANCH  12  52
ATOM     52  O12 DM2 d   1      28.011 -31.084 -40.211  0.00  0.00    -0.386 OA
ATOM     53  H9  DM2 d   1      28.887 -31.451 -40.206  0.00  0.00     0.210 HD
ENDBRANCH  12  52
BRANCH  12  54
ATOM     54  C13 DM2 d   1      26.107 -30.386 -38.887  0.00  0.00     0.187 C 
ATOM     55  O13 DM2 d   1      25.317 -30.721 -40.000  0.00  0.00    -0.220 OA
BRANCH  54  56
ATOM     56  C14 DM2 d   1      25.450 -29.761 -37.722  0.00  0.00     0.054 C 
ATOM     57  H10 DM2 d   1      25.910 -28.777 -37.549  0.00  0.00     0.079 H 
ATOM     58  H11 DM2 d   1      25.615 -30.402 -36.843  0.00  0.00     0.079 H 
BRANCH  56  59
ATOM     59  O14 DM2 d   1      24.046 -29.580 -37.892  0.00  0.00    -0.398 OA
ATOM     60  H12 DM2 d   1      23.683 -29.176 -37.112  0.00  0.00     0.209 HD
ENDBRANCH  56  59
ENDBRANCH  54  56
ENDBRANCH  12  54
BRANCH  15  61
ATOM     61  O17 DM2 d   1      28.389 -34.700 -37.391  0.00  0.00    -0.359 OA
ATOM     62  H15 DM2 d   1      28.679 -35.582 -37.189  0.00  0.00     0.217 HD
ENDBRANCH  15  61
BRANCH   6  63
ATOM     63  O6  DM2 d   1      34.350 -33.091 -37.245  0.00  0.00    -0.359 OA
ATOM     64  H4  DM2 d   1      34.014 -32.224 -37.443  0.00  0.00     0.217 HD
ENDBRANCH   6  63
BRANCH  17  65
ATOM     65  O19 DM2 d   1      30.039 -36.626 -36.862  0.00  0.00    -0.359 OA
ATOM     66  H16 DM2 d   1      29.576 -36.637 -37.692  0.00  0.00     0.217 HD
ENDBRANCH  17  65
BRANCH   4  67
ATOM     67  O4  DM2 d   1      36.024 -35.059 -36.734  0.00  0.00    -0.355 OA
BRANCH  67  68
ATOM     68  C21 DM2 d   1      37.396 -35.577 -36.538  0.00  0.00     0.010 C 
ATOM     69  H17 DM2 d   1      38.118 -34.755 -36.652  0.00  0.00     0.066 H 
ATOM     70  H18 DM2 d   1      37.605 -36.355 -37.287  0.00  0.00     0.066 H 
ATOM     71  H19 DM2 d   1      37.485 -36.006 -35.529  0.00  0.00     0.066 H 
ENDBRANCH  67  68
ENDBRANCH   4  67
TORSDOF 15
