REMARK  6 active torsions:
REMARK  status: ('A' for Active; 'I' for Inactive)
REMARK    1  A    between atoms: C1_1  and  C2_4 
REMARK    2  A    between atoms: C2_4  and  C3_5 
REMARK    3  A    between atoms: C3_5  and  O7_6 
REMARK    4  A    between atoms: C3_5  and  C4_7 
REMARK    5  A    between atoms: C3_5  and  C6_11 
REMARK    6  A    between atoms: C4_7  and  C5_8 
ROOT
ATOM      1  C3  CIT d   1      26.226  -6.371  14.471  0.00  0.00     0.164 C 
ENDROOT
BRANCH   1   2
ATOM      2  C2  CIT d   1      25.352  -6.209  13.167  0.00  0.00     0.054 C 
ATOM      3  H1  CIT d   1      25.922  -6.581  12.303  0.00  0.00     0.054 H 
ATOM      4  H2  CIT d   1      24.428  -6.796  13.277  0.00  0.00     0.054 H 
BRANCH   2   5
ATOM      5  C1  CIT d   1      24.979  -4.703  12.927  0.00  0.00     0.176 C 
ATOM      6  O1  CIT d   1      23.835  -4.321  13.668  0.00  0.00    -0.648 OA
ATOM      7  O2  CIT d   1      25.588  -3.893  12.180  0.00  0.00    -0.648 OA
ENDBRANCH   2   5
ENDBRANCH   1   2
BRANCH   1   8
ATOM      8  O7  CIT d   1      27.496  -5.706  14.230  0.00  0.00    -0.378 OA
ATOM      9  H3  CIT d   1      28.046  -5.787  15.001  0.00  0.00     0.211 HD
ENDBRANCH   1   8
BRANCH   1  10
ATOM     10  C4  CIT d   1      26.408  -7.918  14.786  0.00  0.00     0.054 C 
ATOM     11  H4  CIT d   1      27.089  -8.363  14.045  0.00  0.00     0.054 H 
ATOM     12  H5  CIT d   1      25.430  -8.418  14.732  0.00  0.00     0.054 H 
BRANCH  10  13
ATOM     13  C5  CIT d   1      27.015  -8.109  16.238  0.00  0.00     0.176 C 
ATOM     14  O3  CIT d   1      27.418  -7.179  17.003  0.00  0.00    -0.648 OA
ATOM     15  O4  CIT d   1      27.078  -9.475  16.626  0.00  0.00    -0.648 OA
ENDBRANCH  10  13
ENDBRANCH   1  10
BRANCH   1  16
ATOM     16  C6  CIT d   1      25.523  -5.698  15.725  0.00  0.00     0.210 C 
ATOM     17  O5  CIT d   1      25.913  -4.643  16.287  0.00  0.00    -0.646 OA
ATOM     18  O6  CIT d   1      24.384  -6.430  16.162  0.00  0.00    -0.646 OA
ENDBRANCH   1  16
TORSDOF 6
