REMARK  3 active torsions:
REMARK  status: ('A' for Active; 'I' for Inactive)
REMARK    1  A    between atoms: C10_11  and  C19_21 
REMARK    2  A    between atoms: C13_14  and  C18_20 
REMARK    3  A    between atoms: C17_18  and  O17_19 
ROOT
ATOM      1  C1  DHT d   1      27.685   5.199   4.565  0.00  0.00    -0.048 C 
ATOM      2  C2  DHT d   1      26.814   6.485   4.636  0.00  0.00    -0.005 C 
ATOM      3  C3  DHT d   1      25.484   6.280   3.944  0.00  0.00     0.149 C 
ATOM      4  O3  DHT d   1      24.904   7.249   3.448  0.00  0.00    -0.293 OA
ATOM      5  C4  DHT d   1      24.887   4.964   3.857  0.00  0.00    -0.036 C 
ATOM      6  C5  DHT d   1      25.464   3.903   4.357  0.00  0.00    -0.068 C 
ATOM      7  C6  DHT d   1      24.727   2.560   4.241  0.00  0.00    -0.043 C 
ATOM      8  C7  DHT d   1      25.613   1.454   3.609  0.00  0.00    -0.058 C 
ATOM      9  C8  DHT d   1      26.955   1.303   4.359  0.00  0.00    -0.045 C 
ATOM     10  C9  DHT d   1      27.708   2.656   4.279  0.00  0.00    -0.040 C 
ATOM     11  C10 DHT d   1      26.943   3.876   4.949  0.00  0.00    -0.016 C 
ATOM     12  C11 DHT d   1      29.161   2.525   4.830  0.00  0.00    -0.060 C 
ATOM     13  C12 DHT d   1      29.951   1.344   4.192  0.00  0.00    -0.055 C 
ATOM     14  C13 DHT d   1      29.194  -0.010   4.339  0.00  0.00    -0.014 C 
ATOM     15  C14 DHT d   1      27.784   0.212   3.680  0.00  0.00    -0.041 C 
ATOM     16  C15 DHT d   1      27.178  -1.232   3.647  0.00  0.00    -0.058 C 
ATOM     17  C16 DHT d   1      28.435  -2.118   3.310  0.00  0.00    -0.040 C 
ATOM     18  C17 DHT d   1      29.679  -1.189   3.426  0.00  0.00     0.043 C 
ATOM     19  H1  DHT d   1      28.536   5.325   5.251  0.00  0.00     0.035 H 
ATOM     20  H2  DHT d   1      28.057   5.095   3.535  0.00  0.00     0.035 H 
ATOM     21  H3  DHT d   1      27.351   7.310   4.146  0.00  0.00     0.044 H 
ATOM     22  H4  DHT d   1      26.635   6.740   5.691  0.00  0.00     0.044 H 
ATOM     23  H5  DHT d   1      23.925   4.854   3.358  0.00  0.00     0.089 H 
ATOM     24  H6  DHT d   1      23.834   2.700   3.614  0.00  0.00     0.039 H 
ATOM     25  H7  DHT d   1      24.421   2.236   5.247  0.00  0.00     0.039 H 
ATOM     26  H8  DHT d   1      25.818   1.716   2.561  0.00  0.00     0.034 H 
ATOM     27  H9  DHT d   1      25.072   0.497   3.649  0.00  0.00     0.034 H 
ATOM     28  H10 DHT d   1      26.774   1.035   5.410  0.00  0.00     0.041 H 
ATOM     29  H11 DHT d   1      27.793   2.898   3.209  0.00  0.00     0.042 H 
ATOM     30  H12 DHT d   1      29.110   2.366   5.917  0.00  0.00     0.033 H 
ATOM     31  H13 DHT d   1      29.701   3.461   4.621  0.00  0.00     0.033 H 
ATOM     32  H14 DHT d   1      30.928   1.260   4.689  0.00  0.00     0.034 H 
ATOM     33  H15 DHT d   1      30.101   1.553   3.123  0.00  0.00     0.034 H 
ATOM     34  H16 DHT d   1      27.928   0.544   2.641  0.00  0.00     0.042 H 
ATOM     35  H17 DHT d   1      26.407  -1.322   2.868  0.00  0.00     0.033 H 
ATOM     36  H18 DHT d   1      26.748  -1.506   4.622  0.00  0.00     0.033 H 
ATOM     37  H19 DHT d   1      28.354  -2.518   2.289  0.00  0.00     0.036 H 
ATOM     38  H20 DHT d   1      28.515  -2.950   4.025  0.00  0.00     0.036 H 
ATOM     39  H21 DHT d   1      29.940  -0.798   2.432  0.00  0.00     0.084 H 
ENDROOT
BRANCH  11  40
ATOM     40  C19 DHT d   1      26.781   3.770   6.524  0.00  0.00    -0.065 C 
ATOM     41  H26 DHT d   1      26.243   4.654   6.897  0.00  0.00     0.028 H 
ATOM     42  H27 DHT d   1      27.775   3.721   6.992  0.00  0.00     0.028 H 
ATOM     43  H28 DHT d   1      26.213   2.862   6.774  0.00  0.00     0.028 H 
ENDBRANCH  11  40
BRANCH  14  44
ATOM     44  C18 DHT d   1      29.107  -0.450   5.847  0.00  0.00    -0.066 C 
ATOM     45  H23 DHT d   1      28.765   0.399   6.457  0.00  0.00     0.028 H 
ATOM     46  H24 DHT d   1      30.100  -0.773   6.193  0.00  0.00     0.028 H 
ATOM     47  H25 DHT d   1      28.395  -1.283   5.946  0.00  0.00     0.028 H 
ENDBRANCH  14  44
BRANCH  18  48
ATOM     48  O17 DHT d   1      30.910  -1.918   3.981  0.00  0.00    -0.395 OA
ATOM     49  H22 DHT d   1      30.714  -2.253   4.848  0.00  0.00     0.210 HD
ENDBRANCH  18  48
TORSDOF 3
