REMARK  19 active torsions:
REMARK  status: ('A' for Active; 'I' for Inactive)
REMARK    1  A    between atoms: C3_3  and  O3_4 
REMARK    2  A    between atoms: C13_14  and  C18_20 
REMARK    3  A    between atoms: C21_21  and  C16_17 
REMARK    4  A    between atoms: C17_18  and  O17_19 
REMARK    5  A    between atoms: C22_22  and  C21_21 
REMARK    6  A    between atoms: C23_23  and  C22_22 
REMARK    7  A    between atoms: C24_24  and  C23_23 
REMARK    8  A    between atoms: C25_25  and  C24_24 
REMARK    9  A    between atoms: C26_26  and  C25_25 
REMARK   10  A    between atoms: C27_27  and  C26_26 
REMARK   11  A    between atoms: C28_28  and  C27_27 
REMARK   12  A    between atoms: C36_38  and  C28_28 
REMARK   13  A    between atoms: C31_29  and  N49_49 
REMARK   14  A    between atoms: C32_30  and  O32_31 
REMARK   15  A    between atoms: C33_32  and  O33_33 
REMARK   16  A    between atoms: C34_34  and  C35_36 
REMARK   17  A    between atoms: C35_36  and  O35_37 
REMARK   18  A    between atoms: O35_37  and  C36_38 
REMARK   19  A    between atoms: C46_45  and  N46_46 
ROOT
ATOM      1  C23 HYC d   1      11.882   1.196  -9.241  0.00  0.00    -0.065 C 
ATOM      2  H28 HYC d   1      11.749   0.584 -10.145  0.00  0.00     0.033 H 
ATOM      3  H29 HYC d   1      10.946   1.205  -8.664  0.00  0.00     0.033 H 
ENDROOT
BRANCH   1   4
ATOM      4  C22 HYC d   1      12.289   2.641  -9.626  0.00  0.00    -0.065 C 
ATOM      5  H26 HYC d   1      13.370   2.658  -9.829  0.00  0.00     0.033 H 
ATOM      6  H27 HYC d   1      11.741   2.928 -10.535  0.00  0.00     0.033 H 
BRANCH   4   7
ATOM      7  C21 HYC d   1      11.999   3.613  -8.585  0.00  0.00    -0.059 C 
ATOM      8  H24 HYC d   1      10.920   3.638  -8.373  0.00  0.00     0.033 H 
ATOM      9  H25 HYC d   1      12.548   3.364  -7.665  0.00  0.00     0.033 H 
BRANCH   7  10
ATOM     10  C16 HYC d   1      12.453   4.926  -9.121  0.00  0.00    -0.028 C 
ATOM     11  C15 HYC d   1      11.450   5.254 -10.425  0.00  0.00    -0.055 C 
ATOM     12  C14 HYC d   1      11.495   6.871 -10.175  0.00  0.00    -0.040 C 
ATOM     13  H16 HYC d   1      11.878   4.950 -11.392  0.00  0.00     0.034 H 
ATOM     14  H17 HYC d   1      10.443   4.824 -10.319  0.00  0.00     0.034 H 
ATOM     15  C8  HYC d   1      10.640   7.727 -11.174  0.00  0.00    -0.042 C 
ATOM     16  C13 HYC d   1      11.095   7.054  -8.668  0.00  0.00    -0.014 C 
ATOM     17  H15 HYC d   1      12.536   7.205 -10.298  0.00  0.00     0.042 H 
ATOM     18  C7  HYC d   1      11.100   7.501 -12.655  0.00  0.00    -0.057 C 
ATOM     19  C9  HYC d   1      10.792   9.236 -10.787  0.00  0.00    -0.024 C 
ATOM     20  H9  HYC d   1       9.584   7.434 -11.084  0.00  0.00     0.041 H 
ATOM     21  C6  HYC d   1       9.990   8.206 -13.549  0.00  0.00    -0.040 C 
ATOM     22  H7  HYC d   1      12.084   7.961 -12.828  0.00  0.00     0.034 H 
ATOM     23  H8  HYC d   1      11.153   6.426 -12.883  0.00  0.00     0.034 H 
ATOM     24  C5  HYC d   1       9.604   9.640 -13.051  0.00  0.00    -0.049 A 
ATOM     25  H5  HYC d   1      10.371   8.286 -14.578  0.00  0.00     0.040 H 
ATOM     26  H6  HYC d   1       9.086   7.579 -13.540  0.00  0.00     0.040 H 
ATOM     27  C4  HYC d   1       8.856  10.483 -13.918  0.00  0.00    -0.044 A 
ATOM     28  C10 HYC d   1       9.975  10.141 -11.750  0.00  0.00    -0.047 A 
ATOM     29  C3  HYC d   1       8.484  11.792 -13.507  0.00  0.00     0.066 A 
ATOM     30  H4  HYC d   1       8.567  10.125 -14.900  0.00  0.00     0.088 H 
ATOM     31  C2  HYC d   1       8.849  12.267 -12.243  0.00  0.00    -0.051 A 
ATOM     32  C1  HYC d   1       9.591  11.469 -11.348  0.00  0.00    -0.073 A 
ATOM     33  H2  HYC d   1       8.556  13.267 -11.946  0.00  0.00     0.087 H 
ATOM     34  H1  HYC d   1       9.868  11.850 -10.372  0.00  0.00     0.084 H 
ATOM     35  C11 HYC d   1      10.315   9.450  -9.289  0.00  0.00    -0.057 C 
ATOM     36  H10 HYC d   1      11.854   9.514 -10.864  0.00  0.00     0.048 H 
ATOM     37  C12 HYC d   1      11.097   8.555  -8.276  0.00  0.00    -0.055 C 
ATOM     38  H11 HYC d   1       9.245   9.206  -9.222  0.00  0.00     0.034 H 
ATOM     39  H12 HYC d   1      10.468  10.505  -9.018  0.00  0.00     0.034 H 
ATOM     40  H13 HYC d   1      10.632   8.659  -7.285  0.00  0.00     0.034 H 
ATOM     41  H14 HYC d   1      12.139   8.904  -8.231  0.00  0.00     0.034 H 
ATOM     42  C17 HYC d   1      12.183   6.068  -8.034  0.00  0.00     0.046 C 
ATOM     43  H19 HYC d   1      13.125   6.595  -7.820  0.00  0.00     0.084 H 
ATOM     44  H18 HYC d   1      13.513   4.896  -9.413  0.00  0.00     0.043 H 
BRANCH  29  45
ATOM     45  O3  HYC d   1       7.808  12.536 -14.307  0.00  0.00    -0.361 OA
ATOM     46  H3  HYC d   1       7.646  12.064 -15.116  0.00  0.00     0.217 HD
ENDBRANCH  29  45
BRANCH  16  47
ATOM     47  C18 HYC d   1       9.636   6.409  -8.467  0.00  0.00    -0.066 C 
ATOM     48  H21 HYC d   1       8.877   7.078  -8.899  0.00  0.00     0.028 H 
ATOM     49  H22 HYC d   1       9.439   6.276  -7.393  0.00  0.00     0.028 H 
ATOM     50  H23 HYC d   1       9.594   5.432  -8.971  0.00  0.00     0.028 H 
ENDBRANCH  16  47
BRANCH  42  51
ATOM     51  O17 HYC d   1      11.613   5.628  -6.843  0.00  0.00    -0.394 OA
ATOM     52  H20 HYC d   1      11.489   6.368  -6.260  0.00  0.00     0.210 HD
ENDBRANCH  42  51
ENDBRANCH   7  10
ENDBRANCH   4   7
ENDBRANCH   1   4
BRANCH   1  53
ATOM     53  C24 HYC d   1      12.994   0.654  -8.411  0.00  0.00    -0.065 C 
ATOM     54  H30 HYC d   1      12.917   1.057  -7.390  0.00  0.00     0.033 H 
ATOM     55  H31 HYC d   1      13.957   0.953  -8.851  0.00  0.00     0.033 H 
BRANCH  53  56
ATOM     56  C25 HYC d   1      12.916  -0.805  -8.363  0.00  0.00    -0.065 C 
ATOM     57  H32 HYC d   1      12.989  -1.198  -9.388  0.00  0.00     0.033 H 
ATOM     58  H33 HYC d   1      11.948  -1.095  -7.927  0.00  0.00     0.033 H 
BRANCH  56  59
ATOM     59  C26 HYC d   1      14.001  -1.391  -7.548  0.00  0.00    -0.065 C 
ATOM     60  H34 HYC d   1      14.581  -0.613  -7.030  0.00  0.00     0.033 H 
ATOM     61  H35 HYC d   1      14.677  -2.007  -8.159  0.00  0.00     0.033 H 
BRANCH  59  62
ATOM     62  C27 HYC d   1      13.247  -2.197  -6.617  0.00  0.00    -0.057 C 
ATOM     63  H36 HYC d   1      12.666  -2.964  -7.150  0.00  0.00     0.033 H 
ATOM     64  H37 HYC d   1      12.567  -1.569  -6.023  0.00  0.00     0.033 H 
BRANCH  62  65
ATOM     65  C28 HYC d   1      14.299  -2.843  -5.724  0.00  0.00     0.016 C 
ATOM     66  H38 HYC d   1      15.211  -2.939  -6.331  0.00  0.00     0.048 H 
ATOM     67  H39 HYC d   1      13.922  -3.844  -5.467  0.00  0.00     0.048 H 
BRANCH  65  68
ATOM     68  C36 HYC d   1      14.695  -2.215  -4.475  0.00  0.00     0.258 C 
ATOM     69  O36 HYC d   1      14.247  -1.200  -4.083  0.00  0.00    -0.265 OA
BRANCH  68  70
ATOM     70  O35 HYC d   1      15.712  -3.252  -4.041  0.00  0.00    -0.319 OA
BRANCH  70  71
ATOM     71  C35 HYC d   1      16.248  -2.784  -2.752  0.00  0.00     0.055 C 
ATOM     72  H46 HYC d   1      17.005  -1.998  -2.888  0.00  0.00     0.079 H 
ATOM     73  H47 HYC d   1      15.451  -2.415  -2.090  0.00  0.00     0.079 H 
BRANCH  71  74
ATOM     74  C34 HYC d   1      16.882  -4.111  -2.212  0.00  0.00     0.089 C 
ATOM     75  C33 HYC d   1      17.656  -5.018  -3.139  0.00  0.00     0.091 C 
ATOM     76  C32 HYC d   1      16.881  -6.236  -3.282  0.00  0.00     0.105 C 
ATOM     77  H43 HYC d   1      17.764  -4.533  -4.120  0.00  0.00     0.091 H 
ATOM     78  C31 HYC d   1      16.225  -6.266  -1.941  0.00  0.00     0.139 C 
ATOM     79  H41 HYC d   1      16.118  -6.074  -4.057  0.00  0.00     0.093 H 
ATOM     80  O34 HYC d   1      15.690  -4.935  -1.909  0.00  0.00    -0.353 OA
ATOM     81  H40 HYC d   1      16.935  -6.469  -1.126  0.00  0.00     0.122 H 
ATOM     82  H45 HYC d   1      17.492  -3.888  -1.324  0.00  0.00     0.090 H 
BRANCH  75  83
ATOM     83  O33 HYC d   1      18.801  -5.266  -2.684  0.00  0.00    -0.390 OA
ATOM     84  H44 HYC d   1      19.257  -5.851  -3.278  0.00  0.00     0.210 HD
ENDBRANCH  75  83
BRANCH  76  85
ATOM     85  O32 HYC d   1      17.503  -7.361  -3.624  0.00  0.00    -0.388 OA
ATOM     86  H42 HYC d   1      16.877  -8.075  -3.641  0.00  0.00     0.210 HD
ENDBRANCH  76  85
BRANCH  78  87
ATOM     87  N49 HYC d   1      15.190  -7.152  -1.915  0.00  0.00    -0.294 N 
ATOM     88  C44 HYC d   1      14.960  -7.860  -0.757  0.00  0.00     0.167 A 
ATOM     89  N43 HYC d   1      15.593  -7.887   0.515  0.00  0.00    -0.222 NA
ATOM     90  C45 HYC d   1      13.793  -8.726  -1.034  0.00  0.00     0.149 A 
ATOM     91  C42 HYC d   1      15.083  -8.720   1.421  0.00  0.00     0.091 A 
ATOM     92  N41 HYC d   1      14.033  -9.536   1.255  0.00  0.00    -0.222 NA
ATOM     93  H48 HYC d   1      15.566  -8.740   2.391  0.00  0.00     0.146 H 
ATOM     94  C46 HYC d   1      13.403  -9.561   0.105  0.00  0.00     0.155 A 
ATOM     95  N47 HYC d   1      13.305  -8.566  -2.329  0.00  0.00    -0.236 NA
ATOM     96  C48 HYC d   1      14.203  -7.611  -2.768  0.00  0.00     0.071 A 
ATOM     97  H51 HYC d   1      14.133  -7.221  -3.783  0.00  0.00     0.144 H 
BRANCH  94  98
ATOM     98  N46 HYC d   1      12.289 -10.384  -0.171  0.00  0.00    -0.382 N 
ATOM     99  H49 HYC d   1      11.842 -10.352  -1.099  0.00  0.00     0.157 HD
ATOM    100  H50 HYC d   1      11.923 -11.016   0.555  0.00  0.00     0.157 HD
ENDBRANCH  94  98
ENDBRANCH  78  87
ENDBRANCH  71  74
ENDBRANCH  70  71
ENDBRANCH  68  70
ENDBRANCH  65  68
ENDBRANCH  62  65
ENDBRANCH  59  62
ENDBRANCH  56  59
ENDBRANCH  53  56
ENDBRANCH   1  53
TORSDOF 19
