REMARK  7 active torsions:
REMARK  status: ('A' for Active; 'I' for Inactive)
REMARK    1  A    between atoms: C1_1  and  O5_2 
REMARK    2  A    between atoms: O5_2  and  C6_3 
REMARK    3  A    between atoms: C6_3  and  C8_5 
REMARK    4  A    between atoms: N12_7  and  C14_8 
REMARK    5  A    between atoms: C29_13  and  O1_14 
REMARK    6  A    between atoms: O1_14  and  C2_15 
REMARK    7  A    between atoms: C2_15  and  C4_17 
ROOT
ATOM      1  C8  COC d   1      38.943   4.207  46.801  0.00  0.00     0.083 C 
ATOM      2  C10 COC d   1      39.446   3.433  45.510  0.00  0.00     0.118 C 
ATOM      3  N12 COC d   1      40.510   4.246  44.881  0.00  0.00    -0.065 N 
ATOM      4  C18 COC d   1      38.356   3.237  44.418  0.00  0.00    -0.035 C 
ATOM      5  C21 COC d   1      38.532   4.487  43.510  0.00  0.00    -0.036 C 
ATOM      6  C24 COC d   1      39.685   5.264  44.193  0.00  0.00     0.106 C 
ATOM      7  C26 COC d   1      39.148   6.256  45.289  0.00  0.00    -0.013 C 
ATOM      8  C29 COC d   1      38.279   5.511  46.306  0.00  0.00     0.064 C 
ATOM      9  H4  COC d   1      38.189   3.602  47.326  0.00  0.00     0.062 H 
ATOM     10  H5  COC d   1      39.837   2.451  45.813  0.00  0.00     0.086 H 
ATOM     11  H6  COC d   1      41.101   4.670  45.579  0.00  0.00     0.280 HD
ATOM     12  H10 COC d   1      37.351   3.212  44.864  0.00  0.00     0.036 H 
ATOM     13  H11 COC d   1      38.528   2.310  43.851  0.00  0.00     0.036 H 
ATOM     14  H12 COC d   1      38.806   4.194  42.486  0.00  0.00     0.036 H 
ATOM     15  H13 COC d   1      37.612   5.089  43.485  0.00  0.00     0.036 H 
ATOM     16  H14 COC d   1      40.273   5.813  43.443  0.00  0.00     0.084 H 
ATOM     17  H15 COC d   1      38.547   7.040  44.805  0.00  0.00     0.040 H 
ATOM     18  H16 COC d   1      40.001   6.716  45.810  0.00  0.00     0.040 H 
ATOM     19  H17 COC d   1      37.340   5.238  45.802  0.00  0.00     0.085 H 
ENDROOT
BRANCH   8  20
ATOM     20  O1  COC d   1      37.945   6.373  47.452  0.00  0.00    -0.311 OA
BRANCH  20  21
ATOM     21  C2  COC d   1      36.915   6.073  48.282  0.00  0.00     0.293 C 
ATOM     22  O3  COC d   1      36.053   5.280  48.016  0.00  0.00    -0.259 OA
BRANCH  21  23
ATOM     23  C4  COC d   1      36.985   6.863  49.591  0.00  0.00     0.039 A 
ATOM     24  C13 COC d   1      37.956   7.835  49.823  0.00  0.00    -0.067 A 
ATOM     25  C11 COC d   1      37.983   8.538  51.052  0.00  0.00    -0.082 A 
ATOM     26  H22 COC d   1      38.694   8.054  49.060  0.00  0.00     0.085 H 
ATOM     27  C9  COC d   1      37.040   8.265  52.036  0.00  0.00    -0.083 A 
ATOM     28  H21 COC d   1      38.742   9.292  51.226  0.00  0.00     0.083 H 
ATOM     29  C7  COC d   1      36.076   7.313  51.823  0.00  0.00    -0.082 A 
ATOM     30  H20 COC d   1      37.067   8.806  52.975  0.00  0.00     0.083 H 
ATOM     31  C5  COC d   1      36.025   6.591  50.602  0.00  0.00    -0.067 A 
ATOM     32  H19 COC d   1      35.344   7.109  52.596  0.00  0.00     0.083 H 
ATOM     33  H18 COC d   1      35.261   5.839  50.443  0.00  0.00     0.085 H 
ENDBRANCH  21  23
ENDBRANCH  20  21
ENDBRANCH   8  20
BRANCH   1  34
ATOM     34  C6  COC d   1      40.131   4.439  47.759  0.00  0.00     0.267 C 
ATOM     35  O7  COC d   1      41.266   4.752  47.497  0.00  0.00    -0.265 OA
BRANCH  34  36
ATOM     36  O5  COC d   1      39.682   4.228  49.012  0.00  0.00    -0.326 OA
BRANCH  36  37
ATOM     37  C1  COC d   1      40.362   4.882  50.118  0.00  0.00     0.013 C 
ATOM     38  H1  COC d   1      39.873   4.606  51.064  0.00  0.00     0.067 H 
ATOM     39  H2  COC d   1      40.313   5.973  49.985  0.00  0.00     0.067 H 
ATOM     40  H3  COC d   1      41.414   4.562  50.142  0.00  0.00     0.067 H 
ENDBRANCH  36  37
ENDBRANCH  34  36
ENDBRANCH   1  34
BRANCH   3  41
ATOM     41  C14 COC d   1      41.364   3.471  43.947  0.00  0.00     0.067 C 
ATOM     42  H7  COC d   1      42.130   4.132  43.517  0.00  0.00     0.068 H 
ATOM     43  H8  COC d   1      40.742   3.057  43.140  0.00  0.00     0.068 H 
ATOM     44  H9  COC d   1      41.852   2.650  44.492  0.00  0.00     0.068 H 
ENDBRANCH   3  41
TORSDOF 7
