REMARK  5 active torsions:
REMARK  status: ('A' for Active; 'I' for Inactive)
REMARK    1  A    between atoms: C03_3  and  S11_11 
REMARK    2  A    between atoms: C06_6  and  C07_7 
REMARK       I    between atoms: C07_7  and  N09_9 
REMARK    3  A    between atoms: N09_9  and  C10_10 
REMARK    4  A    between atoms: C10_10  and  C15_15 
REMARK    5  A    between atoms: S11_11  and  NP2_12 
ROOT
ATOM      1  C07 IOA d   1      -4.294   4.795  13.310  0.00  0.00     0.251 C 
ATOM      2  O08 IOA d   1      -5.166   5.631  12.980  0.00  0.00    -0.268 OA
ATOM      3  N09 IOA d   1      -2.943   4.947  12.805  0.00  0.00    -0.353 N 
ATOM      4  H5  IOA d   1      -2.323   4.167  12.720  0.00  0.00     0.163 HD
ENDROOT
BRANCH   1   5
ATOM      5  C06 IOA d   1      -4.766   3.656  14.218  0.00  0.00     0.032 A 
ATOM      6  C01 IOA d   1      -3.858   2.665  14.634  0.00  0.00    -0.066 A 
ATOM      7  C02 IOA d   1      -4.255   1.600  15.455  0.00  0.00    -0.059 A 
ATOM      8  H1  IOA d   1      -2.825   2.727  14.312  0.00  0.00     0.085 H 
ATOM      9  C03 IOA d   1      -5.630   1.511  15.880  0.00  0.00     0.079 A 
ATOM     10  H2  IOA d   1      -3.536   0.851  15.767  0.00  0.00     0.085 H 
ATOM     11  C04 IOA d   1      -6.521   2.506  15.467  0.00  0.00    -0.059 A 
ATOM     12  C05 IOA d   1      -6.091   3.565  14.651  0.00  0.00    -0.066 A 
ATOM     13  H3  IOA d   1      -7.558   2.459  15.781  0.00  0.00     0.085 H 
ATOM     14  H4  IOA d   1      -6.801   4.327  14.351  0.00  0.00     0.085 H 
BRANCH   9  15
ATOM     15  S11 IOA d   1      -6.097   0.122  16.915  0.00  0.00     0.256 S 
ATOM     16  O14 IOA d   1      -5.416   0.483  18.173  0.00  0.00    -0.201 OA
ATOM     17  O13 IOA d   1      -7.531   0.347  17.064  0.00  0.00    -0.201 OA
BRANCH  15  18
ATOM     18  NP2 IOA d   1      -5.646  -1.376  16.276  0.00  0.00    -0.324 N 
ATOM     19  H8  IOA d   1      -5.859  -2.217  16.774  0.00  0.00     0.169 HD
ATOM     20  H9  IOA d   1      -5.166  -1.422  15.400  0.00  0.00     0.169 HD
ENDBRANCH  15  18
ENDBRANCH   9  15
ENDBRANCH   1   5
BRANCH   3  21
ATOM     21  C10 IOA d   1      -2.534   6.294  12.427  0.00  0.00     0.022 C 
ATOM     22  H6  IOA d   1      -3.449   6.822  12.118  0.00  0.00     0.071 H 
ATOM     23  H7  IOA d   1      -1.864   6.184  11.561  0.00  0.00     0.071 H 
BRANCH  21  24
ATOM     24  C15 IOA d   1      -1.873   7.142  13.337  0.00  0.00     0.001 A 
ATOM     25  C20 IOA d   1      -0.923   8.138  12.834  0.00  0.00     0.124 A 
ATOM     26  C19 IOA d   1      -0.260   9.002  13.760  0.00  0.00    -0.042 A 
ATOM     27  F21 IOA d   1      -0.681   8.256  11.655  0.00  0.00    -0.205 F 
ATOM     28  C18 IOA d   1      -0.534   8.888  15.200  0.00  0.00    -0.043 A 
ATOM     29  H12 IOA d   1       0.446   9.742  13.400  0.00  0.00     0.088 H 
ATOM     30  C17 IOA d   1      -1.474   7.896  15.700  0.00  0.00     0.117 A 
ATOM     31  H11 IOA d   1      -0.031   9.549  15.896  0.00  0.00     0.088 H 
ATOM     32  C16 IOA d   1      -2.155   7.010  14.761  0.00  0.00    -0.035 A 
ATOM     33  F22 IOA d   1      -1.721   7.797  17.036  0.00  0.00    -0.206 F 
ATOM     34  H10 IOA d   1      -2.859   6.266  15.117  0.00  0.00     0.089 H 
ENDBRANCH  21  24
ENDBRANCH   3  21
TORSDOF 5
