REMARK  13 active torsions:
REMARK  status: ('A' for Active; 'I' for Inactive)
REMARK    1  A    between atoms: C3_5  and  O2_1 
REMARK    2  A    between atoms: C25_27  and  O3_2 
REMARK    3  A    between atoms: C1_3  and  O1_30 
REMARK    4  A    between atoms: C7_9  and  C6_8 
REMARK    5  A    between atoms: C13_15  and  C18_20 
REMARK    6  A    between atoms: C20_22  and  C17_19 
REMARK    7  A    between atoms: C20_22  and  C21_23 
REMARK    8  A    between atoms: C22_24  and  C20_22 
REMARK    9  A    between atoms: C23_25  and  C22_24 
REMARK   10  A    between atoms: C24_26  and  C23_25 
REMARK   11  A    between atoms: C24_26  and  C25_27 
REMARK   12  A    between atoms: C25_27  and  C26_28 
REMARK   13  A    between atoms: C25_27  and  C27_29 
ROOT
ATOM      1  C7  VDX d   1      14.099  21.638  34.165  0.00  0.00    -0.080 C 
ATOM      2  C8  VDX d   1      13.842  22.860  33.681  0.00  0.00    -0.075 C 
ATOM      3  C9  VDX d   1      14.192  23.306  32.270  0.00  0.00    -0.044 C 
ATOM      4  C11 VDX d   1      12.874  23.678  31.558  0.00  0.00    -0.061 C 
ATOM      5  C12 VDX d   1      12.028  24.667  32.405  0.00  0.00    -0.057 C 
ATOM      6  C13 VDX d   1      11.740  24.192  33.856  0.00  0.00    -0.033 C 
ATOM      7  C14 VDX d   1      13.163  23.919  34.480  0.00  0.00    -0.025 C 
ATOM      8  C15 VDX d   1      12.945  23.750  35.973  0.00  0.00    -0.057 C 
ATOM      9  C16 VDX d   1      11.772  24.736  36.194  0.00  0.00    -0.060 C 
ATOM     10  C17 VDX d   1      11.250  25.282  34.834  0.00  0.00    -0.043 C 
ATOM     11  H10 VDX d   1      13.822  21.483  35.207  0.00  0.00     0.083 H 
ATOM     12  H11 VDX d   1      14.691  22.488  31.731  0.00  0.00     0.039 H 
ATOM     13  H12 VDX d   1      14.858  24.181  32.307  0.00  0.00     0.039 H 
ATOM     14  H13 VDX d   1      12.289  22.762  31.388  0.00  0.00     0.033 H 
ATOM     15  H14 VDX d   1      13.110  24.147  30.591  0.00  0.00     0.033 H 
ATOM     16  H15 VDX d   1      11.065  24.818  31.896  0.00  0.00     0.034 H 
ATOM     17  H16 VDX d   1      12.569  25.623  32.458  0.00  0.00     0.034 H 
ATOM     18  H17 VDX d   1      13.779  24.823  34.361  0.00  0.00     0.048 H 
ATOM     19  H18 VDX d   1      13.835  24.041  36.550  0.00  0.00     0.034 H 
ATOM     20  H19 VDX d   1      12.663  22.718  36.229  0.00  0.00     0.034 H 
ATOM     21  H20 VDX d   1      12.119  25.577  36.812  0.00  0.00     0.033 H 
ATOM     22  H21 VDX d   1      10.954  24.214  36.712  0.00  0.00     0.033 H 
ATOM     23  H22 VDX d   1      11.735  26.237  34.585  0.00  0.00     0.041 H 
ENDROOT
BRANCH  10  24
ATOM     24  C20 VDX d   1       9.723  25.538  34.911  0.00  0.00    -0.053 C 
ATOM     25  H28 VDX d   1       9.273  24.575  35.195  0.00  0.00     0.040 H 
BRANCH  24  26
ATOM     26  C21 VDX d   1       9.428  26.518  36.102  0.00  0.00    -0.072 C 
ATOM     27  H29 VDX d   1       8.346  26.705  36.163  0.00  0.00     0.028 H 
ATOM     28  H30 VDX d   1       9.955  27.469  35.934  0.00  0.00     0.028 H 
ATOM     29  H31 VDX d   1       9.776  26.067  37.043  0.00  0.00     0.028 H 
ENDBRANCH  24  26
BRANCH  24  30
ATOM     30  C22 VDX d   1       9.060  25.897  33.616  0.00  0.00    -0.061 C 
ATOM     31  H32 VDX d   1       9.234  25.091  32.889  0.00  0.00     0.033 H 
ATOM     32  H33 VDX d   1       9.496  26.833  33.237  0.00  0.00     0.033 H 
BRANCH  30  33
ATOM     33  C23 VDX d   1       7.492  26.095  33.805  0.00  0.00    -0.062 C 
ATOM     34  H34 VDX d   1       7.113  26.471  32.843  0.00  0.00     0.033 H 
ATOM     35  H35 VDX d   1       7.372  26.872  34.575  0.00  0.00     0.033 H 
BRANCH  33  36
ATOM     36  C24 VDX d   1       6.573  24.962  34.205  0.00  0.00    -0.037 C 
ATOM     37  H36 VDX d   1       6.774  24.727  35.261  0.00  0.00     0.037 H 
ATOM     38  H37 VDX d   1       6.826  24.092  33.581  0.00  0.00     0.037 H 
BRANCH  36  39
ATOM     39  C25 VDX d   1       5.044  25.215  34.062  0.00  0.00     0.051 C 
BRANCH  39  40
ATOM     40  O3  VDX d   1       4.603  26.309  34.834  0.00  0.00    -0.391 OA
ATOM     41  H2  VDX d   1       5.057  27.095  34.555  0.00  0.00     0.210 HD
ENDBRANCH  39  40
BRANCH  39  42
ATOM     42  C26 VDX d   1       4.647  25.418  32.628  0.00  0.00    -0.048 C 
ATOM     43  H38 VDX d   1       4.992  24.563  32.028  0.00  0.00     0.031 H 
ATOM     44  H39 VDX d   1       5.106  26.342  32.248  0.00  0.00     0.031 H 
ATOM     45  H40 VDX d   1       3.552  25.497  32.558  0.00  0.00     0.031 H 
ENDBRANCH  39  42
BRANCH  39  46
ATOM     46  C27 VDX d   1       4.248  24.053  34.666  0.00  0.00    -0.048 C 
ATOM     47  H41 VDX d   1       4.505  23.121  34.142  0.00  0.00     0.031 H 
ATOM     48  H42 VDX d   1       3.171  24.250  34.557  0.00  0.00     0.031 H 
ATOM     49  H43 VDX d   1       4.496  23.954  35.733  0.00  0.00     0.031 H 
ENDBRANCH  39  46
ENDBRANCH  36  39
ENDBRANCH  33  36
ENDBRANCH  30  33
ENDBRANCH  24  30
ENDBRANCH  10  24
BRANCH   6  50
ATOM     50  C18 VDX d   1      10.841  22.917  33.890  0.00  0.00    -0.068 C 
ATOM     51  H23 VDX d   1      11.231  22.174  33.179  0.00  0.00     0.028 H 
ATOM     52  H24 VDX d   1       9.812  23.186  33.611  0.00  0.00     0.028 H 
ATOM     53  H25 VDX d   1      10.847  22.491  34.904  0.00  0.00     0.028 H 
ENDBRANCH   6  50
BRANCH   1  54
ATOM     54  C6  VDX d   1      14.702  20.472  33.495  0.00  0.00    -0.076 C 
ATOM     55  C5  VDX d   1      14.554  19.161  33.787  0.00  0.00    -0.048 C 
ATOM     56  C4  VDX d   1      15.364  18.164  33.005  0.00  0.00    -0.016 C 
ATOM     57  C10 VDX d   1      13.612  18.575  34.762  0.00  0.00    -0.033 C 
ATOM     58  C3  VDX d   1      15.977  17.002  33.797  0.00  0.00     0.042 C 
ATOM     59  H7  VDX d   1      14.708  17.733  32.234  0.00  0.00     0.043 H 
ATOM     60  H8  VDX d   1      16.188  18.710  32.522  0.00  0.00     0.043 H 
ATOM     61  C2  VDX d   1      14.885  16.326  34.678  0.00  0.00    -0.013 C 
ATOM     62  H6  VDX d   1      16.408  16.265  33.103  0.00  0.00     0.083 H 
ATOM     63  C1  VDX d   1      14.190  17.407  35.534  0.00  0.00     0.063 C 
ATOM     64  H4  VDX d   1      14.143  15.833  34.032  0.00  0.00     0.041 H 
ATOM     65  H5  VDX d   1      15.352  15.579  35.336  0.00  0.00     0.041 H 
ATOM     66  H3  VDX d   1      14.981  17.831  36.170  0.00  0.00     0.090 H 
ATOM     67  C19 VDX d   1      12.296  18.962  34.840  0.00  0.00    -0.113 C 
ATOM     68  H26 VDX d   1      11.943  19.812  34.258  0.00  0.00     0.067 H 
ATOM     69  H27 VDX d   1      11.606  18.419  35.484  0.00  0.00     0.067 H 
ATOM     70  H9  VDX d   1      15.354  20.697  32.652  0.00  0.00     0.084 H 
BRANCH  58  71
ATOM     71  O2  VDX d   1      16.980  17.510  34.653  0.00  0.00    -0.395 OA
ATOM     72  H1  VDX d   1      17.358  16.797  35.154  0.00  0.00     0.210 HD
ENDBRANCH  58  71
BRANCH  63  73
ATOM     73  O1  VDX d   1      13.227  16.863  36.406  0.00  0.00    -0.391 OA
ATOM     74  H44 VDX d   1      12.480  16.560  35.902  0.00  0.00     0.210 HD
ENDBRANCH  63  73
ENDBRANCH   1  54
TORSDOF 13
