REMARK  8 active torsions:
REMARK  status: ('A' for Active; 'I' for Inactive)
REMARK    1  A    between atoms: C01_1  and  N17_17 
REMARK    2  A    between atoms: C01_1  and  C02_2 
REMARK    3  A    between atoms: C02_2  and  C26_26 
REMARK    4  A    between atoms: C02_2  and  C03_3 
REMARK    5  A    between atoms: C03_3  and  N04_4 
REMARK       I    between atoms: N04_4  and  C05_5 
REMARK    6  A    between atoms: C05_5  and  C07_7 
REMARK    7  A    between atoms: C10_10  and  S13_13 
REMARK    8  A    between atoms: S13_13  and  NP6_16 
ROOT
ATOM      1  C02 SBR d   1      -2.483   6.710  13.176  0.00  0.00    -0.026 C 
ATOM      2  H3  SBR d   1      -3.348   7.338  13.438  0.00  0.00     0.044 H 
ENDROOT
BRANCH   1   3
ATOM      3  C01 SBR d   1      -1.415   7.570  12.424  0.00  0.00     0.004 C 
ATOM      4  H1  SBR d   1      -0.551   6.935  12.178  0.00  0.00     0.065 H 
ATOM      5  H2  SBR d   1      -1.858   7.962  11.496  0.00  0.00     0.065 H 
BRANCH   3   6
ATOM      6  N17 SBR d   1      -0.968   8.683  13.244  0.00  0.00    -0.356 N 
ATOM      7  C20 SBR d   1      -1.374   9.915  13.176  0.00  0.00     0.044 A 
ATOM      8  C25 SBR d   1      -0.686  10.687  14.147  0.00  0.00    -0.008 A 
ATOM      9  C21 SBR d   1      -2.334  10.528  12.330  0.00  0.00    -0.056 A 
ATOM     10  C19 SBR d   1       0.142   9.925  14.809  0.00  0.00    -0.056 A 
ATOM     11  C24 SBR d   1      -0.957  12.070  14.268  0.00  0.00    -0.071 A 
ATOM     12  C18 SBR d   1      -0.034   8.585  14.216  0.00  0.00    -0.019 A 
ATOM     13  H14 SBR d   1       0.812  10.213  15.617  0.00  0.00     0.086 H 
ATOM     14  H13 SBR d   1       0.494   7.679  14.509  0.00  0.00     0.111 H 
ATOM     15  C23 SBR d   1      -1.916  12.680  13.420  0.00  0.00    -0.082 A 
ATOM     16  H18 SBR d   1      -0.432  12.663  15.008  0.00  0.00     0.084 H 
ATOM     17  C22 SBR d   1      -2.603  11.909  12.450  0.00  0.00    -0.081 A 
ATOM     18  H17 SBR d   1      -2.124  13.740  13.514  0.00  0.00     0.083 H 
ATOM     19  H16 SBR d   1      -3.334  12.378  11.801  0.00  0.00     0.083 H 
ATOM     20  H15 SBR d   1      -2.861   9.936  11.591  0.00  0.00     0.087 H 
ENDBRANCH   3   6
ENDBRANCH   1   3
BRANCH   1  21
ATOM     21  C26 SBR d   1      -1.874   6.119  14.470  0.00  0.00    -0.070 C 
ATOM     22  H19 SBR d   1      -1.560   6.938  15.134  0.00  0.00     0.028 H 
ATOM     23  H20 SBR d   1      -1.002   5.499  14.215  0.00  0.00     0.028 H 
ATOM     24  H21 SBR d   1      -2.627   5.501  14.981  0.00  0.00     0.028 H 
ENDBRANCH   1  21
BRANCH   1  25
ATOM     25  C03 SBR d   1      -2.929   5.587  12.233  0.00  0.00    -0.000 C 
ATOM     26  H4  SBR d   1      -2.166   5.426  11.457  0.00  0.00     0.064 H 
ATOM     27  H5  SBR d   1      -3.884   5.855  11.758  0.00  0.00     0.064 H 
BRANCH  25  28
ATOM     28  N04 SBR d   1      -3.104   4.297  13.076  0.00  0.00    -0.356 N 
ATOM     29  C05 SBR d   1      -4.414   4.216  13.660  0.00  0.00     0.251 C 
ATOM     30  O06 SBR d   1      -5.210   5.128  13.456  0.00  0.00    -0.268 OA
ATOM     31  H6  SBR d   1      -2.392   3.606  13.198  0.00  0.00     0.162 HD
BRANCH  29  32
ATOM     32  C07 SBR d   1      -4.737   3.111  14.416  0.00  0.00     0.032 A 
ATOM     33  C12 SBR d   1      -6.018   3.015  14.983  0.00  0.00    -0.066 A 
ATOM     34  C11 SBR d   1      -6.396   1.894  15.753  0.00  0.00    -0.059 A 
ATOM     35  H10 SBR d   1      -6.730   3.817  14.826  0.00  0.00     0.085 H 
ATOM     36  C10 SBR d   1      -5.502   0.815  15.991  0.00  0.00     0.079 A 
ATOM     37  H9  SBR d   1      -7.394   1.855  16.174  0.00  0.00     0.085 H 
ATOM     38  C09 SBR d   1      -4.177   0.899  15.420  0.00  0.00    -0.059 A 
ATOM     39  C08 SBR d   1      -3.807   2.042  14.642  0.00  0.00    -0.066 A 
ATOM     40  H8  SBR d   1      -3.465   0.098  15.581  0.00  0.00     0.085 H 
ATOM     41  H7  SBR d   1      -2.811   2.101  14.218  0.00  0.00     0.085 H 
BRANCH  36  42
ATOM     42  S13 SBR d   1      -6.008  -0.371  16.845  0.00  0.00     0.256 S 
ATOM     43  O15 SBR d   1      -7.422  -0.295  16.943  0.00  0.00    -0.201 OA
ATOM     44  O14 SBR d   1      -5.451  -0.309  18.182  0.00  0.00    -0.201 OA
BRANCH  42  45
ATOM     45  NP6 SBR d   1      -5.663  -1.683  16.203  0.00  0.00    -0.324 N 
ATOM     46  H11 SBR d   1      -5.928  -2.541  16.644  0.00  0.00     0.169 HD
ATOM     47  H12 SBR d   1      -5.168  -1.700  15.334  0.00  0.00     0.169 HD
ENDBRANCH  42  45
ENDBRANCH  36  42
ENDBRANCH  29  32
ENDBRANCH  25  28
ENDBRANCH   1  25
TORSDOF 8
