REMARK  8 active torsions:
REMARK  status: ('A' for Active; 'I' for Inactive)
REMARK    1  A    between atoms: C01_1  and  NP7_17 
REMARK    2  A    between atoms: C01_1  and  C02_2 
REMARK    3  A    between atoms: C02_2  and  C26_26 
REMARK    4  A    between atoms: C02_2  and  C03_3 
REMARK    5  A    between atoms: C03_3  and  N04_4 
REMARK       I    between atoms: N04_4  and  C05_5 
REMARK    6  A    between atoms: C05_5  and  C07_7 
REMARK    7  A    between atoms: C10_10  and  S13_13 
REMARK    8  A    between atoms: S13_13  and  NP6_16 
ROOT
ATOM      1  C02 SBS d   1      -1.324   6.959  13.485  0.00  0.00    -0.026 C 
ATOM      2  H3  SBS d   1      -0.616   6.117  13.505  0.00  0.00     0.044 H 
ENDROOT
BRANCH   1   3
ATOM      3  C01 SBS d   1      -0.693   8.131  12.634  0.00  0.00     0.004 C 
ATOM      4  H1  SBS d   1      -0.535   7.796  11.598  0.00  0.00     0.065 H 
ATOM      5  H2  SBS d   1      -1.367   9.000  12.640  0.00  0.00     0.065 H 
BRANCH   3   6
ATOM      6  NP7 SBS d   1       0.601   8.497  13.244  0.00  0.00    -0.356 N 
ATOM      7  C20 SBS d   1       0.839   9.481  14.164  0.00  0.00     0.044 A 
ATOM      8  C25 SBS d   1       2.237   9.486  14.489  0.00  0.00    -0.008 A 
ATOM      9  C21 SBS d   1      -0.067  10.427  14.794  0.00  0.00    -0.056 A 
ATOM     10  C19 SBS d   1       2.884   8.531  13.787  0.00  0.00    -0.056 A 
ATOM     11  C24 SBS d   1       2.742  10.439  15.459  0.00  0.00    -0.071 A 
ATOM     12  C18 SBS d   1       1.820   7.862  12.956  0.00  0.00    -0.019 A 
ATOM     13  H14 SBS d   1       3.947   8.295  13.815  0.00  0.00     0.086 H 
ATOM     14  H13 SBS d   1       1.969   7.038  12.260  0.00  0.00     0.111 H 
ATOM     15  C23 SBS d   1       1.828  11.381  16.091  0.00  0.00    -0.082 A 
ATOM     16  H18 SBS d   1       3.796  10.450  15.713  0.00  0.00     0.084 H 
ATOM     17  C22 SBS d   1       0.423  11.367  15.748  0.00  0.00    -0.081 A 
ATOM     18  H17 SBS d   1       2.201  12.093  16.819  0.00  0.00     0.083 H 
ATOM     19  H16 SBS d   1      -0.257  12.070  16.215  0.00  0.00     0.083 H 
ATOM     20  H15 SBS d   1      -1.120  10.418  14.537  0.00  0.00     0.087 H 
ENDBRANCH   3   6
ENDBRANCH   1   3
BRANCH   1  21
ATOM     21  C26 SBS d   1      -1.606   7.434  14.937  0.00  0.00    -0.070 C 
ATOM     22  H19 SBS d   1      -0.669   7.781  15.398  0.00  0.00     0.028 H 
ATOM     23  H20 SBS d   1      -2.016   6.598  15.523  0.00  0.00     0.028 H 
ATOM     24  H21 SBS d   1      -2.333   8.260  14.918  0.00  0.00     0.028 H 
ENDBRANCH   1  21
BRANCH   1  25
ATOM     25  C03 SBS d   1      -2.653   6.488  12.888  0.00  0.00    -0.000 C 
ATOM     26  H4  SBS d   1      -2.549   6.332  11.804  0.00  0.00     0.064 H 
ATOM     27  H5  SBS d   1      -3.440   7.233  13.077  0.00  0.00     0.064 H 
BRANCH  25  28
ATOM     28  N04 SBS d   1      -2.996   5.167  13.583  0.00  0.00    -0.356 N 
ATOM     29  C05 SBS d   1      -4.352   5.113  14.112  0.00  0.00     0.251 C 
ATOM     30  O06 SBS d   1      -5.082   6.097  13.951  0.00  0.00    -0.268 OA
ATOM     31  H6  SBS d   1      -2.348   4.410  13.666  0.00  0.00     0.162 HD
BRANCH  29  32
ATOM     32  C07 SBS d   1      -4.764   3.931  14.789  0.00  0.00     0.032 A 
ATOM     33  C12 SBS d   1      -6.076   3.809  15.341  0.00  0.00    -0.066 A 
ATOM     34  C11 SBS d   1      -6.485   2.634  16.031  0.00  0.00    -0.059 A 
ATOM     35  H10 SBS d   1      -6.775   4.630  15.232  0.00  0.00     0.085 H 
ATOM     36  C10 SBS d   1      -5.604   1.514  16.202  0.00  0.00     0.079 A 
ATOM     37  H9  SBS d   1      -7.488   2.583  16.438  0.00  0.00     0.085 H 
ATOM     38  C09 SBS d   1      -4.272   1.638  15.634  0.00  0.00    -0.059 A 
ATOM     39  C08 SBS d   1      -3.871   2.829  14.944  0.00  0.00    -0.066 A 
ATOM     40  H8  SBS d   1      -3.571   0.817  15.734  0.00  0.00     0.085 H 
ATOM     41  H7  SBS d   1      -2.870   2.893  14.532  0.00  0.00     0.085 H 
BRANCH  36  42
ATOM     42  S13 SBS d   1      -6.115   0.234  17.007  0.00  0.00     0.256 S 
ATOM     43  O15 SBS d   1      -7.544   0.317  17.129  0.00  0.00    -0.201 OA
ATOM     44  O14 SBS d   1      -5.522   0.244  18.334  0.00  0.00    -0.201 OA
BRANCH  42  45
ATOM     45  NP6 SBS d   1      -5.828  -1.103  16.289  0.00  0.00    -0.324 N 
ATOM     46  H11 SBS d   1      -6.108  -1.966  16.709  0.00  0.00     0.169 HD
ATOM     47  H12 SBS d   1      -5.362  -1.105  15.404  0.00  0.00     0.169 HD
ENDBRANCH  42  45
ENDBRANCH  36  42
ENDBRANCH  29  32
ENDBRANCH  25  28
ENDBRANCH   1  25
TORSDOF 8
