REMARK  5 active torsions:
REMARK  status: ('A' for Active; 'I' for Inactive)
REMARK    1  A    between atoms: CA_2  and  N_1 
REMARK    2  A    between atoms: CA_2  and  CB_5 
REMARK    3  A    between atoms: CA_2  and  C_3 
REMARK    4  A    between atoms: CB_5  and  CG_6 
REMARK    5  A    between atoms: CG_6  and  CD_7 
ROOT
ATOM      1  CA  GLU d   1      87.744  -7.276 -11.334  0.00  0.00     0.183 C 
ATOM      2  H4  GLU d   1      87.932  -8.097 -12.041  0.00  0.00     0.101 H 
ENDROOT
BRANCH   1   3
ATOM      3  N   GLU d   1      88.261  -7.660  -9.990  0.00  0.00    -0.065 N 
ATOM      4  H1  GLU d   1      87.781  -8.486  -9.669  0.00  0.00     0.275 HD
ATOM      5  H2  GLU d   1      88.103  -6.905  -9.341  0.00  0.00     0.275 HD
ATOM      6  H3  GLU d   1      89.249  -7.849 -10.052  0.00  0.00     0.275 HD
ENDBRANCH   1   3
BRANCH   1   7
ATOM      7  CB  GLU d   1      86.234  -7.012 -11.267  0.00  0.00    -0.020 C 
ATOM      8  H5  GLU d   1      85.877  -6.770 -12.279  0.00  0.00     0.037 H 
ATOM      9  H6  GLU d   1      86.059  -6.154 -10.602  0.00  0.00     0.037 H 
BRANCH   7  10
ATOM     10  CG  GLU d   1      85.437  -8.194 -10.746  0.00  0.00     0.018 C 
ATOM     11  H7  GLU d   1      85.779  -8.422  -9.726  0.00  0.00     0.049 H 
ATOM     12  H8  GLU d   1      85.629  -9.058 -11.399  0.00  0.00     0.049 H 
BRANCH  10  13
ATOM     13  CD  GLU d   1      83.937  -7.944 -10.707  0.00  0.00     0.172 C 
ATOM     14  OE2 GLU d   1      83.260  -8.567  -9.862  0.00  0.00    -0.648 OA
ATOM     15  OE1 GLU d   1      83.425  -7.140 -11.520  0.00  0.00    -0.648 OA
ENDBRANCH  10  13
ENDBRANCH   7  10
ENDBRANCH   1   7
BRANCH   1  16
ATOM     16  C   GLU d   1      88.474  -6.030 -11.811  0.00  0.00     0.204 C 
ATOM     17  O   GLU d   1      88.969  -5.292 -10.943  0.00  0.00    -0.646 OA
ATOM     18  OXT GLU d   1      88.543  -5.801 -13.033  0.00  0.00    -0.646 OA
ENDBRANCH   1  16
TORSDOF 5
