REMARK  5 active torsions:
REMARK  status: ('A' for Active; 'I' for Inactive)
REMARK    1  A    between atoms: C1_1  and  C2_4 
REMARK    2  A    between atoms: C2_4  and  C3_6 
REMARK    3  A    between atoms: C2_4  and  O3_5 
REMARK    4  A    between atoms: C3_6  and  O1P_7 
REMARK    5  A    between atoms: O1P_7  and  P_8 
ROOT
ATOM      1  C3  3PG d   1      48.067  15.545 -10.480  0.00  0.00     0.066 C 
ATOM      2  H3  3PG d   1      48.694  14.972 -11.180  0.00  0.00     0.080 H 
ATOM      3  H4  3PG d   1      48.648  15.780  -9.576  0.00  0.00     0.080 H 
ENDROOT
BRANCH   1   4
ATOM      4  C2  3PG d   1      46.873  14.689 -10.083  0.00  0.00     0.140 C 
ATOM      5  H1  3PG d   1      46.054  14.804 -10.808  0.00  0.00     0.103 H 
BRANCH   4   6
ATOM      6  C1  3PG d   1      46.451  15.265  -8.744  0.00  0.00     0.205 C 
ATOM      7  O2  3PG d   1      45.270  15.220  -8.448  0.00  0.00    -0.646 OA
ATOM      8  O1  3PG d   1      47.322  15.805  -8.057  0.00  0.00    -0.646 OA
ENDBRANCH   4   6
BRANCH   4   9
ATOM      9  O3  3PG d   1      47.257  13.325 -10.054  0.00  0.00    -0.383 OA
ATOM     10  H2  3PG d   1      47.956  13.207  -9.421  0.00  0.00     0.210 HD
ENDBRANCH   4   9
ENDBRANCH   1   4
BRANCH   1  11
ATOM     11  O1P 3PG d   1      47.678  16.786 -11.116  0.00  0.00    -0.280 OA
BRANCH  11  12
ATOM     12  P   3PG d   1      47.767  16.971 -12.713  0.00  0.00     0.422 P 
ATOM     13  O4P 3PG d   1      47.348  18.383 -12.989  0.00  0.00    -0.617 OA
ATOM     14  O3P 3PG d   1      46.886  15.850 -13.213  0.00  0.00    -0.617 OA
ATOM     15  O2P 3PG d   1      49.239  16.744 -12.964  0.00  0.00    -0.617 OA
ENDBRANCH  11  12
ENDBRANCH   1  11
TORSDOF 5
