REMARK  25 active torsions:
REMARK  status: ('A' for Active; 'I' for Inactive)
REMARK    1  A    between atoms: C_2  and  O2_3 
REMARK       I    between atoms: C_2  and  N_8 
REMARK    2  A    between atoms: O2_3  and  CT_4 
REMARK    3  A    between atoms: CT_4  and  C1_5 
REMARK    4  A    between atoms: CT_4  and  C2_6 
REMARK    5  A    between atoms: CT_4  and  C3_7 
REMARK    6  A    between atoms: N_8  and  CA_9 
REMARK    7  A    between atoms: CA_9  and  C_10 
REMARK    8  A    between atoms: CA_9  and  CB_12 
REMARK    9  A    between atoms: C_10  and  OS_11 
REMARK   10  A    between atoms: C_10  and  CM_19 
REMARK   11  A    between atoms: CB_12  and  CG_13 
REMARK   12  A    between atoms: CM_19  and  N_20 
REMARK   13  A    between atoms: N_20  and  CA_21 
REMARK   14  A    between atoms: CA_21  and  C_22 
REMARK   15  A    between atoms: CA_21  and  CB_24 
REMARK       I    between atoms: C_22  and  N_31 
REMARK   16  A    between atoms: CB_24  and  CG_25 
REMARK   17  A    between atoms: N_31  and  CA_32 
REMARK   18  A    between atoms: CA_32  and  C_33 
REMARK   19  A    between atoms: CA_32  and  CB_35 
REMARK       I    between atoms: C_33  and  N_40 
REMARK   20  A    between atoms: CB_35  and  CG_36 
REMARK   21  A    between atoms: CG_36  and  CD_37 
REMARK       I    between atoms: CD_37  and  NE2_39 
REMARK   22  A    between atoms: N_40  and  CA_41 
REMARK   23  A    between atoms: CA_41  and  C_42 
REMARK   24  A    between atoms: CA_41  and  CB_44 
REMARK       I    between atoms: C_42  and  N_51 
REMARK   25  A    between atoms: CB_44  and  CG_45 
ROOT
ATOM      1  CA  0ZR d   1      12.032  24.763   4.011  0.00  0.00     0.181 C 
ATOM      2  H25 0ZR d   1      11.868  25.729   3.510  0.00  0.00     0.100 H 
ENDROOT
BRANCH   1   3
ATOM      3  N   0ZR d   1      13.448  24.709   4.356  0.00  0.00    -0.060 N 
ATOM      4  H23 0ZR d   1      13.983  24.879   3.519  0.00  0.00     0.278 HD
ATOM      5  H24 0ZR d   1      13.636  25.436   5.028  0.00  0.00     0.278 HD
BRANCH   3   6
ATOM      6  CM  0ZR d   1      13.877  23.454   4.918  0.00  0.00     0.108 C 
ATOM      7  H21 0ZR d   1      12.994  22.847   5.168  0.00  0.00     0.079 H 
ATOM      8  H22 0ZR d   1      14.494  22.918   4.182  0.00  0.00     0.079 H 
BRANCH   6   9
ATOM      9  C   0ZR d   1      14.700  23.697   6.186  0.00  0.00     0.078 C 
ATOM     10  H12 0ZR d   1      14.118  24.326   6.876  0.00  0.00     0.088 H 
BRANCH   9  11
ATOM     11  CA  0ZR d   1      15.034  22.375   6.879  0.00  0.00     0.044 C 
ATOM     12  H11 0ZR d   1      14.089  21.879   7.146  0.00  0.00     0.077 H 
BRANCH  11  13
ATOM     13  N   0ZR d   1      15.795  21.451   6.017  0.00  0.00    -0.329 N 
ATOM     14  C   0ZR d   1      15.144  20.474   5.304  0.00  0.00     0.361 C 
ATOM     15  O1  0ZR d   1      13.932  20.288   5.349  0.00  0.00    -0.238 OA
ATOM     16  H10 0ZR d   1      16.789  21.536   5.951  0.00  0.00     0.165 HD
BRANCH  14  17
ATOM     17  O2  0ZR d   1      16.062  19.785   4.509  0.00  0.00    -0.294 OA
BRANCH  17  18
ATOM     18  CT  0ZR d   1      15.672  18.860   3.362  0.00  0.00     0.061 C 
BRANCH  18  19
ATOM     19  C1  0ZR d   1      16.973  18.324   2.740  0.00  0.00    -0.048 C 
ATOM     20  H1  0ZR d   1      16.730  17.650   1.905  0.00  0.00     0.031 H 
ATOM     21  H2  0ZR d   1      17.544  17.773   3.502  0.00  0.00     0.031 H 
ATOM     22  H3  0ZR d   1      17.576  19.166   2.368  0.00  0.00     0.031 H 
ENDBRANCH  18  19
BRANCH  18  23
ATOM     23  C2  0ZR d   1      14.876  19.664   2.329  0.00  0.00    -0.048 C 
ATOM     24  H4  0ZR d   1      14.588  19.007   1.495  0.00  0.00     0.031 H 
ATOM     25  H5  0ZR d   1      15.497  20.488   1.948  0.00  0.00     0.031 H 
ATOM     26  H6  0ZR d   1      13.971  20.074   2.801  0.00  0.00     0.031 H 
ENDBRANCH  18  23
BRANCH  18  27
ATOM     27  C3  0ZR d   1      14.832  17.702   3.931  0.00  0.00    -0.048 C 
ATOM     28  H7  0ZR d   1      14.542  17.024   3.115  0.00  0.00     0.031 H 
ATOM     29  H8  0ZR d   1      13.928  18.106   4.411  0.00  0.00     0.031 H 
ATOM     30  H9  0ZR d   1      15.426  17.149   4.674  0.00  0.00     0.031 H 
ENDBRANCH  18  27
ENDBRANCH  17  18
ENDBRANCH  14  17
ENDBRANCH  11  13
BRANCH  11  31
ATOM     31  CB  0ZR d   1      15.798  22.688   8.165  0.00  0.00    -0.020 C 
ATOM     32  H14 0ZR d   1      15.143  23.277   8.824  0.00  0.00     0.043 H 
ATOM     33  H15 0ZR d   1      16.687  23.282   7.906  0.00  0.00     0.043 H 
BRANCH  31  34
ATOM     34  CG  0ZR d   1      16.241  21.478   8.903  0.00  0.00    -0.056 A 
ATOM     35  CD1 0ZR d   1      17.495  20.930   8.667  0.00  0.00    -0.077 A 
ATOM     36  CE1 0ZR d   1      17.895  19.770   9.313  0.00  0.00    -0.082 A 
ATOM     37  H16 0ZR d   1      18.169  21.415   7.970  0.00  0.00     0.084 H 
ATOM     38  CZ  0ZR d   1      17.034  19.147  10.206  0.00  0.00    -0.083 A 
ATOM     39  H18 0ZR d   1      18.876  19.351   9.121  0.00  0.00     0.083 H 
ATOM     40  CE2 0ZR d   1      15.779  19.690  10.448  0.00  0.00    -0.082 A 
ATOM     41  H20 0ZR d   1      17.340  18.239  10.713  0.00  0.00     0.083 H 
ATOM     42  CD2 0ZR d   1      15.388  20.851   9.801  0.00  0.00    -0.077 A 
ATOM     43  H19 0ZR d   1      15.104  19.205  11.144  0.00  0.00     0.083 H 
ATOM     44  H17 0ZR d   1      14.409  21.273   9.997  0.00  0.00     0.084 H 
ENDBRANCH  31  34
ENDBRANCH  11  31
ENDBRANCH   9  11
BRANCH   9  45
ATOM     45  OS  0ZR d   1      15.893  24.361   5.846  0.00  0.00    -0.392 OA
ATOM     46  H13 0ZR d   1      15.685  25.182   5.416  0.00  0.00     0.210 HD
ENDBRANCH   9  45
ENDBRANCH   6   9
ENDBRANCH   3   6
ENDBRANCH   1   3
BRANCH   1  47
ATOM     47  C   0ZR d   1      11.082  24.706   5.198  0.00  0.00     0.249 C 
ATOM     48  O   0ZR d   1      11.098  23.778   6.013  0.00  0.00    -0.271 OA
ATOM     49  N   0ZR d   1      10.239  25.721   5.277  0.00  0.00    -0.346 N 
ATOM     50  H33 0ZR d   1      10.285  26.443   4.586  0.00  0.00     0.163 HD
BRANCH  49  51
ATOM     51  CA  0ZR d   1       9.252  25.822   6.331  0.00  0.00     0.090 C 
ATOM     52  H34 0ZR d   1       8.802  24.836   6.517  0.00  0.00     0.087 H 
BRANCH  51  53
ATOM     53  C   0ZR d   1       8.176  26.793   5.850  0.00  0.00     0.241 C 
ATOM     54  O   0ZR d   1       8.469  27.759   5.131  0.00  0.00    -0.271 OA
ATOM     55  N   0ZR d   1       6.927  26.513   6.211  0.00  0.00    -0.346 N 
ATOM     56  H41 0ZR d   1       6.743  25.690   6.749  0.00  0.00     0.163 HD
BRANCH  55  57
ATOM     57  CA  0ZR d   1       5.824  27.385   5.836  0.00  0.00     0.093 C 
ATOM     58  H42 0ZR d   1       6.211  28.409   5.732  0.00  0.00     0.088 H 
BRANCH  57  59
ATOM     59  C   0ZR d   1       4.763  27.385   6.928  0.00  0.00     0.238 C 
ATOM     60  O   0ZR d   1       4.634  26.420   7.677  0.00  0.00    -0.271 OA
ATOM     61  N   0ZR d   1       4.019  28.479   7.037  0.00  0.00    -0.368 N 
ATOM     62  H50 0ZR d   1       3.307  28.532   7.738  0.00  0.00     0.159 HD
ATOM     63  H51 0ZR d   1       4.170  29.250   6.418  0.00  0.00     0.159 HD
ENDBRANCH  57  59
BRANCH  57  64
ATOM     64  CB  0ZR d   1       5.233  26.955   4.481  0.00  0.00    -0.014 C 
ATOM     65  H43 0ZR d   1       6.045  26.947   3.738  0.00  0.00     0.043 H 
ATOM     66  H44 0ZR d   1       4.473  27.694   4.187  0.00  0.00     0.043 H 
BRANCH  64  67
ATOM     67  CG  0ZR d   1       4.586  25.590   4.488  0.00  0.00    -0.056 A 
ATOM     68  CD1 0ZR d   1       3.231  25.446   4.791  0.00  0.00    -0.077 A 
ATOM     69  CE1 0ZR d   1       2.620  24.187   4.779  0.00  0.00    -0.082 A 
ATOM     70  H45 0ZR d   1       2.643  26.322   5.039  0.00  0.00     0.084 H 
ATOM     71  CZ  0ZR d   1       3.371  23.058   4.461  0.00  0.00    -0.083 A 
ATOM     72  H47 0ZR d   1       1.567  24.091   5.016  0.00  0.00     0.083 H 
ATOM     73  CE2 0ZR d   1       4.730  23.188   4.157  0.00  0.00    -0.082 A 
ATOM     74  H49 0ZR d   1       2.903  22.080   4.449  0.00  0.00     0.083 H 
ATOM     75  CD2 0ZR d   1       5.328  24.453   4.173  0.00  0.00    -0.077 A 
ATOM     76  H48 0ZR d   1       5.318  22.312   3.910  0.00  0.00     0.083 H 
ATOM     77  H46 0ZR d   1       6.382  24.550   3.937  0.00  0.00     0.084 H 
ENDBRANCH  64  67
ENDBRANCH  57  64
ENDBRANCH  55  57
ENDBRANCH  51  53
BRANCH  51  78
ATOM     78  CB  0ZR d   1       9.917  26.321   7.622  0.00  0.00    -0.030 C 
ATOM     79  H35 0ZR d   1      10.423  27.271   7.396  0.00  0.00     0.037 H 
ATOM     80  H36 0ZR d   1      10.662  25.573   7.929  0.00  0.00     0.037 H 
BRANCH  78  81
ATOM     81  CG  0ZR d   1       8.979  26.559   8.800  0.00  0.00     0.011 C 
ATOM     82  H37 0ZR d   1       9.572  26.551   9.727  0.00  0.00     0.047 H 
ATOM     83  H38 0ZR d   1       8.240  25.744   8.830  0.00  0.00     0.047 H 
BRANCH  81  84
ATOM     84  CD  0ZR d   1       8.230  27.894   8.711  0.00  0.00     0.215 C 
ATOM     85  OE1 0ZR d   1       8.680  28.835   8.052  0.00  0.00    -0.274 OA
ATOM     86  NE2 0ZR d   1       7.095  27.984   9.395  0.00  0.00    -0.370 N 
ATOM     87  H39 0ZR d   1       6.564  28.831   9.374  0.00  0.00     0.159 HD
ATOM     88  H40 0ZR d   1       6.771  27.204   9.931  0.00  0.00     0.159 HD
ENDBRANCH  81  84
ENDBRANCH  78  81
ENDBRANCH  51  78
ENDBRANCH  49  51
ENDBRANCH   1  47
BRANCH   1  89
ATOM     89  CB  0ZR d   1      11.651  23.654   3.026  0.00  0.00    -0.006 C 
ATOM     90  H26 0ZR d   1      11.865  22.682   3.495  0.00  0.00     0.043 H 
ATOM     91  H27 0ZR d   1      12.264  23.767   2.120  0.00  0.00     0.043 H 
BRANCH  89  92
ATOM     92  CG  0ZR d   1      10.200  23.682   2.627  0.00  0.00    -0.056 A 
ATOM     93  CD1 0ZR d   1       9.374  22.584   2.862  0.00  0.00    -0.077 A 
ATOM     94  CE1 0ZR d   1       8.020  22.617   2.508  0.00  0.00    -0.082 A 
ATOM     95  H28 0ZR d   1       9.785  21.694   3.324  0.00  0.00     0.084 H 
ATOM     96  CZ  0ZR d   1       7.488  23.758   1.912  0.00  0.00    -0.083 A 
ATOM     97  H30 0ZR d   1       7.388  21.757   2.697  0.00  0.00     0.083 H 
ATOM     98  CE2 0ZR d   1       8.306  24.859   1.673  0.00  0.00    -0.082 A 
ATOM     99  H32 0ZR d   1       6.440  23.789   1.635  0.00  0.00     0.083 H 
ATOM    100  CD2 0ZR d   1       9.654  24.816   2.032  0.00  0.00    -0.077 A 
ATOM    101  H31 0ZR d   1       7.896  25.749   1.209  0.00  0.00     0.083 H 
ATOM    102  H29 0ZR d   1      10.285  25.678   1.845  0.00  0.00     0.084 H 
ENDBRANCH  89  92
ENDBRANCH   1  89
TORSDOF 25
