REMARK  4 active torsions:
REMARK  status: ('A' for Active; 'I' for Inactive)
REMARK       I    between atoms: C1_1  and  N2_3 
REMARK    1  A    between atoms: C1_1  and  C2_2 
REMARK    2  A    between atoms: C2_2  and  O1P_6 
REMARK    3  A    between atoms: N2_3  and  O2_4 
REMARK    4  A    between atoms: O1P_6  and  P_10 
ROOT
ATOM      1  C2  PGH d   1      85.701 -14.611  66.440  0.00  0.00     0.107 C 
ATOM      2  H1  PGH d   1      86.586 -14.128  66.881  0.00  0.00     0.090 H 
ATOM      3  H2  PGH d   1      85.126 -15.115  67.231  0.00  0.00     0.090 H 
ENDROOT
BRANCH   1   4
ATOM      4  C1  PGH d   1      86.118 -15.607  65.372  0.00  0.00     0.265 C 
ATOM      5  O1  PGH d   1      85.292 -15.803  64.467  0.00  0.00    -0.269 OA
ATOM      6  N2  PGH d   1      87.292 -16.129  65.567  0.00  0.00    -0.236 N 
ATOM      7  H3  PGH d   1      87.852 -15.870  66.354  0.00  0.00     0.197 HD
BRANCH   6   8
ATOM      8  O2  PGH d   1      87.733 -17.048  64.653  0.00  0.00    -0.287 OA
ATOM      9  H4  PGH d   1      87.776 -16.644  63.794  0.00  0.00     0.244 HD
ENDBRANCH   6   8
ENDBRANCH   1   4
BRANCH   1  10
ATOM     10  O1P PGH d   1      84.909 -13.670  65.787  0.00  0.00    -0.273 OA
BRANCH  10  11
ATOM     11  P   PGH d   1      84.208 -12.436  66.746  0.00  0.00     0.422 P 
ATOM     12  O2P PGH d   1      82.614 -12.943  66.619  0.00  0.00    -0.617 OA
ATOM     13  O3P PGH d   1      84.729 -12.359  68.319  0.00  0.00    -0.617 OA
ATOM     14  O4P PGH d   1      84.187 -11.095  65.832  0.00  0.00    -0.617 OA
ENDBRANCH  10  11
ENDBRANCH   1  10
TORSDOF 4
