REMARK  19 active torsions:
REMARK  status: ('A' for Active; 'I' for Inactive)
REMARK    1  A    between atoms: C5_1  and  C6_6 
REMARK    2  A    between atoms: C5_1  and  C1_2 
REMARK    3  A    between atoms: C1_2  and  C2_5 
REMARK    4  A    between atoms: C1_2  and  C4_4 
REMARK    5  A    between atoms: C1_2  and  C3_3 
REMARK    6  A    between atoms: C6_6  and  C7_9 
REMARK    7  A    between atoms: C6_6  and  C8_8 
REMARK    8  A    between atoms: C6_6  and  C9_7 
REMARK    9  A    between atoms: C12_12  and  O15_15 
REMARK   10  A    between atoms: O15_15  and  C16_16 
REMARK   11  A    between atoms: C16_16  and  C17_17 
REMARK   12  A    between atoms: C17_17  and  O18_18 
REMARK   13  A    between atoms: O18_18  and  C19_19 
REMARK   14  A    between atoms: C19_19  and  C20_20 
REMARK   15  A    between atoms: C20_20  and  O21_21 
REMARK   16  A    between atoms: O21_21  and  C22_22 
REMARK   17  A    between atoms: C22_22  and  C23_23 
REMARK   18  A    between atoms: C23_23  and  O24_24 
REMARK   19  A    between atoms: O24_24  and  C25_25 
ROOT
ATOM      1  C9  OXN d   1      30.416  30.695  14.388  0.00  0.00    -0.050 A 
ATOM      2  C10 OXN d   1      29.579  31.834  14.642  0.00  0.00    -0.073 A 
ATOM      3  C11 OXN d   1      30.100  33.177  14.586  0.00  0.00    -0.050 A 
ATOM      4  C12 OXN d   1      31.462  33.324  14.271  0.00  0.00     0.068 A 
ATOM      5  C13 OXN d   1      32.341  32.267  14.015  0.00  0.00    -0.050 A 
ATOM      6  C14 OXN d   1      31.797  30.926  14.076  0.00  0.00    -0.073 A 
ATOM      7  H18 OXN d   1      28.533  31.681  14.881  0.00  0.00     0.084 H 
ATOM      8  H19 OXN d   1      29.468  34.037  14.779  0.00  0.00     0.087 H 
ATOM      9  H20 OXN d   1      33.385  32.444  13.781  0.00  0.00     0.087 H 
ATOM     10  H21 OXN d   1      32.446  30.080  13.882  0.00  0.00     0.084 H 
ENDROOT
BRANCH   4  11
ATOM     11  O15 OXN d   1      31.987  34.666  14.120  0.00  0.00    -0.349 OA
BRANCH  11  12
ATOM     12  C16 OXN d   1      31.763  35.509  15.259  0.00  0.00     0.046 C 
ATOM     13  H22 OXN d   1      32.636  35.459  15.927  0.00  0.00     0.078 H 
ATOM     14  H23 OXN d   1      30.869  35.163  15.798  0.00  0.00     0.078 H 
BRANCH  12  15
ATOM     15  C17 OXN d   1      31.556  36.942  14.809  0.00  0.00     0.040 C 
ATOM     16  H24 OXN d   1      30.866  37.443  15.504  0.00  0.00     0.077 H 
ATOM     17  H25 OXN d   1      31.124  36.945  13.797  0.00  0.00     0.077 H 
BRANCH  15  18
ATOM     18  O18 OXN d   1      32.801  37.648  14.791  0.00  0.00    -0.387 OA
BRANCH  18  19
ATOM     19  C19 OXN d   1      32.672  38.927  14.158  0.00  0.00     0.039 C 
ATOM     20  H26 OXN d   1      31.636  39.281  14.263  0.00  0.00     0.077 H 
ATOM     21  H27 OXN d   1      32.920  38.830  13.091  0.00  0.00     0.077 H 
BRANCH  19  22
ATOM     22  C20 OXN d   1      33.610  39.930  14.801  0.00  0.00     0.039 C 
ATOM     23  H28 OXN d   1      33.947  40.650  14.041  0.00  0.00     0.077 H 
ATOM     24  H29 OXN d   1      34.480  39.399  15.215  0.00  0.00     0.077 H 
BRANCH  22  25
ATOM     25  O21 OXN d   1      32.943  40.631  15.851  0.00  0.00    -0.387 OA
BRANCH  25  26
ATOM     26  C22 OXN d   1      33.526  41.912  16.106  0.00  0.00     0.039 C 
ATOM     27  H30 OXN d   1      33.354  42.569  15.241  0.00  0.00     0.077 H 
ATOM     28  H31 OXN d   1      34.608  41.794  16.267  0.00  0.00     0.077 H 
BRANCH  26  29
ATOM     29  C23 OXN d   1      32.896  42.539  17.349  0.00  0.00     0.039 C 
ATOM     30  H32 OXN d   1      31.832  42.263  17.396  0.00  0.00     0.077 H 
ATOM     31  H33 OXN d   1      32.989  43.633  17.291  0.00  0.00     0.077 H 
BRANCH  29  32
ATOM     32  O24 OXN d   1      33.558  42.070  18.524  0.00  0.00    -0.394 OA
BRANCH  32  33
ATOM     33  C25 OXN d   1      33.305  42.905  19.653  0.00  0.00     0.004 C 
ATOM     34  H34 OXN d   1      33.834  42.505  20.531  0.00  0.00     0.066 H 
ATOM     35  H35 OXN d   1      32.224  42.930  19.856  0.00  0.00     0.066 H 
ATOM     36  H36 OXN d   1      33.662  43.924  19.443  0.00  0.00     0.066 H 
ENDBRANCH  32  33
ENDBRANCH  29  32
ENDBRANCH  26  29
ENDBRANCH  25  26
ENDBRANCH  22  25
ENDBRANCH  19  22
ENDBRANCH  18  19
ENDBRANCH  15  18
ENDBRANCH  12  15
ENDBRANCH  11  12
ENDBRANCH   4  11
BRANCH   1  37
ATOM     37  C6  OXN d   1      29.843  29.254  14.472  0.00  0.00    -0.020 C 
BRANCH  37  38
ATOM     38  C5  OXN d   1      29.553  28.830  15.944  0.00  0.00    -0.049 C 
ATOM     39  H1  OXN d   1      29.245  27.781  15.822  0.00  0.00     0.035 H 
ATOM     40  H2  OXN d   1      28.674  29.444  16.189  0.00  0.00     0.035 H 
BRANCH  38  41
ATOM     41  C1  OXN d   1      30.289  28.790  17.273  0.00  0.00    -0.050 C 
BRANCH  41  42
ATOM     42  C2  OXN d   1      31.054  30.057  17.710  0.00  0.00    -0.070 C 
ATOM     43  H9  OXN d   1      31.759  30.351  16.919  0.00  0.00     0.028 H 
ATOM     44  H10 OXN d   1      31.609  29.849  18.637  0.00  0.00     0.028 H 
ATOM     45  H11 OXN d   1      30.339  30.874  17.886  0.00  0.00     0.028 H 
ENDBRANCH  41  42
BRANCH  41  46
ATOM     46  C4  OXN d   1      31.309  27.651  17.189  0.00  0.00    -0.070 C 
ATOM     47  H6  OXN d   1      32.025  27.859  16.381  0.00  0.00     0.028 H 
ATOM     48  H7  OXN d   1      30.787  26.706  16.982  0.00  0.00     0.028 H 
ATOM     49  H8  OXN d   1      31.848  27.570  18.145  0.00  0.00     0.028 H 
ENDBRANCH  41  46
BRANCH  41  50
ATOM     50  C3  OXN d   1      29.327  28.435  18.415  0.00  0.00    -0.070 C 
ATOM     51  H3  OXN d   1      29.880  28.412  19.366  0.00  0.00     0.028 H 
ATOM     52  H4  OXN d   1      28.881  27.447  18.226  0.00  0.00     0.028 H 
ATOM     53  H5  OXN d   1      28.531  29.192  18.472  0.00  0.00     0.028 H 
ENDBRANCH  41  50
ENDBRANCH  38  41
ENDBRANCH  37  38
BRANCH  37  54
ATOM     54  C7  OXN d   1      28.537  29.209  13.682  0.00  0.00    -0.065 C 
ATOM     55  H15 OXN d   1      27.811  29.902  14.133  0.00  0.00     0.028 H 
ATOM     56  H16 OXN d   1      28.130  28.187  13.704  0.00  0.00     0.028 H 
ATOM     57  H17 OXN d   1      28.728  29.506  12.640  0.00  0.00     0.028 H 
ENDBRANCH  37  54
BRANCH  37  58
ATOM     58  C8  OXN d   1      30.799  28.277  13.798  0.00  0.00    -0.065 C 
ATOM     59  H12 OXN d   1      30.985  28.601  12.763  0.00  0.00     0.028 H 
ATOM     60  H13 OXN d   1      30.353  27.272  13.793  0.00  0.00     0.028 H 
ATOM     61  H14 OXN d   1      31.750  28.253  14.351  0.00  0.00     0.028 H 
ENDBRANCH  37  58
ENDBRANCH   1  37
TORSDOF 19
