REMARK  26 active torsions:
REMARK  status: ('A' for Active; 'I' for Inactive)
REMARK    1  A    between atoms: C_1  and  CA_2 
REMARK       I    between atoms: N_15  and  C_1 
REMARK    2  A    between atoms: CA_2  and  O1_14 
REMARK    3  A    between atoms: O1_14  and  C1_3 
REMARK    4  A    between atoms: CA_16  and  N_15 
REMARK    5  A    between atoms: C_17  and  CA_16 
REMARK    6  A    between atoms: CA_16  and  CB_19 
REMARK       I    between atoms: N_25  and  C_17 
REMARK    7  A    between atoms: CB_19  and  CG_20 
REMARK    8  A    between atoms: CA_26  and  N_25 
REMARK    9  A    between atoms: C_34  and  CA_26 
REMARK   10  A    between atoms: CA_26  and  CB_27 
REMARK   11  A    between atoms: CB_27  and  CG_28 
REMARK   12  A    between atoms: CB1_36  and  C_34 
REMARK   13  A    between atoms: CB1_36  and  OB1_41 
REMARK   14  A    between atoms: CA'_37  and  CB1_36 
REMARK   15  A    between atoms: C'_42  and  CA'_37 
REMARK   16  A    between atoms: CA'_37  and  CB'_38 
REMARK   17  A    between atoms: CB'_38  and  CG2_40 
REMARK   18  A    between atoms: CB'_38  and  CG1_39 
REMARK       I    between atoms: N_44  and  C'_42 
REMARK   19  A    between atoms: CA_45  and  N_44 
REMARK   20  A    between atoms: C_46  and  CA_45 
REMARK   21  A    between atoms: CA_45  and  CB_48 
REMARK       I    between atoms: C_46  and  N_52 
REMARK   22  A    between atoms: CB_48  and  CG1_49 
REMARK   23  A    between atoms: CB_48  and  CG2_50 
REMARK   24  A    between atoms: CG1_49  and  CD1_51 
REMARK   25  A    between atoms: N_52  and  CM_53 
REMARK   26  A    between atoms: CM_53  and  C2_54 
ROOT
ATOM      1  CA  1ZK d   1       2.409  17.022  20.996  0.00  0.00     0.073 C 
ATOM      2  H18 1ZK d   1       1.351  16.730  21.069  0.00  0.00     0.084 H 
ENDROOT
BRANCH   1   3
ATOM      3  N   1ZK d   1       2.880  16.383  19.750  0.00  0.00    -0.348 N 
ATOM      4  C   1ZK d   1       2.075  15.585  19.056  0.00  0.00     0.241 C 
ATOM      5  O   1ZK d   1       0.902  15.291  19.364  0.00  0.00    -0.271 OA
ATOM      6  H17 1ZK d   1       3.811  16.552  19.427  0.00  0.00     0.163 HD
BRANCH   4   7
ATOM      7  CA  1ZK d   1       2.701  14.968  17.813  0.00  0.00     0.094 C 
ATOM      8  H11 1ZK d   1       3.542  15.581  17.456  0.00  0.00     0.088 H 
BRANCH   7   9
ATOM      9  CB  1ZK d   1       1.625  14.820  16.689  0.00  0.00     0.002 C 
ATOM     10  H12 1ZK d   1       1.363  15.813  16.295  0.00  0.00     0.046 H 
ATOM     11  H13 1ZK d   1       0.725  14.339  17.100  0.00  0.00     0.046 H 
BRANCH   9  12
ATOM     12  CG  1ZK d   1       2.192  13.971  15.585  0.00  0.00     0.030 A 
ATOM     13  CD2 1ZK d   1       2.726  14.323  14.392  0.00  0.00     0.025 A 
ATOM     14  NE2 1ZK d   1       3.161  13.194  13.771  0.00  0.00    -0.254 NA
ATOM     15  H15 1ZK d   1       2.795  15.336  13.998  0.00  0.00     0.117 H 
ATOM     16  CE1 1ZK d   1       2.906  12.162  14.543  0.00  0.00     0.063 A 
ATOM     17  ND1 1ZK d   1       2.320  12.615  15.639  0.00  0.00    -0.353 N 
ATOM     18  H16 1ZK d   1       3.136  11.121  14.321  0.00  0.00     0.143 H 
ATOM     19  H14 1ZK d   1       2.005  12.026  16.423  0.00  0.00     0.166 HD
ENDBRANCH   9  12
ENDBRANCH   7   9
BRANCH   7  20
ATOM     20  N   1ZK d   1       3.157  13.620  18.206  0.00  0.00    -0.346 N 
ATOM     21  C   1ZK d   1       4.312  13.086  17.860  0.00  0.00     0.242 C 
ATOM     22  O   1ZK d   1       5.155  13.679  17.160  0.00  0.00    -0.271 OA
ATOM     23  H10 1ZK d   1       2.545  13.072  18.776  0.00  0.00     0.163 HD
BRANCH  21  24
ATOM     24  CA  1ZK d   1       4.533  11.657  18.372  0.00  0.00     0.099 C 
ATOM     25  H1  1ZK d   1       5.351  11.190  17.805  0.00  0.00     0.089 H 
ATOM     26  H2  1ZK d   1       3.611  11.074  18.232  0.00  0.00     0.089 H 
BRANCH  24  27
ATOM     27  O1  1ZK d   1       4.871  11.678  19.753  0.00  0.00    -0.341 OA
BRANCH  27  28
ATOM     28  C1  1ZK d   1       5.099  10.610  20.550  0.00  0.00     0.080 A 
ATOM     29  C1A 1ZK d   1       4.098   9.733  20.948  0.00  0.00     0.007 A 
ATOM     30  C4A 1ZK d   1       4.385   8.645  21.778  0.00  0.00    -0.023 A 
ATOM     31  C8  1ZK d   1       2.786   9.926  20.504  0.00  0.00    -0.070 A 
ATOM     32  C4  1ZK d   1       5.694   8.437  22.228  0.00  0.00    -0.072 A 
ATOM     33  C5  1ZK d   1       3.379   7.740  22.165  0.00  0.00    -0.072 A 
ATOM     34  C3  1ZK d   1       6.706   9.320  21.850  0.00  0.00    -0.080 A 
ATOM     35  H5  1ZK d   1       5.921   7.592  22.868  0.00  0.00     0.084 H 
ATOM     36  C2  1ZK d   1       6.413  10.411  21.013  0.00  0.00    -0.050 A 
ATOM     37  H4  1ZK d   1       7.719   9.165  22.202  0.00  0.00     0.083 H 
ATOM     38  H3  1ZK d   1       7.199  11.099  20.724  0.00  0.00     0.087 H 
ATOM     39  C6  1ZK d   1       2.067   7.934  21.703  0.00  0.00    -0.082 A 
ATOM     40  H6  1ZK d   1       3.614   6.903  22.812  0.00  0.00     0.084 H 
ATOM     41  C7  1ZK d   1       1.771   9.028  20.869  0.00  0.00    -0.082 A 
ATOM     42  H7  1ZK d   1       1.283   7.242  21.989  0.00  0.00     0.083 H 
ATOM     43  H8  1ZK d   1       0.760   9.177  20.509  0.00  0.00     0.083 H 
ATOM     44  H9  1ZK d   1       2.551  10.776  19.873  0.00  0.00     0.085 H 
ENDBRANCH  27  28
ENDBRANCH  24  27
ENDBRANCH  21  24
ENDBRANCH   7  20
ENDBRANCH   4   7
ENDBRANCH   1   3
BRANCH   1  45
ATOM     45  C   1ZK d   1       2.381  18.544  20.850  0.00  0.00     0.178 C 
ATOM     46  O   1ZK d   1       3.320  19.337  20.887  0.00  0.00    -0.293 OA
BRANCH  45  47
ATOM     47  CB1 1ZK d   1       1.193  18.891  19.949  0.00  0.00     0.107 C 
ATOM     48  H32 1ZK d   1       0.484  18.051  19.909  0.00  0.00     0.096 H 
BRANCH  47  49
ATOM     49  OB1 1ZK d   1       1.720  19.141  18.631  0.00  0.00    -0.387 OA
ATOM     50  H41 1ZK d   1       2.335  19.864  18.669  0.00  0.00     0.210 HD
ENDBRANCH  47  49
BRANCH  47  51
ATOM     51  CA' 1ZK d   1       0.492  20.118  20.532  0.00  0.00     0.058 C 
ATOM     52  H33 1ZK d   1       1.198  20.956  20.626  0.00  0.00     0.059 H 
BRANCH  51  53
ATOM     53  C'  1ZK d   1      -0.123  19.800  21.913  0.00  0.00     0.225 C 
ATOM     54  O'  1ZK d   1      -0.307  18.668  22.401  0.00  0.00    -0.273 OA
ATOM     55  N   1ZK d   1      -0.446  20.905  22.547  0.00  0.00    -0.347 N 
ATOM     56  H42 1ZK d   1      -0.193  21.742  22.062  0.00  0.00     0.163 HD
BRANCH  55  57
ATOM     57  CA  1ZK d   1      -1.100  21.133  23.816  0.00  0.00     0.092 C 
ATOM     58  H43 1ZK d   1      -1.979  20.472  23.796  0.00  0.00     0.088 H 
BRANCH  57  59
ATOM     59  C   1ZK d   1      -1.679  22.555  23.702  0.00  0.00     0.241 C 
ATOM     60  O   1ZK d   1      -1.129  23.587  24.101  0.00  0.00    -0.271 OA
ATOM     61  N   1ZK d   1      -2.843  22.555  23.074  0.00  0.00    -0.354 N 
ATOM     62  H53 1ZK d   1      -3.190  21.663  22.784  0.00  0.00     0.162 HD
BRANCH  61  63
ATOM     63  CM  1ZK d   1      -3.678  23.707  22.756  0.00  0.00     0.035 C 
ATOM     64  H54 1ZK d   1      -3.231  24.256  21.914  0.00  0.00     0.073 H 
ATOM     65  H55 1ZK d   1      -3.734  24.366  23.635  0.00  0.00     0.073 H 
BRANCH  63  66
ATOM     66  C2  1ZK d   1      -5.057  23.273  22.381  0.00  0.00     0.051 A 
ATOM     67  N1  1ZK d   1      -5.933  24.196  21.950  0.00  0.00    -0.264 NA
ATOM     68  C6  1ZK d   1      -7.201  23.907  21.625  0.00  0.00     0.003 A 
ATOM     69  C5  1ZK d   1      -7.663  22.585  21.712  0.00  0.00    -0.066 A 
ATOM     70  H59 1ZK d   1      -7.869  24.694  21.295  0.00  0.00     0.114 H 
ATOM     71  C4  1ZK d   1      -6.784  21.587  22.164  0.00  0.00    -0.080 A 
ATOM     72  H58 1ZK d   1      -8.681  22.338  21.435  0.00  0.00     0.085 H 
ATOM     73  C3  1ZK d   1      -5.470  21.937  22.492  0.00  0.00    -0.058 A 
ATOM     74  H57 1ZK d   1      -7.119  20.560  22.257  0.00  0.00     0.083 H 
ATOM     75  H56 1ZK d   1      -4.773  21.179  22.831  0.00  0.00     0.086 H 
ENDBRANCH  63  66
ENDBRANCH  61  63
ENDBRANCH  57  59
BRANCH  57  76
ATOM     76  CB  1ZK d   1      -0.412  20.701  25.124  0.00  0.00    -0.030 C 
ATOM     77  H44 1ZK d   1      -0.816  19.700  25.338  0.00  0.00     0.043 H 
BRANCH  76  78
ATOM     78  CG1 1ZK d   1      -0.888  21.613  26.285  0.00  0.00    -0.063 C 
ATOM     79  H45 1ZK d   1      -0.465  22.617  26.134  0.00  0.00     0.033 H 
ATOM     80  H46 1ZK d   1      -0.514  21.195  27.231  0.00  0.00     0.033 H 
BRANCH  78  81
ATOM     81  CD1 1ZK d   1      -2.430  21.741  26.382  0.00  0.00    -0.076 C 
ATOM     82  H50 1ZK d   1      -2.691  22.399  27.224  0.00  0.00     0.027 H 
ATOM     83  H51 1ZK d   1      -2.871  20.746  26.544  0.00  0.00     0.027 H 
ATOM     84  H52 1ZK d   1      -2.822  22.168  25.447  0.00  0.00     0.027 H 
ENDBRANCH  78  81
ENDBRANCH  76  78
BRANCH  76  85
ATOM     85  CG2 1ZK d   1       1.110  20.503  25.122  0.00  0.00    -0.071 C 
ATOM     86  H47 1ZK d   1       1.394  19.851  24.282  0.00  0.00     0.028 H 
ATOM     87  H48 1ZK d   1       1.420  20.037  26.069  0.00  0.00     0.028 H 
ATOM     88  H49 1ZK d   1       1.607  21.479  25.013  0.00  0.00     0.028 H 
ENDBRANCH  76  85
ENDBRANCH  57  76
ENDBRANCH  55  57
ENDBRANCH  51  53
BRANCH  51  89
ATOM     89  CB' 1ZK d   1      -0.593  20.446  19.564  0.00  0.00    -0.047 C 
ATOM     90  H34 1ZK d   1      -0.056  20.764  18.658  0.00  0.00     0.040 H 
BRANCH  89  91
ATOM     91  CG2 1ZK d   1      -1.440  21.637  19.986  0.00  0.00    -0.072 C 
ATOM     92  H38 1ZK d   1      -0.783  22.453  20.323  0.00  0.00     0.028 H 
ATOM     93  H39 1ZK d   1      -2.107  21.340  20.809  0.00  0.00     0.028 H 
ATOM     94  H40 1ZK d   1      -2.042  21.980  19.132  0.00  0.00     0.028 H 
ENDBRANCH  89  91
BRANCH  89  95
ATOM     95  CG1 1ZK d   1      -1.527  19.310  19.094  0.00  0.00    -0.072 C 
ATOM     96  H35 1ZK d   1      -2.268  19.713  18.387  0.00  0.00     0.028 H 
ATOM     97  H36 1ZK d   1      -2.046  18.879  19.963  0.00  0.00     0.028 H 
ATOM     98  H37 1ZK d   1      -0.933  18.529  18.597  0.00  0.00     0.028 H 
ENDBRANCH  89  95
ENDBRANCH  51  89
ENDBRANCH  47  51
ENDBRANCH  45  47
ENDBRANCH   1  45
BRANCH   1  99
ATOM     99  CB  1ZK d   1       2.964  16.550  22.196  0.00  0.00    -0.036 C 
ATOM    100  H19 1ZK d   1       2.218  16.702  22.990  0.00  0.00     0.037 H 
ATOM    101  H20 1ZK d   1       3.857  17.156  22.411  0.00  0.00     0.037 H 
BRANCH  99 102
ATOM    102  CG  1ZK d   1       3.383  15.080  22.229  0.00  0.00    -0.052 C 
ATOM    103  CD2 1ZK d   1       4.930  15.046  22.292  0.00  0.00    -0.062 C 
ATOM    104  CE2 1ZK d   1       5.494  13.656  22.512  0.00  0.00    -0.065 C 
ATOM    105  H24 1ZK d   1       5.259  15.691  23.120  0.00  0.00     0.033 H 
ATOM    106  H25 1ZK d   1       5.326  15.437  21.343  0.00  0.00     0.033 H 
ATOM    107  CZ  1ZK d   1       4.790  12.901  23.631  0.00  0.00    -0.065 C 
ATOM    108  H28 1ZK d   1       5.387  13.082  21.580  0.00  0.00     0.033 H 
ATOM    109  H29 1ZK d   1       6.560  13.746  22.766  0.00  0.00     0.033 H 
ATOM    110  CE1 1ZK d   1       3.254  12.911  23.455  0.00  0.00    -0.065 C 
ATOM    111  H30 1ZK d   1       5.141  11.859  23.633  0.00  0.00     0.033 H 
ATOM    112  H31 1ZK d   1       5.041  13.374  24.592  0.00  0.00     0.033 H 
ATOM    113  CD1 1ZK d   1       2.794  14.390  23.479  0.00  0.00    -0.062 C 
ATOM    114  H26 1ZK d   1       2.983  12.448  22.494  0.00  0.00     0.033 H 
ATOM    115  H27 1ZK d   1       2.778  12.356  24.277  0.00  0.00     0.033 H 
ATOM    116  H22 1ZK d   1       1.696  14.442  23.454  0.00  0.00     0.033 H 
ATOM    117  H23 1ZK d   1       3.164  14.883  24.390  0.00  0.00     0.033 H 
ATOM    118  H21 1ZK d   1       3.029  14.566  21.323  0.00  0.00     0.040 H 
ENDBRANCH  99 102
ENDBRANCH   1  99
TORSDOF 26
