REMARK  6 active torsions:
REMARK  status: ('A' for Active; 'I' for Inactive)
REMARK    1  A    between atoms: C1_1  and  C12_7 
REMARK    2  A    between atoms: C12_7  and  C13_8 
REMARK    3  A    between atoms: C13_8  and  C14_9 
REMARK    4  A    between atoms: C13_8  and  N17_12 
REMARK    5  A    between atoms: N17_12  and  S18_13 
REMARK    6  A    between atoms: S18_13  and  N19_14 
ROOT
ATOM      1  C12 CXA d   1       5.836 -10.186  13.959  0.00  0.00    -0.012 C 
ATOM      2  H6  CXA d   1       6.921 -10.343  14.044  0.00  0.00     0.044 H 
ATOM      3  H7  CXA d   1       5.321 -11.157  13.998  0.00  0.00     0.044 H 
ENDROOT
BRANCH   1   4
ATOM      4  C1  CXA d   1       5.564  -9.575  12.589  0.00  0.00    -0.056 A 
ATOM      5  C2  CXA d   1       6.470  -8.655  11.984  0.00  0.00    -0.077 A 
ATOM      6  C3  CXA d   1       6.186  -8.088  10.710  0.00  0.00    -0.082 A 
ATOM      7  H1  CXA d   1       7.384  -8.385  12.500  0.00  0.00     0.084 H 
ATOM      8  C4  CXA d   1       4.995  -8.433  10.026  0.00  0.00    -0.083 A 
ATOM      9  H2  CXA d   1       6.884  -7.390  10.262  0.00  0.00     0.083 H 
ATOM     10  C5  CXA d   1       4.096  -9.343  10.613  0.00  0.00    -0.082 A 
ATOM     11  H3  CXA d   1       4.777  -7.999   9.057  0.00  0.00     0.083 H 
ATOM     12  C6  CXA d   1       4.383  -9.905  11.876  0.00  0.00    -0.077 A 
ATOM     13  H4  CXA d   1       3.183  -9.613  10.095  0.00  0.00     0.083 H 
ATOM     14  H5  CXA d   1       3.682 -10.607  12.312  0.00  0.00     0.084 H 
ENDBRANCH   1   4
BRANCH   1  15
ATOM     15  C13 CXA d   1       5.371  -9.343  15.225  0.00  0.00     0.108 C 
ATOM     16  H8  CXA d   1       5.858  -8.358  15.168  0.00  0.00     0.091 H 
BRANCH  15  17
ATOM     17  C14 CXA d   1       3.824  -9.165  15.202  0.00  0.00     0.197 C 
ATOM     18  O15 CXA d   1       3.426  -7.960  14.746  0.00  0.00    -0.646 OA
ATOM     19  O16 CXA d   1       3.034  -9.988  15.548  0.00  0.00    -0.646 OA
ENDBRANCH  15  17
BRANCH  15  20
ATOM     20  N17 CXA d   1       5.684  -9.953  16.559  0.00  0.00    -0.288 N 
ATOM     21  H9  CXA d   1       6.000 -10.902  16.586  0.00  0.00     0.174 HD
BRANCH  20  22
ATOM     22  S18 CXA d   1       5.524  -9.086  18.072  0.00  0.00     0.313 S 
ATOM     23  O20 CXA d   1       5.908  -9.933  19.161  0.00  0.00    -0.183 OA
ATOM     24  O21 CXA d   1       4.264  -8.405  18.046  0.00  0.00    -0.183 OA
BRANCH  22  25
ATOM     25  N19 CXA d   1       6.509  -7.722  18.308  0.00  0.00    -0.312 N 
ATOM     26  H10 CXA d   1       6.446  -7.201  19.159  0.00  0.00     0.170 HD
ATOM     27  H11 CXA d   1       7.152  -7.440  17.596  0.00  0.00     0.170 HD
ENDBRANCH  22  25
ENDBRANCH  20  22
ENDBRANCH  15  20
ENDBRANCH   1  15
TORSDOF 6
