REMARK  24 active torsions:
REMARK  status: ('A' for Active; 'I' for Inactive)
REMARK    1  A    between atoms: C48_2  and  C40_4 
REMARK       I    between atoms: C48_2  and  N50_3 
REMARK    2  A    between atoms: C40_4  and  N39_12 
REMARK    3  A    between atoms: C40_4  and  C41_5 
REMARK    4  A    between atoms: C41_5  and  C42_6 
REMARK       I    between atoms: N39_12  and  C37_13 
REMARK    5  A    between atoms: C37_13  and  C31_15 
REMARK    6  A    between atoms: C31_15  and  N30_21 
REMARK    7  A    between atoms: C31_15  and  C32_16 
REMARK    8  A    between atoms: C32_16  and  C33_17 
REMARK    9  A    between atoms: C33_17  and  C34_18 
REMARK       I    between atoms: C34_18  and  N36_20 
REMARK       I    between atoms: N30_21  and  C28_22 
REMARK   10  A    between atoms: C28_22  and  C20_24 
REMARK   11  A    between atoms: C20_24  and  C19_32 
REMARK   12  A    between atoms: C20_24  and  C21_25 
REMARK   13  A    between atoms: C21_25  and  C22_26 
REMARK   14  A    between atoms: C19_32  and  C17_33 
REMARK   15  A    between atoms: C17_33  and  C9_35 
REMARK   16  A    between atoms: C17_33  and  O18_34 
REMARK   17  A    between atoms: C9_35  and  C10_44 
REMARK   18  A    between atoms: C9_35  and  N8_36 
REMARK       I    between atoms: N8_36  and  C6_37 
REMARK   19  A    between atoms: C6_37  and  O5_39 
REMARK   20  A    between atoms: O5_39  and  C1_40 
REMARK   21  A    between atoms: C1_40  and  C2_43 
REMARK   22  A    between atoms: C1_40  and  C3_42 
REMARK   23  A    between atoms: C1_40  and  C4_41 
REMARK   24  A    between atoms: C10_44  and  C11_45 
ROOT
ATOM      1  C20 Q50 d   1      15.084  22.880   6.419  0.00  0.00     0.030 C 
ATOM      2  H20 Q50 d   1      15.698  23.340   5.630  0.00  0.00     0.055 H 
ENDROOT
BRANCH   1   3
ATOM      3  C28 Q50 d   1      15.046  21.394   6.127  0.00  0.00     0.223 C 
ATOM      4  N30 Q50 d   1      16.185  20.872   5.694  0.00  0.00    -0.347 N 
ATOM      5  H19 Q50 d   1      16.991  21.458   5.616  0.00  0.00     0.163 HD
ATOM      6  O29 Q50 d   1      14.012  20.717   6.218  0.00  0.00    -0.273 OA
BRANCH   4   7
ATOM      7  C31 Q50 d   1      16.290  19.480   5.332  0.00  0.00     0.089 C 
ATOM      8  H12 Q50 d   1      15.630  18.851   5.947  0.00  0.00     0.087 H 
BRANCH   7   9
ATOM      9  C37 Q50 d   1      17.705  18.964   5.451  0.00  0.00     0.241 C 
ATOM     10  N39 Q50 d   1      17.763  17.672   5.833  0.00  0.00    -0.346 N 
ATOM     11  H11 Q50 d   1      16.912  17.217   6.096  0.00  0.00     0.163 HD
ATOM     12  O38 Q50 d   1      18.696  19.690   5.278  0.00  0.00    -0.271 OA
BRANCH  10  13
ATOM     13  C40 Q50 d   1      19.020  16.893   5.883  0.00  0.00     0.093 C 
ATOM     14  H3  Q50 d   1      19.739  17.366   5.198  0.00  0.00     0.088 H 
BRANCH  13  15
ATOM     15  C48 Q50 d   1      18.731  15.496   5.387  0.00  0.00     0.238 C 
ATOM     16  O49 Q50 d   1      17.739  14.976   5.816  0.00  0.00    -0.271 OA
ATOM     17  N50 Q50 d   1      19.542  14.916   4.473  0.00  0.00    -0.368 N 
ATOM     18  H1  Q50 d   1      20.357  15.397   4.151  0.00  0.00     0.159 HD
ATOM     19  H2  Q50 d   1      19.326  14.006   4.119  0.00  0.00     0.159 HD
ENDBRANCH  13  15
BRANCH  13  20
ATOM     20  C41 Q50 d   1      19.664  16.849   7.262  0.00  0.00    -0.014 C 
ATOM     21  H4  Q50 d   1      19.875  17.883   7.571  0.00  0.00     0.043 H 
ATOM     22  H5  Q50 d   1      20.608  16.291   7.178  0.00  0.00     0.043 H 
BRANCH  20  23
ATOM     23  C42 Q50 d   1      18.846  16.208   8.331  0.00  0.00    -0.056 A 
ATOM     24  C47 Q50 d   1      18.960  14.835   8.601  0.00  0.00    -0.077 A 
ATOM     25  C46 Q50 d   1      18.174  14.307   9.604  0.00  0.00    -0.082 A 
ATOM     26  H10 Q50 d   1      19.644  14.210   8.039  0.00  0.00     0.084 H 
ATOM     27  C45 Q50 d   1      17.302  15.116  10.324  0.00  0.00    -0.083 A 
ATOM     28  H9  Q50 d   1      18.237  13.249   9.834  0.00  0.00     0.083 H 
ATOM     29  C44 Q50 d   1      17.194  16.461  10.044  0.00  0.00    -0.082 A 
ATOM     30  H8  Q50 d   1      16.700  14.684  11.115  0.00  0.00     0.083 H 
ATOM     31  C43 Q50 d   1      17.998  17.011   9.063  0.00  0.00    -0.077 A 
ATOM     32  H7  Q50 d   1      16.488  17.080  10.586  0.00  0.00     0.083 H 
ATOM     33  H6  Q50 d   1      17.961  18.077   8.869  0.00  0.00     0.084 H 
ENDBRANCH  20  23
ENDBRANCH  13  20
ENDBRANCH  10  13
ENDBRANCH   7   9
BRANCH   7  34
ATOM     34  C32 Q50 d   1      15.794  19.559   3.884  0.00  0.00    -0.030 C 
ATOM     35  H13 Q50 d   1      16.482  20.215   3.331  0.00  0.00     0.037 H 
ATOM     36  H14 Q50 d   1      14.791  20.009   3.899  0.00  0.00     0.037 H 
BRANCH  34  37
ATOM     37  C33 Q50 d   1      15.697  18.230   3.114  0.00  0.00     0.011 C 
ATOM     38  H15 Q50 d   1      14.998  18.349   2.273  0.00  0.00     0.047 H 
ATOM     39  H16 Q50 d   1      15.326  17.446   3.790  0.00  0.00     0.047 H 
BRANCH  37  40
ATOM     40  C34 Q50 d   1      17.049  17.828   2.583  0.00  0.00     0.215 C 
ATOM     41  N36 Q50 d   1      17.361  16.542   2.691  0.00  0.00    -0.370 N 
ATOM     42  H17 Q50 d   1      18.244  16.212   2.357  0.00  0.00     0.159 HD
ATOM     43  H18 Q50 d   1      16.713  15.903   3.106  0.00  0.00     0.159 HD
ATOM     44  O35 Q50 d   1      17.796  18.655   2.074  0.00  0.00    -0.274 OA
ENDBRANCH  37  40
ENDBRANCH  34  37
ENDBRANCH   7  34
ENDBRANCH   4   7
ENDBRANCH   1   3
BRANCH   1  45
ATOM     45  C19 Q50 d   1      13.680  23.438   6.334  0.00  0.00    -0.028 C 
ATOM     46  H28 Q50 d   1      13.603  24.368   6.917  0.00  0.00     0.038 H 
ATOM     47  H29 Q50 d   1      12.954  22.705   6.716  0.00  0.00     0.038 H 
BRANCH  45  48
ATOM     48  C17 Q50 d   1      13.423  23.717   4.857  0.00  0.00     0.056 C 
ATOM     49  H30 Q50 d   1      13.883  22.920   4.254  0.00  0.00     0.086 H 
BRANCH  48  50
ATOM     50  C9  Q50 d   1      11.907  23.698   4.577  0.00  0.00     0.043 C 
ATOM     51  H32 Q50 d   1      11.500  22.734   4.916  0.00  0.00     0.077 H 
BRANCH  50  52
ATOM     52  C10 Q50 d   1      11.576  23.906   3.103  0.00  0.00    -0.020 C 
ATOM     53  H43 Q50 d   1      12.035  23.098   2.515  0.00  0.00     0.043 H 
ATOM     54  H44 Q50 d   1      11.985  24.874   2.777  0.00  0.00     0.043 H 
BRANCH  52  55
ATOM     55  C11 Q50 d   1      10.066  23.898   2.866  0.00  0.00    -0.056 A 
ATOM     56  C16 Q50 d   1       9.311  22.729   2.978  0.00  0.00    -0.077 A 
ATOM     57  C15 Q50 d   1       7.934  22.786   2.765  0.00  0.00    -0.082 A 
ATOM     58  H49 Q50 d   1       9.789  21.789   3.227  0.00  0.00     0.084 H 
ATOM     59  C14 Q50 d   1       7.293  23.969   2.479  0.00  0.00    -0.083 A 
ATOM     60  H48 Q50 d   1       7.353  21.873   2.826  0.00  0.00     0.083 H 
ATOM     61  C13 Q50 d   1       8.052  25.134   2.373  0.00  0.00    -0.082 A 
ATOM     62  H47 Q50 d   1       6.218  23.995   2.339  0.00  0.00     0.083 H 
ATOM     63  C12 Q50 d   1       9.431  25.074   2.561  0.00  0.00    -0.077 A 
ATOM     64  H46 Q50 d   1       7.572  26.079   2.146  0.00  0.00     0.083 H 
ATOM     65  H45 Q50 d   1      10.017  25.981   2.464  0.00  0.00     0.084 H 
ENDBRANCH  52  55
ENDBRANCH  50  52
BRANCH  50  66
ATOM     66  N8  Q50 d   1      11.236  24.803   5.276  0.00  0.00    -0.329 N 
ATOM     67  C6  Q50 d   1      10.719  24.679   6.473  0.00  0.00     0.361 C 
ATOM     68  O7  Q50 d   1      10.792  23.613   7.074  0.00  0.00    -0.238 OA
ATOM     69  H33 Q50 d   1      11.171  25.689   4.817  0.00  0.00     0.165 HD
BRANCH  67  70
ATOM     70  O5  Q50 d   1      10.065  25.883   7.010  0.00  0.00    -0.294 OA
BRANCH  70  71
ATOM     71  C1  Q50 d   1       9.590  26.117   8.326  0.00  0.00     0.061 C 
BRANCH  71  72
ATOM     72  C2  Q50 d   1       9.205  27.596   8.410  0.00  0.00    -0.048 C 
ATOM     73  H40 Q50 d   1       8.830  27.820   9.419  0.00  0.00     0.031 H 
ATOM     74  H41 Q50 d   1       8.420  27.813   7.670  0.00  0.00     0.031 H 
ATOM     75  H42 Q50 d   1      10.088  28.217   8.201  0.00  0.00     0.031 H 
ENDBRANCH  71  72
BRANCH  71  76
ATOM     76  C3  Q50 d   1       8.344  25.276   8.585  0.00  0.00    -0.048 C 
ATOM     77  H37 Q50 d   1       7.982  25.463   9.607  0.00  0.00     0.031 H 
ATOM     78  H38 Q50 d   1       8.591  24.210   8.473  0.00  0.00     0.031 H 
ATOM     79  H39 Q50 d   1       7.561  25.549   7.863  0.00  0.00     0.031 H 
ENDBRANCH  71  76
BRANCH  71  80
ATOM     80  C4  Q50 d   1      10.705  25.817   9.302  0.00  0.00    -0.048 C 
ATOM     81  H34 Q50 d   1      10.351  25.994  10.328  0.00  0.00     0.031 H 
ATOM     82  H35 Q50 d   1      11.563  26.473   9.092  0.00  0.00     0.031 H 
ATOM     83  H36 Q50 d   1      11.012  24.766   9.196  0.00  0.00     0.031 H 
ENDBRANCH  71  80
ENDBRANCH  70  71
ENDBRANCH  67  70
ENDBRANCH  50  66
ENDBRANCH  48  50
BRANCH  48  84
ATOM     84  O18 Q50 d   1      14.078  24.953   4.537  0.00  0.00    -0.393 OA
ATOM     85  H31 Q50 d   1      13.967  25.139   3.612  0.00  0.00     0.210 HD
ENDBRANCH  48  84
ENDBRANCH  45  48
ENDBRANCH   1  45
BRANCH   1  86
ATOM     86  C21 Q50 d   1      15.651  23.328   7.735  0.00  0.00    -0.029 C 
ATOM     87  H21 Q50 d   1      15.088  24.195   8.112  0.00  0.00     0.041 H 
ATOM     88  H22 Q50 d   1      16.709  23.602   7.615  0.00  0.00     0.041 H 
BRANCH  86  89
ATOM     89  C22 Q50 d   1      15.526  22.203   8.668  0.00  0.00    -0.057 A 
ATOM     90  C27 Q50 d   1      16.644  21.423   8.861  0.00  0.00    -0.077 A 
ATOM     91  C26 Q50 d   1      16.589  20.338   9.717  0.00  0.00    -0.082 A 
ATOM     92  H27 Q50 d   1      17.566  21.659   8.343  0.00  0.00     0.084 H 
ATOM     93  C25 Q50 d   1      15.418  20.066  10.366  0.00  0.00    -0.083 A 
ATOM     94  H26 Q50 d   1      17.461  19.713   9.870  0.00  0.00     0.083 H 
ATOM     95  C24 Q50 d   1      14.270  20.836  10.151  0.00  0.00    -0.082 A 
ATOM     96  H25 Q50 d   1      15.378  19.236  11.062  0.00  0.00     0.083 H 
ATOM     97  C23 Q50 d   1      14.309  21.937   9.291  0.00  0.00    -0.077 A 
ATOM     98  H24 Q50 d   1      13.345  20.577  10.654  0.00  0.00     0.083 H 
ATOM     99  H23 Q50 d   1      13.435  22.554   9.117  0.00  0.00     0.084 H 
ENDBRANCH  86  89
ENDBRANCH   1  86
TORSDOF 24
