REMARK  24 active torsions:
REMARK  status: ('A' for Active; 'I' for Inactive)
REMARK    1  A    between atoms: C48_2  and  C40_4 
REMARK       I    between atoms: C48_2  and  N50_3 
REMARK    2  A    between atoms: C40_4  and  N39_12 
REMARK    3  A    between atoms: C40_4  and  C41_5 
REMARK    4  A    between atoms: C41_5  and  C42_6 
REMARK       I    between atoms: N39_12  and  C37_13 
REMARK    5  A    between atoms: C37_13  and  C31_15 
REMARK    6  A    between atoms: C31_15  and  N30_21 
REMARK    7  A    between atoms: C31_15  and  C32_16 
REMARK    8  A    between atoms: C32_16  and  C33_17 
REMARK    9  A    between atoms: C33_17  and  C34_18 
REMARK       I    between atoms: C34_18  and  N36_20 
REMARK       I    between atoms: N30_21  and  C28_22 
REMARK   10  A    between atoms: C28_22  and  C20_24 
REMARK   11  A    between atoms: C20_24  and  C19_32 
REMARK   12  A    between atoms: C20_24  and  C21_25 
REMARK   13  A    between atoms: C21_25  and  C22_26 
REMARK   14  A    between atoms: C19_32  and  C17_33 
REMARK   15  A    between atoms: C17_33  and  C9_35 
REMARK   16  A    between atoms: C17_33  and  O18_34 
REMARK   17  A    between atoms: C9_35  and  C10_44 
REMARK   18  A    between atoms: C9_35  and  N8_36 
REMARK       I    between atoms: N8_36  and  C6_37 
REMARK   19  A    between atoms: C6_37  and  O5_39 
REMARK   20  A    between atoms: O5_39  and  C1_40 
REMARK   21  A    between atoms: C1_40  and  C2_43 
REMARK   22  A    between atoms: C1_40  and  C3_42 
REMARK   23  A    between atoms: C1_40  and  C4_41 
REMARK   24  A    between atoms: C10_44  and  C11_45 
ROOT
ATOM      1  C20 Q50 d   1      -7.861  17.293  -0.624  0.00  0.00     0.030 C 
ATOM      2  H20 Q50 d   1      -8.400  18.157  -1.041  0.00  0.00     0.055 H 
ENDROOT
BRANCH   1   3
ATOM      3  C28 Q50 d   1      -7.557  16.332  -1.726  0.00  0.00     0.223 C 
ATOM      4  N30 Q50 d   1      -7.655  16.904  -2.889  0.00  0.00    -0.347 N 
ATOM      5  H19 Q50 d   1      -7.976  17.849  -2.947  0.00  0.00     0.163 HD
ATOM      6  O29 Q50 d   1      -7.282  15.135  -1.600  0.00  0.00    -0.273 OA
BRANCH   4   7
ATOM      7  C31 Q50 d   1      -7.309  16.197  -4.095  0.00  0.00     0.089 C 
ATOM      8  H12 Q50 d   1      -6.680  15.339  -3.816  0.00  0.00     0.087 H 
BRANCH   7   9
ATOM      9  C37 Q50 d   1      -6.434  17.055  -5.088  0.00  0.00     0.241 C 
ATOM     10  N39 Q50 d   1      -5.432  16.340  -5.642  0.00  0.00    -0.346 N 
ATOM     11  H11 Q50 d   1      -5.325  15.390  -5.350  0.00  0.00     0.163 HD
ATOM     12  O38 Q50 d   1      -6.561  18.270  -5.393  0.00  0.00    -0.271 OA
BRANCH  10  13
ATOM     13  C40 Q50 d   1      -4.485  16.857  -6.645  0.00  0.00     0.093 C 
ATOM     14  H3  Q50 d   1      -4.935  17.754  -7.095  0.00  0.00     0.088 H 
BRANCH  13  15
ATOM     15  C48 Q50 d   1      -4.293  15.840  -7.791  0.00  0.00     0.238 C 
ATOM     16  O49 Q50 d   1      -3.953  14.660  -7.644  0.00  0.00    -0.271 OA
ATOM     17  N50 Q50 d   1      -4.560  16.331  -9.011  0.00  0.00    -0.368 N 
ATOM     18  H1  Q50 d   1      -4.834  17.287  -9.116  0.00  0.00     0.159 HD
ATOM     19  H2  Q50 d   1      -4.485  15.741  -9.815  0.00  0.00     0.159 HD
ENDBRANCH  13  15
BRANCH  13  20
ATOM     20  C41 Q50 d   1      -3.178  17.316  -5.945  0.00  0.00    -0.014 C 
ATOM     21  H4  Q50 d   1      -3.460  18.008  -5.138  0.00  0.00     0.043 H 
ATOM     22  H5  Q50 d   1      -2.573  17.851  -6.692  0.00  0.00     0.043 H 
BRANCH  20  23
ATOM     23  C42 Q50 d   1      -2.293  16.227  -5.330  0.00  0.00    -0.056 A 
ATOM     24  C47 Q50 d   1      -1.055  15.885  -5.904  0.00  0.00    -0.077 A 
ATOM     25  C46 Q50 d   1      -0.212  14.930  -5.327  0.00  0.00    -0.082 A 
ATOM     26  H10 Q50 d   1      -0.746  16.376  -6.820  0.00  0.00     0.084 H 
ATOM     27  C45 Q50 d   1      -0.551  14.301  -4.145  0.00  0.00    -0.083 A 
ATOM     28  H9  Q50 d   1       0.723  14.679  -5.815  0.00  0.00     0.083 H 
ATOM     29  C44 Q50 d   1      -1.759  14.647  -3.564  0.00  0.00    -0.082 A 
ATOM     30  H8  Q50 d   1       0.103  13.566  -3.690  0.00  0.00     0.083 H 
ATOM     31  C43 Q50 d   1      -2.621  15.597  -4.133  0.00  0.00    -0.077 A 
ATOM     32  H7  Q50 d   1      -2.049  14.167  -2.636  0.00  0.00     0.083 H 
ATOM     33  H6  Q50 d   1      -3.552  15.843  -3.635  0.00  0.00     0.084 H 
ENDBRANCH  20  23
ENDBRANCH  13  20
ENDBRANCH  10  13
ENDBRANCH   7   9
BRANCH   7  34
ATOM     34  C32 Q50 d   1      -8.610  15.640  -4.607  0.00  0.00    -0.030 C 
ATOM     35  H13 Q50 d   1      -9.273  16.464  -4.909  0.00  0.00     0.037 H 
ATOM     36  H14 Q50 d   1      -9.097  15.048  -3.818  0.00  0.00     0.037 H 
BRANCH  34  37
ATOM     37  C33 Q50 d   1      -8.316  14.761  -5.795  0.00  0.00     0.011 C 
ATOM     38  H15 Q50 d   1      -9.083  13.979  -5.895  0.00  0.00     0.047 H 
ATOM     39  H16 Q50 d   1      -7.326  14.293  -5.692  0.00  0.00     0.047 H 
BRANCH  37  40
ATOM     40  C34 Q50 d   1      -8.342  15.669  -6.972  0.00  0.00     0.215 C 
ATOM     41  N36 Q50 d   1      -7.568  15.371  -8.018  0.00  0.00    -0.370 N 
ATOM     42  H17 Q50 d   1      -7.566  15.964  -8.823  0.00  0.00     0.159 HD
ATOM     43  H18 Q50 d   1      -6.991  14.555  -7.996  0.00  0.00     0.159 HD
ATOM     44  O35 Q50 d   1      -9.038  16.653  -6.941  0.00  0.00    -0.274 OA
ENDBRANCH  37  40
ENDBRANCH  34  37
ENDBRANCH   7  34
ENDBRANCH   4   7
ENDBRANCH   1   3
BRANCH   1  45
ATOM     45  C19 Q50 d   1      -8.703  16.588   0.392  0.00  0.00    -0.028 C 
ATOM     46  H28 Q50 d   1      -8.665  17.142   1.341  0.00  0.00     0.038 H 
ATOM     47  H29 Q50 d   1      -8.311  15.572   0.545  0.00  0.00     0.038 H 
BRANCH  45  48
ATOM     48  C17 Q50 d   1     -10.120  16.503  -0.071  0.00  0.00     0.056 C 
ATOM     49  H30 Q50 d   1     -10.186  16.355  -1.159  0.00  0.00     0.086 H 
BRANCH  48  50
ATOM     50  C9  Q50 d   1     -10.722  15.236   0.586  0.00  0.00     0.043 C 
ATOM     51  H32 Q50 d   1     -10.019  14.411   0.397  0.00  0.00     0.077 H 
BRANCH  50  52
ATOM     52  C10 Q50 d   1     -12.086  14.792   0.002  0.00  0.00    -0.020 C 
ATOM     53  H43 Q50 d   1     -11.947  14.548  -1.062  0.00  0.00     0.043 H 
ATOM     54  H44 Q50 d   1     -12.794  15.628   0.097  0.00  0.00     0.043 H 
BRANCH  52  55
ATOM     55  C11 Q50 d   1     -12.678  13.578   0.701  0.00  0.00    -0.056 A 
ATOM     56  C16 Q50 d   1     -12.246  12.263   0.418  0.00  0.00    -0.077 A 
ATOM     57  C15 Q50 d   1     -12.823  11.177   1.124  0.00  0.00    -0.082 A 
ATOM     58  H49 Q50 d   1     -11.482  12.086  -0.330  0.00  0.00     0.084 H 
ATOM     59  C14 Q50 d   1     -13.840  11.351   2.092  0.00  0.00    -0.083 A 
ATOM     60  H48 Q50 d   1     -12.471  10.174   0.914  0.00  0.00     0.083 H 
ATOM     61  C13 Q50 d   1     -14.283  12.648   2.346  0.00  0.00    -0.082 A 
ATOM     62  H47 Q50 d   1     -14.261  10.503   2.619  0.00  0.00     0.083 H 
ATOM     63  C12 Q50 d   1     -13.716  13.735   1.659  0.00  0.00    -0.077 A 
ATOM     64  H46 Q50 d   1     -15.067  12.819   3.075  0.00  0.00     0.083 H 
ATOM     65  H45 Q50 d   1     -14.085  14.733   1.868  0.00  0.00     0.084 H 
ENDBRANCH  52  55
ENDBRANCH  50  52
BRANCH  50  66
ATOM     66  N8  Q50 d   1     -10.788  15.439   2.055  0.00  0.00    -0.329 N 
ATOM     67  C6  Q50 d   1      -9.993  14.720   2.897  0.00  0.00     0.361 C 
ATOM     68  O7  Q50 d   1      -9.279  13.892   2.321  0.00  0.00    -0.238 OA
ATOM     69  H33 Q50 d   1     -11.424  16.112   2.432  0.00  0.00     0.165 HD
BRANCH  67  70
ATOM     70  O5  Q50 d   1     -10.004  14.898   4.398  0.00  0.00    -0.294 OA
BRANCH  70  71
ATOM     71  C1  Q50 d   1      -9.038  14.994   5.525  0.00  0.00     0.061 C 
BRANCH  71  72
ATOM     72  C2  Q50 d   1      -9.678  15.555   6.780  0.00  0.00    -0.048 C 
ATOM     73  H40 Q50 d   1      -8.928  15.607   7.583  0.00  0.00     0.031 H 
ATOM     74  H41 Q50 d   1     -10.505  14.901   7.093  0.00  0.00     0.031 H 
ATOM     75  H42 Q50 d   1     -10.065  16.564   6.575  0.00  0.00     0.031 H 
ENDBRANCH  71  72
BRANCH  71  76
ATOM     76  C3  Q50 d   1      -8.577  13.661   6.052  0.00  0.00    -0.048 C 
ATOM     77  H37 Q50 d   1      -7.869  13.819   6.879  0.00  0.00     0.031 H 
ATOM     78  H38 Q50 d   1      -8.081  13.100   5.246  0.00  0.00     0.031 H 
ATOM     79  H39 Q50 d   1      -9.444  13.091   6.416  0.00  0.00     0.031 H 
ENDBRANCH  71  76
BRANCH  71  80
ATOM     80  C4  Q50 d   1      -7.829  15.847   5.234  0.00  0.00    -0.048 C 
ATOM     81  H34 Q50 d   1      -7.171  15.863   6.115  0.00  0.00     0.031 H 
ATOM     82  H35 Q50 d   1      -8.152  16.872   4.998  0.00  0.00     0.031 H 
ATOM     83  H36 Q50 d   1      -7.282  15.428   4.376  0.00  0.00     0.031 H 
ENDBRANCH  71  80
ENDBRANCH  70  71
ENDBRANCH  67  70
ENDBRANCH  50  66
ENDBRANCH  48  50
BRANCH  48  84
ATOM     84  O18 Q50 d   1     -10.544  17.864   0.222  0.00  0.00    -0.393 OA
ATOM     85  H31 Q50 d   1     -11.465  17.960   0.011  0.00  0.00     0.210 HD
ENDBRANCH  48  84
ENDBRANCH  45  48
ENDBRANCH   1  45
BRANCH   1  86
ATOM     86  C21 Q50 d   1      -6.618  17.782   0.127  0.00  0.00    -0.029 C 
ATOM     87  H21 Q50 d   1      -6.478  17.126   0.999  0.00  0.00     0.041 H 
ATOM     88  H22 Q50 d   1      -6.819  18.808   0.469  0.00  0.00     0.041 H 
BRANCH  86  89
ATOM     89  C22 Q50 d   1      -5.311  17.805  -0.642  0.00  0.00    -0.057 A 
ATOM     90  C27 Q50 d   1      -5.034  18.791  -1.615  0.00  0.00    -0.077 A 
ATOM     91  C26 Q50 d   1      -3.805  18.832  -2.311  0.00  0.00    -0.082 A 
ATOM     92  H27 Q50 d   1      -5.787  19.539  -1.834  0.00  0.00     0.084 H 
ATOM     93  C25 Q50 d   1      -2.824  17.896  -2.009  0.00  0.00    -0.083 A 
ATOM     94  H26 Q50 d   1      -3.630  19.585  -3.071  0.00  0.00     0.083 H 
ATOM     95  C24 Q50 d   1      -3.101  16.915  -1.032  0.00  0.00    -0.082 A 
ATOM     96  H25 Q50 d   1      -1.865  17.918  -2.513  0.00  0.00     0.083 H 
ATOM     97  C23 Q50 d   1      -4.313  16.870  -0.333  0.00  0.00    -0.077 A 
ATOM     98  H24 Q50 d   1      -2.346  16.168  -0.815  0.00  0.00     0.083 H 
ATOM     99  H23 Q50 d   1      -4.477  16.123   0.436  0.00  0.00     0.084 H 
ENDBRANCH  86  89
ENDBRANCH   1  86
TORSDOF 24
