REMARK  6 active torsions:
REMARK  status: ('A' for Active; 'I' for Inactive)
REMARK    1  A    between atoms: C1_1  and  O4'_16 
REMARK    2  A    between atoms: C2_2  and  O2_3 
REMARK    3  A    between atoms: C3_4  and  O3_5 
REMARK    4  A    between atoms: C4_6  and  O4_7 
REMARK    5  A    between atoms: C3'_12  and  O3'_14 
REMARK    6  A    between atoms: O4'_16  and  C4'_15 
ROOT
ATOM      1  C1  XIL d   1      16.939  65.278  38.689  0.00  0.00     0.158 C 
ATOM      2  C2  XIL d   1      16.736  64.264  39.823  0.00  0.00     0.110 C 
ATOM      3  C3  XIL d   1      15.286  63.764  39.853  0.00  0.00     0.091 C 
ATOM      4  C4  XIL d   1      14.307  64.934  39.857  0.00  0.00     0.083 C 
ATOM      5  C5  XIL d   1      14.626  65.900  38.709  0.00  0.00     0.049 C 
ATOM      6  O5  XIL d   1      15.995  66.354  38.807  0.00  0.00    -0.356 OA
ATOM      7  H1  XIL d   1      16.801  64.774  37.721  0.00  0.00     0.133 H 
ATOM      8  H2  XIL d   1      16.968  64.748  40.783  0.00  0.00     0.094 H 
ATOM      9  H4  XIL d   1      15.104  63.151  38.958  0.00  0.00     0.091 H 
ATOM     10  H6  XIL d   1      14.390  65.471  40.813  0.00  0.00     0.090 H 
ATOM     11  H8  XIL d   1      13.951  66.766  38.764  0.00  0.00     0.078 H 
ATOM     12  H9  XIL d   1      14.482  65.384  37.748  0.00  0.00     0.078 H 
ENDROOT
BRANCH   1  13
ATOM     13  O4' XIL d   1      18.277  65.824  38.768  0.00  0.00    -0.350 OA
BRANCH  13  14
ATOM     14  C4' XIL d   1      18.550  66.655  37.644  0.00  0.00     0.076 C 
ATOM     15  C5' XIL d   1      19.028  65.850  36.431  0.00  0.00    -0.023 C 
ATOM     16  C6' XIL d   1      19.271  66.834  35.322  0.00  0.00    -0.002 C 
ATOM     17  H14 XIL d   1      18.257  65.125  36.131  0.00  0.00     0.039 H 
ATOM     18  H15 XIL d   1      19.959  65.317  36.674  0.00  0.00     0.039 H 
ATOM     19  N1' XIL d   1      20.301  67.776  35.697  0.00  0.00    -0.359 N 
ATOM     20  H16 XIL d   1      19.588  66.291  34.420  0.00  0.00     0.064 H 
ATOM     21  H17 XIL d   1      18.340  67.380  35.113  0.00  0.00     0.064 H 
ATOM     22  C2' XIL d   1      20.340  68.338  37.000  0.00  0.00     0.249 C 
ATOM     23  H10 XIL d   1      20.997  68.036  35.028  0.00  0.00     0.162 HD
ATOM     24  C3' XIL d   1      19.648  67.693  38.053  0.00  0.00     0.137 C 
ATOM     25  O2' XIL d   1      21.192  69.177  37.263  0.00  0.00    -0.271 OA
ATOM     26  H11 XIL d   1      20.440  67.062  38.483  0.00  0.00     0.102 H 
ATOM     27  H13 XIL d   1      17.630  67.190  37.367  0.00  0.00     0.088 H 
BRANCH  24  28
ATOM     28  O3' XIL d   1      19.226  68.461  39.162  0.00  0.00    -0.384 OA
ATOM     29  H12 XIL d   1      19.906  69.083  39.392  0.00  0.00     0.210 HD
ENDBRANCH  24  28
ENDBRANCH  13  14
ENDBRANCH   1  13
BRANCH   2  30
ATOM     30  O2  XIL d   1      17.611  63.163  39.627  0.00  0.00    -0.388 OA
ATOM     31  H3  XIL d   1      17.503  62.544  40.339  0.00  0.00     0.210 HD
ENDBRANCH   2  30
BRANCH   3  32
ATOM     32  O3  XIL d   1      15.075  62.968  41.013  0.00  0.00    -0.390 OA
ATOM     33  H5  XIL d   1      14.184  62.637  41.011  0.00  0.00     0.210 HD
ENDBRANCH   3  32
BRANCH   4  34
ATOM     34  O4  XIL d   1      12.986  64.439  39.710  0.00  0.00    -0.391 OA
ATOM     35  H7  XIL d   1      12.911  63.981  38.881  0.00  0.00     0.210 HD
ENDBRANCH   4  34
TORSDOF 6
