REMARK  2 active torsions:
REMARK  status: ('A' for Active; 'I' for Inactive)
REMARK    1  A    between atoms: C1_1  and  C_7 
REMARK    2  A    between atoms: C_7  and  N1_8 
ROOT
ATOM      1  C1  BEN d   1       7.723  50.404  55.533  0.00  0.00     0.007 A 
ATOM      2  C2  BEN d   1       7.713  49.261  54.711  0.00  0.00    -0.069 A 
ATOM      3  C3  BEN d   1       7.859  47.978  55.270  0.00  0.00    -0.082 A 
ATOM      4  C4  BEN d   1       8.007  47.833  56.661  0.00  0.00    -0.083 A 
ATOM      5  C5  BEN d   1       8.012  48.971  57.487  0.00  0.00    -0.082 A 
ATOM      6  C6  BEN d   1       7.875  50.250  56.922  0.00  0.00    -0.069 A 
ATOM      7  H1  BEN d   1       7.592  49.370  53.639  0.00  0.00     0.085 H 
ATOM      8  H2  BEN d   1       7.857  47.103  54.630  0.00  0.00     0.083 H 
ATOM      9  H3  BEN d   1       8.117  46.846  57.096  0.00  0.00     0.083 H 
ATOM     10  H4  BEN d   1       8.122  48.861  58.560  0.00  0.00     0.083 H 
ATOM     11  H5  BEN d   1       7.887  51.125  57.562  0.00  0.00     0.085 H 
ENDROOT
BRANCH   1  12
ATOM     12  C   BEN d   1       7.569  51.787  54.928  0.00  0.00     0.102 C 
ATOM     13  N2  BEN d   1       7.802  51.953  53.658  0.00  0.00    -0.385 N 
ATOM     14  H8  BEN d   1       8.079  51.150  53.076  0.00  0.00     0.157 HD
ATOM     15  H9  BEN d   1       7.710  52.888  53.235  0.00  0.00     0.157 HD
BRANCH  12  16
ATOM     16  N1  BEN d   1       7.216  52.792  55.690  0.00  0.00    -0.385 N 
ATOM     17  H6  BEN d   1       7.110  53.733  55.285  0.00  0.00     0.157 HD
ATOM     18  H7  BEN d   1       7.045  52.641  56.694  0.00  0.00     0.157 HD
ENDBRANCH  12  16
ENDBRANCH   1  12
TORSDOF 2
