REMARK  2 active torsions:
REMARK  status: ('A' for Active; 'I' for Inactive)
REMARK    1  A    between atoms: C_7  and  C1_1 
REMARK    2  A    between atoms: C_7  and  N1_8 
ROOT
ATOM      1  C1  BEN d   1       7.669  49.729  54.986  0.00  0.00     0.007 A 
ATOM      2  C2  BEN d   1       7.660  48.545  54.234  0.00  0.00    -0.069 A 
ATOM      3  C3  BEN d   1       7.749  47.291  54.860  0.00  0.00    -0.082 A 
ATOM      4  C4  BEN d   1       7.772  47.219  56.254  0.00  0.00    -0.083 A 
ATOM      5  C5  BEN d   1       7.836  48.398  57.008  0.00  0.00    -0.082 A 
ATOM      6  C6  BEN d   1       7.769  49.651  56.380  0.00  0.00    -0.069 A 
ATOM      7  H1  BEN d   1       7.583  48.599  53.154  0.00  0.00     0.085 H 
ATOM      8  H2  BEN d   1       7.799  46.386  54.265  0.00  0.00     0.083 H 
ATOM      9  H3  BEN d   1       7.740  46.256  56.750  0.00  0.00     0.083 H 
ATOM     10  H4  BEN d   1       7.938  48.342  58.086  0.00  0.00     0.083 H 
ATOM     11  H5  BEN d   1       7.795  50.558  56.974  0.00  0.00     0.085 H 
ENDROOT
BRANCH   1  12
ATOM     12  C   BEN d   1       7.461  51.066  54.307  0.00  0.00     0.102 C 
ATOM     13  N2  BEN d   1       7.754  51.193  53.039  0.00  0.00    -0.385 N 
ATOM     14  H8  BEN d   1       8.113  50.385  52.510  0.00  0.00     0.157 HD
ATOM     15  H9  BEN d   1       7.626  52.101  52.569  0.00  0.00     0.157 HD
BRANCH  12  16
ATOM     16  N1  BEN d   1       7.003  52.082  54.999  0.00  0.00    -0.385 N 
ATOM     17  H6  BEN d   1       6.860  52.994  54.542  0.00  0.00     0.157 HD
ATOM     18  H7  BEN d   1       6.787  51.968  56.000  0.00  0.00     0.157 HD
ENDBRANCH  12  16
ENDBRANCH   1  12
TORSDOF 2
