REMARK  4 active torsions:
REMARK  status: ('A' for Active; 'I' for Inactive)
REMARK    1  A    between atoms: C4_6  and  N7_7 
REMARK    2  A    between atoms: C10_12  and  C13_13 
REMARK       I    between atoms: C13_13  and  N14_15 
REMARK    3  A    between atoms: N17_20  and  S20_21 
REMARK    4  A    between atoms: S20_21  and  C24_24 
ROOT
ATOM      1  C13 ZEN d   1      10.744  50.225  62.443  0.00  0.00     0.224 C 
ATOM      2  O23 ZEN d   1      10.835  51.457  62.538  0.00  0.00    -0.273 OA
ATOM      3  N14 ZEN d   1       9.551  49.629  62.376  0.00  0.00    -0.349 N 
ATOM      4  C15 ZEN d   1       9.360  48.155  62.266  0.00  0.00     0.009 C 
ATOM      5  C16 ZEN d   1       8.470  47.860  61.029  0.00  0.00     0.008 C 
ATOM      6  C18 ZEN d   1       7.506  50.133  61.117  0.00  0.00     0.008 C 
ATOM      7  C19 ZEN d   1       8.311  50.448  62.403  0.00  0.00     0.009 C 
ATOM      8  N17 ZEN d   1       7.231  48.676  61.088  0.00  0.00    -0.203 NA
ATOM      9  H14 ZEN d   1       8.868  47.776  63.174  0.00  0.00     0.066 H 
ATOM     10  H15 ZEN d   1      10.336  47.663  62.145  0.00  0.00     0.066 H 
ATOM     11  H16 ZEN d   1       8.203  46.793  61.019  0.00  0.00     0.059 H 
ATOM     12  H17 ZEN d   1       9.026  48.108  60.113  0.00  0.00     0.059 H 
ATOM     13  H18 ZEN d   1       6.558  50.691  61.125  0.00  0.00     0.059 H 
ATOM     14  H19 ZEN d   1       8.092  50.419  60.231  0.00  0.00     0.059 H 
ATOM     15  H20 ZEN d   1       8.569  51.517  62.430  0.00  0.00     0.066 H 
ATOM     16  H21 ZEN d   1       7.713  50.193  63.290  0.00  0.00     0.066 H 
ENDROOT
BRANCH   1  17
ATOM     17  C10 ZEN d   1      12.079  49.492  62.413  0.00  0.00     0.026 C 
ATOM     18  C9  ZEN d   1      13.189  50.312  63.129  0.00  0.00    -0.039 C 
ATOM     19  C8  ZEN d   1      14.511  49.515  63.138  0.00  0.00    -0.004 C 
ATOM     20  H7  ZEN d   1      13.340  51.263  62.597  0.00  0.00     0.036 H 
ATOM     21  H8  ZEN d   1      12.880  50.517  64.165  0.00  0.00     0.036 H 
ATOM     22  N7  ZEN d   1      14.929  49.220  61.744  0.00  0.00    -0.381 N 
ATOM     23  H5  ZEN d   1      15.292  50.108  63.636  0.00  0.00     0.064 H 
ATOM     24  H6  ZEN d   1      14.365  48.571  63.683  0.00  0.00     0.064 H 
ATOM     25  C12 ZEN d   1      13.924  48.539  60.874  0.00  0.00    -0.004 C 
ATOM     26  C11 ZEN d   1      12.541  49.256  60.934  0.00  0.00    -0.039 C 
ATOM     27  H11 ZEN d   1      13.803  47.499  61.213  0.00  0.00     0.064 H 
ATOM     28  H12 ZEN d   1      14.286  48.546  59.835  0.00  0.00     0.064 H 
ATOM     29  H9  ZEN d   1      12.620  50.228  60.425  0.00  0.00     0.036 H 
ATOM     30  H10 ZEN d   1      11.793  48.633  60.421  0.00  0.00     0.036 H 
ATOM     31  H13 ZEN d   1      11.961  48.522  62.919  0.00  0.00     0.054 H 
BRANCH  22  32
ATOM     32  C4  ZEN d   1      16.153  49.743  61.226  0.00  0.00     0.032 A 
ATOM     33  C3  ZEN d   1      17.127  50.260  62.109  0.00  0.00    -0.041 A 
ATOM     34  C2  ZEN d   1      18.335  50.760  61.589  0.00  0.00     0.004 A 
ATOM     35  H2  ZEN d   1      16.945  50.271  63.178  0.00  0.00     0.089 H 
ATOM     36  N1  ZEN d   1      18.555  50.746  60.251  0.00  0.00    -0.273 NA
ATOM     37  H1  ZEN d   1      19.090  51.157  62.258  0.00  0.00     0.114 H 
ATOM     38  C6  ZEN d   1      17.634  50.250  59.387  0.00  0.00     0.004 A 
ATOM     39  C5  ZEN d   1      16.412  49.734  59.851  0.00  0.00    -0.041 A 
ATOM     40  H4  ZEN d   1      17.844  50.252  58.324  0.00  0.00     0.114 H 
ATOM     41  H3  ZEN d   1      15.682  49.336  59.155  0.00  0.00     0.089 H 
ENDBRANCH  22  32
ENDBRANCH   1  17
BRANCH   8  42
ATOM     42  S20 ZEN d   1       6.160  48.255  59.922  0.00  0.00     0.243 S 
ATOM     43  O22 ZEN d   1       5.920  46.853  60.099  0.00  0.00    -0.206 OA
ATOM     44  O21 ZEN d   1       4.989  49.108  60.041  0.00  0.00    -0.206 OA
BRANCH  42  45
ATOM     45  C24 ZEN d   1       6.868  48.489  58.297  0.00  0.00     0.075 A 
ATOM     46  C33 ZEN d   1       7.491  47.407  57.647  0.00  0.00    -0.060 A 
ATOM     47  C34 ZEN d   1       8.058  47.574  56.377  0.00  0.00    -0.071 A 
ATOM     48  H23 ZEN d   1       7.532  46.438  58.132  0.00  0.00     0.085 H 
ATOM     49  C27 ZEN d   1       8.016  48.826  55.742  0.00  0.00    -0.024 A 
ATOM     50  H24 ZEN d   1       8.531  46.733  55.882  0.00  0.00     0.084 H 
ATOM     51  C26 ZEN d   1       7.414  49.934  56.382  0.00  0.00    -0.024 A 
ATOM     52  C28 ZEN d   1       8.580  48.981  54.493  0.00  0.00    -0.051 A 
ATOM     53  C25 ZEN d   1       6.840  49.759  57.662  0.00  0.00    -0.050 A 
ATOM     54  C31 ZEN d   1       7.380  51.191  55.729  0.00  0.00    -0.071 A 
ATOM     55  H22 ZEN d   1       6.375  50.601  58.163  0.00  0.00     0.087 H 
ATOM     56  C30 ZEN d   1       7.950  51.336  54.456  0.00  0.00    -0.061 A 
ATOM     57  H27 ZEN d   1       6.913  52.041  56.214  0.00  0.00     0.084 H 
ATOM     58  C29 ZEN d   1       8.557  50.217  53.842  0.00  0.00     0.034 A 
ATOM     59  H26 ZEN d   1       7.925  52.294  53.949  0.00  0.00     0.086 H 
ATOM     60 CL32 ZEN d   1       9.332  50.347  52.277  0.00  0.00    -0.084 Cl
ATOM     61  H25 ZEN d   1       9.048  48.131  54.009  0.00  0.00     0.087 H 
ENDBRANCH  42  45
ENDBRANCH   8  42
TORSDOF 4
