REMARK  5 active torsions:
REMARK  status: ('A' for Active; 'I' for Inactive)
REMARK    1  A    between atoms: C9_2  and  C8_4 
REMARK       I    between atoms: N_8  and  C4_9 
REMARK    2  A    between atoms: C4_9  and  C2_11 
REMARK    3  A    between atoms: C2_11  and  C3_12 
REMARK    4  A    between atoms: C2_11  and  C1_13 
REMARK    5  A    between atoms: C1_13  and  S_14 
ROOT
ATOM      1  C8  X8Z d   1      13.929  -2.484  19.032  0.00  0.00     0.098 A 
ATOM      2  C7  X8Z d   1      14.785  -2.797  20.228  0.00  0.00    -0.035 A 
ATOM      3  C6  X8Z d   1      14.239  -4.025  20.900  0.00  0.00    -0.048 A 
ATOM      4  C5  X8Z d   1      13.081  -4.523  20.127  0.00  0.00    -0.001 A 
ATOM      5  N   X8Z d   1      12.886  -3.553  18.996  0.00  0.00    -0.337 N 
ATOM      6  C4  X8Z d   1      11.924  -3.590  18.066  0.00  0.00     0.225 C 
ATOM      7  O1  X8Z d   1      11.878  -2.699  17.168  0.00  0.00    -0.273 OA
ATOM      8  H1  X8Z d   1      13.441  -1.509  19.180  0.00  0.00     0.089 H 
ATOM      9  H2  X8Z d   1      14.765  -1.950  20.930  0.00  0.00     0.036 H 
ATOM     10  H3  X8Z d   1      15.820  -2.981  19.905  0.00  0.00     0.036 H 
ATOM     11  H4  X8Z d   1      13.920  -3.775  21.922  0.00  0.00     0.035 H 
ATOM     12  H5  X8Z d   1      15.018  -4.801  20.939  0.00  0.00     0.035 H 
ATOM     13  H6  X8Z d   1      12.183  -4.554  20.762  0.00  0.00     0.064 H 
ATOM     14  H7  X8Z d   1      13.288  -5.530  19.735  0.00  0.00     0.064 H 
ENDROOT
BRANCH   1  15
ATOM     15  C9  X8Z d   1      14.746  -2.409  17.741  0.00  0.00     0.196 C 
ATOM     16  O2  X8Z d   1      15.303  -1.261  17.510  0.00  0.00    -0.646 OA
ATOM     17  O3  X8Z d   1      14.854  -3.340  16.983  0.00  0.00    -0.646 OA
ENDBRANCH   1  15
BRANCH   6  18
ATOM     18  C2  X8Z d   1      10.873  -4.698  18.103  0.00  0.00     0.028 C 
ATOM     19  H8  X8Z d   1      10.980  -5.276  19.033  0.00  0.00     0.055 H 
BRANCH  18  20
ATOM     20  C3  X8Z d   1      11.097  -5.651  16.924  0.00  0.00    -0.064 C 
ATOM     21  H9  X8Z d   1      10.341  -6.449  16.949  0.00  0.00     0.028 H 
ATOM     22  H10 X8Z d   1      12.101  -6.094  16.997  0.00  0.00     0.028 H 
ATOM     23  H11 X8Z d   1      11.010  -5.093  15.980  0.00  0.00     0.028 H 
ENDBRANCH  18  20
BRANCH  18  24
ATOM     24  C1  X8Z d   1       9.500  -4.010  18.113  0.00  0.00    -0.015 C 
ATOM     25  H12 X8Z d   1       9.410  -3.398  17.203  0.00  0.00     0.049 H 
ATOM     26  H13 X8Z d   1       9.442  -3.360  18.999  0.00  0.00     0.049 H 
BRANCH  24  27
ATOM     27  S   X8Z d   1       8.118  -5.166  18.162  0.00  0.00    -0.181 SA
ATOM     28  H14 X8Z d   1       8.181  -5.728  18.996  0.00  0.00     0.101 HD
ENDBRANCH  24  27
ENDBRANCH  18  24
ENDBRANCH   6  18
TORSDOF 5
