REMARK  19 active torsions:
REMARK  status: ('A' for Active; 'I' for Inactive)
REMARK    1  A    between atoms: C01_1  and  C10_13 
REMARK    2  A    between atoms: C03_3  and  O03_7 
REMARK    3  A    between atoms: C04_4  and  O04_9 
REMARK    4  A    between atoms: C05_5  and  O05_11 
REMARK    5  A    between atoms: O03_7  and  C07_8 
REMARK    6  A    between atoms: O04_9  and  C08_10 
REMARK    7  A    between atoms: O05_11  and  C09_12 
REMARK    8  A    between atoms: C10_13  and  C11_14 
REMARK       I    between atoms: C11_14  and  N12_16 
REMARK    9  A    between atoms: C16_21  and  C17_22 
REMARK   10  A    between atoms: C17_22  and  O18_24 
REMARK   11  A    between atoms: O18_24  and  C18_25 
REMARK   12  A    between atoms: C18_25  and  C27_35 
REMARK   13  A    between atoms: C18_25  and  C19_26 
REMARK   14  A    between atoms: C19_26  and  C20_27 
REMARK   15  A    between atoms: C20_27  and  C21_28 
REMARK   16  A    between atoms: C21_28  and  C22_29 
REMARK   17  A    between atoms: C27_35  and  C28_36 
REMARK   18  A    between atoms: C28_36  and  C29_37 
REMARK   19  A    between atoms: C29_37  and  C30_38 
ROOT
ATOM      1  C17 001 d   1      29.320  13.158  22.147  0.00  0.00     0.282 C 
ATOM      2  O17 001 d   1      30.235  13.267  21.354  0.00  0.00    -0.263 OA
ENDROOT
BRANCH   1   3
ATOM      3  C16 001 d   1      27.938  12.754  21.659  0.00  0.00     0.098 C 
ATOM      4  N12 001 d   1      26.958  12.941  22.761  0.00  0.00    -0.333 N 
ATOM      5  C11 001 d   1      26.460  11.880  23.441  0.00  0.00     0.298 C 
ATOM      6  C12 001 d   1      26.680  14.371  23.122  0.00  0.00    -0.001 C 
ATOM      7  O11 001 d   1      26.822  10.747  23.163  0.00  0.00    -0.266 OA
ATOM      8  C13 001 d   1      26.326  15.255  21.885  0.00  0.00    -0.050 C 
ATOM      9  H12 001 d   1      27.574  14.790  23.608  0.00  0.00     0.064 H 
ATOM     10  H13 001 d   1      25.834  14.397  23.825  0.00  0.00     0.064 H 
ATOM     11  C14 001 d   1      27.344  15.061  20.741  0.00  0.00    -0.061 C 
ATOM     12  H14 001 d   1      26.327  16.312  22.189  0.00  0.00     0.035 H 
ATOM     13  H15 001 d   1      25.325  14.979  21.523  0.00  0.00     0.035 H 
ATOM     14  C15 001 d   1      27.564  13.571  20.408  0.00  0.00    -0.037 C 
ATOM     15  H16 001 d   1      28.305  15.503  21.043  0.00  0.00     0.033 H 
ATOM     16  H17 001 d   1      26.970  15.574  19.843  0.00  0.00     0.033 H 
ATOM     17  H18 001 d   1      28.377  13.487  19.672  0.00  0.00     0.036 H 
ATOM     18  H19 001 d   1      26.637  13.162  19.979  0.00  0.00     0.036 H 
ATOM     19  H20 001 d   1      27.954  11.689  21.384  0.00  0.00     0.088 H 
BRANCH   5  20
ATOM     20  C10 001 d   1      25.502  12.055  24.548  0.00  0.00     0.350 C 
ATOM     21  F10 001 d   1      24.509  12.877  24.144  0.00  0.00    -0.190 F 
ATOM     22  F11 001 d   1      24.945  10.855  24.781  0.00  0.00    -0.190 F 
BRANCH  20  23
ATOM     23  C01 001 d   1      26.108  12.501  25.848  0.00  0.00     0.028 A 
ATOM     24  C06 001 d   1      27.300  11.861  26.289  0.00  0.00    -0.035 A 
ATOM     25  C05 001 d   1      27.879  12.190  27.538  0.00  0.00     0.105 A 
ATOM     26  H2  001 d   1      27.770  11.113  25.661  0.00  0.00     0.089 H 
ATOM     27  C04 001 d   1      27.271  13.166  28.347  0.00  0.00     0.135 A 
ATOM     28  C03 001 d   1      26.077  13.812  27.910  0.00  0.00     0.105 A 
ATOM     29  C02 001 d   1      25.498  13.476  26.660  0.00  0.00    -0.035 A 
ATOM     30  H1  001 d   1      24.590  13.968  26.331  0.00  0.00     0.089 H 
BRANCH  25  31
ATOM     31  O05 001 d   1      29.004  11.523  28.001  0.00  0.00    -0.353 OA
BRANCH  31  32
ATOM     32  C09 001 d   1      29.839  10.812  27.079  0.00  0.00     0.010 C 
ATOM     33  H9  001 d   1      30.676  10.350  27.623  0.00  0.00     0.066 H 
ATOM     34  H10 001 d   1      30.233  11.511  26.326  0.00  0.00     0.066 H 
ATOM     35  H11 001 d   1      29.250  10.029  26.579  0.00  0.00     0.066 H 
ENDBRANCH  31  32
ENDBRANCH  25  31
BRANCH  27  36
ATOM     36  O04 001 d   1      27.862  13.516  29.556  0.00  0.00    -0.351 OA
BRANCH  36  37
ATOM     37  C08 001 d   1      27.081  13.366  30.766  0.00  0.00     0.011 C 
ATOM     38  H6  001 d   1      27.682  13.681  31.632  0.00  0.00     0.067 H 
ATOM     39  H7  001 d   1      26.790  12.312  30.886  0.00  0.00     0.067 H 
ATOM     40  H8  001 d   1      26.178  13.991  30.699  0.00  0.00     0.067 H 
ENDBRANCH  36  37
ENDBRANCH  27  36
BRANCH  28  41
ATOM     41  O03 001 d   1      25.493  14.769  28.709  0.00  0.00    -0.353 OA
BRANCH  41  42
ATOM     42  C07 001 d   1      24.318  15.454  28.253  0.00  0.00     0.010 C 
ATOM     43  H3  001 d   1      23.995  16.177  29.017  0.00  0.00     0.066 H 
ATOM     44  H4  001 d   1      23.514  14.725  28.075  0.00  0.00     0.066 H 
ATOM     45  H5  001 d   1      24.544  15.986  27.317  0.00  0.00     0.066 H 
ENDBRANCH  41  42
ENDBRANCH  28  41
ENDBRANCH  20  23
ENDBRANCH   5  20
ENDBRANCH   1   3
BRANCH   1  46
ATOM     46  O18 001 d   1      29.567  13.406  23.456  0.00  0.00    -0.314 OA
BRANCH  46  47
ATOM     47  C18 001 d   1      30.921  13.770  23.757  0.00  0.00     0.048 C 
ATOM     48  H21 001 d   1      31.450  13.972  22.814  0.00  0.00     0.084 H 
BRANCH  47  49
ATOM     49  C27 001 d   1      30.983  15.038  24.632  0.00  0.00    -0.040 C 
ATOM     50  H32 001 d   1      31.599  15.793  24.122  0.00  0.00     0.036 H 
ATOM     51  H33 001 d   1      31.442  14.782  25.598  0.00  0.00     0.036 H 
BRANCH  49  52
ATOM     52  C28 001 d   1      29.607  15.614  24.881  0.00  0.00    -0.059 C 
ATOM     53  H34 001 d   1      28.880  15.146  24.202  0.00  0.00     0.033 H 
ATOM     54  H35 001 d   1      29.622  16.700  24.709  0.00  0.00     0.033 H 
BRANCH  52  55
ATOM     55  C29 001 d   1      29.219  15.326  26.330  0.00  0.00    -0.041 C 
ATOM     56  H36 001 d   1      30.117  15.344  26.965  0.00  0.00     0.040 H 
ATOM     57  H37 001 d   1      28.742  14.337  26.397  0.00  0.00     0.040 H 
BRANCH  55  58
ATOM     58  C30 001 d   1      28.253  16.389  26.784  0.00  0.00    -0.058 A 
ATOM     59  C35 001 d   1      28.561  17.186  27.889  0.00  0.00    -0.077 A 
ATOM     60  C34 001 d   1      27.662  18.169  28.307  0.00  0.00    -0.082 A 
ATOM     61  H42 001 d   1      29.495  17.042  28.420  0.00  0.00     0.084 H 
ATOM     62  C33 001 d   1      26.454  18.360  27.617  0.00  0.00    -0.083 A 
ATOM     63  H41 001 d   1      27.897  18.786  29.166  0.00  0.00     0.083 H 
ATOM     64  C32 001 d   1      26.148  17.559  26.509  0.00  0.00    -0.082 A 
ATOM     65  H40 001 d   1      25.759  19.126  27.941  0.00  0.00     0.083 H 
ATOM     66  C31 001 d   1      27.048  16.577  26.093  0.00  0.00    -0.077 A 
ATOM     67  H39 001 d   1      25.215  17.702  25.976  0.00  0.00     0.083 H 
ATOM     68  H38 001 d   1      26.815  15.958  25.234  0.00  0.00     0.084 H 
ENDBRANCH  55  58
ENDBRANCH  52  55
ENDBRANCH  49  52
ENDBRANCH  47  49
BRANCH  47  69
ATOM     69  C19 001 d   1      31.603  12.604  24.468  0.00  0.00    -0.040 C 
ATOM     70  H22 001 d   1      31.685  11.755  23.774  0.00  0.00     0.036 H 
ATOM     71  H23 001 d   1      31.000  12.309  25.339  0.00  0.00     0.036 H 
BRANCH  69  72
ATOM     72  C20 001 d   1      33.010  13.010  24.940  0.00  0.00    -0.059 C 
ATOM     73  H24 001 d   1      32.981  13.266  26.009  0.00  0.00     0.033 H 
ATOM     74  H25 001 d   1      33.356  13.880  24.363  0.00  0.00     0.033 H 
BRANCH  72  75
ATOM     75  C21 001 d   1      33.954  11.846  24.721  0.00  0.00    -0.040 C 
ATOM     76  H26 001 d   1      33.389  10.903  24.748  0.00  0.00     0.040 H 
ATOM     77  H27 001 d   1      34.719  11.838  25.511  0.00  0.00     0.040 H 
BRANCH  75  78
ATOM     78  C22 001 d   1      34.617  11.998  23.378  0.00  0.00    -0.041 A 
ATOM     79  C26 001 d   1      34.371  11.062  22.354  0.00  0.00    -0.074 A 
ATOM     80  C25 001 d   1      35.064  11.161  21.140  0.00  0.00    -0.066 A 
ATOM     81  H31 001 d   1      33.648  10.268  22.505  0.00  0.00     0.084 H 
ATOM     82  C24 001 d   1      35.987  12.205  20.983  0.00  0.00     0.002 A 
ATOM     83  H30 001 d   1      34.891  10.448  20.342  0.00  0.00     0.085 H 
ATOM     84  N23 001 d   1      36.204  13.109  21.980  0.00  0.00    -0.273 NA
ATOM     85  H29 001 d   1      36.537  12.295  20.053  0.00  0.00     0.114 H 
ATOM     86  C23 001 d   1      35.552  13.034  23.155  0.00  0.00     0.008 A 
ATOM     87  H28 001 d   1      35.744  13.768  23.930  0.00  0.00     0.115 H 
ENDBRANCH  75  78
ENDBRANCH  72  75
ENDBRANCH  69  72
ENDBRANCH  47  69
ENDBRANCH  46  47
ENDBRANCH   1  46
TORSDOF 19
