REMARK  6 active torsions:
REMARK  status: ('A' for Active; 'I' for Inactive)
REMARK    1  A    between atoms: N2_10  and  C2_2 
REMARK    2  A    between atoms: C3_3  and  O3_12 
REMARK    3  A    between atoms: C4_4  and  O4_13 
REMARK    4  A    between atoms: C5_5  and  C6_6 
REMARK    5  A    between atoms: C6_6  and  O6_14 
REMARK    6  A    between atoms: C7_7  and  C8_8 
REMARK       I    between atoms: C7_7  and  N2_10 
ROOT
ATOM      1  N1  IFG d   1      -4.921  66.073  10.195  0.00  0.00    -0.051 N 
ATOM      2  C2  IFG d   1      -5.323  66.597   8.864  0.00  0.00     0.195 C 
ATOM      3  C3  IFG d   1      -4.133  66.963   7.887  0.00  0.00     0.105 C 
ATOM      4  C4  IFG d   1      -2.925  67.614   8.593  0.00  0.00     0.071 C 
ATOM      5  C5  IFG d   1      -2.514  66.725   9.769  0.00  0.00     0.017 C 
ATOM      6  C9  IFG d   1      -3.648  66.519  10.782  0.00  0.00     0.091 C 
ATOM      7  H1  IFG d   1      -4.874  65.069  10.115  0.00  0.00     0.279 HD
ATOM      8  H2  IFG d   1      -5.650  66.325  10.844  0.00  0.00     0.279 HD
ATOM      9  H3  IFG d   1      -5.891  67.522   9.041  0.00  0.00     0.122 H 
ATOM     10  H4  IFG d   1      -3.785  66.031   7.418  0.00  0.00     0.092 H 
ATOM     11  H5  IFG d   1      -2.087  67.724   7.889  0.00  0.00     0.087 H 
ATOM     12  H6  IFG d   1      -2.265  65.744   9.339  0.00  0.00     0.049 H 
ATOM     13  H12 IFG d   1      -3.323  65.763  11.511  0.00  0.00     0.076 H 
ATOM     14  H13 IFG d   1      -3.824  67.474  11.298  0.00  0.00     0.076 H 
ENDROOT
BRANCH   2  15
ATOM     15  N2  IFG d   1      -6.219  65.624   8.200  0.00  0.00    -0.332 N 
ATOM     16  C7  IFG d   1      -5.837  64.316   8.096  0.00  0.00     0.215 C 
ATOM     17  O7  IFG d   1      -4.780  63.953   8.593  0.00  0.00    -0.274 OA
ATOM     18  H14 IFG d   1      -7.099  65.922   7.830  0.00  0.00     0.164 HD
BRANCH  16  19
ATOM     19  C8  IFG d   1      -6.654  63.252   7.409  0.00  0.00    -0.003 C 
ATOM     20  H9  IFG d   1      -6.124  62.290   7.465  0.00  0.00     0.040 H 
ATOM     21  H10 IFG d   1      -6.803  63.528   6.354  0.00  0.00     0.040 H 
ATOM     22  H11 IFG d   1      -7.631  63.162   7.906  0.00  0.00     0.040 H 
ENDBRANCH  16  19
ENDBRANCH   2  15
BRANCH   3  23
ATOM     23  O3  IFG d   1      -4.612  67.832   6.869  0.00  0.00    -0.389 OA
ATOM     24  H15 IFG d   1      -5.356  67.430   6.435  0.00  0.00     0.210 HD
ENDBRANCH   3  23
BRANCH   4  25
ATOM     25  O4  IFG d   1      -3.320  68.892   9.090  0.00  0.00    -0.392 OA
ATOM     26  H16 IFG d   1      -2.592  69.290   9.553  0.00  0.00     0.210 HD
ENDBRANCH   4  25
BRANCH   5  27
ATOM     27  C6  IFG d   1      -1.294  67.197  10.553  0.00  0.00     0.024 C 
ATOM     28  H7  IFG d   1      -1.607  67.967  11.274  0.00  0.00     0.074 H 
ATOM     29  H8  IFG d   1      -0.562  67.626   9.853  0.00  0.00     0.074 H 
BRANCH  27  30
ATOM     30  O6  IFG d   1      -0.684  66.122  11.259  0.00  0.00    -0.400 OA
ATOM     31  H17 IFG d   1       0.071  66.446  11.736  0.00  0.00     0.209 HD
ENDBRANCH  27  30
ENDBRANCH   5  27
TORSDOF 6
