REMARK  10 active torsions:
REMARK  status: ('A' for Active; 'I' for Inactive)
REMARK    1  A    between atoms: C1_1  and  C2_3 
REMARK       I    between atoms: N_13  and  C1_1 
REMARK    2  A    between atoms: C2_3  and  C'_11 
REMARK    3  A    between atoms: C2_3  and  C3_4 
REMARK    4  A    between atoms: C3_4  and  C1'_5 
REMARK    5  A    between atoms: C'_11  and  S'_12 
REMARK    6  A    between atoms: CA_14  and  N_13 
REMARK    7  A    between atoms: C_15  and  CA_14 
REMARK    8  A    between atoms: CA_14  and  CB_17 
REMARK       I    between atoms: N2_22  and  C_15 
REMARK    9  A    between atoms: C2_21  and  C1_18 
REMARK       I    between atoms: C1_18  and  N1_19 
REMARK   10  A    between atoms: N2_22  and  C2_21 
ROOT
ATOM      1  C1  0D3 d   1      28.141  59.331  50.410  0.00  0.00     0.223 C 
ATOM      2  O1  0D3 d   1      27.938  60.417  49.862  0.00  0.00    -0.273 OA
ATOM      3  N   0D3 d   1      29.300  58.681  50.318  0.00  0.00    -0.348 N 
ATOM      4  H12 0D3 d   1      29.409  57.803  50.783  0.00  0.00     0.163 HD
ENDROOT
BRANCH   1   5
ATOM      5  C2  0D3 d   1      27.055  58.665  51.252  0.00  0.00     0.035 C 
ATOM      6  H1  0D3 d   1      27.413  57.684  51.599  0.00  0.00     0.056 H 
BRANCH   5   7
ATOM      7  C'  0D3 d   1      26.786  59.546  52.496  0.00  0.00    -0.014 C 
ATOM      8  H9  0D3 d   1      26.478  60.543  52.147  0.00  0.00     0.049 H 
ATOM      9  H10 0D3 d   1      27.725  59.630  53.063  0.00  0.00     0.049 H 
BRANCH   7  10
ATOM     10  S'  0D3 d   1      25.492  58.918  53.632  0.00  0.00    -0.181 SA
ATOM     11  H11 0D3 d   1      24.617  58.846  53.136  0.00  0.00     0.101 HD
ENDBRANCH   7  10
ENDBRANCH   5   7
BRANCH   5  12
ATOM     12  C3  0D3 d   1      25.822  58.437  50.352  0.00  0.00    -0.029 C 
ATOM     13  H2  0D3 d   1      25.781  59.253  49.615  0.00  0.00     0.041 H 
ATOM     14  H3  0D3 d   1      24.924  58.470  50.987  0.00  0.00     0.041 H 
BRANCH  12  15
ATOM     15  C1' 0D3 d   1      25.818  57.113  49.594  0.00  0.00    -0.057 A 
ATOM     16  C6' 0D3 d   1      24.997  56.942  48.496  0.00  0.00    -0.077 A 
ATOM     17  C5' 0D3 d   1      24.926  55.729  47.847  0.00  0.00    -0.082 A 
ATOM     18  H8  0D3 d   1      24.400  57.774  48.140  0.00  0.00     0.084 H 
ATOM     19  C4' 0D3 d   1      25.692  54.665  48.297  0.00  0.00    -0.083 A 
ATOM     20  H7  0D3 d   1      24.275  55.607  46.989  0.00  0.00     0.083 H 
ATOM     21  C3' 0D3 d   1      26.516  54.812  49.374  0.00  0.00    -0.082 A 
ATOM     22  H6  0D3 d   1      25.636  53.709  47.789  0.00  0.00     0.083 H 
ATOM     23  C2' 0D3 d   1      26.580  56.032  50.017  0.00  0.00    -0.077 A 
ATOM     24  H5  0D3 d   1      27.115  53.978  49.722  0.00  0.00     0.083 H 
ATOM     25  H4  0D3 d   1      27.239  56.148  50.870  0.00  0.00     0.084 H 
ENDBRANCH  12  15
ENDBRANCH   5  12
ENDBRANCH   1   5
BRANCH   3  26
ATOM     26  CA  0D3 d   1      30.408  59.227  49.553  0.00  0.00     0.086 C 
ATOM     27  H13 0D3 d   1      30.249  60.311  49.455  0.00  0.00     0.086 H 
BRANCH  26  28
ATOM     28  C   0D3 d   1      30.474  58.642  48.161  0.00  0.00     0.240 C 
ATOM     29  O   0D3 d   1      30.240  57.456  47.969  0.00  0.00    -0.271 OA
ATOM     30  N2  0D3 d   1      30.888  59.478  47.217  0.00  0.00    -0.351 N 
ATOM     31  H21 0D3 d   1      31.165  60.403  47.476  0.00  0.00     0.163 HD
BRANCH  30  32
ATOM     32  C2  0D3 d   1      30.950  59.092  45.827  0.00  0.00     0.069 C 
ATOM     33  H19 0D3 d   1      30.077  58.454  45.625  0.00  0.00     0.078 H 
ATOM     34  H20 0D3 d   1      30.879  60.012  45.228  0.00  0.00     0.078 H 
BRANCH  32  35
ATOM     35  C1  0D3 d   1      32.172  58.343  45.357  0.00  0.00     0.233 C 
ATOM     36  O1  0D3 d   1      32.781  58.798  44.383  0.00  0.00    -0.272 OA
ATOM     37  N1  0D3 d   1      32.163  57.038  45.644  0.00  0.00    -0.369 N 
ATOM     38  H17 0D3 d   1      32.932  56.461  45.371  0.00  0.00     0.159 HD
ATOM     39  H18 0D3 d   1      31.387  56.639  46.132  0.00  0.00     0.159 HD
ENDBRANCH  32  35
ENDBRANCH  30  32
ENDBRANCH  26  28
BRANCH  26  40
ATOM     40  CB  0D3 d   1      31.684  59.013  50.274  0.00  0.00    -0.049 C 
ATOM     41  H14 0D3 d   1      32.513  59.431  49.684  0.00  0.00     0.030 H 
ATOM     42  H15 0D3 d   1      31.846  57.935  50.421  0.00  0.00     0.030 H 
ATOM     43  H16 0D3 d   1      31.641  59.514  51.252  0.00  0.00     0.030 H 
ENDBRANCH  26  40
ENDBRANCH   3  26
TORSDOF 10
