REMARK  12 active torsions:
REMARK  status: ('A' for Active; 'I' for Inactive)
REMARK       I    between atoms: C1_1  and  N_10 
REMARK    1  A    between atoms: C2_3  and  C1_1 
REMARK    2  A    between atoms: C2_3  and  C1'_6 
REMARK    3  A    between atoms: C3_4  and  C2_3 
REMARK       I    between atoms: N_12  and  C3_4 
REMARK    4  A    between atoms: C1'_6  and  C2'_7 
REMARK    5  A    between atoms: C2'_7  and  C4'_9 
REMARK    6  A    between atoms: C2'_7  and  C3'_8 
REMARK    7  A    between atoms: N_10  and  O5_11 
REMARK    8  A    between atoms: CA_13  and  N_12 
REMARK    9  A    between atoms: C_14  and  CA_13 
REMARK   10  A    between atoms: CA_13  and  CB_16 
REMARK       I    between atoms: N2_21  and  C_14 
REMARK   11  A    between atoms: C2_20  and  C1_17 
REMARK       I    between atoms: C1_17  and  N1_18 
REMARK   12  A    between atoms: N2_21  and  C2_20 
ROOT
ATOM      1  C3  01S d   1      28.199  60.603  51.554  0.00  0.00     0.231 C 
ATOM      2  O3  01S d   1      27.986  61.407  50.641  0.00  0.00    -0.273 OA
ATOM      3  N   01S d   1      28.856  59.473  51.355  0.00  0.00    -0.347 N 
ATOM      4  H13 01S d   1      29.026  58.846  52.115  0.00  0.00     0.163 HD
ENDROOT
BRANCH   1   5
ATOM      5  C2  01S d   1      27.771  60.891  52.984  0.00  0.00     0.103 C 
ATOM      6  H1  01S d   1      27.241  61.854  53.024  0.00  0.00     0.069 H 
BRANCH   5   7
ATOM      7  C1  01S d   1      26.843  59.771  53.490  0.00  0.00     0.254 C 
ATOM      8  N   01S d   1      25.583  60.080  53.721  0.00  0.00    -0.237 N 
ATOM      9  H11 01S d   1      25.254  61.014  53.584  0.00  0.00     0.197 HD
ATOM     10  O1  01S d   1      27.255  58.647  53.667  0.00  0.00    -0.270 OA
BRANCH   8  11
ATOM     11  O5  01S d   1      24.719  59.081  54.160  0.00  0.00    -0.287 OA
ATOM     12  H12 01S d   1      23.851  59.447  54.284  0.00  0.00     0.244 HD
ENDBRANCH   8  11
ENDBRANCH   5   7
BRANCH   5  13
ATOM     13  C1' 01S d   1      29.001  60.947  53.859  0.00  0.00    -0.043 C 
ATOM     14  H2  01S d   1      29.865  61.182  53.220  0.00  0.00     0.035 H 
ATOM     15  H3  01S d   1      29.141  59.956  54.315  0.00  0.00     0.035 H 
BRANCH  13  16
ATOM     16  C2' 01S d   1      28.946  61.984  54.984  0.00  0.00    -0.060 C 
ATOM     17  H4  01S d   1      29.720  61.721  55.720  0.00  0.00     0.038 H 
BRANCH  16  18
ATOM     18  C4' 01S d   1      27.573  61.958  55.715  0.00  0.00    -0.073 C 
ATOM     19  H8  01S d   1      27.373  60.941  56.084  0.00  0.00     0.028 H 
ATOM     20  H9  01S d   1      26.779  62.256  55.015  0.00  0.00     0.028 H 
ATOM     21  H10 01S d   1      27.596  62.658  56.563  0.00  0.00     0.028 H 
ENDBRANCH  16  18
BRANCH  16  22
ATOM     22  C3' 01S d   1      29.266  63.387  54.451  0.00  0.00    -0.073 C 
ATOM     23  H5  01S d   1      29.220  64.112  55.277  0.00  0.00     0.028 H 
ATOM     24  H6  01S d   1      28.532  63.663  53.680  0.00  0.00     0.028 H 
ATOM     25  H7  01S d   1      30.276  63.392  54.014  0.00  0.00     0.028 H 
ENDBRANCH  16  22
ENDBRANCH  13  16
ENDBRANCH   5  13
ENDBRANCH   1   5
BRANCH   3  26
ATOM     26  CA  01S d   1      29.325  59.154  50.027  0.00  0.00     0.086 C 
ATOM     27  H14 01S d   1      29.532  60.100  49.505  0.00  0.00     0.086 H 
BRANCH  26  28
ATOM     28  C   01S d   1      28.242  58.410  49.224  0.00  0.00     0.240 C 
ATOM     29  O   01S d   1      28.469  58.028  48.074  0.00  0.00    -0.271 OA
ATOM     30  N2  01S d   1      27.130  58.102  49.910  0.00  0.00    -0.351 N 
ATOM     31  H22 01S d   1      27.118  58.285  50.893  0.00  0.00     0.163 HD
BRANCH  30  32
ATOM     32  C2  01S d   1      25.943  57.518  49.308  0.00  0.00     0.069 C 
ATOM     33  H20 01S d   1      25.143  57.594  50.059  0.00  0.00     0.078 H 
ATOM     34  H21 01S d   1      25.693  58.145  48.440  0.00  0.00     0.078 H 
BRANCH  32  35
ATOM     35  C1  01S d   1      25.937  56.117  48.829  0.00  0.00     0.233 C 
ATOM     36  O1  01S d   1      25.168  55.836  47.908  0.00  0.00    -0.272 OA
ATOM     37  N1  01S d   1      26.392  55.206  49.678  0.00  0.00    -0.369 N 
ATOM     38  H18 01S d   1      26.413  54.242  49.413  0.00  0.00     0.159 HD
ATOM     39  H19 01S d   1      26.714  55.483  50.583  0.00  0.00     0.159 HD
ENDBRANCH  32  35
ENDBRANCH  30  32
ENDBRANCH  26  28
BRANCH  26  40
ATOM     40  CB  01S d   1      30.614  58.385  50.103  0.00  0.00    -0.049 C 
ATOM     41  H15 01S d   1      30.960  58.148  49.086  0.00  0.00     0.030 H 
ATOM     42  H16 01S d   1      30.452  57.451  50.661  0.00  0.00     0.030 H 
ATOM     43  H17 01S d   1      31.374  58.992  50.617  0.00  0.00     0.030 H 
ENDBRANCH  26  40
ENDBRANCH   3  26
TORSDOF 12
