REMARK  17 active torsions:
REMARK  status: ('A' for Active; 'I' for Inactive)
REMARK    1  A    between atoms: CA_2  and  N_1 
REMARK    2  A    between atoms: C_3  and  CA_2 
REMARK    3  A    between atoms: CA_2  and  CB_5 
REMARK       I    between atoms: N_10  and  C_3 
REMARK    4  A    between atoms: CB_5  and  CG_6 
REMARK    5  A    between atoms: CG_6  and  CD_7 
REMARK    6  A    between atoms: CD_7  and  CE_8 
REMARK    7  A    between atoms: CE_8  and  NZ_9 
REMARK    8  A    between atoms: CA_11  and  N_10 
REMARK    9  A    between atoms: C_12  and  CA_11 
REMARK   10  A    between atoms: CA_11  and  CB_14 
REMARK       I    between atoms: C_12  and  N_15 
REMARK   11  A    between atoms: N_15  and  CA_16 
REMARK   12  A    between atoms: CA_16  and  C_17 
REMARK   13  A    between atoms: CA_16  and  CB_19 
REMARK   14  A    between atoms: CB_19  and  CG_20 
REMARK   15  A    between atoms: CG_20  and  CD_21 
REMARK   16  A    between atoms: CD_21  and  CE_22 
REMARK   17  A    between atoms: CE_22  and  NZ_23 
ROOT
ATOM      1  CA  ALA d   1       3.839  20.195  16.066  0.00  0.00     0.086 C 
ATOM      2  H17 ALA d   1       3.713  19.663  17.021  0.00  0.00     0.086 H 
ENDROOT
BRANCH   1   3
ATOM      3  C   ALA d   1       2.528  20.138  15.305  0.00  0.00     0.240 C 
ATOM      4  O   ALA d   1       2.462  20.427  14.111  0.00  0.00    -0.271 OA
ATOM      5  N   LYS d   1       1.453  19.749  16.022  0.00  0.00    -0.345 N 
ATOM      6  H21 LYS d   1       1.562  19.506  16.986  0.00  0.00     0.163 HD
BRANCH   5   7
ATOM      7  CA  LYS d   1       0.143  19.680  15.408  0.00  0.00     0.096 C 
ATOM      8  H22 LYS d   1       0.223  20.105  14.396  0.00  0.00     0.089 H 
BRANCH   7   9
ATOM      9  C   LYS d   1      -0.875  20.513  16.195  0.00  0.00     0.196 C 
ATOM     10  OXT LYS d   1      -0.553  20.908  17.333  0.00  0.00    -0.646 OA
ATOM     11  O   LYS d   1      -1.955  20.784  15.609  0.00  0.00    -0.646 OA
ENDBRANCH   7   9
BRANCH   7  12
ATOM     12  CB  LYS d   1      -0.348  18.232  15.275  0.00  0.00    -0.037 C 
ATOM     13  H23 LYS d   1      -0.571  17.840  16.278  0.00  0.00     0.036 H 
ATOM     14  H24 LYS d   1       0.449  17.629  14.815  0.00  0.00     0.036 H 
BRANCH  12  15
ATOM     15  CG  LYS d   1      -1.603  18.124  14.416  0.00  0.00    -0.061 C 
ATOM     16  H25 LYS d   1      -1.758  19.089  13.912  0.00  0.00     0.033 H 
ATOM     17  H26 LYS d   1      -2.456  17.915  15.079  0.00  0.00     0.033 H 
BRANCH  15  18
ATOM     18  CD  LYS d   1      -1.552  17.051  13.367  0.00  0.00    -0.043 C 
ATOM     19  H27 LYS d   1      -1.778  16.080  13.831  0.00  0.00     0.035 H 
ATOM     20  H28 LYS d   1      -0.544  17.022  12.927  0.00  0.00     0.035 H 
BRANCH  18  21
ATOM     21  CE  LYS d   1      -2.572  17.332  12.268  0.00  0.00     0.080 C 
ATOM     22  H29 LYS d   1      -2.782  16.398  11.726  0.00  0.00     0.075 H 
ATOM     23  H30 LYS d   1      -2.154  18.074  11.572  0.00  0.00     0.075 H 
BRANCH  21  24
ATOM     24  NZ  LYS d   1      -3.841  17.860  12.836  0.00  0.00    -0.079 N 
ATOM     25  H31 LYS d   1      -4.495  18.037  12.090  0.00  0.00     0.274 HD
ATOM     26  H32 LYS d   1      -3.656  18.718  13.331  0.00  0.00     0.274 HD
ATOM     27  H33 LYS d   1      -4.232  17.183  13.472  0.00  0.00     0.274 HD
ENDBRANCH  21  24
ENDBRANCH  18  21
ENDBRANCH  15  18
ENDBRANCH  12  15
ENDBRANCH   7  12
ENDBRANCH   5   7
ENDBRANCH   1   3
BRANCH   1  28
ATOM     28  CB  ALA d   1       4.213  21.651  16.350  0.00  0.00    -0.049 C 
ATOM     29  H18 ALA d   1       3.401  22.135  16.913  0.00  0.00     0.030 H 
ATOM     30  H19 ALA d   1       4.367  22.182  15.399  0.00  0.00     0.030 H 
ATOM     31  H20 ALA d   1       5.140  21.683  16.942  0.00  0.00     0.030 H 
ENDBRANCH   1  28
BRANCH   1  32
ATOM     32  N   ALA d   1       4.923  19.566  15.319  0.00  0.00    -0.346 N 
ATOM     33  C   LYS d   1       5.045  18.251  15.215  0.00  0.00     0.248 C 
ATOM     34  O   LYS d   1       4.280  17.448  15.762  0.00  0.00    -0.271 OA
ATOM     35  H16 ALA d   1       5.599  20.149  14.869  0.00  0.00     0.163 HD
BRANCH  33  36
ATOM     36  CA  LYS d   1       6.253  17.756  14.437  0.00  0.00     0.176 C 
ATOM     37  H4  LYS d   1       7.060  18.492  14.569  0.00  0.00     0.099 H 
BRANCH  36  38
ATOM     38  CB  LYS d   1       5.968  17.654  12.946  0.00  0.00    -0.030 C 
ATOM     39  H5  LYS d   1       6.929  17.584  12.416  0.00  0.00     0.036 H 
ATOM     40  H6  LYS d   1       5.443  18.568  12.633  0.00  0.00     0.036 H 
BRANCH  38  41
ATOM     41  CG  LYS d   1       5.118  16.458  12.548  0.00  0.00    -0.061 C 
ATOM     42  H7  LYS d   1       4.118  16.565  12.994  0.00  0.00     0.033 H 
ATOM     43  H8  LYS d   1       5.592  15.540  12.926  0.00  0.00     0.033 H 
BRANCH  41  44
ATOM     44  CD  LYS d   1       4.978  16.357  11.033  0.00  0.00    -0.043 C 
ATOM     45  H9  LYS d   1       4.787  17.359  10.621  0.00  0.00     0.035 H 
ATOM     46  H10 LYS d   1       4.133  15.695  10.793  0.00  0.00     0.035 H 
BRANCH  44  47
ATOM     47  CE  LYS d   1       6.249  15.793  10.404  0.00  0.00     0.080 C 
ATOM     48  H11 LYS d   1       7.106  16.420  10.691  0.00  0.00     0.075 H 
ATOM     49  H12 LYS d   1       6.144  15.795   9.309  0.00  0.00     0.075 H 
BRANCH  47  50
ATOM     50  NZ  LYS d   1       6.483  14.392  10.875  0.00  0.00    -0.079 N 
ATOM     51  H13 LYS d   1       7.324  14.032  10.453  0.00  0.00     0.274 HD
ATOM     52  H14 LYS d   1       5.701  13.814  10.611  0.00  0.00     0.274 HD
ATOM     53  H15 LYS d   1       6.582  14.387  11.878  0.00  0.00     0.274 HD
ENDBRANCH  47  50
ENDBRANCH  44  47
ENDBRANCH  41  44
ENDBRANCH  38  41
ENDBRANCH  36  38
BRANCH  36  54
ATOM     54  N   LYS d   1       6.729  16.450  14.992  0.00  0.00    -0.067 N 
ATOM     55  H1  LYS d   1       7.529  16.134  14.467  0.00  0.00     0.275 HD
ATOM     56  H2  LYS d   1       5.991  15.767  14.923  0.00  0.00     0.275 HD
ATOM     57  H3  LYS d   1       6.987  16.570  15.959  0.00  0.00     0.275 HD
ENDBRANCH  36  54
ENDBRANCH  33  36
ENDBRANCH   1  32
TORSDOF 17
