REMARK  19 active torsions:
REMARK  status: ('A' for Active; 'I' for Inactive)
REMARK    1  A    between atoms: CA_2  and  N_1 
REMARK    2  A    between atoms: CA_2  and  CB_5 
REMARK    3  A    between atoms: C_3  and  CA_2 
REMARK       I    between atoms: N_10  and  C_3 
REMARK    4  A    between atoms: CB_5  and  CG_6 
REMARK    5  A    between atoms: CG_6  and  CD_7 
REMARK    6  A    between atoms: CD_7  and  CE_8 
REMARK    7  A    between atoms: CE_8  and  NZ_9 
REMARK    8  A    between atoms: CA_11  and  N_10 
REMARK    9  A    between atoms: CA_11  and  CB_14 
REMARK   10  A    between atoms: C_12  and  CA_11 
REMARK       I    between atoms: C_12  and  N_19 
REMARK   11  A    between atoms: CB_14  and  CG_15 
REMARK   12  A    between atoms: CG_15  and  CD_16 
REMARK   13  A    between atoms: N_19  and  CA_20 
REMARK   14  A    between atoms: CA_20  and  CB_23 
REMARK   15  A    between atoms: CA_20  and  C_21 
REMARK   16  A    between atoms: CB_23  and  CG_24 
REMARK   17  A    between atoms: CG_24  and  CD_25 
REMARK   18  A    between atoms: CD_25  and  CE_26 
REMARK   19  A    between atoms: CE_26  and  NZ_27 
ROOT
ATOM      1  CA  GLU d   1       3.902  20.303  16.132  0.00  0.00     0.090 C 
ATOM      2  H17 GLU d   1       3.805  19.777  17.093  0.00  0.00     0.087 H 
ENDROOT
BRANCH   1   3
ATOM      3  N   GLU d   1       5.025  19.716  15.411  0.00  0.00    -0.346 N 
ATOM      4  C   LYS d   1       5.230  18.407  15.326  0.00  0.00     0.248 C 
ATOM      5  O   LYS d   1       4.471  17.592  15.865  0.00  0.00    -0.271 OA
ATOM      6  H16 GLU d   1       5.672  20.329  14.958  0.00  0.00     0.163 HD
BRANCH   4   7
ATOM      7  CA  LYS d   1       6.457  17.914  14.577  0.00  0.00     0.176 C 
ATOM      8  H4  LYS d   1       7.241  18.677  14.694  0.00  0.00     0.099 H 
BRANCH   7   9
ATOM      9  N   LYS d   1       6.971  16.631  15.161  0.00  0.00    -0.067 N 
ATOM     10  H1  LYS d   1       7.783  16.329  14.646  0.00  0.00     0.275 HD
ATOM     11  H2  LYS d   1       6.254  15.925  15.103  0.00  0.00     0.275 HD
ATOM     12  H3  LYS d   1       7.221  16.778  16.126  0.00  0.00     0.275 HD
ENDBRANCH   7   9
BRANCH   7  13
ATOM     13  CB  LYS d   1       6.205  17.738  13.090  0.00  0.00    -0.030 C 
ATOM     14  H5  LYS d   1       7.180  17.605  12.598  0.00  0.00     0.036 H 
ATOM     15  H6  LYS d   1       5.730  18.658  12.720  0.00  0.00     0.036 H 
BRANCH  13  16
ATOM     16  CG  LYS d   1       5.326  16.573  12.692  0.00  0.00    -0.061 C 
ATOM     17  H7  LYS d   1       4.328  16.710  13.134  0.00  0.00     0.033 H 
ATOM     18  H8  LYS d   1       5.771  15.642  13.073  0.00  0.00     0.033 H 
BRANCH  16  19
ATOM     19  CD  LYS d   1       5.188  16.473  11.179  0.00  0.00    -0.043 C 
ATOM     20  H9  LYS d   1       4.999  17.478  10.773  0.00  0.00     0.035 H 
ATOM     21  H10 LYS d   1       4.338  15.816  10.943  0.00  0.00     0.035 H 
BRANCH  19  22
ATOM     22  CE  LYS d   1       6.437  15.909  10.528  0.00  0.00     0.080 C 
ATOM     23  H11 LYS d   1       7.298  16.540  10.794  0.00  0.00     0.075 H 
ATOM     24  H12 LYS d   1       6.306  15.910   9.436  0.00  0.00     0.075 H 
BRANCH  22  25
ATOM     25  NZ  LYS d   1       6.694  14.508  10.990  0.00  0.00    -0.079 N 
ATOM     26  H13 LYS d   1       7.527  14.155  10.545  0.00  0.00     0.274 HD
ATOM     27  H14 LYS d   1       5.909  13.924  10.745  0.00  0.00     0.274 HD
ATOM     28  H15 LYS d   1       6.819  14.502  11.990  0.00  0.00     0.274 HD
ENDBRANCH  22  25
ENDBRANCH  19  22
ENDBRANCH  16  19
ENDBRANCH  13  16
ENDBRANCH   7  13
ENDBRANCH   4   7
ENDBRANCH   1   3
BRANCH   1  29
ATOM     29  CB  GLU d   1       4.180  21.786  16.414  0.00  0.00    -0.029 C 
ATOM     30  H18 GLU d   1       3.361  22.178  17.035  0.00  0.00     0.037 H 
ATOM     31  H19 GLU d   1       4.200  22.321  15.453  0.00  0.00     0.037 H 
BRANCH  29  32
ATOM     32  CG  GLU d   1       5.487  22.053  17.132  0.00  0.00     0.018 C 
ATOM     33  H20 GLU d   1       5.716  23.124  17.030  0.00  0.00     0.049 H 
ATOM     34  H21 GLU d   1       6.271  21.462  16.637  0.00  0.00     0.049 H 
BRANCH  32  35
ATOM     35  CD  GLU d   1       5.507  21.713  18.599  0.00  0.00     0.172 C 
ATOM     36  OE2 GLU d   1       6.572  21.881  19.241  0.00  0.00    -0.648 OA
ATOM     37  OE1 GLU d   1       4.480  21.277  19.165  0.00  0.00    -0.648 OA
ENDBRANCH  32  35
ENDBRANCH  29  32
ENDBRANCH   1  29
BRANCH   1  38
ATOM     38  C   GLU d   1       2.582  20.157  15.383  0.00  0.00     0.241 C 
ATOM     39  O   GLU d   1       2.526  20.375  14.183  0.00  0.00    -0.271 OA
ATOM     40  N   LYS d   1       1.516  19.793  16.112  0.00  0.00    -0.345 N 
ATOM     41  H22 LYS d   1       1.640  19.629  17.091  0.00  0.00     0.163 HD
BRANCH  40  42
ATOM     42  CA  LYS d   1       0.192  19.627  15.544  0.00  0.00     0.096 C 
ATOM     43  H23 LYS d   1       0.270  19.961  14.499  0.00  0.00     0.089 H 
BRANCH  42  44
ATOM     44  CB  LYS d   1      -0.344  18.194  15.497  0.00  0.00    -0.037 C 
ATOM     45  H24 LYS d   1      -0.976  18.003  16.377  0.00  0.00     0.036 H 
ATOM     46  H25 LYS d   1       0.495  17.482  15.486  0.00  0.00     0.036 H 
BRANCH  44  47
ATOM     47  CG  LYS d   1      -1.183  18.036  14.205  0.00  0.00    -0.061 C 
ATOM     48  H26 LYS d   1      -0.499  17.850  13.364  0.00  0.00     0.033 H 
ATOM     49  H27 LYS d   1      -1.734  18.971  14.029  0.00  0.00     0.033 H 
BRANCH  47  50
ATOM     50  CD  LYS d   1      -2.166  16.910  14.277  0.00  0.00    -0.043 C 
ATOM     51  H28 LYS d   1      -2.541  16.824  15.307  0.00  0.00     0.035 H 
ATOM     52  H29 LYS d   1      -1.664  15.974  13.990  0.00  0.00     0.035 H 
BRANCH  50  53
ATOM     53  CE  LYS d   1      -3.342  17.156  13.335  0.00  0.00     0.080 C 
ATOM     54  H30 LYS d   1      -3.684  18.194  13.457  0.00  0.00     0.075 H 
ATOM     55  H31 LYS d   1      -4.159  16.468  13.598  0.00  0.00     0.075 H 
BRANCH  53  56
ATOM     56  NZ  LYS d   1      -2.968  16.936  11.910  0.00  0.00    -0.079 N 
ATOM     57  H32 LYS d   1      -3.769  17.108  11.322  0.00  0.00     0.274 HD
ATOM     58  H33 LYS d   1      -2.659  15.985  11.787  0.00  0.00     0.274 HD
ATOM     59  H34 LYS d   1      -2.224  17.567  11.657  0.00  0.00     0.274 HD
ENDBRANCH  53  56
ENDBRANCH  50  53
ENDBRANCH  47  50
ENDBRANCH  44  47
ENDBRANCH  42  44
BRANCH  42  60
ATOM     60  C   LYS d   1      -0.835  20.530  16.231  0.00  0.00     0.196 C 
ATOM     61  O   LYS d   1      -1.826  20.875  15.545  0.00  0.00    -0.646 OA
ATOM     62  OXT LYS d   1      -0.633  20.892  17.401  0.00  0.00    -0.646 OA
ENDBRANCH  42  60
ENDBRANCH  40  42
ENDBRANCH   1  38
TORSDOF 19
