REMARK  18 active torsions:
REMARK  status: ('A' for Active; 'I' for Inactive)
REMARK    1  A    between atoms: CA_2  and  N_1 
REMARK    2  A    between atoms: CA_2  and  CB_5 
REMARK    3  A    between atoms: C_3  and  CA_2 
REMARK       I    between atoms: N_10  and  C_3 
REMARK    4  A    between atoms: CB_5  and  CG_6 
REMARK    5  A    between atoms: CG_6  and  CD_7 
REMARK    6  A    between atoms: CD_7  and  CE_8 
REMARK    7  A    between atoms: CE_8  and  NZ_9 
REMARK    8  A    between atoms: CA_11  and  N_10 
REMARK    9  A    between atoms: CA_11  and  CB_14 
REMARK   10  A    between atoms: C_12  and  CA_11 
REMARK       I    between atoms: C_12  and  N_24 
REMARK   11  A    between atoms: CB_14  and  CG_15 
REMARK   12  A    between atoms: N_24  and  CA_25 
REMARK   13  A    between atoms: CA_25  and  CB_28 
REMARK   14  A    between atoms: CA_25  and  C_26 
REMARK   15  A    between atoms: CB_28  and  CG_29 
REMARK   16  A    between atoms: CG_29  and  CD_30 
REMARK   17  A    between atoms: CD_30  and  CE_31 
REMARK   18  A    between atoms: CE_31  and  NZ_32 
ROOT
ATOM      1  CA  TRP d   1       3.692  20.155  16.127  0.00  0.00     0.093 C 
ATOM      2  H17 TRP d   1       3.510  19.518  17.005  0.00  0.00     0.088 H 
ENDROOT
BRANCH   1   3
ATOM      3  N   TRP d   1       4.891  19.660  15.454  0.00  0.00    -0.346 N 
ATOM      4  C   LYS d   1       5.103  18.362  15.301  0.00  0.00     0.249 C 
ATOM      5  O   LYS d   1       4.337  17.501  15.723  0.00  0.00    -0.271 OA
ATOM      6  H16 TRP d   1       5.563  20.312  15.103  0.00  0.00     0.163 HD
BRANCH   4   7
ATOM      7  CA  LYS d   1       6.392  17.934  14.620  0.00  0.00     0.176 C 
ATOM      8  H4  LYS d   1       7.155  18.698  14.829  0.00  0.00     0.099 H 
BRANCH   7   9
ATOM      9  N   LYS d   1       6.862  16.629  15.197  0.00  0.00    -0.067 N 
ATOM     10  H1  LYS d   1       7.717  16.349  14.742  0.00  0.00     0.275 HD
ATOM     11  H2  LYS d   1       6.157  15.924  15.050  0.00  0.00     0.275 HD
ATOM     12  H3  LYS d   1       7.027  16.739  16.185  0.00  0.00     0.275 HD
ENDBRANCH   7   9
BRANCH   7  13
ATOM     13  CB  LYS d   1       6.240  17.833  13.112  0.00  0.00    -0.030 C 
ATOM     14  H5  LYS d   1       7.239  17.696  12.674  0.00  0.00     0.036 H 
ATOM     15  H6  LYS d   1       5.804  18.774  12.746  0.00  0.00     0.036 H 
BRANCH  13  16
ATOM     16  CG  LYS d   1       5.354  16.685  12.646  0.00  0.00    -0.061 C 
ATOM     17  H7  LYS d   1       4.332  16.845  13.021  0.00  0.00     0.033 H 
ATOM     18  H8  LYS d   1       5.749  15.741  13.049  0.00  0.00     0.033 H 
BRANCH  16  19
ATOM     19  CD  LYS d   1       5.318  16.600  11.125  0.00  0.00    -0.043 C 
ATOM     20  H9  LYS d   1       5.198  17.613  10.713  0.00  0.00     0.035 H 
ATOM     21  H10 LYS d   1       4.464  15.977  10.822  0.00  0.00     0.035 H 
BRANCH  19  22
ATOM     22  CE  LYS d   1       6.603  15.986  10.570  0.00  0.00     0.080 C 
ATOM     23  H11 LYS d   1       7.468  16.539  10.965  0.00  0.00     0.075 H 
ATOM     24  H12 LYS d   1       6.593  16.057   9.472  0.00  0.00     0.075 H 
BRANCH  22  25
ATOM     25  NZ  LYS d   1       6.715  14.555  10.966  0.00  0.00    -0.079 N 
ATOM     26  H13 LYS d   1       7.567  14.168  10.591  0.00  0.00     0.274 HD
ATOM     27  H14 LYS d   1       5.926  14.043  10.603  0.00  0.00     0.274 HD
ATOM     28  H15 LYS d   1       6.728  14.485  11.971  0.00  0.00     0.274 HD
ENDBRANCH  22  25
ENDBRANCH  19  22
ENDBRANCH  16  19
ENDBRANCH  13  16
ENDBRANCH   7  13
ENDBRANCH   4   7
ENDBRANCH   1   3
BRANCH   1  29
ATOM     29  CB  TRP d   1       3.886  21.600  16.606  0.00  0.00    -0.012 C 
ATOM     30  H18 TRP d   1       2.937  21.966  17.024  0.00  0.00     0.044 H 
ATOM     31  H19 TRP d   1       4.173  22.224  15.746  0.00  0.00     0.044 H 
BRANCH  29  32
ATOM     32  CG  TRP d   1       4.953  21.705  17.659  0.00  0.00    -0.028 A 
ATOM     33  CD1 TRP d   1       6.146  22.345  17.565  0.00  0.00    -0.015 A 
ATOM     34  NE1 TRP d   1       6.860  22.191  18.730  0.00  0.00    -0.365 N 
ATOM     35  H20 TRP d   1       6.488  22.900  16.693  0.00  0.00     0.112 H 
ATOM     36  CE2 TRP d   1       6.127  21.433  19.602  0.00  0.00     0.042 A 
ATOM     37  H21 TRP d   1       7.794  22.582  18.916  0.00  0.00     0.165 HD
ATOM     38  CD2 TRP d   1       4.917  21.108  18.962  0.00  0.00    -0.002 A 
ATOM     39  CZ2 TRP d   1       6.417  21.010  20.901  0.00  0.00    -0.056 A 
ATOM     40  CE3 TRP d   1       3.968  20.336  19.649  0.00  0.00    -0.070 A 
ATOM     41  CZ3 TRP d   1       4.264  19.904  20.925  0.00  0.00    -0.082 A 
ATOM     42  H22 TRP d   1       3.021  20.084  19.186  0.00  0.00     0.084 H 
ATOM     43  CH2 TRP d   1       5.483  20.243  21.542  0.00  0.00    -0.081 A 
ATOM     44  H24 TRP d   1       3.546  19.294  21.461  0.00  0.00     0.083 H 
ATOM     45  H25 TRP d   1       5.686  19.889  22.546  0.00  0.00     0.083 H 
ATOM     46  H23 TRP d   1       7.349  21.280  21.384  0.00  0.00     0.086 H 
ENDBRANCH  29  32
ENDBRANCH   1  29
BRANCH   1  47
ATOM     47  C   TRP d   1       2.462  20.090  15.225  0.00  0.00     0.241 C 
ATOM     48  O   TRP d   1       2.516  20.380  14.043  0.00  0.00    -0.271 OA
ATOM     49  N   LYS d   1       1.333  19.699  15.841  0.00  0.00    -0.345 N 
ATOM     50  H26 LYS d   1       1.366  19.455  16.810  0.00  0.00     0.163 HD
BRANCH  49  51
ATOM     51  CA  LYS d   1       0.075  19.623  15.139  0.00  0.00     0.096 C 
ATOM     52  H27 LYS d   1       0.205  20.027  14.124  0.00  0.00     0.089 H 
BRANCH  51  53
ATOM     53  CB  LYS d   1      -0.416  18.166  15.056  0.00  0.00    -0.037 C 
ATOM     54  H28 LYS d   1      -0.859  17.879  16.021  0.00  0.00     0.036 H 
ATOM     55  H29 LYS d   1       0.439  17.510  14.835  0.00  0.00     0.036 H 
BRANCH  53  56
ATOM     56  CG  LYS d   1      -1.465  18.007  13.958  0.00  0.00    -0.061 C 
ATOM     57  H30 LYS d   1      -0.950  17.882  12.994  0.00  0.00     0.033 H 
ATOM     58  H31 LYS d   1      -2.083  18.916  13.928  0.00  0.00     0.033 H 
BRANCH  56  59
ATOM     59  CD  LYS d   1      -2.362  16.823  14.180  0.00  0.00    -0.043 C 
ATOM     60  H32 LYS d   1      -2.787  16.875  15.193  0.00  0.00     0.035 H 
ATOM     61  H33 LYS d   1      -1.775  15.899  14.075  0.00  0.00     0.035 H 
BRANCH  59  62
ATOM     62  CE  LYS d   1      -3.491  16.817  13.164  0.00  0.00     0.080 C 
ATOM     63  H34 LYS d   1      -4.124  17.701  13.329  0.00  0.00     0.075 H 
ATOM     64  H35 LYS d   1      -4.091  15.905  13.302  0.00  0.00     0.075 H 
BRANCH  62  65
ATOM     65  NZ  LYS d   1      -2.974  16.847  11.771  0.00  0.00    -0.079 N 
ATOM     66  H36 LYS d   1      -3.748  16.842  11.125  0.00  0.00     0.274 HD
ATOM     67  H37 LYS d   1      -2.397  16.037  11.609  0.00  0.00     0.274 HD
ATOM     68  H38 LYS d   1      -2.427  17.682  11.633  0.00  0.00     0.274 HD
ENDBRANCH  62  65
ENDBRANCH  59  62
ENDBRANCH  56  59
ENDBRANCH  53  56
ENDBRANCH  51  53
BRANCH  51  69
ATOM     69  C   LYS d   1      -1.001  20.427  15.882  0.00  0.00     0.196 C 
ATOM     70  O   LYS d   1      -1.979  20.801  15.196  0.00  0.00    -0.646 OA
ATOM     71  OXT LYS d   1      -0.821  20.652  17.092  0.00  0.00    -0.646 OA
ENDBRANCH  51  69
ENDBRANCH  49  51
ENDBRANCH   1  47
TORSDOF 18
