REMARK  3 active torsions:
REMARK  status: ('A' for Active; 'I' for Inactive)
REMARK    1  A    between atoms: C3_3  and  O3_4 
REMARK    2  A    between atoms: C13_14  and  C18_20 
REMARK    3  A    between atoms: C17_18  and  O17_19 
ROOT
ATOM      1  C1  EST d   1      43.148  25.815  67.976  0.00  0.00    -0.073 A 
ATOM      2  C2  EST d   1      44.547  25.724  68.282  0.00  0.00    -0.051 A 
ATOM      3  C3  EST d   1      45.340  24.672  67.700  0.00  0.00     0.066 A 
ATOM      4  C4  EST d   1      44.749  23.711  66.809  0.00  0.00    -0.044 A 
ATOM      5  C5  EST d   1      43.338  23.784  66.479  0.00  0.00    -0.049 A 
ATOM      6  C6  EST d   1      42.736  22.745  65.504  0.00  0.00    -0.040 C 
ATOM      7  C7  EST d   1      41.214  22.912  65.179  0.00  0.00    -0.057 C 
ATOM      8  C8  EST d   1      40.713  24.381  65.247  0.00  0.00    -0.042 C 
ATOM      9  C9  EST d   1      40.972  24.941  66.722  0.00  0.00    -0.024 C 
ATOM     10  C10 EST d   1      42.500  24.861  67.077  0.00  0.00    -0.047 A 
ATOM     11  C11 EST d   1      40.419  26.405  66.795  0.00  0.00    -0.057 C 
ATOM     12  C12 EST d   1      38.907  26.528  66.427  0.00  0.00    -0.055 C 
ATOM     13  C13 EST d   1      38.658  26.023  64.975  0.00  0.00    -0.014 C 
ATOM     14  C14 EST d   1      39.161  24.500  64.904  0.00  0.00    -0.041 C 
ATOM     15  C15 EST d   1      38.604  24.073  63.535  0.00  0.00    -0.058 C 
ATOM     16  C16 EST d   1      37.111  24.591  63.624  0.00  0.00    -0.040 C 
ATOM     17  C17 EST d   1      37.159  25.840  64.577  0.00  0.00     0.043 C 
ATOM     18  H1  EST d   1      42.559  26.608  68.421  0.00  0.00     0.084 H 
ATOM     19  H2  EST d   1      45.006  26.445  68.949  0.00  0.00     0.087 H 
ATOM     20  H4  EST d   1      45.362  22.926  66.381  0.00  0.00     0.088 H 
ATOM     21  H5  EST d   1      42.879  21.747  65.945  0.00  0.00     0.040 H 
ATOM     22  H6  EST d   1      43.292  22.810  64.557  0.00  0.00     0.040 H 
ATOM     23  H7  EST d   1      40.638  22.316  65.902  0.00  0.00     0.034 H 
ATOM     24  H8  EST d   1      41.033  22.531  64.163  0.00  0.00     0.034 H 
ATOM     25  H9  EST d   1      41.281  24.983  64.523  0.00  0.00     0.041 H 
ATOM     26  H10 EST d   1      40.419  24.321  67.443  0.00  0.00     0.048 H 
ATOM     27  H11 EST d   1      40.997  27.029  66.098  0.00  0.00     0.034 H 
ATOM     28  H12 EST d   1      40.557  26.777  67.821  0.00  0.00     0.034 H 
ATOM     29  H13 EST d   1      38.600  27.582  66.502  0.00  0.00     0.034 H 
ATOM     30  H14 EST d   1      38.313  25.923  67.128  0.00  0.00     0.034 H 
ATOM     31  H15 EST d   1      38.644  23.905  65.671  0.00  0.00     0.042 H 
ATOM     32  H16 EST d   1      38.643  22.981  63.408  0.00  0.00     0.033 H 
ATOM     33  H17 EST d   1      39.149  24.557  62.711  0.00  0.00     0.033 H 
ATOM     34  H18 EST d   1      36.458  23.812  64.043  0.00  0.00     0.036 H 
ATOM     35  H19 EST d   1      36.744  24.881  62.628  0.00  0.00     0.036 H 
ATOM     36  H20 EST d   1      36.584  25.628  65.491  0.00  0.00     0.084 H 
ENDROOT
BRANCH  13  37
ATOM     37  C18 EST d   1      39.354  27.006  63.925  0.00  0.00    -0.066 C 
ATOM     38  H22 EST d   1      40.411  27.142  64.196  0.00  0.00     0.028 H 
ATOM     39  H23 EST d   1      38.843  27.980  63.940  0.00  0.00     0.028 H 
ATOM     40  H24 EST d   1      39.287  26.572  62.916  0.00  0.00     0.028 H 
ENDBRANCH  13  37
BRANCH  17  41
ATOM     41  O17 EST d   1      36.533  26.973  63.917  0.00  0.00    -0.395 OA
ATOM     42  H21 EST d   1      36.562  27.729  64.492  0.00  0.00     0.210 HD
ENDBRANCH  17  41
BRANCH   3  43
ATOM     43  O3  EST d   1      46.679  24.593  68.003  0.00  0.00    -0.361 OA
ATOM     44  H3  EST d   1      46.784  24.478  68.940  0.00  0.00     0.217 HD
ENDBRANCH   3  43
TORSDOF 3
