REMARK  11 active torsions:
REMARK  status: ('A' for Active; 'I' for Inactive)
REMARK    1  A    between atoms: PG_1  and  O3B_5 
REMARK    2  A    between atoms: O3B_5  and  PB_6 
REMARK    3  A    between atoms: PB_6  and  O3A_9 
REMARK    4  A    between atoms: O3A_9  and  PA_10 
REMARK    5  A    between atoms: PA_10  and  O5_13 
REMARK    6  A    between atoms: O5_13  and  C5_14 
REMARK    7  A    between atoms: C5_14  and  C4_15 
REMARK    8  A    between atoms: C3_17  and  O3_18 
REMARK    9  A    between atoms: C2_19  and  O2_20 
REMARK   10  A    between atoms: C1_21  and  N9_22 
REMARK   11  A    between atoms: C2_29  and  N2_30 
ROOT
ATOM      1  C4  NON d   1     -17.062  87.537  61.708  0.00  0.00     0.089 A 
ATOM      2  O4  NON d   1     -15.872  87.305  62.518  0.00  0.00    -0.353 OA
ATOM      3  C3  NON d   1     -18.035  88.368  62.548  0.00  0.00     0.091 A 
ATOM      4  C2  NON d   1     -17.325  88.599  63.904  0.00  0.00     0.105 A 
ATOM      5  C1  NON d   1     -15.989  87.879  63.814  0.00  0.00     0.139 A 
ATOM      6  H3  NON d   1     -17.540  86.563  61.527  0.00  0.00     0.090 H 
ATOM      7  H4  NON d   1     -18.211  89.340  62.064  0.00  0.00     0.091 H 
ATOM      8  H6  NON d   1     -17.154  89.677  64.042  0.00  0.00     0.093 H 
ATOM      9  H8  NON d   1     -15.975  87.082  64.572  0.00  0.00     0.122 H 
ENDROOT
BRANCH   1  10
ATOM     10  C5  NON d   1     -16.730  88.107  60.342  0.00  0.00     0.058 C 
ATOM     11  H1  NON d   1     -16.675  89.204  60.406  0.00  0.00     0.079 H 
ATOM     12  H2  NON d   1     -15.761  87.710  60.004  0.00  0.00     0.079 H 
BRANCH  10  13
ATOM     13  O5  NON d   1     -17.752  87.733  59.409  0.00  0.00    -0.287 OA
BRANCH  13  14
ATOM     14  PA  NON d   1     -17.590  86.708  58.363  0.00  0.00     0.417 P 
ATOM     15  O1A NON d   1     -16.768  85.562  58.856  0.00  0.00    -0.624 OA
ATOM     16  O2A NON d   1     -17.227  87.322  57.084  0.00  0.00    -0.624 OA
BRANCH  14  17
ATOM     17  O3A NON d   1     -19.140  86.169  58.287  0.00  0.00    -0.180 OA
BRANCH  17  18
ATOM     18  PB  NON d   1     -19.590  85.014  57.289  0.00  0.00     0.428 P 
ATOM     19  O1B NON d   1     -18.515  84.787  56.304  0.00  0.00    -0.624 OA
ATOM     20  O2B NON d   1     -20.939  85.303  56.808  0.00  0.00    -0.624 OA
BRANCH  18  21
ATOM     21  O3B NON d   1     -19.924  83.831  58.214  0.00  0.00    -0.173 OA
BRANCH  21  22
ATOM     22  PG  NON d   1     -20.537  82.485  57.721  0.00  0.00     0.431 P 
ATOM     23  O1G NON d   1     -19.850  81.350  58.387  0.00  0.00    -0.616 OA
ATOM     24  O2G NON d   1     -22.007  82.108  57.929  0.00  0.00    -0.616 OA
ATOM     25  O3G NON d   1     -20.124  82.263  56.311  0.00  0.00    -0.616 OA
ENDBRANCH  21  22
ENDBRANCH  18  21
ENDBRANCH  17  18
ENDBRANCH  14  17
ENDBRANCH  13  14
ENDBRANCH  10  13
ENDBRANCH   1  10
BRANCH   3  26
ATOM     26  O3  NON d   1     -19.288  87.691  62.658  0.00  0.00    -0.390 OA
ATOM     27  H5  NON d   1     -19.156  86.848  63.075  0.00  0.00     0.210 HD
ENDBRANCH   3  26
BRANCH   5  28
ATOM     28  N9  NON d   1     -14.811  88.754  64.032  0.00  0.00    -0.293 N 
ATOM     29  C8  NON d   1     -13.706  88.569  64.821  0.00  0.00     0.071 A 
ATOM     30  N7  NON d   1     -12.847  89.532  64.797  0.00  0.00    -0.234 NA
ATOM     31  H9  NON d   1     -13.563  87.674  65.425  0.00  0.00     0.144 H 
ATOM     32  C5  NON d   1     -13.365  90.442  63.954  0.00  0.00     0.173 A 
ATOM     33  C6  NON d   1     -12.870  91.726  63.527  0.00  0.00     0.292 A 
ATOM     34  C4  NON d   1     -14.598  90.007  63.444  0.00  0.00     0.186 A 
ATOM     35  O6  NON d   1     -11.790  92.264  63.889  0.00  0.00    -0.265 OA
ATOM     36  N1  NON d   1     -13.757  92.409  62.588  0.00  0.00    -0.152 N 
ATOM     37  C2  NON d   1     -14.959  91.887  62.140  0.00  0.00     0.703 A 
ATOM     38  H10 NON d   1     -13.479  93.308  62.248  0.00  0.00     0.187 HD
ATOM     39  N3  NON d   1     -15.433  90.698  62.527  0.00  0.00    -0.044 NA
BRANCH  37  40
ATOM     40  N2  NON d   1     -15.652  92.633  61.283  0.00  0.00    -0.233 N 
ATOM     41  H11 NON d   1     -16.553  92.294  60.917  0.00  0.00     0.174 HD
ATOM     42  H12 NON d   1     -15.287  93.549  60.986  0.00  0.00     0.174 HD
ENDBRANCH  37  40
ENDBRANCH   5  28
BRANCH   4  43
ATOM     43  O2  NON d   1     -18.075  88.124  65.007  0.00  0.00    -0.388 OA
ATOM     44  H7  NON d   1     -18.220  87.190  64.911  0.00  0.00     0.210 HD
ENDBRANCH   4  43
TORSDOF 11
