REMARK  5 active torsions:
REMARK  status: ('A' for Active; 'I' for Inactive)
REMARK    1  A    between atoms: N1_1  and  C1_9 
REMARK    2  A    between atoms: C3_11  and  O3_13 
REMARK    3  A    between atoms: C4_12  and  C5_15 
REMARK    4  A    between atoms: C5_15  and  O5_16 
REMARK    5  A    between atoms: O5_16  and  P_17 
ROOT
ATOM      1  C1  UMP d   1      15.442  46.566 -53.043  0.00  0.00     0.116 C 
ATOM      2  C2  UMP d   1      14.773  46.438 -54.417  0.00  0.00     0.002 C 
ATOM      3  C3  UMP d   1      15.964  46.503 -55.365  0.00  0.00     0.066 C 
ATOM      4  C4  UMP d   1      16.871  47.639 -54.844  0.00  0.00     0.087 C 
ATOM      5  O4  UMP d   1      16.372  47.711 -53.379  0.00  0.00    -0.356 OA
ATOM      6  H4  UMP d   1      16.119  45.706 -52.934  0.00  0.00     0.118 H 
ATOM      7  H5  UMP d   1      14.074  47.267 -54.599  0.00  0.00     0.043 H 
ATOM      8  H6  UMP d   1      14.239  45.481 -54.513  0.00  0.00     0.043 H 
ATOM      9  H7  UMP d   1      15.656  46.687 -56.405  0.00  0.00     0.087 H 
ATOM     10  H8  UMP d   1      17.939  47.386 -54.911  0.00  0.00     0.090 H 
ENDROOT
BRANCH   1  11
ATOM     11  N1  UMP d   1      14.526  46.347 -51.860  0.00  0.00    -0.282 N 
ATOM     12  C2  UMP d   1      14.334  45.018 -51.484  0.00  0.00     0.331 A 
ATOM     13  N3  UMP d   1      13.375  44.647 -50.600  0.00  0.00    -0.275 N 
ATOM     14  O2  UMP d   1      15.032  44.106 -51.857  0.00  0.00    -0.246 OA
ATOM     15  C4  UMP d   1      12.541  45.531 -49.997  0.00  0.00     0.250 A 
ATOM     16  H1  UMP d   1      13.278  43.676 -50.382  0.00  0.00     0.173 HD
ATOM     17  C5  UMP d   1      12.781  46.945 -50.388  0.00  0.00    -0.002 A 
ATOM     18  O4  UMP d   1      11.689  45.081 -49.230  0.00  0.00    -0.268 OA
ATOM     19  C6  UMP d   1      13.792  47.307 -51.324  0.00  0.00    -0.008 A 
ATOM     20  H2  UMP d   1      12.166  47.727 -49.946  0.00  0.00     0.094 H 
ATOM     21  H3  UMP d   1      13.956  48.350 -51.592  0.00  0.00     0.112 H 
ENDBRANCH   1  11
BRANCH   3  22
ATOM     22  O3  UMP d   1      16.644  45.203 -55.231  0.00  0.00    -0.393 OA
ATOM     23  H9  UMP d   1      16.075  44.514 -55.555  0.00  0.00     0.210 HD
ENDBRANCH   3  22
BRANCH   4  24
ATOM     24  C5  UMP d   1      16.592  48.957 -55.590  0.00  0.00     0.059 C 
ATOM     25  H10 UMP d   1      17.152  49.756 -55.083  0.00  0.00     0.079 H 
ATOM     26  H11 UMP d   1      15.514  49.163 -55.518  0.00  0.00     0.079 H 
BRANCH  24  27
ATOM     27  O5  UMP d   1      16.969  48.983 -57.044  0.00  0.00    -0.280 OA
BRANCH  27  28
ATOM     28  P   UMP d   1      15.809  49.341 -58.131  0.00  0.00     0.422 P 
ATOM     29  O1P UMP d   1      16.206  49.307 -59.551  0.00  0.00    -0.617 OA
ATOM     30  O2P UMP d   1      14.807  48.289 -57.896  0.00  0.00    -0.617 OA
ATOM     31  O3P UMP d   1      15.275  50.675 -57.810  0.00  0.00    -0.617 OA
ENDBRANCH  27  28
ENDBRANCH  24  27
ENDBRANCH   4  24
TORSDOF 5
