REMARK  14 active torsions:
REMARK  status: ('A' for Active; 'I' for Inactive)
REMARK    1  A    between atoms: PA_1  and  O5'A_4 
REMARK    2  A    between atoms: O3A_8  and  PA_1 
REMARK    3  A    between atoms: O5'A_4  and  C5'A_19 
REMARK    4  A    between atoms: PB_5  and  O3A_8 
REMARK    5  A    between atoms: O3'U_34  and  PB_5 
REMARK    6  A    between atoms: C1'A_22  and  N9A_9 
REMARK    7  A    between atoms: C6A_14  and  N6A_15 
REMARK    8  A    between atoms: C5'A_19  and  C4'A_20 
REMARK    9  A    between atoms: C2'A_23  and  O2'A_24 
REMARK   10  A    between atoms: C3'A_25  and  O3'A_26 
REMARK   11  A    between atoms: C5'U_28  and  O5'U_27 
REMARK   12  A    between atoms: C4'U_29  and  C5'U_28 
REMARK   13  A    between atoms: C1'U_31  and  N1U_35 
REMARK   14  A    between atoms: O3'U_34  and  C3'U_33 
ROOT
ATOM      1  PA  139 d   1      38.292  -4.569  21.304  0.00  0.00     0.417 P 
ATOM      2  O1A 139 d   1      39.518  -5.432  21.605  0.00  0.00    -0.624 OA
ATOM      3  O2A 139 d   1      38.631  -3.184  20.830  0.00  0.00    -0.624 OA
ENDROOT
BRANCH   1   4
ATOM      4  O5' 139 d   1      37.317  -5.244  20.229  0.00  0.00    -0.287 OA
BRANCH   4   5
ATOM      5  C5' 139 d   1      36.923  -6.614  20.356  0.00  0.00     0.058 C 
ATOM      6  H5  139 d   1      35.871  -6.659  20.674  0.00  0.00     0.079 H 
ATOM      7  H6  139 d   1      37.556  -7.103  21.111  0.00  0.00     0.079 H 
BRANCH   5   8
ATOM      8  C4' 139 d   1      37.074  -7.342  19.034  0.00  0.00     0.089 C 
ATOM      9  O4' 139 d   1      36.136  -6.802  18.074  0.00  0.00    -0.353 OA
ATOM     10  C1' 139 d   1      36.609  -7.094  16.774  0.00  0.00     0.139 C 
ATOM     11  C2' 139 d   1      38.086  -7.509  16.865  0.00  0.00     0.105 C 
ATOM     12  H8  139 d   1      36.077  -7.994  16.432  0.00  0.00     0.122 H 
ATOM     13  C3' 139 d   1      38.421  -7.204  18.329  0.00  0.00     0.091 C 
ATOM     14  H9  139 d   1      38.709  -6.902  16.192  0.00  0.00     0.093 H 
ATOM     15  H11 139 d   1      38.771  -6.165  18.423  0.00  0.00     0.091 H 
ATOM     16  H7  139 d   1      36.871  -8.408  19.212  0.00  0.00     0.090 H 
BRANCH  10  17
ATOM     17  N9A 139 d   1      36.208  -6.037  15.832  0.00  0.00    -0.294 N 
ATOM     18  C4A 139 d   1      36.704  -4.759  15.650  0.00  0.00     0.167 A 
ATOM     19  N3A 139 d   1      37.688  -4.134  16.347  0.00  0.00    -0.222 NA
ATOM     20  C5A 139 d   1      35.984  -4.233  14.578  0.00  0.00     0.149 A 
ATOM     21  C2A 139 d   1      37.897  -2.886  15.874  0.00  0.00     0.091 A 
ATOM     22  N1A 139 d   1      37.273  -2.250  14.857  0.00  0.00    -0.222 NA
ATOM     23  H1  139 d   1      38.670  -2.317  16.378  0.00  0.00     0.146 H 
ATOM     24  C6A 139 d   1      36.303  -2.917  14.170  0.00  0.00     0.155 A 
ATOM     25  N7A 139 d   1      35.054  -5.148  14.108  0.00  0.00    -0.236 NA
ATOM     26  C8A 139 d   1      35.217  -6.188  14.888  0.00  0.00     0.071 A 
ATOM     27  H4  139 d   1      34.620  -7.094  14.797  0.00  0.00     0.144 H 
BRANCH  24  28
ATOM     28  N6A 139 d   1      35.703  -2.314  13.143  0.00  0.00    -0.382 N 
ATOM     29  H2  139 d   1      34.968  -2.806  12.615  0.00  0.00     0.157 HD
ATOM     30  H3  139 d   1      35.974  -1.356  12.878  0.00  0.00     0.157 HD
ENDBRANCH  24  28
ENDBRANCH  10  17
BRANCH  11  31
ATOM     31  O2' 139 d   1      38.247  -8.882  16.528  0.00  0.00    -0.388 OA
ATOM     32  H10 139 d   1      37.942  -9.027  15.640  0.00  0.00     0.210 HD
ENDBRANCH  11  31
BRANCH  13  33
ATOM     33  O3' 139 d   1      39.473  -8.063  18.826  0.00  0.00    -0.390 OA
ATOM     34  H12 139 d   1      39.196  -8.970  18.764  0.00  0.00     0.210 HD
ENDBRANCH  13  33
ENDBRANCH   5   8
ENDBRANCH   4   5
ENDBRANCH   1   4
BRANCH   1  35
ATOM     35  O3A 139 d   1      37.446  -4.387  22.644  0.00  0.00    -0.180 OA
BRANCH  35  36
ATOM     36  PB  139 d   1      36.671  -3.178  23.340  0.00  0.00     0.418 P 
ATOM     37  O1B 139 d   1      35.704  -2.635  22.329  0.00  0.00    -0.624 OA
ATOM     38  O2B 139 d   1      36.152  -3.713  24.628  0.00  0.00    -0.624 OA
BRANCH  36  39
ATOM     39  O3' 139 d   1      37.855  -2.131  23.749  0.00  0.00    -0.281 OA
BRANCH  39  40
ATOM     40  C3' 139 d   1      38.107  -0.951  22.957  0.00  0.00     0.081 C 
ATOM     41  C4' 139 d   1      39.194  -0.086  23.609  0.00  0.00     0.087 C 
ATOM     42  O4' 139 d   1      38.501   0.977  24.321  0.00  0.00    -0.356 OA
ATOM     43  H16 139 d   1      39.759  -0.707  24.319  0.00  0.00     0.090 H 
ATOM     44  C1' 139 d   1      37.097   0.816  24.178  0.00  0.00     0.116 C 
ATOM     45  C2' 139 d   1      36.905  -0.022  22.925  0.00  0.00     0.003 C 
ATOM     46  H17 139 d   1      36.684   0.279  25.045  0.00  0.00     0.118 H 
ATOM     47  H18 139 d   1      36.913   0.607  22.022  0.00  0.00     0.043 H 
ATOM     48  H19 139 d   1      35.964  -0.590  22.968  0.00  0.00     0.043 H 
ATOM     49  H20 139 d   1      38.397  -1.251  21.939  0.00  0.00     0.088 H 
BRANCH  41  50
ATOM     50  C5' 139 d   1      40.174   0.540  22.643  0.00  0.00     0.043 C 
ATOM     51  H14 139 d   1      41.034   0.935  23.204  0.00  0.00     0.078 H 
ATOM     52  H15 139 d   1      40.520  -0.224  21.931  0.00  0.00     0.078 H 
BRANCH  50  53
ATOM     53  O5' 139 d   1      39.547   1.613  21.919  0.00  0.00    -0.398 OA
ATOM     54  H13 139 d   1      39.249   2.275  22.532  0.00  0.00     0.209 HD
ENDBRANCH  50  53
ENDBRANCH  41  50
BRANCH  44  55
ATOM     55  N1U 139 d   1      36.463   2.146  24.096  0.00  0.00    -0.282 N 
ATOM     56  C6U 139 d   1      36.977   3.157  23.286  0.00  0.00    -0.008 A 
ATOM     57  C5U 139 d   1      36.368   4.345  23.135  0.00  0.00    -0.002 A 
ATOM     58  H21 139 d   1      37.910   2.977  22.754  0.00  0.00     0.112 H 
ATOM     59  C4U 139 d   1      35.133   4.611  23.843  0.00  0.00     0.250 A 
ATOM     60  H23 139 d   1      36.800   5.103  22.484  0.00  0.00     0.094 H 
ATOM     61  N3U 139 d   1      34.706   3.583  24.672  0.00  0.00    -0.275 N 
ATOM     62  O4U 139 d   1      34.372   5.560  23.634  0.00  0.00    -0.268 OA
ATOM     63  C2U 139 d   1      35.293   2.349  24.840  0.00  0.00     0.331 A 
ATOM     64  H22 139 d   1      33.880   3.758  25.207  0.00  0.00     0.173 HD
ATOM     65  O2U 139 d   1      34.810   1.503  25.572  0.00  0.00    -0.246 OA
ENDBRANCH  44  55
ENDBRANCH  39  40
ENDBRANCH  36  39
ENDBRANCH  35  36
ENDBRANCH   1  35
TORSDOF 14
