REMARK  13 active torsions:
REMARK  status: ('A' for Active; 'I' for Inactive)
REMARK    1  A    between atoms: C1_1  and  O1_2 
REMARK    2  A    between atoms: O1_2  and  C1'_13 
REMARK    3  A    between atoms: C2_3  and  O2_4 
REMARK    4  A    between atoms: C3_5  and  O3_6 
REMARK    5  A    between atoms: C4_7  and  O4_8 
REMARK    6  A    between atoms: C5_9  and  C6_11 
REMARK    7  A    between atoms: C6_11  and  O6_12 
REMARK    8  A    between atoms: C3'_15  and  N1'_19 
REMARK    9  A    between atoms: C5'_17  and  C7'_22 
REMARK       I    between atoms: C7'_22  and  N2'_24 
REMARK   10  A    between atoms: N2'_24  and  C9'_33 
REMARK   11  A    between atoms: C7'_31  and  N4'_28 
REMARK   12  A    between atoms: C8'_32  and  C7'_31 
REMARK   13  A    between atoms: C9'_33  and  C8'_32 
ROOT
ATOM      1  C1' A32 d   1      50.122  -0.016  -2.754  0.00  0.00     0.075 A 
ATOM      2  C2' A32 d   1      50.980   0.095  -3.847  0.00  0.00    -0.019 A 
ATOM      3  C3' A32 d   1      50.649  -0.610  -5.019  0.00  0.00     0.106 A 
ATOM      4  C4' A32 d   1      49.452  -1.398  -4.968  0.00  0.00    -0.036 A 
ATOM      5  C5' A32 d   1      48.599  -1.491  -3.849  0.00  0.00     0.037 A 
ATOM      6  C6' A32 d   1      48.951  -0.762  -2.676  0.00  0.00    -0.035 A 
ATOM      7  H12 A32 d   1      51.874   0.705  -3.796  0.00  0.00     0.091 H 
ATOM      8  H13 A32 d   1      49.184  -1.963  -5.853  0.00  0.00     0.088 H 
ATOM      9  H14 A32 d   1      48.343  -0.787  -1.779  0.00  0.00     0.089 H 
ENDROOT
BRANCH   5  10
ATOM     10  C7' A32 d   1      47.386  -2.225  -3.744  0.00  0.00     0.251 C 
ATOM     11  N2' A32 d   1      46.744  -2.657  -4.709  0.00  0.00    -0.357 N 
ATOM     12  H15 A32 d   1      45.969  -3.229  -4.440  0.00  0.00     0.162 HD
ATOM     13  O3' A32 d   1      46.991  -2.333  -2.524  0.00  0.00    -0.268 OA
BRANCH  11  14
ATOM     14  C9' A32 d   1      46.869  -2.516  -6.112  0.00  0.00    -0.003 C 
ATOM     15  H29 A32 d   1      47.615  -1.738  -6.334  0.00  0.00     0.064 H 
ATOM     16  H30 A32 d   1      45.897  -2.224  -6.536  0.00  0.00     0.064 H 
BRANCH  14  17
ATOM     17  C8' A32 d   1      47.324  -3.861  -6.750  0.00  0.00    -0.028 C 
ATOM     18  H27 A32 d   1      48.356  -3.776  -7.122  0.00  0.00     0.037 H 
ATOM     19  H28 A32 d   1      46.656  -4.134  -7.580  0.00  0.00     0.037 H 
BRANCH  17  20
ATOM     20  C7' A32 d   1      47.247  -4.907  -5.647  0.00  0.00     0.085 C 
ATOM     21  H25 A32 d   1      46.181  -5.086  -5.446  0.00  0.00     0.076 H 
ATOM     22  H26 A32 d   1      47.720  -4.471  -4.755  0.00  0.00     0.076 H 
BRANCH  20  23
ATOM     23  N4' A32 d   1      47.881  -6.243  -5.871  0.00  0.00    -0.067 N 
ATOM     24  C5' A32 d   1      46.898  -7.380  -5.823  0.00  0.00     0.103 C 
ATOM     25  C6' A32 d   1      46.844  -8.132  -4.496  0.00  0.00     0.042 C 
ATOM     26  H21 A32 d   1      47.169  -8.098  -6.611  0.00  0.00     0.079 H 
ATOM     27  H22 A32 d   1      45.896  -6.973  -6.026  0.00  0.00     0.079 H 
ATOM     28  O1' A32 d   1      48.119  -8.653  -4.099  0.00  0.00    -0.388 OA
ATOM     29  H23 A32 d   1      46.488  -7.443  -3.716  0.00  0.00     0.076 H 
ATOM     30  H24 A32 d   1      46.138  -8.970  -4.596  0.00  0.00     0.076 H 
ATOM     31  C2' A32 d   1      49.248  -7.863  -4.365  0.00  0.00     0.042 C 
ATOM     32  C3' A32 d   1      49.144  -6.563  -5.124  0.00  0.00     0.103 C 
ATOM     33  H16 A32 d   1      49.691  -7.617  -3.389  0.00  0.00     0.076 H 
ATOM     34  H17 A32 d   1      49.943  -8.498  -4.933  0.00  0.00     0.076 H 
ATOM     35  H18 A32 d   1      49.299  -5.754  -4.395  0.00  0.00     0.079 H 
ATOM     36  H19 A32 d   1      49.962  -6.556  -5.860  0.00  0.00     0.079 H 
ATOM     37  H20 A32 d   1      48.178  -6.203  -6.834  0.00  0.00     0.280 HD
ENDBRANCH  20  23
ENDBRANCH  17  20
ENDBRANCH  14  17
ENDBRANCH  11  14
ENDBRANCH   5  10
BRANCH   3  38
ATOM     38  N1' A32 d   1      51.394  -0.653  -6.217  0.00  0.00    -0.116 N 
ATOM     39  O2' A32 d   1      52.526  -0.137  -6.344  0.00  0.00    -0.532 OA
ATOM     40  O1' A32 d   1      50.848  -1.325  -7.161  0.00  0.00    -0.532 OA
ENDBRANCH   3  38
BRANCH   1  41
ATOM     41  O1  A32 d   1      50.409   0.684  -1.520  0.00  0.00    -0.318 OA
BRANCH  41  42
ATOM     42  C1  A32 d   1      50.204   2.131  -1.649  0.00  0.00     0.164 C 
ATOM     43  O5  A32 d   1      48.785   2.366  -1.564  0.00  0.00    -0.348 OA
ATOM     44  C5  A32 d   1      48.246   1.919  -0.296  0.00  0.00     0.089 C 
ATOM     45  C4  A32 d   1      48.931   2.676   0.852  0.00  0.00     0.090 C 
ATOM     46  H8  A32 d   1      48.494   0.854  -0.174  0.00  0.00     0.090 H 
ATOM     47  C3  A32 d   1      50.495   2.536   0.812  0.00  0.00     0.092 C 
ATOM     48  H6  A32 d   1      48.592   2.197   1.782  0.00  0.00     0.091 H 
ATOM     49  C2  A32 d   1      50.912   3.024  -0.590  0.00  0.00     0.110 C 
ATOM     50  H4  A32 d   1      50.842   1.516   1.032  0.00  0.00     0.091 H 
ATOM     51  H2  A32 d   1      50.560   4.056  -0.731  0.00  0.00     0.094 H 
ATOM     52  H1  A32 d   1      50.568   2.437  -2.641  0.00  0.00     0.134 H 
BRANCH  44  53
ATOM     53  C6  A32 d   1      46.709   2.026  -0.323  0.00  0.00     0.043 C 
ATOM     54  H9  A32 d   1      46.429   3.042  -0.640  0.00  0.00     0.078 H 
ATOM     55  H10 A32 d   1      46.322   1.839   0.690  0.00  0.00     0.078 H 
BRANCH  53  56
ATOM     56  O6  A32 d   1      46.130   1.097  -1.210  0.00  0.00    -0.398 OA
ATOM     57  H11 A32 d   1      46.454   1.256  -2.089  0.00  0.00     0.209 HD
ENDBRANCH  53  56
ENDBRANCH  44  53
BRANCH  45  58
ATOM     58  O4  A32 d   1      48.554   4.036   0.938  0.00  0.00    -0.390 OA
ATOM     59  H7  A32 d   1      49.010   4.445   1.664  0.00  0.00     0.210 HD
ENDBRANCH  45  58
BRANCH  47  60
ATOM     60  O3  A32 d   1      50.990   3.494   1.729  0.00  0.00    -0.390 OA
ATOM     61  H5  A32 d   1      51.939   3.454   1.746  0.00  0.00     0.210 HD
ENDBRANCH  47  60
BRANCH  49  62
ATOM     62  O2  A32 d   1      52.340   3.037  -0.663  0.00  0.00    -0.388 OA
ATOM     63  H3  A32 d   1      52.672   2.159  -0.514  0.00  0.00     0.210 HD
ENDBRANCH  49  62
ENDBRANCH  41  42
ENDBRANCH   1  41
TORSDOF 13
