REMARK  7 active torsions:
REMARK  status: ('A' for Active; 'I' for Inactive)
REMARK    1  A    between atoms: N1_1  and  C1'_9 
REMARK    2  A    between atoms: C4_4  and  N4_8 
REMARK    3  A    between atoms: C2'_10  and  O2'_11 
REMARK    4  A    between atoms: O2'_11  and  P_18 
REMARK    5  A    between atoms: C3'_12  and  O3'_15 
REMARK    6  A    between atoms: C4'_13  and  C5'_16 
REMARK    7  A    between atoms: C5'_16  and  O5'_17 
ROOT
ATOM      1  C1' C2P d   1      36.938   0.865  24.936  0.00  0.00     0.142 C 
ATOM      2  C2' C2P d   1      36.824  -0.136  23.777  0.00  0.00     0.121 C 
ATOM      3  C3' C2P d   1      38.061   0.243  22.970  0.00  0.00     0.092 C 
ATOM      4  C4' C2P d   1      39.081   0.472  24.068  0.00  0.00     0.088 C 
ATOM      5  O4' C2P d   1      38.316   1.171  25.091  0.00  0.00    -0.353 OA
ATOM      6  H5  C2P d   1      36.551   0.393  25.851  0.00  0.00     0.123 H 
ATOM      7  H6  C2P d   1      35.918  -0.013  23.166  0.00  0.00     0.095 H 
ATOM      8  H7  C2P d   1      37.876   1.171  22.408  0.00  0.00     0.091 H 
ATOM      9  H8  C2P d   1      39.444  -0.495  24.447  0.00  0.00     0.090 H 
ENDROOT
BRANCH   1  10
ATOM     10  N1  C2P d   1      36.216   2.125  24.718  0.00  0.00    -0.280 N 
ATOM     11  C2  C2P d   1      35.012   2.333  25.403  0.00  0.00     0.330 A 
ATOM     12  N3  C2P d   1      34.366   3.525  25.270  0.00  0.00    -0.293 N 
ATOM     13  O2  C2P d   1      34.562   1.414  26.115  0.00  0.00    -0.246 OA
ATOM     14  C4  C2P d   1      34.869   4.471  24.465  0.00  0.00     0.125 A 
ATOM     15  H1  C2P d   1      33.518   3.694  25.772  0.00  0.00     0.172 HD
ATOM     16  C5  C2P d   1      36.082   4.262  23.720  0.00  0.00    -0.024 A 
ATOM     17  C6  C2P d   1      36.715   3.085  23.876  0.00  0.00    -0.009 A 
ATOM     18  H2  C2P d   1      36.474   5.029  23.054  0.00  0.00     0.091 H 
ATOM     19  H3  C2P d   1      37.635   2.893  23.326  0.00  0.00     0.112 H 
BRANCH  14  20
ATOM     20  N4  C2P d   1      34.218   5.624  24.381  0.00  0.00    -0.284 NA
ATOM     21  H4  C2P d   1      34.568   6.358  23.785  0.00  0.00     0.188 HD
ENDBRANCH  14  20
ENDBRANCH   1  10
BRANCH   2  22
ATOM     22  O2' C2P d   1      36.781  -1.388  24.462  0.00  0.00    -0.270 OA
BRANCH  22  23
ATOM     23  P   C2P d   1      36.589  -2.795  23.653  0.00  0.00     0.422 P 
ATOM     24  O1P C2P d   1      35.102  -2.851  23.444  0.00  0.00    -0.617 OA
ATOM     25  O2P C2P d   1      37.290  -3.897  24.379  0.00  0.00    -0.617 OA
ATOM     26  O3P C2P d   1      37.264  -2.633  22.223  0.00  0.00    -0.617 OA
ENDBRANCH  22  23
ENDBRANCH   2  22
BRANCH   3  27
ATOM     27  O3' C2P d   1      38.499  -0.738  22.065  0.00  0.00    -0.390 OA
ATOM     28  H9  C2P d   1      37.842  -0.860  21.390  0.00  0.00     0.210 HD
ENDBRANCH   3  27
BRANCH   4  29
ATOM     29  C5' C2P d   1      40.267   1.294  23.654  0.00  0.00     0.043 C 
ATOM     30  H10 C2P d   1      40.958   0.669  23.070  0.00  0.00     0.078 H 
ATOM     31  H11 C2P d   1      40.782   1.670  24.550  0.00  0.00     0.078 H 
BRANCH  29  32
ATOM     32  O5' C2P d   1      39.832   2.405  22.851  0.00  0.00    -0.398 OA
ATOM     33  H12 C2P d   1      40.586   2.921  22.592  0.00  0.00     0.209 HD
ENDBRANCH  29  32
ENDBRANCH   4  29
TORSDOF 7
