REMARK  1 active torsions:
REMARK  status: ('A' for Active; 'I' for Inactive)
REMARK    1  A    between atoms: C6_5  and  N6_6 
ROOT
ATOM      1  N9  ADE d   1      -7.269 -38.516  -0.556  0.00  0.00    -0.333 N 
ATOM      2  C8  ADE d   1      -7.153 -37.960  -1.775  0.00  0.00     0.066 A 
ATOM      3  N7  ADE d   1      -6.174 -37.053  -1.872  0.00  0.00    -0.236 NA
ATOM      4  C5  ADE d   1      -5.632 -37.038  -0.611  0.00  0.00     0.149 A 
ATOM      5  C6  ADE d   1      -4.568 -36.311  -0.017  0.00  0.00     0.155 A 
ATOM      6  N1  ADE d   1      -4.292 -36.562   1.321  0.00  0.00    -0.222 NA
ATOM      7  C2  ADE d   1      -5.026 -37.471   2.010  0.00  0.00     0.091 A 
ATOM      8  N3  ADE d   1      -6.059 -38.214   1.536  0.00  0.00    -0.222 NA
ATOM      9  C4  ADE d   1      -6.300 -37.938   0.212  0.00  0.00     0.162 A 
ATOM     10  H1  ADE d   1      -7.949 -39.231  -0.262  0.00  0.00     0.168 HD
ATOM     11  H2  ADE d   1      -7.800 -38.225  -2.610  0.00  0.00     0.143 H 
ATOM     12  H5  ADE d   1      -4.760 -37.620   3.050  0.00  0.00     0.146 H 
ENDROOT
BRANCH   5  13
ATOM     13  N6  ADE d   1      -3.859 -35.422  -0.711  0.00  0.00    -0.382 N 
ATOM     14  H3  ADE d   1      -3.091 -34.907  -0.256  0.00  0.00     0.157 HD
ATOM     15  H4  ADE d   1      -4.078 -35.249  -1.702  0.00  0.00     0.157 HD
ENDBRANCH   5  13
TORSDOF 1
