REMARK  9 active torsions:
REMARK  status: ('A' for Active; 'I' for Inactive)
REMARK    1  A    between atoms: C65_1  and  C34_10 
REMARK    2  A    between atoms: C61_6  and  C25_7 
REMARK    3  A    between atoms: C25_7  and  N43_8 
REMARK    4  A    between atoms: C34_10  and  C31_11 
REMARK    5  A    between atoms: C31_11  and  N29_23 
REMARK    6  A    between atoms: C31_11  and  C35_12 
REMARK       I    between atoms: C35_12  and  N81_14 
REMARK    7  A    between atoms: C71_15  and  C91_20 
REMARK    8  A    between atoms: N29_23  and  S12_24 
REMARK    9  A    between atoms: S12_24  and  C2_27 
ROOT
ATOM      1  C31 FD1 d   1      -1.562  18.898  17.730  0.00  0.00     0.101 C 
ATOM      2  H11 FD1 d   1      -1.853  19.788  18.307  0.00  0.00     0.089 H 
ENDROOT
BRANCH   1   3
ATOM      3  C34 FD1 d   1      -2.496  17.769  18.195  0.00  0.00    -0.013 C 
ATOM      4  H9  FD1 d   1      -2.655  17.874  19.278  0.00  0.00     0.043 H 
ATOM      5  H10 FD1 d   1      -3.457  17.876  17.671  0.00  0.00     0.043 H 
BRANCH   3   6
ATOM      6  C65 FD1 d   1      -1.946  16.358  17.919  0.00  0.00    -0.055 A 
ATOM      7  C64 FD1 d   1      -1.209  15.657  18.908  0.00  0.00    -0.077 A 
ATOM      8  C63 FD1 d   1      -0.712  14.370  18.644  0.00  0.00    -0.082 A 
ATOM      9  H2  FD1 d   1      -1.028  16.117  19.873  0.00  0.00     0.084 H 
ATOM     10  C62 FD1 d   1      -0.951  13.774  17.388  0.00  0.00    -0.069 A 
ATOM     11  H3  FD1 d   1      -0.148  13.838  19.401  0.00  0.00     0.083 H 
ATOM     12  C61 FD1 d   1      -1.685  14.466  16.394  0.00  0.00     0.007 A 
ATOM     13  H4  FD1 d   1      -0.570  12.780  17.182  0.00  0.00     0.085 H 
ATOM     14  C66 FD1 d   1      -2.172  15.750  16.669  0.00  0.00    -0.063 A 
ATOM     15  H1  FD1 d   1      -2.731  16.284  15.909  0.00  0.00     0.085 H 
BRANCH  12  16
ATOM     16  C25 FD1 d   1      -1.939  13.837  15.052  0.00  0.00     0.102 C 
ATOM     17  N54 FD1 d   1      -2.559  14.517  14.114  0.00  0.00    -0.385 N 
ATOM     18  H7  FD1 d   1      -2.875  15.480  14.299  0.00  0.00     0.157 HD
ATOM     19  H8  FD1 d   1      -2.729  14.087  13.193  0.00  0.00     0.157 HD
BRANCH  16  20
ATOM     20  N43 FD1 d   1      -1.530  12.622  14.845  0.00  0.00    -0.385 N 
ATOM     21  H5  FD1 d   1      -1.694  12.172  13.933  0.00  0.00     0.157 HD
ATOM     22  H6  FD1 d   1      -1.042  12.108  15.593  0.00  0.00     0.157 HD
ENDBRANCH  16  20
ENDBRANCH  12  16
ENDBRANCH   3   6
ENDBRANCH   1   3
BRANCH   1  23
ATOM     23  N29 FD1 d   1      -1.763  19.227  16.313  0.00  0.00    -0.301 N 
ATOM     24  H21 FD1 d   1      -1.663  18.520  15.613  0.00  0.00     0.173 HD
BRANCH  23  25
ATOM     25  S12 FD1 d   1      -2.170  20.831  15.868  0.00  0.00     0.259 S 
ATOM     26  O33 FD1 d   1      -3.081  21.379  16.816  0.00  0.00    -0.201 OA
ATOM     27  O32 FD1 d   1      -2.450  20.876  14.461  0.00  0.00    -0.201 OA
BRANCH  25  28
ATOM     28  C2  FD1 d   1      -0.652  21.613  16.082  0.00  0.00     0.080 A 
ATOM     29  C1  FD1 d   1      -0.560  22.748  16.874  0.00  0.00    -0.050 A 
ATOM     30  C9  FD1 d   1       0.682  23.406  17.038  0.00  0.00    -0.025 A 
ATOM     31  H24 FD1 d   1      -1.444  23.133  17.370  0.00  0.00     0.087 H 
ATOM     32  C10 FD1 d   1       1.852  22.900  16.368  0.00  0.00    -0.026 A 
ATOM     33  C8  FD1 d   1       0.766  24.569  17.866  0.00  0.00    -0.072 A 
ATOM     34  C4  FD1 d   1       1.743  21.734  15.542  0.00  0.00    -0.071 A 
ATOM     35  C5  FD1 d   1       3.089  23.591  16.551  0.00  0.00    -0.072 A 
ATOM     36  C3  FD1 d   1       0.473  21.099  15.400  0.00  0.00    -0.059 A 
ATOM     37  H23 FD1 d   1       2.614  21.339  15.032  0.00  0.00     0.084 H 
ATOM     38  H22 FD1 d   1       0.372  20.223  14.769  0.00  0.00     0.085 H 
ATOM     39  C6  FD1 d   1       3.156  24.765  17.391  0.00  0.00    -0.082 A 
ATOM     40  H25 FD1 d   1       3.984  23.232  16.056  0.00  0.00     0.084 H 
ATOM     41  C7  FD1 d   1       1.996  25.238  18.041  0.00  0.00    -0.082 A 
ATOM     42  H26 FD1 d   1       4.099  25.283  17.522  0.00  0.00     0.083 H 
ATOM     43  H27 FD1 d   1       2.050  26.116  18.675  0.00  0.00     0.083 H 
ATOM     44  H28 FD1 d   1      -0.123  24.940  18.363  0.00  0.00     0.084 H 
ENDBRANCH  25  28
ENDBRANCH  23  25
ENDBRANCH   1  23
BRANCH   1  45
ATOM     45  C35 FD1 d   1      -0.087  18.668  18.021  0.00  0.00     0.244 C 
ATOM     46  N81 FD1 d   1       0.501  19.023  19.210  0.00  0.00    -0.336 N 
ATOM     47  C75 FD1 d   1       1.778  18.395  19.613  0.00  0.00    -0.001 C 
ATOM     48  C71 FD1 d   1      -0.247  19.815  20.232  0.00  0.00     0.098 C 
ATOM     49  C74 FD1 d   1       2.715  19.571  19.948  0.00  0.00    -0.050 C 
ATOM     50  H17 FD1 d   1       2.191  17.795  18.788  0.00  0.00     0.064 H 
ATOM     51  H18 FD1 d   1       1.632  17.754  20.495  0.00  0.00     0.064 H 
ATOM     52  C40 FD1 d   1       2.067  20.697  20.695  0.00  0.00    -0.061 C 
ATOM     53  H15 FD1 d   1       3.543  19.185  20.561  0.00  0.00     0.035 H 
ATOM     54  H16 FD1 d   1       3.113  19.971  19.004  0.00  0.00     0.035 H 
ATOM     55  C72 FD1 d   1       0.653  21.023  20.592  0.00  0.00    -0.036 C 
ATOM     56  H19 FD1 d   1       2.252  20.496  21.761  0.00  0.00     0.033 H 
ATOM     57  H20 FD1 d   1       2.607  21.607  20.395  0.00  0.00     0.033 H 
ATOM     58  H13 FD1 d   1       0.320  21.427  21.559  0.00  0.00     0.036 H 
ATOM     59  H14 FD1 d   1       0.531  21.790  19.813  0.00  0.00     0.036 H 
ATOM     60  H12 FD1 d   1      -1.188  20.179  19.793  0.00  0.00     0.089 H 
ATOM     61  O36 FD1 d   1       0.534  18.136  17.100  0.00  0.00    -0.271 OA
BRANCH  48  62
ATOM     62  C91 FD1 d   1      -0.582  18.988  21.449  0.00  0.00     0.196 C 
ATOM     63  O93 FD1 d   1      -0.501  17.715  21.405  0.00  0.00    -0.646 OA
ATOM     64  O92 FD1 d   1      -0.965  19.546  22.522  0.00  0.00    -0.646 OA
ENDBRANCH  48  62
ENDBRANCH   1  45
TORSDOF 9
