REMARK  11 active torsions:
REMARK  status: ('A' for Active; 'I' for Inactive)
REMARK    1  A    between atoms: C65_1  and  C34_10 
REMARK    2  A    between atoms: C61_6  and  C25_7 
REMARK    3  A    between atoms: C25_7  and  N43_8 
REMARK    4  A    between atoms: C34_10  and  C31_11 
REMARK    5  A    between atoms: C31_11  and  N29_24 
REMARK    6  A    between atoms: C31_11  and  C35_12 
REMARK       I    between atoms: C35_12  and  N81_14 
REMARK    7  A    between atoms: C40_19  and  C48_20 
REMARK    8  A    between atoms: C48_20  and  O55_22 
REMARK    9  A    between atoms: O55_22  and  C99_23 
REMARK   10  A    between atoms: N29_24  and  S12_25 
REMARK   11  A    between atoms: S12_25  and  C2_28 
ROOT
ATOM      1  C31 FD2 d   1      -3.793   4.153  22.254  0.00  0.00     0.101 C 
ATOM      2  H11 FD2 d   1      -3.980   3.086  22.445  0.00  0.00     0.089 H 
ENDROOT
BRANCH   1   3
ATOM      3  C34 FD2 d   1      -3.805   4.361  20.707  0.00  0.00    -0.013 C 
ATOM      4  H9  FD2 d   1      -3.350   3.478  20.234  0.00  0.00     0.043 H 
ATOM      5  H10 FD2 d   1      -4.850   4.456  20.377  0.00  0.00     0.043 H 
BRANCH   3   6
ATOM      6  C65 FD2 d   1      -3.035   5.609  20.247  0.00  0.00    -0.055 A 
ATOM      7  C64 FD2 d   1      -1.674   5.516  19.893  0.00  0.00    -0.077 A 
ATOM      8  C63 FD2 d   1      -0.965   6.651  19.476  0.00  0.00    -0.082 A 
ATOM      9  H2  FD2 d   1      -1.171   4.557  19.944  0.00  0.00     0.084 H 
ATOM     10  C62 FD2 d   1      -1.611   7.899  19.404  0.00  0.00    -0.069 A 
ATOM     11  H3  FD2 d   1       0.082   6.567  19.209  0.00  0.00     0.083 H 
ATOM     12  C61 FD2 d   1      -2.975   8.014  19.758  0.00  0.00     0.007 A 
ATOM     13  H4  FD2 d   1      -1.062   8.774  19.076  0.00  0.00     0.085 H 
ATOM     14  C66 FD2 d   1      -3.680   6.861  20.178  0.00  0.00    -0.063 A 
ATOM     15  H1  FD2 d   1      -4.726   6.941  20.449  0.00  0.00     0.085 H 
BRANCH  12  16
ATOM     16  C25 FD2 d   1      -3.669   9.360  19.670  0.00  0.00     0.102 C 
ATOM     17  N54 FD2 d   1      -4.951   9.466  19.969  0.00  0.00    -0.385 N 
ATOM     18  H7  FD2 d   1      -5.480   8.635  20.269  0.00  0.00     0.157 HD
ATOM     19  H8  FD2 d   1      -5.421  10.380  19.902  0.00  0.00     0.157 HD
BRANCH  16  20
ATOM     20  N43 FD2 d   1      -2.976  10.402  19.287  0.00  0.00    -0.385 N 
ATOM     21  H5  FD2 d   1      -3.428  11.325  19.221  0.00  0.00     0.157 HD
ATOM     22  H6  FD2 d   1      -1.978  10.299  19.052  0.00  0.00     0.157 HD
ENDBRANCH  16  20
ENDBRANCH  12  16
ENDBRANCH   3   6
ENDBRANCH   1   3
BRANCH   1  23
ATOM     23  N29 FD2 d   1      -4.863   4.928  22.886  0.00  0.00    -0.301 N 
ATOM     24  H24 FD2 d   1      -5.066   5.851  22.560  0.00  0.00     0.173 HD
BRANCH  23  25
ATOM     25  S12 FD2 d   1      -5.778   4.256  24.193  0.00  0.00     0.259 S 
ATOM     26  O33 FD2 d   1      -6.113   2.905  23.902  0.00  0.00    -0.201 OA
ATOM     27  O32 FD2 d   1      -6.794   5.205  24.567  0.00  0.00    -0.201 OA
BRANCH  25  28
ATOM     28  C2  FD2 d   1      -4.570   4.289  25.422  0.00  0.00     0.080 A 
ATOM     29  C1  FD2 d   1      -3.895   3.132  25.817  0.00  0.00    -0.050 A 
ATOM     30  C9  FD2 d   1      -2.890   3.207  26.837  0.00  0.00    -0.025 A 
ATOM     31  H27 FD2 d   1      -4.130   2.180  25.354  0.00  0.00     0.087 H 
ATOM     32  C10 FD2 d   1      -2.600   4.459  27.439  0.00  0.00    -0.026 A 
ATOM     33  C8  FD2 d   1      -2.191   2.037  27.262  0.00  0.00    -0.072 A 
ATOM     34  C4  FD2 d   1      -3.306   5.625  27.019  0.00  0.00    -0.071 A 
ATOM     35  C5  FD2 d   1      -1.605   4.523  28.460  0.00  0.00    -0.072 A 
ATOM     36  C3  FD2 d   1      -4.284   5.526  26.017  0.00  0.00    -0.059 A 
ATOM     37  H26 FD2 d   1      -3.088   6.585  27.472  0.00  0.00     0.084 H 
ATOM     38  H25 FD2 d   1      -4.822   6.412  25.701  0.00  0.00     0.085 H 
ATOM     39  C6  FD2 d   1      -0.904   3.353  28.880  0.00  0.00    -0.082 A 
ATOM     40  H28 FD2 d   1      -1.378   5.476  28.924  0.00  0.00     0.084 H 
ATOM     41  C7  FD2 d   1      -1.208   2.107  28.266  0.00  0.00    -0.082 A 
ATOM     42  H29 FD2 d   1      -0.150   3.413  29.657  0.00  0.00     0.083 H 
ATOM     43  H30 FD2 d   1      -0.682   1.210  28.572  0.00  0.00     0.083 H 
ATOM     44  H31 FD2 d   1      -2.421   1.081  26.805  0.00  0.00     0.084 H 
ENDBRANCH  25  28
ENDBRANCH  23  25
ENDBRANCH   1  23
BRANCH   1  45
ATOM     45  C35 FD2 d   1      -2.469   4.514  22.904  0.00  0.00     0.243 C 
ATOM     46  N81 FD2 d   1      -1.414   3.678  23.021  0.00  0.00    -0.350 N 
ATOM     47  C75 FD2 d   1      -0.164   4.173  23.571  0.00  0.00    -0.002 C 
ATOM     48  C71 FD2 d   1      -1.509   2.346  22.445  0.00  0.00    -0.002 C 
ATOM     49  C74 FD2 d   1       0.336   3.158  24.637  0.00  0.00    -0.038 C 
ATOM     50  H18 FD2 d   1      -0.327   5.155  24.040  0.00  0.00     0.064 H 
ATOM     51  H19 FD2 d   1       0.583   4.269  22.769  0.00  0.00     0.064 H 
ATOM     52  C40 FD2 d   1       0.375   1.708  24.055  0.00  0.00     0.033 C 
ATOM     53  H16 FD2 d   1       1.348   3.444  24.959  0.00  0.00     0.036 H 
ATOM     54  H17 FD2 d   1      -0.344   3.180  25.502  0.00  0.00     0.036 H 
ATOM     55  C72 FD2 d   1      -1.024   1.316  23.492  0.00  0.00    -0.038 C 
ATOM     56  H20 FD2 d   1       1.102   1.679  23.230  0.00  0.00     0.055 H 
ATOM     57  H14 FD2 d   1      -0.956   0.326  23.018  0.00  0.00     0.036 H 
ATOM     58  H15 FD2 d   1      -1.747   1.277  24.320  0.00  0.00     0.036 H 
ATOM     59  H12 FD2 d   1      -0.877   2.286  21.547  0.00  0.00     0.064 H 
ATOM     60  H13 FD2 d   1      -2.554   2.134  22.174  0.00  0.00     0.064 H 
ATOM     61  O36 FD2 d   1      -2.417   5.659  23.345  0.00  0.00    -0.271 OA
BRANCH  52  62
ATOM     62  C48 FD2 d   1       0.796   0.806  25.054  0.00  0.00     0.262 C 
ATOM     63  O49 FD2 d   1       0.185  -0.187  25.437  0.00  0.00    -0.265 OA
BRANCH  62  64
ATOM     64  O55 FD2 d   1       1.999   1.168  25.536  0.00  0.00    -0.326 OA
BRANCH  64  65
ATOM     65  C99 FD2 d   1       2.176   0.934  26.951  0.00  0.00     0.013 C 
ATOM     66  H21 FD2 d   1       3.183   1.258  27.253  0.00  0.00     0.067 H 
ATOM     67  H22 FD2 d   1       2.058  -0.139  27.163  0.00  0.00     0.067 H 
ATOM     68  H23 FD2 d   1       1.423   1.504  27.514  0.00  0.00     0.067 H 
ENDBRANCH  64  65
ENDBRANCH  62  64
ENDBRANCH  52  62
ENDBRANCH   1  45
TORSDOF 11
