REMARK  8 active torsions:
REMARK  status: ('A' for Active; 'I' for Inactive)
REMARK    1  A    between atoms: C65_1  and  C34_10 
REMARK    2  A    between atoms: C61_6  and  C25_7 
REMARK    3  A    between atoms: C25_7  and  N43_8 
REMARK    4  A    between atoms: C34_10  and  C31_11 
REMARK    5  A    between atoms: C31_11  and  N29_20 
REMARK    6  A    between atoms: C31_11  and  C35_12 
REMARK       I    between atoms: C35_12  and  N81_14 
REMARK    7  A    between atoms: N29_20  and  S12_21 
REMARK    8  A    between atoms: S12_21  and  C2_24 
ROOT
ATOM      1  C31 FD3 d   1      -4.052   4.382  22.242  0.00  0.00     0.101 C 
ATOM      2  H11 FD3 d   1      -4.202   3.309  22.434  0.00  0.00     0.089 H 
ENDROOT
BRANCH   1   3
ATOM      3  C34 FD3 d   1      -4.090   4.560  20.713  0.00  0.00    -0.013 C 
ATOM      4  H9  FD3 d   1      -3.710   3.639  20.246  0.00  0.00     0.043 H 
ATOM      5  H10 FD3 d   1      -5.134   4.721  20.408  0.00  0.00     0.043 H 
BRANCH   3   6
ATOM      6  C65 FD3 d   1      -3.245   5.748  20.208  0.00  0.00    -0.055 A 
ATOM      7  C64 FD3 d   1      -1.896   5.564  19.825  0.00  0.00    -0.077 A 
ATOM      8  C63 FD3 d   1      -1.128   6.645  19.371  0.00  0.00    -0.082 A 
ATOM      9  H2  FD3 d   1      -1.452   4.577  19.883  0.00  0.00     0.084 H 
ATOM     10  C62 FD3 d   1      -1.707   7.924  19.276  0.00  0.00    -0.069 A 
ATOM     11  H3  FD3 d   1      -0.091   6.496  19.094  0.00  0.00     0.083 H 
ATOM     12  C61 FD3 d   1      -3.056   8.117  19.640  0.00  0.00     0.007 A 
ATOM     13  H4  FD3 d   1      -1.116   8.761  18.923  0.00  0.00     0.085 H 
ATOM     14  C66 FD3 d   1      -3.813   7.028  20.103  0.00  0.00    -0.063 A 
ATOM     15  H1  FD3 d   1      -4.849   7.178  20.383  0.00  0.00     0.085 H 
BRANCH  12  16
ATOM     16  C25 FD3 d   1      -3.694   9.474  19.544  0.00  0.00     0.102 C 
ATOM     17  N54 FD3 d   1      -4.956   9.614  19.886  0.00  0.00    -0.385 N 
ATOM     18  H7  FD3 d   1      -5.498   8.797  20.202  0.00  0.00     0.157 HD
ATOM     19  H8  FD3 d   1      -5.403  10.541  19.838  0.00  0.00     0.157 HD
BRANCH  16  20
ATOM     20  N43 FD3 d   1      -2.981  10.491  19.139  0.00  0.00    -0.385 N 
ATOM     21  H5  FD3 d   1      -3.409  11.425  19.070  0.00  0.00     0.157 HD
ATOM     22  H6  FD3 d   1      -1.991  10.359  18.889  0.00  0.00     0.157 HD
ENDBRANCH  16  20
ENDBRANCH  12  16
ENDBRANCH   3   6
ENDBRANCH   1   3
BRANCH   1  23
ATOM     23  N29 FD3 d   1      -5.156   5.101  22.893  0.00  0.00    -0.301 N 
ATOM     24  H22 FD3 d   1      -5.406   6.020  22.587  0.00  0.00     0.173 HD
BRANCH  23  25
ATOM     25  S12 FD3 d   1      -6.016   4.356  24.182  0.00  0.00     0.259 S 
ATOM     26  O33 FD3 d   1      -6.266   2.988  23.875  0.00  0.00    -0.201 OA
ATOM     27  O32 FD3 d   1      -7.070   5.238  24.608  0.00  0.00    -0.201 OA
BRANCH  25  28
ATOM     28  C2  FD3 d   1      -4.759   4.410  25.360  0.00  0.00     0.080 A 
ATOM     29  C1  FD3 d   1      -4.054   3.259  25.707  0.00  0.00    -0.050 A 
ATOM     30  C9  FD3 d   1      -3.019   3.330  26.677  0.00  0.00    -0.025 A 
ATOM     31  H25 FD3 d   1      -4.295   2.312  25.238  0.00  0.00     0.087 H 
ATOM     32  C10 FD3 d   1      -2.710   4.586  27.297  0.00  0.00    -0.026 A 
ATOM     33  C8  FD3 d   1      -2.291   2.150  27.033  0.00  0.00    -0.072 A 
ATOM     34  C4  FD3 d   1      -3.443   5.755  26.929  0.00  0.00    -0.071 A 
ATOM     35  C5  FD3 d   1      -1.668   4.628  28.275  0.00  0.00    -0.072 A 
ATOM     36  C3  FD3 d   1      -4.471   5.648  25.958  0.00  0.00    -0.059 A 
ATOM     37  H24 FD3 d   1      -3.217   6.712  27.386  0.00  0.00     0.084 H 
ATOM     38  H23 FD3 d   1      -5.038   6.527  25.675  0.00  0.00     0.085 H 
ATOM     39  C6  FD3 d   1      -0.945   3.441  28.625  0.00  0.00    -0.082 A 
ATOM     40  H26 FD3 d   1      -1.422   5.567  28.757  0.00  0.00     0.084 H 
ATOM     41  C7  FD3 d   1      -1.266   2.211  28.000  0.00  0.00    -0.082 A 
ATOM     42  H27 FD3 d   1      -0.155   3.484  29.366  0.00  0.00     0.083 H 
ATOM     43  H28 FD3 d   1      -0.721   1.312  28.266  0.00  0.00     0.083 H 
ATOM     44  H29 FD3 d   1      -2.529   1.205  26.557  0.00  0.00     0.084 H 
ENDBRANCH  25  28
ENDBRANCH  23  25
ENDBRANCH   1  23
BRANCH   1  45
ATOM     45  C35 FD3 d   1      -2.733   4.759  22.885  0.00  0.00     0.243 C 
ATOM     46  N81 FD3 d   1      -1.653   3.922  22.912  0.00  0.00    -0.347 N 
ATOM     47  C75 FD3 d   1      -0.372   4.427  23.437  0.00  0.00     0.020 C 
ATOM     48  C71 FD3 d   1      -1.595   2.734  22.030  0.00  0.00     0.020 C 
ATOM     49  C74 FD3 d   1       0.130   3.304  24.376  0.00  0.00     0.096 C 
ATOM     50  H18 FD3 d   1      -0.522   5.363  23.995  0.00  0.00     0.066 H 
ATOM     51  H19 FD3 d   1       0.343   4.599  22.619  0.00  0.00     0.066 H 
ATOM     52  N40 FD3 d   1      -0.025   1.937  23.806  0.00  0.00    -0.072 N 
ATOM     53  H16 FD3 d   1       1.196   3.475  24.584  0.00  0.00     0.078 H 
ATOM     54  H17 FD3 d   1      -0.440   3.356  25.316  0.00  0.00     0.078 H 
ATOM     55  C72 FD3 d   1      -1.119   1.567  22.931  0.00  0.00     0.096 C 
ATOM     56  H20 FD3 d   1       0.820   1.755  23.287  0.00  0.00     0.277 HD
ATOM     57  H21 FD3 d   1      -0.076   1.311  24.595  0.00  0.00     0.277 HD
ATOM     58  H14 FD3 d   1      -0.788   0.739  22.287  0.00  0.00     0.078 H 
ATOM     59  H15 FD3 d   1      -1.965   1.234  23.550  0.00  0.00     0.078 H 
ATOM     60  H12 FD3 d   1      -0.882   2.900  21.209  0.00  0.00     0.066 H 
ATOM     61  H13 FD3 d   1      -2.590   2.516  21.614  0.00  0.00     0.066 H 
ATOM     62  O36 FD3 d   1      -2.706   5.896  23.353  0.00  0.00    -0.271 OA
ENDBRANCH   1  45
TORSDOF 8
