REMARK  9 active torsions:
REMARK  status: ('A' for Active; 'I' for Inactive)
REMARK    1  A    between atoms: C65_1  and  C34_10 
REMARK    2  A    between atoms: C61_6  and  C25_7 
REMARK    3  A    between atoms: C25_7  and  N43_8 
REMARK    4  A    between atoms: C34_10  and  C31_11 
REMARK    5  A    between atoms: C31_11  and  N29_20 
REMARK    6  A    between atoms: C31_11  and  C35_12 
REMARK       I    between atoms: C35_12  and  N81_14 
REMARK       I    between atoms: N40_19  and  C48_34 
REMARK    7  A    between atoms: N29_20  and  S12_21 
REMARK    8  A    between atoms: S12_21  and  C2_24 
REMARK    9  A    between atoms: C48_34  and  C55_36 
ROOT
ATOM      1  C31 FD4 d   1      -3.940   4.216  22.259  0.00  0.00     0.101 C 
ATOM      2  H11 FD4 d   1      -4.085   3.141  22.444  0.00  0.00     0.089 H 
ENDROOT
BRANCH   1   3
ATOM      3  C34 FD4 d   1      -3.997   4.442  20.713  0.00  0.00    -0.013 C 
ATOM      4  H9  FD4 d   1      -3.608   3.542  20.213  0.00  0.00     0.043 H 
ATOM      5  H10 FD4 d   1      -5.046   4.599  20.421  0.00  0.00     0.043 H 
BRANCH   3   6
ATOM      6  C65 FD4 d   1      -3.173   5.654  20.249  0.00  0.00    -0.055 A 
ATOM      7  C64 FD4 d   1      -1.843   5.482  19.839  0.00  0.00    -0.077 A 
ATOM      8  C63 FD4 d   1      -1.084   6.581  19.416  0.00  0.00    -0.082 A 
ATOM      9  H2  FD4 d   1      -1.400   4.493  19.849  0.00  0.00     0.084 H 
ATOM     10  C62 FD4 d   1      -1.656   7.865  19.379  0.00  0.00    -0.069 A 
ATOM     11  H3  FD4 d   1      -0.052   6.441  19.116  0.00  0.00     0.083 H 
ATOM     12  C61 FD4 d   1      -2.997   8.049  19.777  0.00  0.00     0.007 A 
ATOM     13  H4  FD4 d   1      -1.068   8.712  19.045  0.00  0.00     0.085 H 
ATOM     14  C66 FD4 d   1      -3.745   6.936  20.207  0.00  0.00    -0.063 A 
ATOM     15  H1  FD4 d   1      -4.777   7.071  20.510  0.00  0.00     0.085 H 
BRANCH  12  16
ATOM     16  C25 FD4 d   1      -3.634   9.426  19.742  0.00  0.00     0.102 C 
ATOM     17  N54 FD4 d   1      -4.863   9.576  20.184  0.00  0.00    -0.385 N 
ATOM     18  H7  FD4 d   1      -5.380   8.765  20.554  0.00  0.00     0.157 HD
ATOM     19  H8  FD4 d   1      -5.309  10.504  20.160  0.00  0.00     0.157 HD
BRANCH  16  20
ATOM     20  N43 FD4 d   1      -2.955  10.440  19.266  0.00  0.00    -0.385 N 
ATOM     21  H5  FD4 d   1      -3.381  11.378  19.239  0.00  0.00     0.157 HD
ATOM     22  H6  FD4 d   1      -1.996  10.300  18.919  0.00  0.00     0.157 HD
ENDBRANCH  16  20
ENDBRANCH  12  16
ENDBRANCH   3   6
ENDBRANCH   1   3
BRANCH   1  23
ATOM     23  N29 FD4 d   1      -5.015   4.948  22.932  0.00  0.00    -0.301 N 
ATOM     24  H20 FD4 d   1      -5.249   5.869  22.621  0.00  0.00     0.173 HD
BRANCH  23  25
ATOM     25  S12 FD4 d   1      -5.889   4.253  24.253  0.00  0.00     0.259 S 
ATOM     26  O33 FD4 d   1      -6.218   2.879  23.927  0.00  0.00    -0.201 OA
ATOM     27  O32 FD4 d   1      -6.929   5.166  24.637  0.00  0.00    -0.201 OA
BRANCH  25  28
ATOM     28  C2  FD4 d   1      -4.656   4.290  25.495  0.00  0.00     0.080 A 
ATOM     29  C1  FD4 d   1      -4.029   3.111  25.933  0.00  0.00    -0.050 A 
ATOM     30  C9  FD4 d   1      -3.035   3.174  26.951  0.00  0.00    -0.025 A 
ATOM     31  H23 FD4 d   1      -4.301   2.156  25.497  0.00  0.00     0.087 H 
ATOM     32  C10 FD4 d   1      -2.693   4.419  27.522  0.00  0.00    -0.026 A 
ATOM     33  C8  FD4 d   1      -2.400   2.006  27.384  0.00  0.00    -0.072 A 
ATOM     34  C4  FD4 d   1      -3.327   5.579  27.085  0.00  0.00    -0.071 A 
ATOM     35  C5  FD4 d   1      -1.728   4.486  28.521  0.00  0.00    -0.072 A 
ATOM     36  C3  FD4 d   1      -4.300   5.515  26.086  0.00  0.00    -0.059 A 
ATOM     37  H22 FD4 d   1      -3.064   6.535  27.522  0.00  0.00     0.084 H 
ATOM     38  H21 FD4 d   1      -4.790   6.426  25.760  0.00  0.00     0.085 H 
ATOM     39  C6  FD4 d   1      -1.064   3.326  28.927  0.00  0.00    -0.082 A 
ATOM     40  H24 FD4 d   1      -1.491   5.437  28.984  0.00  0.00     0.084 H 
ATOM     41  C7  FD4 d   1      -1.418   2.083  28.378  0.00  0.00    -0.082 A 
ATOM     42  H25 FD4 d   1      -0.274   3.385  29.667  0.00  0.00     0.083 H 
ATOM     43  H26 FD4 d   1      -0.929   1.180  28.725  0.00  0.00     0.083 H 
ATOM     44  H27 FD4 d   1      -2.666   1.048  26.953  0.00  0.00     0.084 H 
ENDBRANCH  25  28
ENDBRANCH  23  25
ENDBRANCH   1  23
BRANCH   1  45
ATOM     45  C35 FD4 d   1      -2.610   4.618  22.862  0.00  0.00     0.243 C 
ATOM     46  N81 FD4 d   1      -1.575   3.758  23.068  0.00  0.00    -0.347 N 
ATOM     47  C75 FD4 d   1      -0.294   4.302  23.497  0.00  0.00     0.013 C 
ATOM     48  C71 FD4 d   1      -1.545   2.438  22.440  0.00  0.00     0.013 C 
ATOM     49  C74 FD4 d   1       0.160   3.396  24.659  0.00  0.00     0.013 C 
ATOM     50  H18 FD4 d   1      -0.411   5.340  23.840  0.00  0.00     0.066 H 
ATOM     51  H19 FD4 d   1       0.435   4.268  22.674  0.00  0.00     0.066 H 
ATOM     52  N40 FD4 d   1      -0.002   1.973  24.364  0.00  0.00    -0.349 N 
ATOM     53  H16 FD4 d   1       1.222   3.594  24.864  0.00  0.00     0.066 H 
ATOM     54  H17 FD4 d   1      -0.438   3.641  25.550  0.00  0.00     0.066 H 
ATOM     55  C72 FD4 d   1      -1.129   1.475  23.569  0.00  0.00     0.013 C 
ATOM     56  C48 FD4 d   1       0.932   1.067  24.796  0.00  0.00     0.215 C 
ATOM     57  H14 FD4 d   1      -0.843   0.512  23.120  0.00  0.00     0.066 H 
ATOM     58  H15 FD4 d   1      -1.990   1.326  24.237  0.00  0.00     0.066 H 
ATOM     59  O49 FD4 d   1       1.847   1.394  25.538  0.00  0.00    -0.274 OA
ATOM     60  H12 FD4 d   1      -0.811   2.415  21.621  0.00  0.00     0.066 H 
ATOM     61  H13 FD4 d   1      -2.538   2.172  22.050  0.00  0.00     0.066 H 
ATOM     62  O36 FD4 d   1      -2.517   5.804  23.154  0.00  0.00    -0.271 OA
BRANCH  56  63
ATOM     63  C55 FD4 d   1       0.891  -0.395  24.408  0.00  0.00    -0.003 C 
ATOM     64  H28 FD4 d   1       1.738  -0.921  24.872  0.00  0.00     0.040 H 
ATOM     65  H29 FD4 d   1       0.958  -0.486  23.314  0.00  0.00     0.040 H 
ATOM     66  H30 FD4 d   1      -0.053  -0.840  24.756  0.00  0.00     0.040 H 
ENDBRANCH  56  63
ENDBRANCH   1  45
TORSDOF 9
