REMARK  17 active torsions:
REMARK  status: ('A' for Active; 'I' for Inactive)
REMARK    1  A    between atoms: C51_1  and  C44_10 
REMARK    2  A    between atoms: C54_6  and  C57_7 
REMARK    3  A    between atoms: C57_7  and  N58_8 
REMARK    4  A    between atoms: C44_10  and  C41_11 
REMARK    5  A    between atoms: C41_11  and  C42_13 
REMARK    6  A    between atoms: C41_11  and  N40_12 
REMARK       I    between atoms: N40_12  and  C35_41 
REMARK       I    between atoms: C42_13  and  N60_15 
REMARK    7  A    between atoms: C30_36  and  N23_21 
REMARK    8  A    between atoms: N23_21  and  S20_22 
REMARK    9  A    between atoms: S20_22  and  C11_25 
REMARK   10  A    between atoms: C12_26  and  C17_31 
REMARK   11  A    between atoms: C13_27  and  C18_32 
REMARK   12  A    between atoms: C14_28  and  O11_34 
REMARK   13  A    between atoms: C16_30  and  C10_33 
REMARK   14  A    between atoms: O11_34  and  C19_35 
REMARK   15  A    between atoms: C35_41  and  C30_36 
REMARK   16  A    between atoms: C30_36  and  C31_37 
REMARK   17  A    between atoms: C31_37  and  C32_38 
ROOT
ATOM      1  N40 CCR d   1      -0.509  18.849  18.771  0.00  0.00    -0.346 N 
ATOM      2  C35 CCR d   1      -0.223  19.028  17.452  0.00  0.00     0.242 C 
ATOM      3  O36 CCR d   1       0.640  18.431  16.834  0.00  0.00    -0.271 OA
ATOM      4  H12 CCR d   1      -1.213  19.429  19.181  0.00  0.00     0.163 HD
ENDROOT
BRANCH   1   5
ATOM      5  C41 CCR d   1       0.143  17.870  19.619  0.00  0.00     0.093 C 
ATOM      6  H11 CCR d   1       1.015  17.420  19.122  0.00  0.00     0.088 H 
BRANCH   5   7
ATOM      7  C44 CCR d   1      -0.883  16.771  20.021  0.00  0.00    -0.014 C 
ATOM      8  H9  CCR d   1      -0.465  16.145  20.823  0.00  0.00     0.043 H 
ATOM      9  H10 CCR d   1      -1.815  17.239  20.370  0.00  0.00     0.043 H 
BRANCH   7  10
ATOM     10  C51 CCR d   1      -1.161  15.921  18.794  0.00  0.00    -0.056 A 
ATOM     11  C56 CCR d   1      -0.360  14.822  18.481  0.00  0.00    -0.076 A 
ATOM     12  C55 CCR d   1      -0.629  14.062  17.335  0.00  0.00    -0.069 A 
ATOM     13  H4  CCR d   1       0.471  14.556  19.125  0.00  0.00     0.084 H 
ATOM     14  C54 CCR d   1      -1.702  14.366  16.465  0.00  0.00     0.007 A 
ATOM     15  H3  CCR d   1       0.006  13.213  17.108  0.00  0.00     0.085 H 
ATOM     16  C53 CCR d   1      -2.496  15.486  16.813  0.00  0.00    -0.069 A 
ATOM     17  C52 CCR d   1      -2.251  16.239  17.957  0.00  0.00    -0.076 A 
ATOM     18  H2  CCR d   1      -3.321  15.765  16.168  0.00  0.00     0.085 H 
ATOM     19  H1  CCR d   1      -2.899  17.072  18.206  0.00  0.00     0.084 H 
BRANCH  14  20
ATOM     20  C57 CCR d   1      -1.985  13.546  15.229  0.00  0.00     0.102 C 
ATOM     21  N59 CCR d   1      -1.602  12.283  15.133  0.00  0.00    -0.385 N 
ATOM     22  H7  CCR d   1      -1.111  11.832  15.919  0.00  0.00     0.157 HD
ATOM     23  H8  CCR d   1      -1.794  11.751  14.273  0.00  0.00     0.157 HD
BRANCH  20  24
ATOM     24  N58 CCR d   1      -2.606  14.061  14.191  0.00  0.00    -0.385 N 
ATOM     25  H5  CCR d   1      -2.787  13.481  13.359  0.00  0.00     0.157 HD
ATOM     26  H6  CCR d   1      -2.911  15.045  14.209  0.00  0.00     0.157 HD
ENDBRANCH  20  24
ENDBRANCH  14  20
ENDBRANCH   7  10
ENDBRANCH   5   7
BRANCH   5  27
ATOM     27  C42 CCR d   1       0.548  18.658  20.848  0.00  0.00     0.242 C 
ATOM     28  N60 CCR d   1       1.763  19.257  20.906  0.00  0.00    -0.350 N 
ATOM     29  C65 CCR d   1       2.624  19.328  19.719  0.00  0.00    -0.002 C 
ATOM     30  C61 CCR d   1       2.102  20.082  22.065  0.00  0.00    -0.002 C 
ATOM     31  C64 CCR d   1       2.684  20.801  19.271  0.00  0.00    -0.050 C 
ATOM     32  H21 CCR d   1       2.203  18.708  18.913  0.00  0.00     0.064 H 
ATOM     33  H22 CCR d   1       3.634  18.971  19.967  0.00  0.00     0.064 H 
ATOM     34  C63 CCR d   1       3.163  21.685  20.446  0.00  0.00    -0.062 C 
ATOM     35  H19 CCR d   1       3.386  20.899  18.430  0.00  0.00     0.035 H 
ATOM     36  H20 CCR d   1       1.683  21.127  18.953  0.00  0.00     0.035 H 
ATOM     37  C62 CCR d   1       2.160  21.544  21.628  0.00  0.00    -0.050 C 
ATOM     38  H17 CCR d   1       4.162  21.359  20.769  0.00  0.00     0.033 H 
ATOM     39  H18 CCR d   1       3.207  22.736  20.123  0.00  0.00     0.033 H 
ATOM     40  H15 CCR d   1       2.494  22.167  22.471  0.00  0.00     0.035 H 
ATOM     41  H16 CCR d   1       1.161  21.871  21.304  0.00  0.00     0.035 H 
ATOM     42  H13 CCR d   1       3.081  19.776  22.463  0.00  0.00     0.064 H 
ATOM     43  H14 CCR d   1       1.335  19.959  22.843  0.00  0.00     0.064 H 
ATOM     44  O43 CCR d   1      -0.261  18.733  21.761  0.00  0.00    -0.271 OA
ENDBRANCH   5  27
ENDBRANCH   1   5
BRANCH   2  45
ATOM     45  C30 CCR d   1      -1.076  20.072  16.769  0.00  0.00     0.106 C 
ATOM     46  H37 CCR d   1      -1.067  20.983  17.386  0.00  0.00     0.089 H 
BRANCH  45  47
ATOM     47  C31 CCR d   1      -2.513  19.545  16.644  0.00  0.00     0.043 C 
ATOM     48  H38 CCR d   1      -2.478  18.458  16.482  0.00  0.00     0.053 H 
ATOM     49  H39 CCR d   1      -2.994  20.029  15.781  0.00  0.00     0.053 H 
BRANCH  47  50
ATOM     50  C32 CCR d   1      -3.332  19.825  17.875  0.00  0.00     0.175 C 
ATOM     51  O34 CCR d   1      -2.824  20.428  18.860  0.00  0.00    -0.648 OA
ATOM     52  O33 CCR d   1      -4.513  19.463  17.829  0.00  0.00    -0.648 OA
ENDBRANCH  47  50
ENDBRANCH  45  47
BRANCH  45  53
ATOM     53  N23 CCR d   1      -0.638  20.409  15.442  0.00  0.00    -0.301 N 
ATOM     54  H23 CCR d   1      -0.386  19.681  14.805  0.00  0.00     0.173 HD
BRANCH  53  55
ATOM     55  S20 CCR d   1      -0.548  21.971  14.963  0.00  0.00     0.260 S 
ATOM     56  O22 CCR d   1      -0.433  21.964  13.530  0.00  0.00    -0.200 OA
ATOM     57  O21 CCR d   1      -1.786  22.548  15.432  0.00  0.00    -0.200 OA
BRANCH  55  58
ATOM     58  C11 CCR d   1       0.923  22.586  15.652  0.00  0.00     0.092 A 
ATOM     59  C16 CCR d   1       2.183  22.007  15.351  0.00  0.00    -0.035 A 
ATOM     60  C15 CCR d   1       3.344  22.522  15.959  0.00  0.00    -0.043 A 
ATOM     61  C14 CCR d   1       3.311  23.610  16.858  0.00  0.00     0.075 A 
ATOM     62  H24 CCR d   1       4.300  22.066  15.728  0.00  0.00     0.088 H 
ATOM     63  C13 CCR d   1       2.066  24.187  17.171  0.00  0.00    -0.021 A 
ATOM     64  C12 CCR d   1       0.879  23.680  16.580  0.00  0.00    -0.029 A 
BRANCH  59  65
ATOM     65  C10 CCR d   1       2.500  20.829  14.396  0.00  0.00    -0.050 C 
ATOM     66  H31 CCR d   1       1.566  20.460  13.946  0.00  0.00     0.033 H 
ATOM     67  H32 CCR d   1       2.980  20.017  14.962  0.00  0.00     0.033 H 
ATOM     68  H33 CCR d   1       3.179  21.173  13.602  0.00  0.00     0.033 H 
ENDBRANCH  59  65
BRANCH  61  69
ATOM     69  O11 CCR d   1       4.494  24.122  17.463  0.00  0.00    -0.355 OA
BRANCH  69  70
ATOM     70  C19 CCR d   1       5.775  23.485  17.228  0.00  0.00     0.010 C 
ATOM     71  H34 CCR d   1       6.559  24.025  17.779  0.00  0.00     0.066 H 
ATOM     72  H35 CCR d   1       6.003  23.505  16.152  0.00  0.00     0.066 H 
ATOM     73  H36 CCR d   1       5.735  22.442  17.575  0.00  0.00     0.066 H 
ENDBRANCH  69  70
ENDBRANCH  61  69
BRANCH  63  74
ATOM     74  C18 CCR d   1       2.072  25.371  18.171  0.00  0.00    -0.048 C 
ATOM     75  H28 CCR d   1       1.042  25.725  18.326  0.00  0.00     0.033 H 
ATOM     76  H29 CCR d   1       2.684  26.190  17.766  0.00  0.00     0.033 H 
ATOM     77  H30 CCR d   1       2.494  25.038  19.131  0.00  0.00     0.033 H 
ENDBRANCH  63  74
BRANCH  64  78
ATOM     78  C17 CCR d   1      -0.437  24.385  16.988  0.00  0.00    -0.049 C 
ATOM     79  H25 CCR d   1      -1.283  23.909  16.471  0.00  0.00     0.033 H 
ATOM     80  H26 CCR d   1      -0.386  25.447  16.707  0.00  0.00     0.033 H 
ATOM     81  H27 CCR d   1      -0.577  24.299  18.076  0.00  0.00     0.033 H 
ENDBRANCH  64  78
ENDBRANCH  55  58
ENDBRANCH  53  55
ENDBRANCH  45  53
ENDBRANCH   2  45
TORSDOF 17
