REMARK  11 active torsions:
REMARK  status: ('A' for Active; 'I' for Inactive)
REMARK       I    between atoms: C1_1  and  N3_3 
REMARK    1  A    between atoms: C1_1  and  C12_12 
REMARK    2  A    between atoms: N3_3  and  C4_4 
REMARK    3  A    between atoms: C4_4  and  C5_5 
REMARK    4  A    between atoms: C5_5  and  C6_6 
REMARK    5  A    between atoms: C6_6  and  N7_7 
REMARK       I    between atoms: N7_7  and  C8_8 
REMARK       I    between atoms: C8_8  and  N9_9 
REMARK       I    between atoms: N11_11  and  C32_18 
REMARK    6  A    between atoms: C32_18  and  C33_19 
REMARK    7  A    between atoms: C33_19  and  C34_20 
REMARK    8  A    between atoms: C33_19  and  N21_27 
REMARK    9  A    between atoms: C34_20  and  C52_22 
REMARK   10  A    between atoms: N21_27  and  C22_28 
REMARK   11  A    between atoms: C22_28  and  C23_29 
ROOT
ATOM      1  N11 IGN d   1      42.487  24.914  52.077  0.00  0.00    -0.238 NA
ATOM      2  C12 IGN d   1      42.222  23.878  51.050  0.00  0.00     0.078 C 
ATOM      3  C13 IGN d   1      42.017  24.503  49.671  0.00  0.00    -0.042 C 
ATOM      4  C14 IGN d   1      40.831  25.508  49.685  0.00  0.00    -0.062 C 
ATOM      5  C15 IGN d   1      41.182  26.625  50.708  0.00  0.00    -0.054 C 
ATOM      6  C16 IGN d   1      41.445  26.016  52.112  0.00  0.00    -0.013 C 
ATOM      7  O31 IGN d   1      43.075  23.183  53.490  0.00  0.00    -0.277 OA
ATOM      8  C32 IGN d   1      42.675  24.361  53.324  0.00  0.00     0.231 C 
ATOM      9  H13 IGN d   1      41.337  23.291  51.338  0.00  0.00     0.079 H 
ATOM     10  H14 IGN d   1      41.805  23.706  48.943  0.00  0.00     0.036 H 
ATOM     11  H15 IGN d   1      42.934  25.034  49.377  0.00  0.00     0.036 H 
ATOM     12  H16 IGN d   1      39.907  24.995  49.990  0.00  0.00     0.033 H 
ATOM     13  H17 IGN d   1      40.695  25.944  48.684  0.00  0.00     0.033 H 
ATOM     14  H18 IGN d   1      40.343  27.333  50.772  0.00  0.00     0.034 H 
ATOM     15  H19 IGN d   1      42.084  27.155  50.369  0.00  0.00     0.034 H 
ATOM     16  H20 IGN d   1      41.796  26.814  52.783  0.00  0.00     0.056 H 
ATOM     17  H21 IGN d   1      40.503  25.600  52.499  0.00  0.00     0.056 H 
ENDROOT
BRANCH   2  18
ATOM     18  C1  IGN d   1      43.440  22.982  50.915  0.00  0.00     0.235 C 
ATOM     19  O2  IGN d   1      44.539  23.454  51.163  0.00  0.00    -0.272 OA
ATOM     20  N3  IGN d   1      43.275  21.688  50.511  0.00  0.00    -0.360 N 
ATOM     21  H1  IGN d   1      42.361  21.330  50.319  0.00  0.00     0.162 HD
BRANCH  20  22
ATOM     22  C4  IGN d   1      44.440  20.841  50.364  0.00  0.00    -0.003 C 
ATOM     23  H2  IGN d   1      45.329  21.376  50.729  0.00  0.00     0.064 H 
ATOM     24  H3  IGN d   1      44.575  20.587  49.302  0.00  0.00     0.064 H 
BRANCH  22  25
ATOM     25  C5  IGN d   1      44.249  19.546  51.181  0.00  0.00    -0.035 C 
ATOM     26  H4  IGN d   1      43.814  18.769  50.536  0.00  0.00     0.037 H 
ATOM     27  H5  IGN d   1      43.571  19.744  52.025  0.00  0.00     0.037 H 
BRANCH  25  28
ATOM     28  C6  IGN d   1      45.605  19.061  51.720  0.00  0.00     0.011 C 
ATOM     29  H6  IGN d   1      46.117  19.897  52.218  0.00  0.00     0.064 H 
ATOM     30  H7  IGN d   1      46.220  18.701  50.882  0.00  0.00     0.064 H 
BRANCH  28  31
ATOM     31  N7  IGN d   1      45.415  17.981  52.672  0.00  0.00    -0.227 N 
ATOM     32  C8  IGN d   1      45.871  18.063  53.889  0.00  0.00     0.665 C 
ATOM     33  N9  IGN d   1      46.322  19.180  54.413  0.00  0.00    -0.235 N 
ATOM     34  N10 IGN d   1      45.899  16.986  54.613  0.00  0.00    -0.235 N 
ATOM     35  H9  IGN d   1      46.672  19.190  55.382  0.00  0.00     0.174 HD
ATOM     36  H10 IGN d   1      46.326  20.046  53.855  0.00  0.00     0.174 HD
ATOM     37  H11 IGN d   1      45.552  16.097  54.227  0.00  0.00     0.174 HD
ATOM     38  H12 IGN d   1      46.269  17.021  55.574  0.00  0.00     0.174 HD
ATOM     39  H8  IGN d   1      44.909  17.133  52.379  0.00  0.00     0.177 HD
ENDBRANCH  28  31
ENDBRANCH  25  28
ENDBRANCH  22  25
ENDBRANCH  20  22
ENDBRANCH   2  18
BRANCH   8  40
ATOM     40  C33 IGN d   1      42.387  25.193  54.534  0.00  0.00     0.174 C 
ATOM     41  H22 IGN d   1      42.067  26.196  54.215  0.00  0.00     0.098 H 
BRANCH  40  42
ATOM     42  C34 IGN d   1      41.253  24.491  55.375  0.00  0.00    -0.027 C 
ATOM     43  H23 IGN d   1      41.716  24.048  56.269  0.00  0.00     0.037 H 
ATOM     44  H24 IGN d   1      40.813  23.695  54.757  0.00  0.00     0.037 H 
BRANCH  42  45
ATOM     45  C52 IGN d   1      40.112  25.425  55.838  0.00  0.00    -0.052 C 
ATOM     46  C51 IGN d   1      39.048  24.518  56.538  0.00  0.00    -0.062 C 
ATOM     47  C56 IGN d   1      37.715  25.228  56.822  0.00  0.00    -0.065 C 
ATOM     48  H25 IGN d   1      39.465  24.169  57.494  0.00  0.00     0.033 H 
ATOM     49  H26 IGN d   1      38.848  23.653  55.888  0.00  0.00     0.033 H 
ATOM     50  C55 IGN d   1      37.167  25.763  55.509  0.00  0.00    -0.065 C 
ATOM     51  H34 IGN d   1      37.879  26.060  57.523  0.00  0.00     0.033 H 
ATOM     52  H35 IGN d   1      37.001  24.515  57.260  0.00  0.00     0.033 H 
ATOM     53  C54 IGN d   1      38.108  26.859  55.043  0.00  0.00    -0.065 C 
ATOM     54  H32 IGN d   1      37.127  24.957  54.761  0.00  0.00     0.033 H 
ATOM     55  H33 IGN d   1      36.157  26.172  55.661  0.00  0.00     0.033 H 
ATOM     56  C53 IGN d   1      39.476  26.239  54.662  0.00  0.00    -0.062 C 
ATOM     57  H30 IGN d   1      37.677  27.363  54.166  0.00  0.00     0.033 H 
ATOM     58  H31 IGN d   1      38.249  27.590  55.853  0.00  0.00     0.033 H 
ATOM     59  H28 IGN d   1      39.332  25.566  53.804  0.00  0.00     0.033 H 
ATOM     60  H29 IGN d   1      40.165  27.049  54.380  0.00  0.00     0.033 H 
ATOM     61  H27 IGN d   1      40.514  26.142  56.569  0.00  0.00     0.040 H 
ENDBRANCH  42  45
ENDBRANCH  40  42
BRANCH  40  62
ATOM     62  N21 IGN d   1      43.521  25.300  55.418  0.00  0.00    -0.053 N 
ATOM     63  H36 IGN d   1      43.319  24.731  56.225  0.00  0.00     0.278 HD
ATOM     64  H37 IGN d   1      43.587  26.267  55.696  0.00  0.00     0.278 HD
BRANCH  62  65
ATOM     65  C22 IGN d   1      44.847  24.903  54.938  0.00  0.00     0.161 C 
ATOM     66  H38 IGN d   1      45.256  25.686  54.283  0.00  0.00     0.092 H 
ATOM     67  H39 IGN d   1      44.774  23.959  54.379  0.00  0.00     0.092 H 
BRANCH  65  68
ATOM     68  C23 IGN d   1      45.734  24.721  56.122  0.00  0.00     0.199 C 
ATOM     69  O24 IGN d   1      45.239  24.727  57.286  0.00  0.00    -0.647 OA
ATOM     70  O25 IGN d   1      47.046  24.580  55.949  0.00  0.00    -0.647 OA
ENDBRANCH  65  68
ENDBRANCH  62  65
ENDBRANCH  40  62
ENDBRANCH   8  40
TORSDOF 11
