REMARK  23 active torsions:
REMARK  status: ('A' for Active; 'I' for Inactive)
REMARK    1  A    between atoms: N4B_18  and  C1A_1 
REMARK    2  A    between atoms: C2A_2  and  O2A_8 
REMARK    3  A    between atoms: C3A_3  and  O3A_9 
REMARK    4  A    between atoms: C4A_4  and  O4A_10 
REMARK    5  A    between atoms: C5A_5  and  C6A_6 
REMARK    6  A    between atoms: C6A_6  and  O6A_11 
REMARK    7  A    between atoms: O4C_30  and  C1B_12 
REMARK    8  A    between atoms: C2B_13  and  O2B_19 
REMARK    9  A    between atoms: C3B_14  and  O3B_20 
REMARK   10  A    between atoms: C4B_15  and  N4B_18 
REMARK   11  A    between atoms: C5B_16  and  C6B_17 
REMARK   12  A    between atoms: O4D_42  and  C1C_22 
REMARK   13  A    between atoms: C2C_23  and  O2C_28 
REMARK   14  A    between atoms: C3C_24  and  O3C_29 
REMARK   15  A    between atoms: C4C_25  and  O4C_30 
REMARK   16  A    between atoms: C5C_26  and  C6C_27 
REMARK   17  A    between atoms: C6C_27  and  O6C_32 
REMARK   18  A    between atoms: C1D_33  and  O1D_39 
REMARK   19  A    between atoms: C2D_34  and  O2D_40 
REMARK   20  A    between atoms: C3D_35  and  O3D_41 
REMARK   21  A    between atoms: O4D_42  and  C4D_36 
REMARK   22  A    between atoms: C5D_37  and  C6D_38 
REMARK   23  A    between atoms: C6D_38  and  O6D_44 
ROOT
ATOM      1  C1B ACR d   1      -0.792  53.210  92.252  0.00  0.00     0.159 C 
ATOM      2  C2B ACR d   1      -1.057  53.811  90.837  0.00  0.00     0.110 C 
ATOM      3  C3B ACR d   1      -0.671  55.302  90.758  0.00  0.00     0.094 C 
ATOM      4  C4B ACR d   1      -1.469  56.085  91.837  0.00  0.00     0.154 C 
ATOM      5  C5B ACR d   1      -1.059  55.495  93.260  0.00  0.00     0.068 C 
ATOM      6  O5B ACR d   1      -1.388  54.024  93.299  0.00  0.00    -0.351 OA
ATOM      7  H12 ACR d   1      -1.226  52.199  92.250  0.00  0.00     0.133 H 
ATOM      8  H13 ACR d   1      -2.136  53.745  90.634  0.00  0.00     0.094 H 
ATOM      9  H14 ACR d   1       0.406  55.420  90.950  0.00  0.00     0.090 H 
ATOM     10  H15 ACR d   1      -2.548  55.945  91.677  0.00  0.00     0.092 H 
ATOM     11  H16 ACR d   1       0.025  55.629  93.386  0.00  0.00     0.086 H 
ENDROOT
BRANCH   1  12
ATOM     12  O4C ACR d   1       0.484  53.144  92.735  0.00  0.00    -0.348 OA
BRANCH  12  13
ATOM     13  C4C ACR d   1       1.103  51.991  93.318  0.00  0.00     0.096 C 
ATOM     14  C3C ACR d   1       2.491  51.667  92.672  0.00  0.00     0.092 C 
ATOM     15  C2C ACR d   1       3.079  50.445  93.421  0.00  0.00     0.110 C 
ATOM     16  H26 ACR d   1       3.158  52.538  92.755  0.00  0.00     0.091 H 
ATOM     17  C1C ACR d   1       3.250  50.782  94.936  0.00  0.00     0.159 C 
ATOM     18  H25 ACR d   1       2.377  49.605  93.316  0.00  0.00     0.094 H 
ATOM     19  O5C ACR d   1       2.016  51.248  95.500  0.00  0.00    -0.348 OA
ATOM     20  H24 ACR d   1       3.555  49.867  95.464  0.00  0.00     0.133 H 
ATOM     21  C5C ACR d   1       1.389  52.381  94.809  0.00  0.00     0.089 C 
ATOM     22  H28 ACR d   1       2.059  53.253  94.826  0.00  0.00     0.090 H 
ATOM     23  H27 ACR d   1       0.436  51.119  93.246  0.00  0.00     0.091 H 
BRANCH  14  24
ATOM     24  O3C ACR d   1       2.350  51.287  91.314  0.00  0.00    -0.390 OA
ATOM     25  H32 ACR d   1       3.206  51.097  90.949  0.00  0.00     0.210 HD
ENDBRANCH  14  24
BRANCH  15  26
ATOM     26  O2C ACR d   1       4.341  50.047  92.906  0.00  0.00    -0.388 OA
ATOM     27  H31 ACR d   1       4.248  49.812  91.990  0.00  0.00     0.210 HD
ENDBRANCH  15  26
BRANCH  17  28
ATOM     28  O4D ACR d   1       4.233  51.750  95.113  0.00  0.00    -0.348 OA
BRANCH  28  29
ATOM     29  C4D ACR d   1       4.966  51.724  96.364  0.00  0.00     0.096 C 
ATOM     30  C3D ACR d   1       6.318  51.019  96.154  0.00  0.00     0.092 C 
ATOM     31  C2D ACR d   1       7.076  50.996  97.484  0.00  0.00     0.110 C 
ATOM     32  H36 ACR d   1       6.903  51.571  95.403  0.00  0.00     0.091 H 
ATOM     33  C1D ACR d   1       7.302  52.455  98.004  0.00  0.00     0.156 C 
ATOM     34  H35 ACR d   1       6.478  50.440  98.221  0.00  0.00     0.094 H 
ATOM     35  O5D ACR d   1       6.000  53.174  98.139  0.00  0.00    -0.349 OA
ATOM     36  H34 ACR d   1       7.785  52.406  98.991  0.00  0.00     0.133 H 
ATOM     37  C5D ACR d   1       5.221  53.214  96.869  0.00  0.00     0.089 C 
ATOM     38  H38 ACR d   1       5.805  53.743  96.101  0.00  0.00     0.090 H 
ATOM     39  H37 ACR d   1       4.381  51.177  97.118  0.00  0.00     0.091 H 
BRANCH  30  40
ATOM     40  O3D ACR d   1       6.123  49.658  95.703  0.00  0.00    -0.390 OA
ATOM     41  H43 ACR d   1       5.649  49.663  94.880  0.00  0.00     0.210 HD
ENDBRANCH  30  40
BRANCH  31  42
ATOM     42  O2D ACR d   1       8.354  50.351  97.338  0.00  0.00    -0.388 OA
ATOM     43  H42 ACR d   1       8.874  50.823  96.698  0.00  0.00     0.210 HD
ENDBRANCH  31  42
BRANCH  33  44
ATOM     44  O1D ACR d   1       8.132  53.160  97.129  0.00  0.00    -0.369 OA
ATOM     45  H41 ACR d   1       8.285  54.032  97.473  0.00  0.00     0.212 HD
ENDBRANCH  33  44
BRANCH  37  46
ATOM     46  C6D ACR d   1       3.926  54.002  97.123  0.00  0.00     0.043 C 
ATOM     47  H39 ACR d   1       3.307  53.967  96.215  0.00  0.00     0.078 H 
ATOM     48  H40 ACR d   1       4.186  55.047  97.349  0.00  0.00     0.078 H 
BRANCH  46  49
ATOM     49  O6D ACR d   1       3.170  53.470  98.216  0.00  0.00    -0.398 OA
ATOM     50  H44 ACR d   1       3.694  53.502  99.008  0.00  0.00     0.209 HD
ENDBRANCH  46  49
ENDBRANCH  37  46
ENDBRANCH  28  29
ENDBRANCH  17  28
BRANCH  21  51
ATOM     51  C6C ACR d   1       0.097  52.707  95.595  0.00  0.00     0.043 C 
ATOM     52  H29 ACR d   1      -0.552  51.819  95.598  0.00  0.00     0.078 H 
ATOM     53  H30 ACR d   1      -0.423  53.539  95.097  0.00  0.00     0.078 H 
BRANCH  51  54
ATOM     54  O6C ACR d   1       0.375  53.074  96.926  0.00  0.00    -0.398 OA
ATOM     55  H33 ACR d   1       0.820  52.358  97.365  0.00  0.00     0.209 HD
ENDBRANCH  51  54
ENDBRANCH  21  51
ENDBRANCH  12  13
ENDBRANCH   1  12
BRANCH   2  56
ATOM     56  O2B ACR d   1      -0.383  53.007  89.879  0.00  0.00    -0.388 OA
ATOM     57  H22 ACR d   1       0.555  53.069  90.019  0.00  0.00     0.210 HD
ENDBRANCH   2  56
BRANCH   3  58
ATOM     58  O3B ACR d   1      -0.970  55.769  89.439  0.00  0.00    -0.391 OA
ATOM     59  H23 ACR d   1      -0.744  56.689  89.371  0.00  0.00     0.210 HD
ENDBRANCH   3  58
BRANCH   5  60
ATOM     60  C6B ACR d   1      -1.762  56.158  94.431  0.00  0.00    -0.050 C 
ATOM     61  H17 ACR d   1      -1.425  55.695  95.371  0.00  0.00     0.031 H 
ATOM     62  H18 ACR d   1      -2.849  56.028  94.327  0.00  0.00     0.031 H 
ATOM     63  H19 ACR d   1      -1.521  57.231  94.444  0.00  0.00     0.031 H 
ENDBRANCH   5  60
BRANCH   4  64
ATOM     64  N4B ACR d   1      -1.146  57.538  91.747  0.00  0.00    -0.056 N 
ATOM     65  H20 ACR d   1      -0.729  57.815  92.622  0.00  0.00     0.278 HD
ATOM     66  H21 ACR d   1      -0.476  57.658  91.003  0.00  0.00     0.278 HD
BRANCH  64  67
ATOM     67  C1A ACR d   1      -2.302  58.464  91.477  0.00  0.00     0.146 C 
ATOM     68  C2A ACR d   1      -1.866  59.576  90.378  0.00  0.00     0.093 C 
ATOM     69  C3A ACR d   1      -0.876  60.595  91.057  0.00  0.00     0.091 C 
ATOM     70  H2  ACR d   1      -2.753  60.118  90.018  0.00  0.00     0.090 H 
ATOM     71  C4A ACR d   1      -1.614  61.348  92.220  0.00  0.00     0.086 C 
ATOM     72  H3  ACR d   1      -0.002  60.056  91.451  0.00  0.00     0.091 H 
ATOM     73  C5A ACR d   1      -2.405  60.424  93.178  0.00  0.00    -0.027 C 
ATOM     74  H4  ACR d   1      -2.367  62.006  91.762  0.00  0.00     0.094 H 
ATOM     75  C7A ACR d   1      -2.713  59.129  92.820  0.00  0.00    -0.064 C 
ATOM     76  H7  ACR d   1      -3.284  58.530  93.528  0.00  0.00     0.080 H 
ATOM     77  H1  ACR d   1      -3.152  57.887  91.083  0.00  0.00     0.095 H 
BRANCH  68  78
ATOM     78  O2A ACR d   1      -1.266  58.904  89.308  0.00  0.00    -0.390 OA
ATOM     79  H8  ACR d   1      -0.510  58.422  89.622  0.00  0.00     0.210 HD
ENDBRANCH  68  78
BRANCH  69  80
ATOM     80  O3A ACR d   1      -0.463  61.562  90.113  0.00  0.00    -0.390 OA
ATOM     81  H9  ACR d   1       0.124  62.181  90.531  0.00  0.00     0.210 HD
ENDBRANCH  69  80
BRANCH  71  82
ATOM     82  O4A ACR d   1      -0.609  62.208  92.825  0.00  0.00    -0.388 OA
ATOM     83  H10 ACR d   1      -0.189  62.727  92.149  0.00  0.00     0.210 HD
ENDBRANCH  71  82
BRANCH  73  84
ATOM     84  C6A ACR d   1      -2.870  60.979  94.523  0.00  0.00     0.039 C 
ATOM     85  H5  ACR d   1      -2.039  61.501  95.019  0.00  0.00     0.081 H 
ATOM     86  H6  ACR d   1      -3.222  60.158  95.165  0.00  0.00     0.081 H 
BRANCH  84  87
ATOM     87  O6A ACR d   1      -3.946  61.900  94.273  0.00  0.00    -0.397 OA
ATOM     88  H11 ACR d   1      -3.636  62.604  93.716  0.00  0.00     0.209 HD
ENDBRANCH  84  87
ENDBRANCH  73  84
ENDBRANCH  64  67
ENDBRANCH   4  64
TORSDOF 23
