REMARK  11 active torsions:
REMARK  status: ('A' for Active; 'I' for Inactive)
REMARK    1  A    between atoms: C12_12  and  C1_1 
REMARK       I    between atoms: C1_1  and  N3_3 
REMARK    2  A    between atoms: N3_3  and  C4_4 
REMARK    3  A    between atoms: C4_4  and  C5_5 
REMARK    4  A    between atoms: C5_5  and  C6_6 
REMARK    5  A    between atoms: C6_6  and  N7_7 
REMARK       I    between atoms: N7_7  and  C8_8 
REMARK       I    between atoms: C8_8  and  N9_9 
REMARK       I    between atoms: N11_11  and  C32_18 
REMARK    6  A    between atoms: C32_18  and  C33_19 
REMARK    7  A    between atoms: C33_19  and  N21_27 
REMARK    8  A    between atoms: C33_19  and  C34_20 
REMARK    9  A    between atoms: C34_20  and  C52_22 
REMARK   10  A    between atoms: N21_27  and  C22_28 
REMARK   11  A    between atoms: C22_28  and  C23_29 
ROOT
ATOM      1  N11 IGN d   1      17.950 -13.254  21.063  0.00  0.00    -0.337 N 
ATOM      2  C12 IGN d   1      17.679 -11.853  20.487  0.00  0.00     0.091 C 
ATOM      3  C13 IGN d   1      18.423 -11.609  19.140  0.00  0.00    -0.038 C 
ATOM      4  C14 IGN d   1      19.899 -12.049  19.181  0.00  0.00    -0.061 C 
ATOM      5  C15 IGN d   1      20.001 -13.580  19.421  0.00  0.00    -0.050 C 
ATOM      6  C16 IGN d   1      18.887 -14.193  20.323  0.00  0.00    -0.001 C 
ATOM      7  O31 IGN d   1      16.574 -12.900  22.860  0.00  0.00    -0.271 OA
ATOM      8  C32 IGN d   1      17.345 -13.661  22.251  0.00  0.00     0.251 C 
ATOM      9  H13 IGN d   1      18.024 -11.113  21.224  0.00  0.00     0.087 H 
ATOM     10  H14 IGN d   1      18.384 -10.535  18.907  0.00  0.00     0.036 H 
ATOM     11  H15 IGN d   1      17.910 -12.175  18.348  0.00  0.00     0.036 H 
ATOM     12  H16 IGN d   1      20.413 -11.519  19.997  0.00  0.00     0.033 H 
ATOM     13  H17 IGN d   1      20.378 -11.800  18.223  0.00  0.00     0.033 H 
ATOM     14  H18 IGN d   1      20.972 -13.785  19.895  0.00  0.00     0.035 H 
ATOM     15  H19 IGN d   1      19.958 -14.080  18.442  0.00  0.00     0.035 H 
ATOM     16  H20 IGN d   1      19.388 -14.814  21.080  0.00  0.00     0.064 H 
ATOM     17  H21 IGN d   1      18.264 -14.832  19.680  0.00  0.00     0.064 H 
ENDROOT
BRANCH   2  18
ATOM     18  C1  IGN d   1      16.156 -11.622  20.207  0.00  0.00     0.240 C 
ATOM     19  N3  IGN d   1      15.634 -10.397  20.399  0.00  0.00    -0.359 N 
ATOM     20  H1  IGN d   1      16.256  -9.677  20.707  0.00  0.00     0.162 HD
ATOM     21  O2  IGN d   1      15.451 -12.564  19.827  0.00  0.00    -0.271 OA
BRANCH  19  22
ATOM     22  C4  IGN d   1      14.222 -10.026  20.193  0.00  0.00    -0.003 C 
ATOM     23  H2  IGN d   1      13.713 -10.846  19.665  0.00  0.00     0.064 H 
ATOM     24  H3  IGN d   1      14.181  -9.113  19.580  0.00  0.00     0.064 H 
BRANCH  22  25
ATOM     25  C5  IGN d   1      13.495  -9.765  21.520  0.00  0.00    -0.035 C 
ATOM     26  H4  IGN d   1      13.609  -8.704  21.787  0.00  0.00     0.037 H 
ATOM     27  H5  IGN d   1      13.947 -10.391  22.304  0.00  0.00     0.037 H 
BRANCH  25  28
ATOM     28  C6  IGN d   1      12.009 -10.093  21.421  0.00  0.00     0.011 C 
ATOM     29  H6  IGN d   1      11.792 -10.457  20.406  0.00  0.00     0.064 H 
ATOM     30  H7  IGN d   1      11.429  -9.178  21.614  0.00  0.00     0.064 H 
BRANCH  28  31
ATOM     31  N7  IGN d   1      11.609 -11.122  22.390  0.00  0.00    -0.227 N 
ATOM     32  C8  IGN d   1      11.003 -10.883  23.671  0.00  0.00     0.665 C 
ATOM     33  N10 IGN d   1      10.758  -9.637  24.078  0.00  0.00    -0.235 N 
ATOM     34  N9  IGN d   1      10.687 -11.916  24.442  0.00  0.00    -0.235 N 
ATOM     35  H11 IGN d   1      11.006  -8.840  23.474  0.00  0.00     0.174 HD
ATOM     36  H12 IGN d   1      10.321  -9.472  24.996  0.00  0.00     0.174 HD
ATOM     37  H9  IGN d   1      10.252 -11.758  25.362  0.00  0.00     0.174 HD
ATOM     38  H10 IGN d   1      10.877 -12.876  24.120  0.00  0.00     0.174 HD
ATOM     39  H8  IGN d   1      11.778 -12.104  22.128  0.00  0.00     0.177 HD
ENDBRANCH  28  31
ENDBRANCH  25  28
ENDBRANCH  22  25
ENDBRANCH  19  22
ENDBRANCH   2  18
BRANCH   8  40
ATOM     40  C33 IGN d   1      17.552 -15.070  22.930  0.00  0.00     0.179 C 
ATOM     41  H22 IGN d   1      18.349 -15.604  22.392  0.00  0.00     0.099 H 
BRANCH  40  42
ATOM     42  N21 IGN d   1      16.273 -15.830  22.838  0.00  0.00    -0.053 N 
ATOM     43  H36 IGN d   1      15.579 -15.255  23.288  0.00  0.00     0.278 HD
ATOM     44  H37 IGN d   1      16.414 -16.670  23.377  0.00  0.00     0.278 HD
BRANCH  42  45
ATOM     45  C22 IGN d   1      15.660 -16.272  21.546  0.00  0.00     0.161 C 
ATOM     46  H38 IGN d   1      16.272 -17.077  21.113  0.00  0.00     0.092 H 
ATOM     47  H39 IGN d   1      15.630 -15.420  20.851  0.00  0.00     0.092 H 
BRANCH  45  48
ATOM     48  C23 IGN d   1      14.243 -16.786  21.769  0.00  0.00     0.199 C 
ATOM     49  O25 IGN d   1      13.519 -17.047  20.780  0.00  0.00    -0.647 OA
ATOM     50  O24 IGN d   1      13.804 -16.948  22.932  0.00  0.00    -0.647 OA
ENDBRANCH  45  48
ENDBRANCH  42  45
ENDBRANCH  40  42
BRANCH  40  51
ATOM     51  C34 IGN d   1      17.926 -15.000  24.467  0.00  0.00    -0.026 C 
ATOM     52  H23 IGN d   1      17.639 -15.958  24.926  0.00  0.00     0.037 H 
ATOM     53  H24 IGN d   1      17.339 -14.187  24.918  0.00  0.00     0.037 H 
BRANCH  51  54
ATOM     54  C52 IGN d   1      19.452 -14.740  24.805  0.00  0.00    -0.052 C 
ATOM     55  C51 IGN d   1      20.437 -14.821  23.554  0.00  0.00    -0.062 C 
ATOM     56  C56 IGN d   1      21.928 -14.723  24.013  0.00  0.00    -0.065 C 
ATOM     57  H25 IGN d   1      20.216 -13.991  22.867  0.00  0.00     0.033 H 
ATOM     58  H26 IGN d   1      20.282 -15.778  23.035  0.00  0.00     0.033 H 
ATOM     59  C55 IGN d   1      22.160 -13.370  24.753  0.00  0.00    -0.065 C 
ATOM     60  H34 IGN d   1      22.157 -15.556  24.694  0.00  0.00     0.033 H 
ATOM     61  H35 IGN d   1      22.586 -14.777  23.133  0.00  0.00     0.033 H 
ATOM     62  C54 IGN d   1      21.212 -13.265  25.991  0.00  0.00    -0.065 C 
ATOM     63  H32 IGN d   1      23.206 -13.314  25.090  0.00  0.00     0.033 H 
ATOM     64  H33 IGN d   1      21.952 -12.538  24.064  0.00  0.00     0.033 H 
ATOM     65  C53 IGN d   1      19.720 -13.372  25.526  0.00  0.00    -0.062 C 
ATOM     66  H30 IGN d   1      21.436 -14.082  26.693  0.00  0.00     0.033 H 
ATOM     67  H31 IGN d   1      21.370 -12.298  26.491  0.00  0.00     0.033 H 
ATOM     68  H28 IGN d   1      19.063 -13.294  26.405  0.00  0.00     0.033 H 
ATOM     69  H29 IGN d   1      19.500 -12.549  24.830  0.00  0.00     0.033 H 
ATOM     70  H27 IGN d   1      19.746 -15.539  25.501  0.00  0.00     0.040 H 
ENDBRANCH  51  54
ENDBRANCH  40  51
ENDBRANCH   8  40
TORSDOF 11
