REMARK  11 active torsions:
REMARK  status: ('A' for Active; 'I' for Inactive)
REMARK    1  A    between atoms: C8_8  and  C1_1 
REMARK    2  A    between atoms: C8_8  and  N7_7 
REMARK    3  A    between atoms: N7_7  and  C28_28 
REMARK    4  A    between atoms: C8_8  and  C9_9 
REMARK       I    between atoms: C9_9  and  N11_11 
REMARK    5  A    between atoms: C12_12  and  C13_13 
REMARK       I    between atoms: C13_13  and  N15_15 
REMARK    6  A    between atoms: N15_15  and  C16_16 
REMARK    7  A    between atoms: C16_16  and  C17_17 
REMARK    8  A    between atoms: C20_20  and  C23_23 
REMARK    9  A    between atoms: C23_23  and  N25_25 
REMARK   10  A    between atoms: C23_23  and  N24_24 
REMARK   11  A    between atoms: C28_28  and  C29_29 
ROOT
ATOM      1  C9  MEL d   1      17.869 -13.402  22.281  0.00  0.00     0.251 C 
ATOM      2  O0  MEL d   1      16.827 -12.790  22.666  0.00  0.00    -0.271 OA
ATOM      3  N11 MEL d   1      18.615 -12.912  21.293  0.00  0.00    -0.337 N 
ATOM      4  C12 MEL d   1      18.455 -11.694  20.481  0.00  0.00     0.093 C 
ATOM      5  C26 MEL d   1      19.783 -11.919  19.842  0.00  0.00    -0.023 C 
ATOM      6  C27 MEL d   1      19.832 -13.283  20.576  0.00  0.00     0.001 C 
ATOM      7  H15 MEL d   1      18.464 -10.753  21.050  0.00  0.00     0.087 H 
ATOM      8  H27 MEL d   1      20.564 -11.207  20.146  0.00  0.00     0.039 H 
ATOM      9  H28 MEL d   1      19.758 -11.990  18.745  0.00  0.00     0.039 H 
ATOM     10  H29 MEL d   1      19.721 -14.156  19.917  0.00  0.00     0.064 H 
ATOM     11  H30 MEL d   1      20.713 -13.419  21.220  0.00  0.00     0.064 H 
ENDROOT
BRANCH   1  12
ATOM     12  C8  MEL d   1      18.248 -14.692  22.938  0.00  0.00     0.182 C 
ATOM     13  H14 MEL d   1      19.049 -15.183  22.367  0.00  0.00     0.100 H 
BRANCH  12  14
ATOM     14  C1  MEL d   1      18.740 -14.409  24.419  0.00  0.00    -0.018 C 
ATOM     15  C6  MEL d   1      20.088 -13.612  24.366  0.00  0.00    -0.059 C 
ATOM     16  C5  MEL d   1      20.589 -13.345  25.818  0.00  0.00    -0.065 C 
ATOM     17  H10 MEL d   1      19.928 -12.653  23.851  0.00  0.00     0.033 H 
ATOM     18  H11 MEL d   1      20.841 -14.200  23.820  0.00  0.00     0.033 H 
ATOM     19  C4  MEL d   1      20.811 -14.718  26.538  0.00  0.00    -0.065 C 
ATOM     20  H8  MEL d   1      21.537 -12.788  25.785  0.00  0.00     0.033 H 
ATOM     21  H9  MEL d   1      19.837 -12.758  26.366  0.00  0.00     0.033 H 
ATOM     22  C3  MEL d   1      19.489 -15.529  26.632  0.00  0.00    -0.065 C 
ATOM     23  H6  MEL d   1      21.551 -15.303  25.972  0.00  0.00     0.033 H 
ATOM     24  H7  MEL d   1      21.190 -14.532  27.554  0.00  0.00     0.033 H 
ATOM     25  C2  MEL d   1      18.906 -15.746  25.200  0.00  0.00    -0.059 C 
ATOM     26  H4  MEL d   1      19.691 -16.505  27.097  0.00  0.00     0.033 H 
ATOM     27  H5  MEL d   1      18.762 -14.975  27.243  0.00  0.00     0.033 H 
ATOM     28  H2  MEL d   1      19.586 -16.402  24.637  0.00  0.00     0.033 H 
ATOM     29  H3  MEL d   1      17.921 -16.228  25.289  0.00  0.00     0.033 H 
ATOM     30  H1  MEL d   1      17.986 -13.795  24.934  0.00  0.00     0.043 H 
ENDBRANCH  12  14
BRANCH  12  31
ATOM     31  N7  MEL d   1      17.041 -15.566  22.981  0.00  0.00    -0.052 N 
ATOM     32  H12 MEL d   1      16.302 -15.021  23.396  0.00  0.00     0.278 HD
ATOM     33  H13 MEL d   1      17.266 -16.342  23.584  0.00  0.00     0.278 HD
BRANCH  31  34
ATOM     34  C28 MEL d   1      16.490 -16.147  21.719  0.00  0.00     0.161 C 
ATOM     35  H31 MEL d   1      17.034 -17.076  21.493  0.00  0.00     0.092 H 
ATOM     36  H32 MEL d   1      16.643 -15.425  20.904  0.00  0.00     0.092 H 
BRANCH  34  37
ATOM     37  C29 MEL d   1      14.978 -16.471  21.814  0.00  0.00     0.199 C 
ATOM     38  O31 MEL d   1      14.277 -16.627  20.722  0.00  0.00    -0.647 OA
ATOM     39  O30 MEL d   1      14.389 -16.599  23.001  0.00  0.00    -0.647 OA
ENDBRANCH  34  37
ENDBRANCH  31  34
ENDBRANCH  12  31
ENDBRANCH   1  12
BRANCH   4  40
ATOM     40  C13 MEL d   1      17.086 -11.815  19.815  0.00  0.00     0.240 C 
ATOM     41  N15 MEL d   1      16.142 -10.799  19.952  0.00  0.00    -0.355 N 
ATOM     42  H16 MEL d   1      16.401  -9.929  20.372  0.00  0.00     0.162 HD
ATOM     43  O14 MEL d   1      16.818 -12.826  19.183  0.00  0.00    -0.271 OA
BRANCH  41  44
ATOM     44  C16 MEL d   1      14.789 -11.001  19.488  0.00  0.00     0.019 C 
ATOM     45  H17 MEL d   1      14.720 -11.978  18.987  0.00  0.00     0.071 H 
ATOM     46  H18 MEL d   1      14.527 -10.204  18.776  0.00  0.00     0.071 H 
BRANCH  44  47
ATOM     47  C17 MEL d   1      13.847 -10.969  20.619  0.00  0.00    -0.040 A 
ATOM     48  C22 MEL d   1      13.505 -12.164  21.307  0.00  0.00    -0.074 A 
ATOM     49  C21 MEL d   1      12.581 -12.110  22.409  0.00  0.00    -0.069 A 
ATOM     50  H22 MEL d   1      13.937 -13.111  21.004  0.00  0.00     0.084 H 
ATOM     51  C20 MEL d   1      12.013 -10.846  22.800  0.00  0.00     0.007 A 
ATOM     52  H21 MEL d   1      12.314 -13.016  22.942  0.00  0.00     0.085 H 
ATOM     53  C19 MEL d   1      12.368  -9.678  22.101  0.00  0.00    -0.069 A 
ATOM     54  C18 MEL d   1      13.290  -9.743  21.006  0.00  0.00    -0.074 A 
ATOM     55  H20 MEL d   1      11.942  -8.725  22.392  0.00  0.00     0.085 H 
ATOM     56  H19 MEL d   1      13.558  -8.838  20.474  0.00  0.00     0.084 H 
BRANCH  51  57
ATOM     57  C23 MEL d   1      11.108 -10.779  23.869  0.00  0.00     0.102 C 
BRANCH  57  58
ATOM     58  N25 MEL d   1      10.363 -11.880  24.215  0.00  0.00    -0.385 N 
ATOM     59  H25 MEL d   1      10.474 -12.761  23.694  0.00  0.00     0.157 HD
ATOM     60  H26 MEL d   1       9.693 -11.824  24.996  0.00  0.00     0.157 HD
ENDBRANCH  57  58
BRANCH  57  61
ATOM     61  N24 MEL d   1      10.949  -9.615  24.571  0.00  0.00    -0.385 N 
ATOM     62  H23 MEL d   1      10.282  -9.573  25.355  0.00  0.00     0.157 HD
ATOM     63  H24 MEL d   1      11.496  -8.781  24.315  0.00  0.00     0.157 HD
ENDBRANCH  57  61
ENDBRANCH  51  57
ENDBRANCH  44  47
ENDBRANCH  41  44
ENDBRANCH   4  40
TORSDOF 11
