REMARK  7 active torsions:
REMARK  status: ('A' for Active; 'I' for Inactive)
REMARK    1  A    between atoms: S5'_2  and  CS_1 
REMARK    2  A    between atoms: C5'_3  and  S5'_2 
REMARK    3  A    between atoms: C4'_4  and  C5'_3 
REMARK    4  A    between atoms: C2'_6  and  O2'_7 
REMARK    5  A    between atoms: C3'_8  and  O3'_9 
REMARK    6  A    between atoms: C1'_10  and  C9_11 
REMARK    7  A    between atoms: C6_15  and  N6_16 
ROOT
ATOM      1  C4' MTM d   1      60.746  16.041  31.436  0.00  0.00     0.138 C 
ATOM      2  N4' MTM d   1      61.439  15.533  30.247  0.00  0.00    -0.057 N 
ATOM      3  C2' MTM d   1      61.980  17.843  30.396  0.00  0.00     0.093 C 
ATOM      4  C3' MTM d   1      61.341  17.407  31.786  0.00  0.00     0.090 C 
ATOM      5  C1' MTM d   1      62.015  16.601  29.438  0.00  0.00     0.158 C 
ATOM      6  H6  MTM d   1      60.910  15.358  32.282  0.00  0.00     0.089 H 
ATOM      7  H7  MTM d   1      60.780  15.020  29.683  0.00  0.00     0.278 HD
ATOM      8  H8  MTM d   1      62.179  14.916  30.543  0.00  0.00     0.278 HD
ATOM      9  H9  MTM d   1      61.360  18.632  29.944  0.00  0.00     0.090 H 
ATOM     10  H11 MTM d   1      60.563  18.114  32.109  0.00  0.00     0.090 H 
ATOM     11  H13 MTM d   1      63.057  16.380  29.164  0.00  0.00     0.096 H 
ENDROOT
BRANCH   5  12
ATOM     12  C9  MTM d   1      61.139  16.703  28.093  0.00  0.00     0.021 A 
ATOM     13  C8  MTM d   1      60.864  15.642  27.236  0.00  0.00    -0.012 A 
ATOM     14  N7  MTM d   1      60.124  15.957  26.190  0.00  0.00    -0.360 N 
ATOM     15  H14 MTM d   1      61.230  14.632  27.414  0.00  0.00     0.112 H 
ATOM     16  C5  MTM d   1      59.881  17.311  26.347  0.00  0.00     0.107 A 
ATOM     17  H15 MTM d   1      59.802  15.339  25.432  0.00  0.00     0.165 HD
ATOM     18  C6  MTM d   1      59.157  18.278  25.586  0.00  0.00     0.151 A 
ATOM     19  C4  MTM d   1      60.494  17.795  27.509  0.00  0.00     0.098 A 
ATOM     20  N1  MTM d   1      59.132  19.586  26.067  0.00  0.00    -0.223 NA
ATOM     21  C2  MTM d   1      59.775  19.913  27.212  0.00  0.00     0.089 A 
ATOM     22  N3  MTM d   1      60.484  19.082  28.004  0.00  0.00    -0.239 NA
ATOM     23  H18 MTM d   1      59.714  20.949  27.525  0.00  0.00     0.146 H 
BRANCH  18  24
ATOM     24  N6  MTM d   1      58.520  17.965  24.452  0.00  0.00    -0.382 N 
ATOM     25  H16 MTM d   1      58.008  18.692  23.931  0.00  0.00     0.157 HD
ATOM     26  H17 MTM d   1      58.541  16.997  24.100  0.00  0.00     0.157 HD
ENDBRANCH  18  24
ENDBRANCH   5  12
BRANCH   3  27
ATOM     27  O2' MTM d   1      63.342  18.363  30.601  0.00  0.00    -0.390 OA
ATOM     28  H10 MTM d   1      63.882  17.687  30.993  0.00  0.00     0.210 HD
ENDBRANCH   3  27
BRANCH   1  29
ATOM     29  C5' MTM d   1      59.252  16.089  31.130  0.00  0.00     0.005 C 
ATOM     30  H4  MTM d   1      58.714  16.301  32.066  0.00  0.00     0.052 H 
ATOM     31  H5  MTM d   1      59.072  16.902  30.411  0.00  0.00     0.052 H 
BRANCH  29  32
ATOM     32  S5' MTM d   1      58.589  14.539  30.423  0.00  0.00    -0.171 SA
BRANCH  32  33
ATOM     33  CS  MTM d   1      58.521  13.493  31.901  0.00  0.00    -0.035 C 
ATOM     34  H1  MTM d   1      58.132  12.501  31.630  0.00  0.00     0.041 H 
ATOM     35  H2  MTM d   1      57.858  13.956  32.647  0.00  0.00     0.041 H 
ATOM     36  H3  MTM d   1      59.532  13.388  32.323  0.00  0.00     0.041 H 
ENDBRANCH  32  33
ENDBRANCH  29  32
ENDBRANCH   1  29
BRANCH   4  37
ATOM     37  O3' MTM d   1      62.374  17.284  32.851  0.00  0.00    -0.391 OA
ATOM     38  H12 MTM d   1      61.959  17.023  33.665  0.00  0.00     0.210 HD
ENDBRANCH   4  37
TORSDOF 7
