REMARK  6 active torsions:
REMARK  status: ('A' for Active; 'I' for Inactive)
REMARK    1  A    between atoms: C10_1  and  S1_4 
REMARK    2  A    between atoms: C10_1  and  C11_2 
REMARK    3  A    between atoms: C11_2  and  C12_3 
REMARK    4  A    between atoms: S1_4  and  C9_5 
REMARK    5  A    between atoms: C9_5  and  C2_6 
REMARK    6  A    between atoms: C6_15  and  N4_16 
ROOT
ATOM      1  C2  APQ d   1      16.350  16.936  19.625  0.00  0.00    -0.016 A 
ATOM      2  C3  APQ d   1      16.566  17.127  21.014  0.00  0.00     0.098 A 
ATOM      3  N3  APQ d   1      15.546  16.932  21.928  0.00  0.00    -0.064 NA
ATOM      4  C8  APQ d   1      15.681  17.089  23.201  0.00  0.00     0.701 A 
ATOM      5  N1  APQ d   1      16.854  17.455  23.744  0.00  0.00    -0.154 N 
ATOM      6  C7  APQ d   1      17.944  17.679  23.004  0.00  0.00     0.272 A 
ATOM      7  O1  APQ d   1      19.024  18.018  23.501  0.00  0.00    -0.267 OA
ATOM      8  C4  APQ d   1      17.851  17.511  21.491  0.00  0.00     0.065 A 
ATOM      9  C5  APQ d   1      18.931  17.719  20.589  0.00  0.00    -0.040 A 
ATOM     10  C6  APQ d   1      18.712  17.530  19.198  0.00  0.00     0.027 A 
ATOM     11  C1  APQ d   1      17.432  17.148  18.745  0.00  0.00    -0.049 A 
ATOM     12  N2  APQ d   1      14.650  16.882  23.981  0.00  0.00    -0.233 N 
ATOM     13  H10 APQ d   1      16.914  17.564  24.736  0.00  0.00     0.187 HD
ATOM     14  H11 APQ d   1      19.906  18.017  20.957  0.00  0.00     0.088 H 
ATOM     15  H14 APQ d   1      17.274  17.012  17.681  0.00  0.00     0.087 H 
ATOM     16  H15 APQ d   1      13.746  16.601  23.576  0.00  0.00     0.174 HD
ATOM     17  H16 APQ d   1      14.743  17.000  25.000  0.00  0.00     0.174 HD
ENDROOT
BRANCH   1  18
ATOM     18  C9  APQ d   1      14.926  16.526  19.151  0.00  0.00     0.003 C 
ATOM     19  H8  APQ d   1      14.263  16.586  20.027  0.00  0.00     0.056 H 
ATOM     20  H9  APQ d   1      14.609  17.264  18.400  0.00  0.00     0.056 H 
BRANCH  18  21
ATOM     21  S1  APQ d   1      14.691  14.846  18.400  0.00  0.00    -0.164 SA
BRANCH  21  22
ATOM     22  C10 APQ d   1      12.929  14.635  18.024  0.00  0.00    -0.023 C 
ATOM     23  H1  APQ d   1      12.397  14.295  18.925  0.00  0.00     0.048 H 
ATOM     24  H2  APQ d   1      12.809  13.890  17.224  0.00  0.00     0.048 H 
BRANCH  22  25
ATOM     25  C11 APQ d   1      12.348  15.997  17.559  0.00  0.00    -0.060 C 
ATOM     26  H3  APQ d   1      13.139  16.761  17.571  0.00  0.00     0.033 H 
ATOM     27  H4  APQ d   1      11.534  16.302  18.233  0.00  0.00     0.033 H 
BRANCH  25  28
ATOM     28  C12 APQ d   1      11.797  15.836  16.111  0.00  0.00    -0.076 C 
ATOM     29  H5  APQ d   1      11.382  16.795  15.768  0.00  0.00     0.027 H 
ATOM     30  H6  APQ d   1      11.007  15.070  16.102  0.00  0.00     0.027 H 
ATOM     31  H7  APQ d   1      12.613  15.529  15.440  0.00  0.00     0.027 H 
ENDBRANCH  25  28
ENDBRANCH  22  25
ENDBRANCH  21  22
ENDBRANCH  18  21
ENDBRANCH   1  18
BRANCH  10  32
ATOM     32  N4  APQ d   1      19.706  17.715  18.295  0.00  0.00    -0.399 N 
ATOM     33  H12 APQ d   1      19.523  17.572  17.291  0.00  0.00     0.156 HD
ATOM     34  H13 APQ d   1      20.644  17.999  18.612  0.00  0.00     0.156 HD
ENDBRANCH  10  32
TORSDOF 6
