REMARK  17 active torsions:
REMARK  status: ('A' for Active; 'I' for Inactive)
REMARK    1  A    between atoms: N1_1  and  C31_39 
REMARK    2  A    between atoms: C2_3  and  C3_4 
REMARK       I    between atoms: C3_4  and  N2_6 
REMARK    3  A    between atoms: N2_6  and  C4_7 
REMARK    4  A    between atoms: C4_7  and  C7_10 
REMARK    5  A    between atoms: C4_7  and  C6_9 
REMARK    6  A    between atoms: C4_7  and  C5_8 
REMARK    7  A    between atoms: N3_11  and  C10_14 
REMARK    8  A    between atoms: C10_14  and  C11_15 
REMARK    9  A    between atoms: C11_15  and  C12_17 
REMARK   10  A    between atoms: C11_15  and  O2_16 
REMARK   11  A    between atoms: C12_17  and  C13_18 
REMARK   12  A    between atoms: C13_18  and  C21_26 
REMARK   13  A    between atoms: C13_18  and  C14_19 
REMARK   14  A    between atoms: C14_19  and  C15_20 
REMARK       I    between atoms: C21_26  and  N4_28 
REMARK   15  A    between atoms: N4_28  and  C22_29 
REMARK   16  A    between atoms: C23_30  and  O4_31 
REMARK   17  A    between atoms: C31_39  and  C32_40 
ROOT
ATOM      1  C10 MK1 d   1       5.079  -1.586  16.496  0.00  0.00     0.108 C 
ATOM      2  H20 MK1 d   1       6.100  -1.726  16.880  0.00  0.00     0.080 H 
ATOM      3  H21 MK1 d   1       4.419  -1.267  17.316  0.00  0.00     0.080 H 
ENDROOT
BRANCH   1   4
ATOM      4  N3  MK1 d   1       4.592  -2.878  15.982  0.00  0.00    -0.053 N 
ATOM      5  C2  MK1 d   1       5.471  -4.070  16.304  0.00  0.00     0.203 C 
ATOM      6  C1  MK1 d   1       4.668  -5.208  15.687  0.00  0.00     0.119 C 
ATOM      7  H4  MK1 d   1       5.590  -4.185  17.391  0.00  0.00     0.102 H 
ATOM      8  N1  MK1 d   1       3.257  -5.441  16.163  0.00  0.00    -0.063 N 
ATOM      9  H2  MK1 d   1       4.617  -5.018  14.605  0.00  0.00     0.080 H 
ATOM     10  H3  MK1 d   1       5.229  -6.136  15.871  0.00  0.00     0.080 H 
ATOM     11  C9  MK1 d   1       2.503  -4.294  15.835  0.00  0.00     0.106 C 
ATOM     12  H1  MK1 d   1       3.285  -5.515  17.168  0.00  0.00     0.280 HD
ATOM     13  C8  MK1 d   1       3.128  -2.974  16.307  0.00  0.00     0.107 C 
ATOM     14  H18 MK1 d   1       1.510  -4.390  16.298  0.00  0.00     0.078 H 
ATOM     15  H19 MK1 d   1       2.396  -4.253  14.741  0.00  0.00     0.078 H 
ATOM     16  H16 MK1 d   1       2.603  -2.141  15.817  0.00  0.00     0.078 H 
ATOM     17  H17 MK1 d   1       3.003  -2.895  17.397  0.00  0.00     0.078 H 
ATOM     18  H15 MK1 d   1       4.637  -2.809  14.977  0.00  0.00     0.281 HD
BRANCH   5  19
ATOM     19  C3  MK1 d   1       6.822  -4.052  15.649  0.00  0.00     0.251 C 
ATOM     20  N2  MK1 d   1       7.869  -4.600  16.329  0.00  0.00    -0.351 N 
ATOM     21  H5  MK1 d   1       7.622  -4.983  17.219  0.00  0.00     0.163 HD
ATOM     22  O1  MK1 d   1       6.930  -3.539  14.532  0.00  0.00    -0.271 OA
BRANCH  20  23
ATOM     23  C4  MK1 d   1       9.281  -4.730  15.996  0.00  0.00     0.022 C 
BRANCH  23  24
ATOM     24  C7  MK1 d   1       9.552  -5.533  14.794  0.00  0.00    -0.054 C 
ATOM     25  H12 MK1 d   1      10.637  -5.577  14.620  0.00  0.00     0.030 H 
ATOM     26  H13 MK1 d   1       9.060  -5.071  13.926  0.00  0.00     0.030 H 
ATOM     27  H14 MK1 d   1       9.162  -6.551  14.938  0.00  0.00     0.030 H 
ENDBRANCH  23  24
BRANCH  23  28
ATOM     28  C6  MK1 d   1       9.918  -3.498  15.842  0.00  0.00    -0.054 C 
ATOM     29  H9  MK1 d   1      10.977  -3.661  15.592  0.00  0.00     0.030 H 
ATOM     30  H10 MK1 d   1       9.846  -2.928  16.780  0.00  0.00     0.030 H 
ATOM     31  H11 MK1 d   1       9.433  -2.933  15.032  0.00  0.00     0.030 H 
ENDBRANCH  23  28
BRANCH  23  32
ATOM     32  C5  MK1 d   1       9.975  -5.471  17.150  0.00  0.00    -0.054 C 
ATOM     33  H6  MK1 d   1      11.046  -5.583  16.923  0.00  0.00     0.030 H 
ATOM     34  H7  MK1 d   1       9.521  -6.465  17.273  0.00  0.00     0.030 H 
ATOM     35  H8  MK1 d   1       9.855  -4.896  18.080  0.00  0.00     0.030 H 
ENDBRANCH  23  32
ENDBRANCH  20  23
ENDBRANCH   5  19
BRANCH   8  36
ATOM     36  C31 MK1 d   1       2.645  -6.679  15.673  0.00  0.00     0.108 C 
ATOM     37  H44 MK1 d   1       2.654  -6.622  14.575  0.00  0.00     0.083 H 
ATOM     38  H45 MK1 d   1       1.605  -6.680  16.032  0.00  0.00     0.083 H 
BRANCH  36  39
ATOM     39  C32 MK1 d   1       3.242  -8.043  16.048  0.00  0.00    -0.015 A 
ATOM     40  C36 MK1 d   1       3.777  -8.833  15.011  0.00  0.00    -0.072 A 
ATOM     41  C35 MK1 d   1       4.341 -10.101  15.322  0.00  0.00    -0.066 A 
ATOM     42  H49 MK1 d   1       3.759  -8.478  13.987  0.00  0.00     0.084 H 
ATOM     43  C34 MK1 d   1       4.353 -10.537  16.667  0.00  0.00     0.002 A 
ATOM     44  H48 MK1 d   1       4.756 -10.725  14.539  0.00  0.00     0.085 H 
ATOM     45  N5  MK1 d   1       3.835  -9.804  17.771  0.00  0.00    -0.273 NA
ATOM     46  H47 MK1 d   1       4.792 -11.507  16.873  0.00  0.00     0.114 H 
ATOM     47  C33 MK1 d   1       3.283  -8.538  17.380  0.00  0.00     0.009 A 
ATOM     48  H46 MK1 d   1       2.865  -7.912  18.160  0.00  0.00     0.115 H 
ENDBRANCH  36  39
ENDBRANCH   8  36
ENDBRANCH   1   4
BRANCH   1  49
ATOM     49  C11 MK1 d   1       5.107  -0.485  15.443  0.00  0.00     0.059 C 
ATOM     50  H22 MK1 d   1       4.204  -0.526  14.816  0.00  0.00     0.085 H 
BRANCH  49  51
ATOM     51  C12 MK1 d   1       6.324  -0.232  14.538  0.00  0.00    -0.028 C 
ATOM     52  H24 MK1 d   1       6.529  -1.175  14.010  0.00  0.00     0.038 H 
ATOM     53  H25 MK1 d   1       7.168   0.008  15.201  0.00  0.00     0.038 H 
BRANCH  51  54
ATOM     54  C13 MK1 d   1       6.270   0.870  13.472  0.00  0.00     0.029 C 
ATOM     55  H26 MK1 d   1       6.111   1.829  13.986  0.00  0.00     0.055 H 
BRANCH  54  56
ATOM     56  C21 MK1 d   1       5.092   0.647  12.478  0.00  0.00     0.222 C 
ATOM     57  N4  MK1 d   1       4.511   1.769  12.060  0.00  0.00    -0.350 N 
ATOM     58  H34 MK1 d   1       4.831   2.636  12.442  0.00  0.00     0.163 HD
ATOM     59  O3  MK1 d   1       4.768  -0.498  12.083  0.00  0.00    -0.273 OA
BRANCH  57  60
ATOM     60  C22 MK1 d   1       3.433   1.806  11.076  0.00  0.00     0.063 C 
ATOM     61  C30 MK1 d   1       1.988   1.623  11.592  0.00  0.00    -0.027 A 
ATOM     62  C25 MK1 d   1       0.999   2.590  10.842  0.00  0.00    -0.047 A 
ATOM     63  C29 MK1 d   1       1.423   0.797  12.540  0.00  0.00    -0.074 A 
ATOM     64  C24 MK1 d   1       1.936   3.304   9.912  0.00  0.00    -0.014 C 
ATOM     65  C26 MK1 d   1      -0.354   2.613  11.143  0.00  0.00    -0.076 A 
ATOM     66  C23 MK1 d   1       3.359   3.172  10.393  0.00  0.00     0.063 C 
ATOM     67  H38 MK1 d   1       1.852   2.866   8.906  0.00  0.00     0.044 H 
ATOM     68  H39 MK1 d   1       1.665   4.369   9.872  0.00  0.00     0.044 H 
ATOM     69  H36 MK1 d   1       4.033   3.186   9.524  0.00  0.00     0.087 H 
ATOM     70  C27 MK1 d   1      -0.835   1.726  12.138  0.00  0.00    -0.082 A 
ATOM     71  H40 MK1 d   1      -1.026   3.292  10.631  0.00  0.00     0.084 H 
ATOM     72  C28 MK1 d   1       0.048   0.837  12.827  0.00  0.00    -0.082 A 
ATOM     73  H41 MK1 d   1      -1.891   1.721  12.381  0.00  0.00     0.083 H 
ATOM     74  H42 MK1 d   1      -0.353   0.178  13.589  0.00  0.00     0.083 H 
ATOM     75  H43 MK1 d   1       2.055   0.099  13.077  0.00  0.00     0.084 H 
ATOM     76  H35 MK1 d   1       3.646   1.022  10.334  0.00  0.00     0.084 H 
BRANCH  66  77
ATOM     77  O4  MK1 d   1       3.770   4.212  11.284  0.00  0.00    -0.393 OA
ATOM     78  H37 MK1 d   1       3.699   5.051  10.844  0.00  0.00     0.210 HD
ENDBRANCH  66  77
ENDBRANCH  57  60
ENDBRANCH  54  56
BRANCH  54  79
ATOM     79  C14 MK1 d   1       7.606   0.959  12.672  0.00  0.00    -0.029 C 
ATOM     80  H27 MK1 d   1       7.800  -0.022  12.213  0.00  0.00     0.041 H 
ATOM     81  H28 MK1 d   1       8.415   1.201  13.376  0.00  0.00     0.041 H 
BRANCH  79  82
ATOM     82  C15 MK1 d   1       7.600   1.992  11.589  0.00  0.00    -0.057 A 
ATOM     83  C20 MK1 d   1       7.760   1.567  10.243  0.00  0.00    -0.077 A 
ATOM     84  C19 MK1 d   1       7.744   2.513   9.191  0.00  0.00    -0.082 A 
ATOM     85  H33 MK1 d   1       7.895   0.514  10.021  0.00  0.00     0.084 H 
ATOM     86  C18 MK1 d   1       7.565   3.896   9.496  0.00  0.00    -0.083 A 
ATOM     87  H32 MK1 d   1       7.867   2.191   8.163  0.00  0.00     0.083 H 
ATOM     88  C17 MK1 d   1       7.404   4.334  10.850  0.00  0.00    -0.082 A 
ATOM     89  H31 MK1 d   1       7.551   4.624   8.693  0.00  0.00     0.083 H 
ATOM     90  C16 MK1 d   1       7.422   3.378  11.896  0.00  0.00    -0.077 A 
ATOM     91  H30 MK1 d   1       7.270   5.386  11.073  0.00  0.00     0.083 H 
ATOM     92  H29 MK1 d   1       7.301   3.696  12.925  0.00  0.00     0.084 H 
ENDBRANCH  79  82
ENDBRANCH  54  79
ENDBRANCH  51  54
ENDBRANCH  49  51
BRANCH  49  93
ATOM     93  O2  MK1 d   1       5.122   0.558  16.369  0.00  0.00    -0.394 OA
ATOM     94  H23 MK1 d   1       4.388   0.462  16.965  0.00  0.00     0.210 HD
ENDBRANCH  49  93
ENDBRANCH   1  49
TORSDOF 17
