REMARK  17 active torsions:
REMARK  status: ('A' for Active; 'I' for Inactive)
REMARK    1  A    between atoms: N1_1  and  C31_39 
REMARK    2  A    between atoms: C2_3  and  C3_4 
REMARK       I    between atoms: C3_4  and  N2_6 
REMARK    3  A    between atoms: N2_6  and  C4_7 
REMARK    4  A    between atoms: C4_7  and  C7_10 
REMARK    5  A    between atoms: C4_7  and  C6_9 
REMARK    6  A    between atoms: C4_7  and  C5_8 
REMARK    7  A    between atoms: N3_11  and  C10_14 
REMARK    8  A    between atoms: C10_14  and  C11_15 
REMARK    9  A    between atoms: C11_15  and  C12_17 
REMARK   10  A    between atoms: C11_15  and  O2_16 
REMARK   11  A    between atoms: C12_17  and  C13_18 
REMARK   12  A    between atoms: C13_18  and  C21_26 
REMARK   13  A    between atoms: C13_18  and  C14_19 
REMARK   14  A    between atoms: C14_19  and  C15_20 
REMARK       I    between atoms: C21_26  and  N4_28 
REMARK   15  A    between atoms: N4_28  and  C22_29 
REMARK   16  A    between atoms: C23_30  and  O4_31 
REMARK   17  A    between atoms: C31_39  and  C32_40 
ROOT
ATOM      1  N1  XN3 d   1       2.987  -5.221  16.433  0.00  0.00    -0.063 N 
ATOM      2  C1  XN3 d   1       4.424  -5.136  15.883  0.00  0.00     0.119 C 
ATOM      3  C2  XN3 d   1       5.274  -4.003  16.455  0.00  0.00     0.203 C 
ATOM      4  N3  XN3 d   1       4.408  -2.732  16.155  0.00  0.00    -0.053 N 
ATOM      5  C8  XN3 d   1       2.977  -2.721  16.623  0.00  0.00     0.107 C 
ATOM      6  C9  XN3 d   1       2.304  -3.992  16.089  0.00  0.00     0.106 C 
ATOM      7  H1  XN3 d   1       3.023  -5.323  17.435  0.00  0.00     0.280 HD
ATOM      8  H2  XN3 d   1       4.364  -4.999  14.793  0.00  0.00     0.080 H 
ATOM      9  H3  XN3 d   1       4.930  -6.087  16.106  0.00  0.00     0.080 H 
ATOM     10  H4  XN3 d   1       5.419  -4.103  17.541  0.00  0.00     0.102 H 
ATOM     11  H15 XN3 d   1       4.381  -2.659  15.150  0.00  0.00     0.281 HD
ATOM     12  H16 XN3 d   1       2.462  -1.831  16.232  0.00  0.00     0.078 H 
ATOM     13  H17 XN3 d   1       2.942  -2.712  17.722  0.00  0.00     0.078 H 
ATOM     14  H18 XN3 d   1       1.284  -4.039  16.499  0.00  0.00     0.078 H 
ATOM     15  H19 XN3 d   1       2.256  -3.921  14.992  0.00  0.00     0.078 H 
ENDROOT
BRANCH   4  16
ATOM     16  C10 XN3 d   1       5.034  -1.478  16.685  0.00  0.00     0.108 C 
ATOM     17  H20 XN3 d   1       6.072  -1.691  16.980  0.00  0.00     0.080 H 
ATOM     18  H21 XN3 d   1       4.466  -1.135  17.562  0.00  0.00     0.080 H 
BRANCH  16  19
ATOM     19  C11 XN3 d   1       5.031  -0.404  15.652  0.00  0.00     0.059 C 
ATOM     20  H22 XN3 d   1       4.139  -0.463  15.011  0.00  0.00     0.085 H 
BRANCH  19  21
ATOM     21  C12 XN3 d   1       6.260  -0.144  14.795  0.00  0.00    -0.028 C 
ATOM     22  H24 XN3 d   1       6.479  -1.082  14.265  0.00  0.00     0.038 H 
ATOM     23  H25 XN3 d   1       7.084   0.088  15.486  0.00  0.00     0.038 H 
BRANCH  21  24
ATOM     24  C13 XN3 d   1       6.247   0.968  13.736  0.00  0.00     0.029 C 
ATOM     25  H26 XN3 d   1       6.058   1.927  14.240  0.00  0.00     0.055 H 
BRANCH  24  26
ATOM     26  C21 XN3 d   1       5.136   0.742  12.627  0.00  0.00     0.222 C 
ATOM     27  N4  XN3 d   1       4.646   1.895  12.231  0.00  0.00    -0.350 N 
ATOM     28  H34 XN3 d   1       5.003   2.719  12.671  0.00  0.00     0.163 HD
ATOM     29  O3  XN3 d   1       4.774  -0.409  12.158  0.00  0.00    -0.273 OA
BRANCH  27  30
ATOM     30  C22 XN3 d   1       3.633   2.075  11.211  0.00  0.00     0.063 C 
ATOM     31  C30 XN3 d   1       2.167   1.848  11.576  0.00  0.00    -0.027 A 
ATOM     32  C25 XN3 d   1       1.255   2.845  10.718  0.00  0.00    -0.047 A 
ATOM     33  C29 XN3 d   1       1.518   0.980  12.465  0.00  0.00    -0.074 A 
ATOM     34  C24 XN3 d   1       2.302   3.578   9.921  0.00  0.00    -0.014 C 
ATOM     35  C26 XN3 d   1      -0.140   2.839  10.859  0.00  0.00    -0.076 A 
ATOM     36  C23 XN3 d   1       3.599   3.499  10.677  0.00  0.00     0.063 C 
ATOM     37  H38 XN3 d   1       2.416   3.108   8.933  0.00  0.00     0.044 H 
ATOM     38  H39 XN3 d   1       2.007   4.630   9.795  0.00  0.00     0.044 H 
ATOM     39  H36 XN3 d   1       4.433   3.652   9.976  0.00  0.00     0.087 H 
ATOM     40  C27 XN3 d   1      -0.724   1.905  11.805  0.00  0.00    -0.082 A 
ATOM     41  H40 XN3 d   1      -0.763   3.511  10.280  0.00  0.00     0.084 H 
ATOM     42  C28 XN3 d   1       0.109   0.984  12.599  0.00  0.00    -0.082 A 
ATOM     43  H41 XN3 d   1      -1.800   1.885  11.931  0.00  0.00     0.083 H 
ATOM     44  H42 XN3 d   1      -0.364   0.300  13.295  0.00  0.00     0.083 H 
ATOM     45  H43 XN3 d   1       2.107   0.292  13.061  0.00  0.00     0.084 H 
ATOM     46  H35 XN3 d   1       3.894   1.383  10.396  0.00  0.00     0.084 H 
BRANCH  36  47
ATOM     47  O4  XN3 d   1       3.736   4.453  11.726  0.00  0.00    -0.393 OA
ATOM     48  H37 XN3 d   1       3.681   5.330  11.364  0.00  0.00     0.210 HD
ENDBRANCH  36  47
ENDBRANCH  27  30
ENDBRANCH  24  26
BRANCH  24  49
ATOM     49  C14 XN3 d   1       7.676   1.026  12.987  0.00  0.00    -0.029 C 
ATOM     50  H27 XN3 d   1       7.867   0.056  12.505  0.00  0.00     0.041 H 
ATOM     51  H28 XN3 d   1       8.461   1.227  13.731  0.00  0.00     0.041 H 
BRANCH  49  52
ATOM     52  C15 XN3 d   1       7.708   2.134  11.912  0.00  0.00    -0.057 A 
ATOM     53  C20 XN3 d   1       7.872   1.729  10.518  0.00  0.00    -0.077 A 
ATOM     54  C19 XN3 d   1       7.895   2.718   9.474  0.00  0.00    -0.082 A 
ATOM     55  H33 XN3 d   1       7.977   0.679  10.270  0.00  0.00     0.084 H 
ATOM     56  C18 XN3 d   1       7.753   4.151   9.811  0.00  0.00    -0.083 A 
ATOM     57  H32 XN3 d   1       8.016   2.413   8.441  0.00  0.00     0.083 H 
ATOM     58  C17 XN3 d   1       7.586   4.581  11.223  0.00  0.00    -0.082 A 
ATOM     59  H31 XN3 d   1       7.771   4.893   9.021  0.00  0.00     0.083 H 
ATOM     60  C16 XN3 d   1       7.564   3.576  12.269  0.00  0.00    -0.077 A 
ATOM     61  H30 XN3 d   1       7.482   5.632  11.469  0.00  0.00     0.083 H 
ATOM     62  H29 XN3 d   1       7.444   3.871  13.305  0.00  0.00     0.084 H 
ENDBRANCH  49  52
ENDBRANCH  24  49
ENDBRANCH  21  24
ENDBRANCH  19  21
BRANCH  19  63
ATOM     63  O2  XN3 d   1       5.026   0.651  16.597  0.00  0.00    -0.394 OA
ATOM     64  H23 XN3 d   1       4.277   0.554  17.174  0.00  0.00     0.210 HD
ENDBRANCH  19  63
ENDBRANCH  16  19
ENDBRANCH   4  16
BRANCH   3  65
ATOM     65  C3  XN3 d   1       6.589  -4.107  15.780  0.00  0.00     0.251 C 
ATOM     66  N2  XN3 d   1       7.625  -4.613  16.505  0.00  0.00    -0.351 N 
ATOM     67  H5  XN3 d   1       7.383  -4.889  17.435  0.00  0.00     0.163 HD
ATOM     68  O1  XN3 d   1       6.690  -3.717  14.587  0.00  0.00    -0.271 OA
BRANCH  66  69
ATOM     69  C4  XN3 d   1       9.044  -4.825  16.155  0.00  0.00     0.022 C 
BRANCH  69  70
ATOM     70  C7  XN3 d   1       9.271  -5.728  14.980  0.00  0.00    -0.054 C 
ATOM     71  H12 XN3 d   1      10.351  -5.825  14.796  0.00  0.00     0.030 H 
ATOM     72  H13 XN3 d   1       8.784  -5.302  14.090  0.00  0.00     0.030 H 
ATOM     73  H14 XN3 d   1       8.844  -6.720  15.192  0.00  0.00     0.030 H 
ENDBRANCH  69  70
BRANCH  69  74
ATOM     74  C6  XN3 d   1       9.731  -3.618  15.929  0.00  0.00    -0.054 C 
ATOM     75  H9  XN3 d   1      10.779  -3.835  15.673  0.00  0.00     0.030 H 
ATOM     76  H10 XN3 d   1       9.696  -3.000  16.838  0.00  0.00     0.030 H 
ATOM     77  H11 XN3 d   1       9.256  -3.075  15.099  0.00  0.00     0.030 H 
ENDBRANCH  69  74
BRANCH  69  78
ATOM     78  C5  XN3 d   1       9.776  -5.467  17.364  0.00  0.00    -0.054 C 
ATOM     79  H6  XN3 d   1      10.834  -5.627  17.109  0.00  0.00     0.030 H 
ATOM     80  H7  XN3 d   1       9.307  -6.432  17.606  0.00  0.00     0.030 H 
ATOM     81  H8  XN3 d   1       9.706  -4.797  18.233  0.00  0.00     0.030 H 
ENDBRANCH  69  78
ENDBRANCH  66  69
ENDBRANCH   3  65
BRANCH   1  82
ATOM     82  C31 XN3 d   1       2.237  -6.357  15.862  0.00  0.00     0.107 C 
ATOM     83  H44 XN3 d   1       2.224  -6.236  14.769  0.00  0.00     0.083 H 
ATOM     84  H45 XN3 d   1       1.208  -6.308  16.248  0.00  0.00     0.083 H 
BRANCH  82  85
ATOM     85  C32 XN3 d   1       2.785  -7.749  16.170  0.00  0.00    -0.030 A 
ATOM     86  C36 XN3 d   1       3.485  -8.508  15.132  0.00  0.00    -0.040 A 
ATOM     87  C35 XN3 d   1       4.019  -9.841  15.442  0.00  0.00     0.105 A 
ATOM     88  H47 XN3 d   1       3.609  -8.089  14.140  0.00  0.00     0.088 H 
ATOM     89  C34 XN3 d   1       3.824 -10.363  16.761  0.00  0.00     0.105 A 
ATOM     90  O6  XN3 d   1       4.711 -10.844  14.773  0.00  0.00    -0.323 OA
ATOM     91  C37 XN3 d   1       3.134  -9.674  17.873  0.00  0.00    -0.047 A 
ATOM     92  O5  XN3 d   1       4.418 -11.636  16.810  0.00  0.00    -0.323 OA
ATOM     93  C33 XN3 d   1       2.627  -8.346  17.497  0.00  0.00    -0.072 A 
ATOM     94  H50 XN3 d   1       3.015 -10.103  18.861  0.00  0.00     0.087 H 
ATOM     95  H46 XN3 d   1       2.102  -7.772  18.252  0.00  0.00     0.084 H 
ATOM     96  C38 XN3 d   1       5.050 -12.091  15.549  0.00  0.00     0.115 A 
ATOM     97  H48 XN3 d   1       6.133 -12.254  15.647  0.00  0.00     0.118 H 
ATOM     98  H49 XN3 d   1       4.579 -12.995  15.135  0.00  0.00     0.118 H 
ENDBRANCH  82  85
ENDBRANCH   1  82
TORSDOF 17
