REMARK  18 active torsions:
REMARK  status: ('A' for Active; 'I' for Inactive)
REMARK    1  A    between atoms: N1_1  and  C31_39 
REMARK    2  A    between atoms: C2_3  and  C3_4 
REMARK       I    between atoms: C3_4  and  N2_6 
REMARK    3  A    between atoms: N2_6  and  C4_7 
REMARK    4  A    between atoms: C4_7  and  C7_10 
REMARK    5  A    between atoms: C4_7  and  C6_9 
REMARK    6  A    between atoms: C4_7  and  C5_8 
REMARK    7  A    between atoms: N3_11  and  C10_14 
REMARK    8  A    between atoms: C10_14  and  C11_15 
REMARK    9  A    between atoms: C11_15  and  C12_17 
REMARK   10  A    between atoms: C11_15  and  O2_16 
REMARK   11  A    between atoms: C12_17  and  C13_18 
REMARK   12  A    between atoms: C13_18  and  C21_26 
REMARK   13  A    between atoms: C13_18  and  C14_19 
REMARK   14  A    between atoms: C14_19  and  C37_46 
REMARK   15  A    between atoms: C14_19  and  C15_20 
REMARK       I    between atoms: C21_26  and  N4_28 
REMARK   16  A    between atoms: N4_28  and  C22_29 
REMARK   17  A    between atoms: C23_30  and  O4_31 
REMARK   18  A    between atoms: C31_39  and  C32_40 
ROOT
ATOM      1  C11 XN1 d   1       4.997  -0.437  15.604  0.00  0.00     0.059 C 
ATOM      2  H22 XN1 d   1       4.054  -0.450  15.037  0.00  0.00     0.085 H 
ENDROOT
BRANCH   1   3
ATOM      3  C10 XN1 d   1       5.012  -1.489  16.657  0.00  0.00     0.108 C 
ATOM      4  H20 XN1 d   1       6.045  -1.635  17.006  0.00  0.00     0.080 H 
ATOM      5  H21 XN1 d   1       4.382  -1.166  17.499  0.00  0.00     0.080 H 
BRANCH   3   6
ATOM      6  N3  XN1 d   1       4.490  -2.776  16.122  0.00  0.00    -0.053 N 
ATOM      7  C2  XN1 d   1       5.403  -3.997  16.407  0.00  0.00     0.203 C 
ATOM      8  C1  XN1 d   1       4.602  -5.146  15.800  0.00  0.00     0.119 C 
ATOM      9  H4  XN1 d   1       5.541  -4.114  17.492  0.00  0.00     0.102 H 
ATOM     10  N1  XN1 d   1       3.182  -5.332  16.303  0.00  0.00    -0.063 N 
ATOM     11  H2  XN1 d   1       4.551  -4.979  14.714  0.00  0.00     0.080 H 
ATOM     12  H3  XN1 d   1       5.151  -6.077  16.002  0.00  0.00     0.080 H 
ATOM     13  C9  XN1 d   1       2.439  -4.142  16.032  0.00  0.00     0.106 C 
ATOM     14  H1  XN1 d   1       3.219  -5.474  17.300  0.00  0.00     0.280 HD
ATOM     15  C8  XN1 d   1       3.061  -2.859  16.566  0.00  0.00     0.107 C 
ATOM     16  H18 XN1 d   1       1.442  -4.252  16.484  0.00  0.00     0.078 H 
ATOM     17  H19 XN1 d   1       2.338  -4.044  14.941  0.00  0.00     0.078 H 
ATOM     18  H16 XN1 d   1       2.505  -1.993  16.178  0.00  0.00     0.078 H 
ATOM     19  H17 XN1 d   1       3.018  -2.860  17.665  0.00  0.00     0.078 H 
ATOM     20  H15 XN1 d   1       4.472  -2.695  15.117  0.00  0.00     0.281 HD
BRANCH   7  21
ATOM     21  C3  XN1 d   1       6.737  -4.025  15.740  0.00  0.00     0.251 C 
ATOM     22  N2  XN1 d   1       7.760  -4.533  16.439  0.00  0.00    -0.351 N 
ATOM     23  H5  XN1 d   1       7.518  -4.853  17.355  0.00  0.00     0.163 HD
ATOM     24  O1  XN1 d   1       6.850  -3.583  14.580  0.00  0.00    -0.271 OA
BRANCH  22  25
ATOM     25  C4  XN1 d   1       9.173  -4.700  16.090  0.00  0.00     0.022 C 
BRANCH  25  26
ATOM     26  C7  XN1 d   1       9.411  -5.586  14.916  0.00  0.00    -0.054 C 
ATOM     27  H12 XN1 d   1      10.492  -5.657  14.723  0.00  0.00     0.030 H 
ATOM     28  H13 XN1 d   1       8.908  -5.167  14.032  0.00  0.00     0.030 H 
ATOM     29  H14 XN1 d   1       9.010  -6.588  15.126  0.00  0.00     0.030 H 
ENDBRANCH  25  26
BRANCH  25  30
ATOM     30  C6  XN1 d   1       9.829  -3.480  15.872  0.00  0.00    -0.054 C 
ATOM     31  H9  XN1 d   1      10.881  -3.670  15.615  0.00  0.00     0.030 H 
ATOM     32  H10 XN1 d   1       9.780  -2.869  16.785  0.00  0.00     0.030 H 
ATOM     33  H11 XN1 d   1       9.341  -2.944  15.045  0.00  0.00     0.030 H 
ENDBRANCH  25  30
BRANCH  25  34
ATOM     34  C5  XN1 d   1       9.907  -5.365  17.282  0.00  0.00    -0.054 C 
ATOM     35  H6  XN1 d   1      10.970  -5.496  17.031  0.00  0.00     0.030 H 
ATOM     36  H7  XN1 d   1       9.456  -6.347  17.489  0.00  0.00     0.030 H 
ATOM     37  H8  XN1 d   1       9.816  -4.725  18.172  0.00  0.00     0.030 H 
ENDBRANCH  25  34
ENDBRANCH  22  25
ENDBRANCH   7  21
BRANCH  10  38
ATOM     38  C31 XN1 d   1       2.496  -6.492  15.704  0.00  0.00     0.108 C 
ATOM     39  H43 XN1 d   1       2.421  -6.302  14.623  0.00  0.00     0.083 H 
ATOM     40  H44 XN1 d   1       1.487  -6.533  16.140  0.00  0.00     0.083 H 
BRANCH  38  41
ATOM     41  C32 XN1 d   1       3.118  -7.880  15.876  0.00  0.00    -0.015 A 
ATOM     42  C36 XN1 d   1       3.575  -8.582  14.706  0.00  0.00    -0.072 A 
ATOM     43  C35 XN1 d   1       4.172  -9.899  14.836  0.00  0.00    -0.066 A 
ATOM     44  H48 XN1 d   1       3.474  -8.127  13.727  0.00  0.00     0.084 H 
ATOM     45  C34 XN1 d   1       4.294 -10.471  16.149  0.00  0.00     0.002 A 
ATOM     46  H47 XN1 d   1       4.518 -10.439  13.962  0.00  0.00     0.085 H 
ATOM     47  N5  XN1 d   1       3.858  -9.824  17.371  0.00  0.00    -0.273 NA
ATOM     48  H46 XN1 d   1       4.743 -11.454  16.231  0.00  0.00     0.114 H 
ATOM     49  C33 XN1 d   1       3.268  -8.508  17.162  0.00  0.00     0.009 A 
ATOM     50  H45 XN1 d   1       2.919  -7.966  18.033  0.00  0.00     0.115 H 
ENDBRANCH  38  41
ENDBRANCH  10  38
ENDBRANCH   3   6
ENDBRANCH   1   3
BRANCH   1  51
ATOM     51  C12 XN1 d   1       6.166  -0.263  14.636  0.00  0.00    -0.028 C 
ATOM     52  H24 XN1 d   1       6.291  -1.227  14.121  0.00  0.00     0.038 H 
ATOM     53  H25 XN1 d   1       7.054  -0.058  15.252  0.00  0.00     0.038 H 
BRANCH  51  54
ATOM     54  C13 XN1 d   1       6.137   0.819  13.537  0.00  0.00     0.033 C 
ATOM     55  H26 XN1 d   1       6.034   1.803  14.017  0.00  0.00     0.055 H 
BRANCH  54  56
ATOM     56  C21 XN1 d   1       4.951   0.612  12.533  0.00  0.00     0.223 C 
ATOM     57  N4  XN1 d   1       4.516   1.759  12.058  0.00  0.00    -0.350 N 
ATOM     58  H33 XN1 d   1       4.948   2.596  12.394  0.00  0.00     0.163 HD
ATOM     59  O3  XN1 d   1       4.483  -0.537  12.198  0.00  0.00    -0.273 OA
BRANCH  57  60
ATOM     60  C22 XN1 d   1       3.453   1.892  11.081  0.00  0.00     0.063 C 
ATOM     61  C30 XN1 d   1       1.999   1.696  11.532  0.00  0.00    -0.027 A 
ATOM     62  C25 XN1 d   1       1.053   2.685  10.729  0.00  0.00    -0.047 A 
ATOM     63  C29 XN1 d   1       1.394   0.860  12.457  0.00  0.00    -0.074 A 
ATOM     64  C24 XN1 d   1       2.050   3.398   9.854  0.00  0.00    -0.014 C 
ATOM     65  C26 XN1 d   1      -0.321   2.701  10.957  0.00  0.00    -0.076 A 
ATOM     66  C23 XN1 d   1       3.415   3.282  10.476  0.00  0.00     0.063 C 
ATOM     67  H37 XN1 d   1       2.059   2.938   8.855  0.00  0.00     0.044 H 
ATOM     68  H38 XN1 d   1       1.773   4.459   9.767  0.00  0.00     0.044 H 
ATOM     69  H35 XN1 d   1       4.175   3.359   9.684  0.00  0.00     0.087 H 
ATOM     70  C27 XN1 d   1      -0.856   1.797  11.936  0.00  0.00    -0.082 A 
ATOM     71  H39 XN1 d   1      -0.969   3.377  10.411  0.00  0.00     0.084 H 
ATOM     72  C28 XN1 d   1       0.003   0.888  12.675  0.00  0.00    -0.082 A 
ATOM     73  H40 XN1 d   1      -1.923   1.793  12.128  0.00  0.00     0.083 H 
ATOM     74  H41 XN1 d   1      -0.435   0.219  13.407  0.00  0.00     0.083 H 
ATOM     75  H42 XN1 d   1       2.005   0.169  13.026  0.00  0.00     0.084 H 
ATOM     76  H34 XN1 d   1       3.667   1.155  10.293  0.00  0.00     0.084 H 
BRANCH  66  77
ATOM     77  O4  XN1 d   1       3.703   4.274  11.447  0.00  0.00    -0.393 OA
ATOM     78  H36 XN1 d   1       3.654   5.133  11.045  0.00  0.00     0.210 HD
ENDBRANCH  66  77
ENDBRANCH  57  60
ENDBRANCH  54  56
BRANCH  54  79
ATOM     79  C14 XN1 d   1       7.494   0.777  12.692  0.00  0.00    -0.020 C 
ATOM     80  H27 XN1 d   1       7.438  -0.197  12.184  0.00  0.00     0.048 H 
BRANCH  79  81
ATOM     81  C37 XN1 d   1       8.885   0.784  13.310  0.00  0.00    -0.068 C 
ATOM     82  H49 XN1 d   1       9.641   0.750  12.512  0.00  0.00     0.028 H 
ATOM     83  H50 XN1 d   1       9.001  -0.094  13.963  0.00  0.00     0.028 H 
ATOM     84  H51 XN1 d   1       9.019   1.701  13.902  0.00  0.00     0.028 H 
ENDBRANCH  79  81
BRANCH  79  85
ATOM     85  C15 XN1 d   1       7.493   1.843  11.587  0.00  0.00    -0.054 A 
ATOM     86  C20 XN1 d   1       7.653   1.404  10.220  0.00  0.00    -0.076 A 
ATOM     87  C19 XN1 d   1       7.648   2.351   9.153  0.00  0.00    -0.082 A 
ATOM     88  H32 XN1 d   1       7.778   0.349  10.004  0.00  0.00     0.084 H 
ATOM     89  C18 XN1 d   1       7.481   3.766   9.441  0.00  0.00    -0.083 A 
ATOM     90  H31 XN1 d   1       7.769   2.016   8.129  0.00  0.00     0.083 H 
ATOM     91  C17 XN1 d   1       7.318   4.233  10.823  0.00  0.00    -0.082 A 
ATOM     92  H30 XN1 d   1       7.477   4.483   8.628  0.00  0.00     0.083 H 
ATOM     93  C16 XN1 d   1       7.326   3.273  11.893  0.00  0.00    -0.076 A 
ATOM     94  H29 XN1 d   1       7.193   5.289  11.034  0.00  0.00     0.083 H 
ATOM     95  H28 XN1 d   1       7.210   3.600  12.920  0.00  0.00     0.084 H 
ENDBRANCH  79  85
ENDBRANCH  54  79
ENDBRANCH  51  54
ENDBRANCH   1  51
BRANCH   1  96
ATOM     96  O2  XN1 d   1       5.122   0.614  16.527  0.00  0.00    -0.394 OA
ATOM     97  H23 XN1 d   1       4.418   0.561  17.162  0.00  0.00     0.210 HD
ENDBRANCH   1  96
TORSDOF 18
