REMARK  18 active torsions:
REMARK  status: ('A' for Active; 'I' for Inactive)
REMARK    1  A    between atoms: N1_1  and  C31_39 
REMARK    2  A    between atoms: C2_3  and  C3_4 
REMARK       I    between atoms: C3_4  and  N2_6 
REMARK    3  A    between atoms: N2_6  and  C4_7 
REMARK    4  A    between atoms: C4_7  and  C7_10 
REMARK    5  A    between atoms: C4_7  and  C6_9 
REMARK    6  A    between atoms: C4_7  and  C5_8 
REMARK    7  A    between atoms: N3_11  and  C10_14 
REMARK    8  A    between atoms: C10_14  and  C11_15 
REMARK    9  A    between atoms: C11_15  and  C12_17 
REMARK   10  A    between atoms: C11_15  and  O2_16 
REMARK   11  A    between atoms: C12_17  and  C13_18 
REMARK   12  A    between atoms: C13_18  and  C21_26 
REMARK   13  A    between atoms: C13_18  and  C14_19 
REMARK   14  A    between atoms: C14_19  and  C39_49 
REMARK   15  A    between atoms: C14_19  and  C15_20 
REMARK   16  A    between atoms: N4_28  and  C22_29 
REMARK   17  A    between atoms: C23_30  and  O4_31 
REMARK   18  A    between atoms: C31_39  and  C32_40 
ROOT
ATOM      1  C10 XN2 d   1       5.092  -1.507  16.561  0.00  0.00     0.108 C 
ATOM      2  H20 XN2 d   1       6.141  -1.703  16.827  0.00  0.00     0.080 H 
ATOM      3  H21 XN2 d   1       4.538  -1.193  17.458  0.00  0.00     0.080 H 
ENDROOT
BRANCH   1   4
ATOM      4  N3  XN2 d   1       4.472  -2.771  16.007  0.00  0.00    -0.053 N 
ATOM      5  C2  XN2 d   1       5.384  -4.013  16.309  0.00  0.00     0.203 C 
ATOM      6  C1  XN2 d   1       4.586  -5.168  15.716  0.00  0.00     0.119 C 
ATOM      7  H4  XN2 d   1       5.519  -4.119  17.395  0.00  0.00     0.102 H 
ATOM      8  N1  XN2 d   1       3.118  -5.284  16.285  0.00  0.00    -0.063 N 
ATOM      9  H2  XN2 d   1       4.526  -5.025  14.627  0.00  0.00     0.080 H 
ATOM     10  H3  XN2 d   1       5.118  -6.106  15.934  0.00  0.00     0.080 H 
ATOM     11  C9  XN2 d   1       2.406  -4.057  15.871  0.00  0.00     0.106 C 
ATOM     12  H1  XN2 d   1       3.138  -5.372  17.289  0.00  0.00     0.280 HD
ATOM     13  C8  XN2 d   1       3.022  -2.764  16.440  0.00  0.00     0.107 C 
ATOM     14  H18 XN2 d   1       1.364  -4.127  16.216  0.00  0.00     0.078 H 
ATOM     15  H19 XN2 d   1       2.426  -3.997  14.773  0.00  0.00     0.078 H 
ATOM     16  H16 XN2 d   1       2.505  -1.883  16.033  0.00  0.00     0.078 H 
ATOM     17  H17 XN2 d   1       2.950  -2.757  17.538  0.00  0.00     0.078 H 
ATOM     18  H15 XN2 d   1       4.459  -2.693  15.002  0.00  0.00     0.281 HD
BRANCH   5  19
ATOM     19  C3  XN2 d   1       6.711  -4.050  15.650  0.00  0.00     0.251 C 
ATOM     20  N2  XN2 d   1       7.799  -4.446  16.411  0.00  0.00    -0.351 N 
ATOM     21  H5  XN2 d   1       7.581  -4.691  17.356  0.00  0.00     0.163 HD
ATOM     22  O1  XN2 d   1       6.784  -3.698  14.415  0.00  0.00    -0.271 OA
BRANCH  20  23
ATOM     23  C4  XN2 d   1       9.245  -4.568  16.053  0.00  0.00     0.022 C 
BRANCH  23  24
ATOM     24  C7  XN2 d   1       9.530  -5.506  14.912  0.00  0.00    -0.054 C 
ATOM     25  H12 XN2 d   1      10.613  -5.532  14.720  0.00  0.00     0.030 H 
ATOM     26  H13 XN2 d   1       9.007  -5.156  14.010  0.00  0.00     0.030 H 
ATOM     27  H14 XN2 d   1       9.179  -6.516  15.171  0.00  0.00     0.030 H 
ENDBRANCH  23  24
BRANCH  23  28
ATOM     28  C6  XN2 d   1       9.837  -3.326  15.749  0.00  0.00    -0.054 C 
ATOM     29  H9  XN2 d   1      10.896  -3.477  15.494  0.00  0.00     0.030 H 
ATOM     30  H10 XN2 d   1       9.761  -2.660  16.621  0.00  0.00     0.030 H 
ATOM     31  H11 XN2 d   1       9.316  -2.871  14.894  0.00  0.00     0.030 H 
ENDBRANCH  23  28
BRANCH  23  32
ATOM     32  C5  XN2 d   1      10.049  -5.068  17.284  0.00  0.00    -0.054 C 
ATOM     33  H6  XN2 d   1      11.112  -5.156  17.016  0.00  0.00     0.030 H 
ATOM     34  H7  XN2 d   1       9.667  -6.051  17.597  0.00  0.00     0.030 H 
ATOM     35  H8  XN2 d   1       9.938  -4.351  18.111  0.00  0.00     0.030 H 
ENDBRANCH  23  32
ENDBRANCH  20  23
ENDBRANCH   5  19
BRANCH   8  36
ATOM     36  C31 XN2 d   1       2.408  -6.407  15.697  0.00  0.00     0.107 C 
ATOM     37  H43 XN2 d   1       2.442  -6.295  14.603  0.00  0.00     0.083 H 
ATOM     38  H44 XN2 d   1       1.363  -6.364  16.038  0.00  0.00     0.083 H 
BRANCH  36  39
ATOM     39  C32 XN2 d   1       2.958  -7.777  16.044  0.00  0.00    -0.030 A 
ATOM     40  C36 XN2 d   1       3.702  -8.623  15.045  0.00  0.00    -0.040 A 
ATOM     41  C35 XN2 d   1       4.219  -9.965  15.465  0.00  0.00     0.105 A 
ATOM     42  H46 XN2 d   1       3.862  -8.265  14.034  0.00  0.00     0.088 H 
ATOM     43  C34 XN2 d   1       3.975 -10.400  16.841  0.00  0.00     0.105 A 
ATOM     44  O6  XN2 d   1       4.922 -11.017  14.900  0.00  0.00    -0.323 OA
ATOM     45  C37 XN2 d   1       3.240  -9.621  17.906  0.00  0.00    -0.047 A 
ATOM     46  O5  XN2 d   1       4.542 -11.657  16.990  0.00  0.00    -0.323 OA
ATOM     47  C33 XN2 d   1       2.752  -8.297  17.426  0.00  0.00    -0.072 A 
ATOM     48  H49 XN2 d   1       3.084  -9.987  18.914  0.00  0.00     0.087 H 
ATOM     49  H45 XN2 d   1       2.212  -7.671  18.128  0.00  0.00     0.084 H 
ATOM     50  C38 XN2 d   1       5.209 -12.201  15.787  0.00  0.00     0.115 A 
ATOM     51  H47 XN2 d   1       6.286 -12.369  15.937  0.00  0.00     0.118 H 
ATOM     52  H48 XN2 d   1       4.741 -13.128  15.424  0.00  0.00     0.118 H 
ENDBRANCH  36  39
ENDBRANCH   8  36
ENDBRANCH   1   4
BRANCH   1  53
ATOM     53  C11 XN2 d   1       5.037  -0.433  15.553  0.00  0.00     0.059 C 
ATOM     54  H22 XN2 d   1       4.095  -0.434  14.985  0.00  0.00     0.085 H 
BRANCH  53  55
ATOM     55  C12 XN2 d   1       6.197  -0.217  14.654  0.00  0.00    -0.029 C 
ATOM     56  H24 XN2 d   1       6.370  -1.167  14.127  0.00  0.00     0.038 H 
ATOM     57  H25 XN2 d   1       7.060   0.007  15.299  0.00  0.00     0.038 H 
BRANCH  55  58
ATOM     58  C13 XN2 d   1       6.150   0.869  13.593  0.00  0.00     0.020 C 
ATOM     59  H26 XN2 d   1       5.985   1.843  14.077  0.00  0.00     0.054 H 
BRANCH  58  60
ATOM     60  C21 XN2 d   1       4.997   0.611  12.505  0.00  0.00     0.157 C 
ATOM     61  N4  XN2 d   1       4.461   1.752  12.151  0.00  0.00    -0.360 N 
ATOM     62  H33 XN2 d   1       4.793   2.583  12.598  0.00  0.00     0.162 HD
ATOM     63  O3  XN2 d   1       4.651  -0.542  12.012  0.00  0.00    -0.177 OA
BRANCH  61  64
ATOM     64  C22 XN2 d   1       3.419   1.890  11.155  0.00  0.00     0.062 C 
ATOM     65  C30 XN2 d   1       1.954   1.715  11.564  0.00  0.00    -0.027 A 
ATOM     66  C25 XN2 d   1       1.054   2.722  10.670  0.00  0.00    -0.047 A 
ATOM     67  C29 XN2 d   1       1.287   0.882  12.513  0.00  0.00    -0.074 A 
ATOM     68  C24 XN2 d   1       2.100   3.384   9.835  0.00  0.00    -0.014 C 
ATOM     69  C26 XN2 d   1      -0.360   2.771  10.835  0.00  0.00    -0.076 A 
ATOM     70  C23 XN2 d   1       3.430   3.272  10.534  0.00  0.00     0.063 C 
ATOM     71  H37 XN2 d   1       2.156   2.889   8.854  0.00  0.00     0.044 H 
ATOM     72  H38 XN2 d   1       1.844   4.445   9.697  0.00  0.00     0.044 H 
ATOM     73  H35 XN2 d   1       4.225   3.320   9.776  0.00  0.00     0.087 H 
ATOM     74  C27 XN2 d   1      -0.973   1.876  11.843  0.00  0.00    -0.082 A 
ATOM     75  H39 XN2 d   1      -0.969   3.443  10.241  0.00  0.00     0.084 H 
ATOM     76  C28 XN2 d   1      -0.150   0.933  12.679  0.00  0.00    -0.082 A 
ATOM     77  H40 XN2 d   1      -2.048   1.901  11.983  0.00  0.00     0.083 H 
ATOM     78  H41 XN2 d   1      -0.634   0.291  13.406  0.00  0.00     0.083 H 
ATOM     79  H42 XN2 d   1       1.868   0.198  13.121  0.00  0.00     0.084 H 
ATOM     80  H34 XN2 d   1       3.639   1.141  10.380  0.00  0.00     0.084 H 
BRANCH  70  81
ATOM     81  O4  XN2 d   1       3.710   4.288  11.495  0.00  0.00    -0.393 OA
ATOM     82  H36 XN2 d   1       3.703   5.137  11.068  0.00  0.00     0.210 HD
ENDBRANCH  70  81
ENDBRANCH  61  64
ENDBRANCH  58  60
BRANCH  58  83
ATOM     83  C14 XN2 d   1       7.587   0.864  12.798  0.00  0.00    -0.021 C 
ATOM     84  H27 XN2 d   1       7.549  -0.110  12.287  0.00  0.00     0.048 H 
BRANCH  83  85
ATOM     85  C39 XN2 d   1       8.810   0.899  13.231  0.00  0.00    -0.068 C 
ATOM     86  H50 XN2 d   1       9.502   0.880  12.376  0.00  0.00     0.028 H 
ATOM     87  H51 XN2 d   1       8.997   0.026  13.873  0.00  0.00     0.028 H 
ATOM     88  H52 XN2 d   1       8.968   1.821  13.810  0.00  0.00     0.028 H 
ENDBRANCH  83  85
BRANCH  83  89
ATOM     89  C15 XN2 d   1       7.548   1.976  11.672  0.00  0.00    -0.054 A 
ATOM     90  C20 XN2 d   1       7.711   1.532  10.253  0.00  0.00    -0.076 A 
ATOM     91  C19 XN2 d   1       7.673   2.509   9.160  0.00  0.00    -0.082 A 
ATOM     92  H32 XN2 d   1       7.858   0.481  10.031  0.00  0.00     0.084 H 
ATOM     93  C18 XN2 d   1       7.467   3.973   9.458  0.00  0.00    -0.083 A 
ATOM     94  H31 XN2 d   1       7.793   2.178   8.135  0.00  0.00     0.083 H 
ATOM     95  C17 XN2 d   1       7.297   4.460  10.893  0.00  0.00    -0.082 A 
ATOM     96  H30 XN2 d   1       7.439   4.687   8.643  0.00  0.00     0.083 H 
ATOM     97  C16 XN2 d   1       7.335   3.476  11.991  0.00  0.00    -0.076 A 
ATOM     98  H29 XN2 d   1       7.151   5.513  11.103  0.00  0.00     0.083 H 
ATOM     99  H28 XN2 d   1       7.214   3.802  13.018  0.00  0.00     0.084 H 
ENDBRANCH  83  89
ENDBRANCH  58  83
ENDBRANCH  55  58
ENDBRANCH  53  55
BRANCH  53 100
ATOM    100  O2  XN2 d   1       5.191   0.590  16.510  0.00  0.00    -0.394 OA
ATOM    101  H23 XN2 d   1       4.485   0.538  17.143  0.00  0.00     0.210 HD
ENDBRANCH  53 100
ENDBRANCH   1  53
TORSDOF 18
