REMARK  7 active torsions:
REMARK  status: ('A' for Active; 'I' for Inactive)
REMARK    1  A    between atoms: N1_1  and  C11_20 
REMARK    2  A    between atoms: C6_6  and  N6_7 
REMARK    3  A    between atoms: C9_10  and  C1'_11 
REMARK    4  A    between atoms: C2'_12  and  O2'_13 
REMARK    5  A    between atoms: C3'_14  and  O3'_15 
REMARK    6  A    between atoms: C4'_16  and  C5'_18 
REMARK    7  A    between atoms: C5'_18  and  O5'_19 
ROOT
ATOM      1  N1  FM2 d   1     144.539  70.248  64.745  0.00  0.00    -0.331 N 
ATOM      2  C2  FM2 d   1     143.735  69.698  63.719  0.00  0.00     0.068 A 
ATOM      3  N3  FM2 d   1     143.651  68.354  63.512  0.00  0.00    -0.239 NA
ATOM      4  C4  FM2 d   1     144.416  67.601  64.417  0.00  0.00     0.119 A 
ATOM      5  C5  FM2 d   1     145.226  68.064  65.477  0.00  0.00     0.124 A 
ATOM      6  C6  FM2 d   1     145.329  69.484  65.694  0.00  0.00     0.132 A 
ATOM      7  N7  FM2 d   1     145.811  67.005  66.139  0.00  0.00    -0.272 N 
ATOM      8  N8  FM2 d   1     145.383  65.949  65.500  0.00  0.00    -0.174 NA
ATOM      9  C9  FM2 d   1     144.538  66.215  64.436  0.00  0.00     0.117 A 
ATOM     10  H1  FM2 d   1     143.169  70.365  63.079  0.00  0.00     0.143 H 
ATOM     11  H4  FM2 d   1     146.442  67.039  66.952  0.00  0.00     0.189 HD
ENDROOT
BRANCH   9  12
ATOM     12  C1' FM2 d   1     144.025  65.011  63.623  0.00  0.00     0.112 C 
ATOM     13  C2' FM2 d   1     143.105  65.325  62.402  0.00  0.00     0.093 C 
ATOM     14  C3' FM2 d   1     143.929  64.787  61.174  0.00  0.00     0.090 C 
ATOM     15  H6  FM2 d   1     142.950  66.409  62.301  0.00  0.00     0.091 H 
ATOM     16  C4' FM2 d   1     145.352  64.656  61.669  0.00  0.00     0.087 C 
ATOM     17  H8  FM2 d   1     143.886  65.526  60.361  0.00  0.00     0.091 H 
ATOM     18  O4' FM2 d   1     145.199  64.358  63.097  0.00  0.00    -0.367 OA
ATOM     19  H10 FM2 d   1     145.855  63.821  61.159  0.00  0.00     0.090 H 
ATOM     20  H5  FM2 d   1     143.481  64.339  64.302  0.00  0.00     0.097 H 
BRANCH  13  21
ATOM     21  O2' FM2 d   1     141.842  64.702  62.574  0.00  0.00    -0.390 OA
ATOM     22  H7  FM2 d   1     141.961  63.762  62.643  0.00  0.00     0.210 HD
ENDBRANCH  13  21
BRANCH  14  23
ATOM     23  O3' FM2 d   1     143.449  63.531  60.660  0.00  0.00    -0.390 OA
ATOM     24  H9  FM2 d   1     142.548  63.630  60.375  0.00  0.00     0.210 HD
ENDBRANCH  14  23
BRANCH  16  25
ATOM     25  C5' FM2 d   1     146.188  65.962  61.428  0.00  0.00     0.043 C 
ATOM     26  H11 FM2 d   1     145.557  66.836  61.647  0.00  0.00     0.078 H 
ATOM     27  H12 FM2 d   1     146.507  65.994  60.376  0.00  0.00     0.078 H 
BRANCH  25  28
ATOM     28  O5' FM2 d   1     147.346  66.002  62.267  0.00  0.00    -0.398 OA
ATOM     29  H13 FM2 d   1     147.830  66.802  62.099  0.00  0.00     0.209 HD
ENDBRANCH  25  28
ENDBRANCH  16  25
ENDBRANCH   9  12
BRANCH   6  30
ATOM     30  N6  FM2 d   1     146.014  70.060  66.576  0.00  0.00    -0.383 N 
ATOM     31  H2  FM2 d   1     146.569  69.504  67.242  0.00  0.00     0.157 HD
ATOM     32  H3  FM2 d   1     146.020  71.088  66.633  0.00  0.00     0.157 HD
ENDBRANCH   6  30
BRANCH   1  33
ATOM     33  C11 FM2 d   1     144.617  71.678  64.769  0.00  0.00    -0.012 C 
ATOM     34  H14 FM2 d   1     143.961  72.094  63.991  0.00  0.00     0.057 H 
ATOM     35  H15 FM2 d   1     145.654  71.992  64.580  0.00  0.00     0.057 H 
ATOM     36  H16 FM2 d   1     144.296  72.046  65.755  0.00  0.00     0.057 H 
ENDBRANCH   1  33
TORSDOF 7
