REMARK  7 active torsions:
REMARK  status: ('A' for Active; 'I' for Inactive)
REMARK    1  A    between atoms: C1_1  and  C6_6 
REMARK    2  A    between atoms: C2_2  and  C3_3 
REMARK    3  A    between atoms: C4_4  and  C13_13 
REMARK    4  A    between atoms: C9_9  and  C5_5 
REMARK    5  A    between atoms: C5_5  and  P1_19 
REMARK    6  A    between atoms: C16_16  and  C12_12 
REMARK    7  A    between atoms: C12_12  and  P2_23 
ROOT
ATOM      1  C1  FEP d   1      32.565  10.376  90.186  0.00  0.00    -0.073 C 
ATOM      2  C2  FEP d   1      33.923  10.112  90.090  0.00  0.00    -0.082 C 
ATOM      3  H1  FEP d   1      32.094  10.383  91.168  0.00  0.00     0.084 H 
ATOM      4  H2  FEP d   1      34.423  10.083  89.123  0.00  0.00     0.083 H 
ENDROOT
BRANCH   2   5
ATOM      5  C3  FEP d   1      34.626   9.885  91.270  0.00  0.00    -0.082 C 
ATOM      6  C4  FEP d   1      34.667  10.842  92.279  0.00  0.00    -0.073 C 
ATOM      7  H4  FEP d   1      34.125  11.778  92.154  0.00  0.00     0.084 H 
ATOM      8  H3  FEP d   1      35.153   8.942  91.406  0.00  0.00     0.083 H 
BRANCH   6   9
ATOM      9  C13 FEP d   1      35.394  10.619  93.450  0.00  0.00    -0.036 A 
ATOM     10  C18 FEP d   1      36.773  10.370  93.380  0.00  0.00    -0.072 A 
ATOM     11  C17 FEP d   1      37.556  10.439  94.532  0.00  0.00    -0.070 A 
ATOM     12  H12 FEP d   1      37.231  10.123  92.429  0.00  0.00     0.084 H 
ATOM     13  C16 FEP d   1      36.959  10.764  95.779  0.00  0.00     0.027 A 
ATOM     14  H11 FEP d   1      38.621  10.245  94.476  0.00  0.00     0.084 H 
ATOM     15  C15 FEP d   1      35.584  11.011  95.835  0.00  0.00    -0.070 A 
ATOM     16  C14 FEP d   1      34.810  10.938  94.678  0.00  0.00    -0.072 A 
ATOM     17  H10 FEP d   1      35.118  11.260  96.782  0.00  0.00     0.084 H 
ATOM     18  H9  FEP d   1      33.745  11.131  94.732  0.00  0.00     0.084 H 
BRANCH  13  19
ATOM     19  C12 FEP d   1      37.637  10.739  96.857  0.00  0.00     0.380 C 
ATOM     20  F3  FEP d   1      37.709   9.231  97.199  0.00  0.00    -0.185 F 
ATOM     21  F4  FEP d   1      38.674  11.088  96.575  0.00  0.00    -0.185 F 
BRANCH  19  22
ATOM     22  P2  FEP d   1      37.206  11.369  98.615  0.00  0.00     0.339 P 
ATOM     23  OP6 FEP d   1      35.749  10.808  99.055  0.00  0.00    -0.635 OA
ATOM     24  OP5 FEP d   1      38.337  10.865  99.669  0.00  0.00    -0.635 OA
ATOM     25  OP4 FEP d   1      37.181  12.995  98.601  0.00  0.00    -0.635 OA
ENDBRANCH  19  22
ENDBRANCH  13  19
ENDBRANCH   6   9
ENDBRANCH   2   5
BRANCH   1  26
ATOM     26  C6  FEP d   1      31.796  10.630  89.071  0.00  0.00    -0.036 A 
ATOM     27  C11 FEP d   1      30.998  11.775  89.081  0.00  0.00    -0.072 A 
ATOM     28  C10 FEP d   1      29.846  11.813  88.287  0.00  0.00    -0.070 A 
ATOM     29  H8  FEP d   1      31.267  12.625  89.697  0.00  0.00     0.084 H 
ATOM     30  C9  FEP d   1      29.475  10.727  87.481  0.00  0.00     0.027 A 
ATOM     31  H7  FEP d   1      29.226  12.702  88.295  0.00  0.00     0.084 H 
ATOM     32  C8  FEP d   1      30.287   9.597  87.477  0.00  0.00    -0.070 A 
ATOM     33  C7  FEP d   1      31.433   9.550  88.264  0.00  0.00    -0.072 A 
ATOM     34  H6  FEP d   1      30.025   8.748  86.856  0.00  0.00     0.084 H 
ATOM     35  H5  FEP d   1      32.054   8.661  88.251  0.00  0.00     0.084 H 
BRANCH  30  36
ATOM     36  C5  FEP d   1      28.471  10.817  86.684  0.00  0.00     0.380 C 
ATOM     37  F1  FEP d   1      28.062   9.348  86.414  0.00  0.00    -0.185 F 
ATOM     38  F2  FEP d   1      27.631  11.301  87.290  0.00  0.00    -0.185 F 
BRANCH  36  39
ATOM     39  P1  FEP d   1      28.403  11.417  84.888  0.00  0.00     0.339 P 
ATOM     40  OP3 FEP d   1      29.460  10.555  84.051  0.00  0.00    -0.635 OA
ATOM     41  OP2 FEP d   1      26.940  11.201  84.266  0.00  0.00    -0.635 OA
ATOM     42  OP1 FEP d   1      28.813  12.946  84.881  0.00  0.00    -0.635 OA
ENDBRANCH  36  39
ENDBRANCH  30  36
ENDBRANCH   1  26
TORSDOF 7
