REMARK  3 active torsions:
REMARK  status: ('A' for Active; 'I' for Inactive)
REMARK    1  A    between atoms: C10_11  and  C19_21 
REMARK    2  A    between atoms: C13_14  and  C18_20 
REMARK    3  A    between atoms: C17_18  and  O17_19 
ROOT
ATOM      1  C1  DHT d   1      24.052  10.027  31.573  0.00  0.00    -0.051 C 
ATOM      2  C2  DHT d   1      25.577  10.203  31.468  0.00  0.00    -0.009 C 
ATOM      3  C3  DHT d   1      26.014  11.625  31.666  0.00  0.00     0.127 C 
ATOM      4  O3  DHT d   1      26.845  12.208  30.960  0.00  0.00    -0.298 OA
ATOM      5  C4  DHT d   1      25.343  12.387  32.759  0.00  0.00    -0.006 C 
ATOM      6  C5  DHT d   1      23.856  12.146  32.914  0.00  0.00    -0.041 C 
ATOM      7  C6  DHT d   1      23.253  12.800  34.171  0.00  0.00    -0.060 C 
ATOM      8  C7  DHT d   1      21.723  12.771  34.070  0.00  0.00    -0.061 C 
ATOM      9  C8  DHT d   1      21.240  11.289  34.047  0.00  0.00    -0.046 C 
ATOM     10  C9  DHT d   1      21.895  10.578  32.833  0.00  0.00    -0.043 C 
ATOM     11  C10 DHT d   1      23.426  10.659  32.833  0.00  0.00    -0.036 C 
ATOM     12  C11 DHT d   1      21.401   9.098  32.714  0.00  0.00    -0.060 C 
ATOM     13  C12 DHT d   1      19.874   9.005  32.701  0.00  0.00    -0.055 C 
ATOM     14  C13 DHT d   1      19.226   9.766  33.859  0.00  0.00    -0.014 C 
ATOM     15  C14 DHT d   1      19.743  11.223  33.827  0.00  0.00    -0.041 C 
ATOM     16  C15 DHT d   1      18.841  11.942  34.851  0.00  0.00    -0.058 C 
ATOM     17  C16 DHT d   1      17.455  11.271  34.693  0.00  0.00    -0.040 C 
ATOM     18  C17 DHT d   1      17.756  10.095  33.741  0.00  0.00     0.043 C 
ATOM     19  H1  DHT d   1      23.590  10.491  30.689  0.00  0.00     0.034 H 
ATOM     20  H2  DHT d   1      23.829   8.950  31.581  0.00  0.00     0.034 H 
ATOM     21  H3  DHT d   1      25.901   9.872  30.470  0.00  0.00     0.044 H 
ATOM     22  H4  DHT d   1      26.056   9.578  32.236  0.00  0.00     0.044 H 
ATOM     23  H5  DHT d   1      25.492  13.459  32.564  0.00  0.00     0.044 H 
ATOM     24  H6  DHT d   1      25.829  12.116  33.708  0.00  0.00     0.044 H 
ATOM     25  H7  DHT d   1      23.389  12.645  32.052  0.00  0.00     0.041 H 
ATOM     26  H8  DHT d   1      23.597  13.842  34.245  0.00  0.00     0.033 H 
ATOM     27  H9  DHT d   1      23.573  12.244  35.065  0.00  0.00     0.033 H 
ATOM     28  H10 DHT d   1      21.405  13.276  33.146  0.00  0.00     0.033 H 
ATOM     29  H11 DHT d   1      21.287  13.287  34.938  0.00  0.00     0.033 H 
ATOM     30  H12 DHT d   1      21.513  10.789  34.988  0.00  0.00     0.041 H 
ATOM     31  H13 DHT d   1      21.551  11.108  31.932  0.00  0.00     0.041 H 
ATOM     32  H14 DHT d   1      21.785   8.525  33.571  0.00  0.00     0.033 H 
ATOM     33  H15 DHT d   1      21.791   8.667  31.780  0.00  0.00     0.033 H 
ATOM     34  H16 DHT d   1      19.585   7.946  32.771  0.00  0.00     0.034 H 
ATOM     35  H17 DHT d   1      19.504   9.424  31.754  0.00  0.00     0.034 H 
ATOM     36  H18 DHT d   1      19.551  11.658  32.835  0.00  0.00     0.042 H 
ATOM     37  H19 DHT d   1      18.779  13.017  34.626  0.00  0.00     0.033 H 
ATOM     38  H20 DHT d   1      19.225  11.802  35.872  0.00  0.00     0.033 H 
ATOM     39  H21 DHT d   1      16.726  11.965  34.249  0.00  0.00     0.036 H 
ATOM     40  H22 DHT d   1      17.076  10.911  35.661  0.00  0.00     0.036 H 
ATOM     41  H23 DHT d   1      17.594  10.444  32.711  0.00  0.00     0.084 H 
ENDROOT
BRANCH  11  42
ATOM     42  C19 DHT d   1      24.027   9.937  34.076  0.00  0.00    -0.068 C 
ATOM     43  H28 DHT d   1      25.124  10.012  34.048  0.00  0.00     0.028 H 
ATOM     44  H29 DHT d   1      23.731   8.878  34.063  0.00  0.00     0.028 H 
ATOM     45  H30 DHT d   1      23.650  10.412  34.994  0.00  0.00     0.028 H 
ENDBRANCH  11  42
BRANCH  14  46
ATOM     46  C18 DHT d   1      19.561   9.016  35.164  0.00  0.00    -0.066 C 
ATOM     47  H25 DHT d   1      19.163   7.992  35.111  0.00  0.00     0.028 H 
ATOM     48  H26 DHT d   1      19.107   9.543  36.016  0.00  0.00     0.028 H 
ATOM     49  H27 DHT d   1      20.652   8.978  35.295  0.00  0.00     0.028 H 
ENDBRANCH  14  46
BRANCH  18  50
ATOM     50  O17 DHT d   1      16.820   9.014  33.948  0.00  0.00    -0.395 OA
ATOM     51  H24 DHT d   1      15.938   9.325  33.782  0.00  0.00     0.210 HD
ENDBRANCH  18  50
TORSDOF 3
