REMARK  16 active torsions:
REMARK  status: ('A' for Active; 'I' for Inactive)
REMARK       I    between atoms: N_3  and  C1_1 
REMARK    1  A    between atoms: C1_1  and  C2_4 
REMARK    2  A    between atoms: C3_18  and  N_3 
REMARK    3  A    between atoms: C5_11  and  O5_14 
REMARK    4  A    between atoms: O5_14  and  C8_15 
REMARK    5  A    between atoms: O4_37  and  C1_16 
REMARK    6  A    between atoms: C2_17  and  O2_22 
REMARK    7  A    between atoms: C4_19  and  O4_23 
REMARK    8  A    between atoms: C5_20  and  C6_21 
REMARK    9  A    between atoms: C6_21  and  O6_25 
REMARK   10  A    between atoms: C1_26  and  O1_35 
REMARK   11  A    between atoms: N2_34  and  C2_27 
REMARK   12  A    between atoms: C3_28  and  O3_36 
REMARK   13  A    between atoms: C4_29  and  O4_37 
REMARK   14  A    between atoms: C5_30  and  C6_31 
REMARK   15  A    between atoms: C6_31  and  O6_39 
REMARK   16  A    between atoms: C7_32  and  C8_33 
REMARK       I    between atoms: C7_32  and  N2_34 
ROOT
ATOM      1  H5  BEK d   1      -2.457  -8.756   2.429  0.00  0.00     0.133 H 
ATOM      2  H6  BEK d   1      -0.758  -9.769   0.110  0.00  0.00     0.093 H 
ATOM      3  H7  BEK d   1       0.115  -8.075   2.443  0.00  0.00     0.080 H 
ATOM      4  H8  BEK d   1       0.298  -6.138   1.035  0.00  0.00     0.090 H 
ATOM      5  H9  BEK d   1      -1.873  -6.476   2.034  0.00  0.00     0.090 H 
ATOM      6  C1  GAL d   1      -2.282  -8.956   1.362  0.00  0.00     0.159 C 
ATOM      7  C2  GAL d   1      -0.860  -9.400   1.141  0.00  0.00     0.105 C 
ATOM      8  C3  GAL d   1       0.111  -8.271   1.361  0.00  0.00     0.068 C 
ATOM      9  C4  GAL d   1      -0.319  -6.971   0.668  0.00  0.00     0.084 C 
ATOM     10  C5  GAL d   1      -1.769  -6.668   0.956  0.00  0.00     0.088 C 
ATOM     11  O5  GAL d   1      -2.588  -7.796   0.584  0.00  0.00    -0.349 OA
ENDROOT
BRANCH   6  12
ATOM     12  O4  NAG d   1      -3.099  -9.976   0.905  0.00  0.00    -0.348 OA
BRANCH  12  13
ATOM     13  C4  NAG d   1      -4.490  -9.884   1.113  0.00  0.00     0.095 C 
ATOM     14  C3  NAG d   1      -5.199 -10.329  -0.173  0.00  0.00     0.087 C 
ATOM     15  C2  NAG d   1      -6.721 -10.414   0.034  0.00  0.00     0.086 C 
ATOM     16  H17 BEK d   1      -4.839 -11.335  -0.433  0.00  0.00     0.090 H 
ATOM     17  C1  NAG d   1      -6.925 -11.363   1.244  0.00  0.00     0.151 C 
ATOM     18  H16 BEK d   1      -7.133  -9.417   0.249  0.00  0.00     0.084 H 
ATOM     19  O5  NAG d   1      -6.261 -10.829   2.395  0.00  0.00    -0.349 OA
ATOM     20  H15 BEK d   1      -6.520 -12.357   1.002  0.00  0.00     0.132 H 
ATOM     21  C5  NAG d   1      -4.844 -10.849   2.235  0.00  0.00     0.089 C 
ATOM     22  H19 BEK d   1      -4.515 -11.860   1.953  0.00  0.00     0.090 H 
ATOM     23  H18 BEK d   1      -4.780  -8.856   1.377  0.00  0.00     0.091 H 
BRANCH  14  24
ATOM     24  O3  NAG d   1      -4.858  -9.447  -1.243  0.00  0.00    -0.391 OA
ATOM     25  H27 BEK d   1      -5.130  -8.564  -1.023  0.00  0.00     0.210 HD
ENDBRANCH  14  24
BRANCH  15  26
ATOM     26  N2  NAG d   1      -7.387 -10.976  -1.143  0.00  0.00    -0.349 N 
ATOM     27  C7  NAG d   1      -8.465 -10.397  -1.686  0.00  0.00     0.214 C 
ATOM     28  O7  NAG d   1      -9.028  -9.399  -1.222  0.00  0.00    -0.274 OA
ATOM     29  H25 BEK d   1      -7.027 -11.815  -1.552  0.00  0.00     0.163 HD
BRANCH  27  30
ATOM     30  C8  NAG d   1      -9.016 -11.032  -2.956  0.00  0.00    -0.003 C 
ATOM     31  H22 BEK d   1      -9.895 -10.465  -3.298  0.00  0.00     0.040 H 
ATOM     32  H23 BEK d   1      -9.308 -12.072  -2.749  0.00  0.00     0.040 H 
ATOM     33  H24 BEK d   1      -8.243 -11.017  -3.739  0.00  0.00     0.040 H 
ENDBRANCH  27  30
ENDBRANCH  15  26
BRANCH  17  34
ATOM     34  O1  NAG d   1      -8.269 -11.464   1.553  0.00  0.00    -0.369 OA
ATOM     35  H26 BEK d   1      -8.379 -12.042   2.299  0.00  0.00     0.212 HD
ENDBRANCH  17  34
BRANCH  21  36
ATOM     36  C6  NAG d   1      -4.203 -10.479   3.560  0.00  0.00     0.043 C 
ATOM     37  H20 BEK d   1      -3.109 -10.558   3.472  0.00  0.00     0.078 H 
ATOM     38  H21 BEK d   1      -4.559 -11.165   4.343  0.00  0.00     0.078 H 
BRANCH  36  39
ATOM     39  O6  NAG d   1      -4.550  -9.160   3.902  0.00  0.00    -0.398 OA
ATOM     40  H28 BEK d   1      -4.147  -8.933   4.732  0.00  0.00     0.209 HD
ENDBRANCH  36  39
ENDBRANCH  21  36
ENDBRANCH  12  13
ENDBRANCH   6  12
BRANCH   7  41
ATOM     41  O2  GAL d   1      -0.536 -10.440   2.054  0.00  0.00    -0.388 OA
ATOM     42  H12 BEK d   1      -1.138 -11.165   1.933  0.00  0.00     0.210 HD
ENDBRANCH   7  41
BRANCH   8  43
ATOM     43  N   BEK d   1       1.468  -8.587   0.986  0.00  0.00    -0.358 N 
ATOM     44  C1  BEK d   1       2.659  -8.288   1.589  0.00  0.00     0.192 C 
ATOM     45  O   BEK d   1       2.535  -7.644   2.772  0.00  0.00    -0.171 OA
ATOM     46  H1  BEK d   1       1.552  -9.115   0.141  0.00  0.00     0.162 HD
BRANCH  44  47
ATOM     47  C2  BEK d   1       3.787  -8.755   0.903  0.00  0.00     0.101 A 
ATOM     48  C3  BEK d   1       4.717  -9.522   1.703  0.00  0.00     0.175 A 
ATOM     49  F3  BEK d   1       4.502  -9.723   2.851  0.00  0.00    -0.202 F 
ATOM     50  C4  BEK d   1       5.901 -10.033   1.104  0.00  0.00     0.192 A 
ATOM     51  C5  BEK d   1       6.222  -9.797  -0.316  0.00  0.00     0.152 A 
ATOM     52  F4  BEK d   1       6.587 -10.612   1.744  0.00  0.00    -0.200 F 
ATOM     53  C6  BEK d   1       5.270  -9.010  -1.141  0.00  0.00     0.192 A 
ATOM     54  C7  BEK d   1       4.060  -8.489  -0.551  0.00  0.00     0.175 A 
ATOM     55  F6  BEK d   1       5.467  -8.814  -2.216  0.00  0.00    -0.200 F 
ATOM     56  F7  BEK d   1       3.316  -7.861  -1.235  0.00  0.00    -0.202 F 
BRANCH  51  57
ATOM     57  O5  BEK d   1       7.225 -10.261  -0.676  0.00  0.00    -0.350 OA
BRANCH  57  58
ATOM     58  C8  BEK d   1       7.841 -10.218  -1.947  0.00  0.00     0.011 C 
ATOM     59  H2  BEK d   1       8.790 -10.774  -1.914  0.00  0.00     0.067 H 
ATOM     60  H3  BEK d   1       8.038  -9.172  -2.224  0.00  0.00     0.067 H 
ATOM     61  H4  BEK d   1       7.175 -10.675  -2.693  0.00  0.00     0.067 H 
ENDBRANCH  57  58
ENDBRANCH  51  57
ENDBRANCH  44  47
ENDBRANCH   8  43
BRANCH  10  62
ATOM     62  C6  GAL d   1      -2.300  -5.484   0.198  0.00  0.00     0.043 C 
ATOM     63  H10 BEK d   1      -2.145  -5.644  -0.879  0.00  0.00     0.078 H 
ATOM     64  H11 BEK d   1      -1.761  -4.579   0.515  0.00  0.00     0.078 H 
BRANCH  62  65
ATOM     65  O6  GAL d   1      -3.686  -5.316   0.451  0.00  0.00    -0.398 OA
ATOM     66  H14 BEK d   1      -4.154  -6.096   0.175  0.00  0.00     0.209 HD
ENDBRANCH  62  65
ENDBRANCH  10  62
BRANCH   9  67
ATOM     67  O4  GAL d   1      -0.109  -7.138  -0.708  0.00  0.00    -0.391 OA
ATOM     68  H13 BEK d   1      -0.352  -6.340  -1.163  0.00  0.00     0.210 HD
ENDBRANCH   9  67
TORSDOF 16
