REMARK  6 active torsions:
REMARK  status: ('A' for Active; 'I' for Inactive)
REMARK    1  A    between atoms: N1_1  and  C1'_9 
REMARK    2  A    between atoms: C2'_10  and  O2'_13 
REMARK    3  A    between atoms: C3'_11  and  O3'_14 
REMARK    4  A    between atoms: C4'_12  and  C5'_16 
REMARK    5  A    between atoms: C5'_16  and  O5'_17 
REMARK    6  A    between atoms: O5'_17  and  P_18 
ROOT
ATOM      1  C1' UP6 d   1      40.406  39.774  37.400  0.00  0.00     0.158 C 
ATOM      2  C2' UP6 d   1      39.704  39.803  36.062  0.00  0.00     0.106 C 
ATOM      3  C3' UP6 d   1      38.549  38.844  36.272  0.00  0.00     0.091 C 
ATOM      4  C4' UP6 d   1      39.115  37.847  37.234  0.00  0.00     0.089 C 
ATOM      5  O4' UP6 d   1      40.083  38.557  38.006  0.00  0.00    -0.352 OA
ATOM      6  H3  UP6 d   1      39.940  40.574  37.994  0.00  0.00     0.125 H 
ATOM      7  H4  UP6 d   1      40.371  39.422  35.275  0.00  0.00     0.094 H 
ATOM      8  H5  UP6 d   1      38.252  38.361  35.330  0.00  0.00     0.091 H 
ATOM      9  H6  UP6 d   1      38.290  37.532  37.890  0.00  0.00     0.090 H 
ENDROOT
BRANCH   1  10
ATOM     10  N1  UP6 d   1      41.829  40.025  37.490  0.00  0.00    -0.187 N 
ATOM     11  C2  UP6 d   1      42.736  39.235  36.794  0.00  0.00     0.348 A 
ATOM     12  N3  UP6 d   1      44.055  39.563  36.994  0.00  0.00    -0.273 N 
ATOM     13  O2  UP6 d   1      42.356  38.345  36.102  0.00  0.00    -0.245 OA
ATOM     14  C4  UP6 d   1      44.526  40.592  37.811  0.00  0.00     0.268 A 
ATOM     15  H1  UP6 d   1      44.739  39.016  36.511  0.00  0.00     0.173 HD
ATOM     16  C5  UP6 d   1      43.522  41.340  38.464  0.00  0.00     0.087 A 
ATOM     17  O4  UP6 d   1      45.712  40.765  37.909  0.00  0.00    -0.266 OA
ATOM     18  N6  UP6 d   1      42.251  41.051  38.298  0.00  0.00    -0.173 NA
ATOM     19  H2  UP6 d   1      43.805  42.167  39.114  0.00  0.00     0.126 H 
ENDBRANCH   1  10
BRANCH   2  20
ATOM     20  O2' UP6 d   1      39.291  41.117  35.694  0.00  0.00    -0.388 OA
ATOM     21  H7  UP6 d   1      38.741  41.478  36.379  0.00  0.00     0.210 HD
ENDBRANCH   2  20
BRANCH   3  22
ATOM     22  O3' UP6 d   1      37.424  39.541  36.835  0.00  0.00    -0.390 OA
ATOM     23  H8  UP6 d   1      36.744  38.916  37.056  0.00  0.00     0.210 HD
ENDBRANCH   3  22
BRANCH   4  24
ATOM     24  C5' UP6 d   1      39.750  36.580  36.710  0.00  0.00     0.059 C 
ATOM     25  H9  UP6 d   1      39.984  35.906  37.547  0.00  0.00     0.079 H 
ATOM     26  H10 UP6 d   1      40.675  36.824  36.166  0.00  0.00     0.079 H 
BRANCH  24  27
ATOM     27  O5' UP6 d   1      38.817  35.948  35.824  0.00  0.00    -0.280 OA
BRANCH  27  28
ATOM     28  P   UP6 d   1      39.175  34.604  35.035  0.00  0.00     0.422 P 
ATOM     29  O1P UP6 d   1      40.441  34.707  34.215  0.00  0.00    -0.617 OA
ATOM     30  O2P UP6 d   1      37.995  34.386  34.144  0.00  0.00    -0.617 OA
ATOM     31  O3P UP6 d   1      39.220  33.423  36.116  0.00  0.00    -0.617 OA
ENDBRANCH  27  28
ENDBRANCH  24  27
ENDBRANCH   4  24
TORSDOF 6
