REMARK  3 active torsions:
REMARK  status: ('A' for Active; 'I' for Inactive)
REMARK    1  A    between atoms: CK2_2  and  CK7_7 
REMARK    2  A    between atoms: CK3_3  and  OK2_14 
REMARK    3  A    between atoms: CK4_4  and  OK1_13 
ROOT
ATOM      1  CK1 BPY d   1      20.619 -23.165  72.433  0.00  0.00    -0.069 A 
ATOM      2  CK2 BPY d   1      21.908 -22.634  72.361  0.00  0.00     0.010 A 
ATOM      3  CK3 BPY d   1      22.106 -21.326  71.903  0.00  0.00     0.110 A 
ATOM      4  CK4 BPY d   1      21.027 -20.552  71.530  0.00  0.00     0.099 A 
ATOM      5  CK5 BPY d   1      19.716 -21.089  71.603  0.00  0.00    -0.048 A 
ATOM      6  CK6 BPY d   1      19.527 -22.391  72.050  0.00  0.00    -0.079 A 
ATOM      7  H1  BPY d   1      20.468 -24.179  72.787  0.00  0.00     0.085 H 
ATOM      8  H2  BPY d   1      18.864 -20.485  71.311  0.00  0.00     0.087 H 
ATOM      9  H3  BPY d   1      18.526 -22.805  72.101  0.00  0.00     0.083 H 
ENDROOT
BRANCH   2  10
ATOM     10  CK7 BPY d   1      23.112 -23.415  72.776  0.00  0.00    -0.023 A 
ATOM     11  CK8 BPY d   1      23.466 -23.457  74.118  0.00  0.00    -0.072 A 
ATOM     12  CK9 BPY d   1      24.583 -24.159  74.526  0.00  0.00    -0.082 A 
ATOM     13  H4  BPY d   1      22.861 -22.935  74.851  0.00  0.00     0.084 H 
ATOM     14  CK1 BPY d   1      25.342 -24.833  73.597  0.00  0.00    -0.083 A 
ATOM     15  H5  BPY d   1      24.861 -24.179  75.574  0.00  0.00     0.083 H 
ATOM     16  CK1 BPY d   1      24.989 -24.795  72.261  0.00  0.00    -0.082 A 
ATOM     17  H6  BPY d   1      26.215 -25.393  73.912  0.00  0.00     0.083 H 
ATOM     18  CK1 BPY d   1      23.869 -24.094  71.851  0.00  0.00    -0.072 A 
ATOM     19  H7  BPY d   1      25.594 -25.318  71.529  0.00  0.00     0.083 H 
ATOM     20  H8  BPY d   1      23.589 -24.080  70.804  0.00  0.00     0.084 H 
ENDBRANCH   2  10
BRANCH   3  21
ATOM     21  OK2 BPY d   1      23.383 -20.799  71.825  0.00  0.00    -0.357 OA
ATOM     22  H10 BPY d   1      23.442 -20.031  72.381  0.00  0.00     0.217 HD
ENDBRANCH   3  21
BRANCH   4  23
ATOM     23  OK1 BPY d   1      21.251 -19.252  71.084  0.00  0.00    -0.358 OA
ATOM     24  H9  BPY d   1      20.928 -19.163  70.195  0.00  0.00     0.217 HD
ENDBRANCH   4  23
TORSDOF 3
