REMARK  9 active torsions:
REMARK  status: ('A' for Active; 'I' for Inactive)
REMARK    1  A    between atoms: C2_1  and  C1_13 
REMARK    2  A    between atoms: C2_1  and  O2_5 
REMARK    3  A    between atoms: C2_1  and  C3_2 
REMARK    4  A    between atoms: C3_2  and  O3_6 
REMARK    5  A    between atoms: C3_2  and  C4_3 
REMARK    6  A    between atoms: C4_3  and  O4_7 
REMARK    7  A    between atoms: C4_3  and  C5_4 
REMARK    8  A    between atoms: C5_4  and  O5_8 
REMARK    9  A    between atoms: O5_8  and  P_9 
REMARK       I    between atoms: C1_13  and  N_15 
ROOT
ATOM      1  C3  NON d   1      16.745   8.911  29.864  0.00  0.00     0.095 C 
ATOM      2  H2  NON d   1      17.386   9.776  29.638  0.00  0.00     0.091 H 
ENDROOT
BRANCH   1   3
ATOM      3  C2  NON d   1      15.254   9.386  30.024  0.00  0.00     0.143 C 
ATOM      4  H1  NON d   1      15.141  10.093  30.859  0.00  0.00     0.102 H 
BRANCH   3   5
ATOM      5  C1  NON d   1      15.016  10.148  28.676  0.00  0.00     0.300 C 
ATOM      6  N   NON d   1      14.061   9.504  28.032  0.00  0.00    -0.056 NA
ATOM      7  ON1 NON d   1      13.561   9.926  26.731  0.00  0.00    -0.058 OA
ATOM      8  O1  NON d   1      15.509  11.145  28.161  0.00  0.00    -0.266 OA
ENDBRANCH   3   5
BRANCH   3   9
ATOM      9  O2  NON d   1      14.471   8.212  30.325  0.00  0.00    -0.383 OA
ATOM     10  H6  NON d   1      13.550   8.444  30.346  0.00  0.00     0.210 HD
ENDBRANCH   3   9
ENDBRANCH   1   3
BRANCH   1  11
ATOM     11  O3  NON d   1      16.837   7.932  28.848  0.00  0.00    -0.390 OA
ATOM     12  H7  NON d   1      17.741   7.652  28.760  0.00  0.00     0.210 HD
ENDBRANCH   1  11
BRANCH   1  13
ATOM     13  C4  NON d   1      17.244   8.170  31.150  0.00  0.00     0.084 C 
ATOM     14  H3  NON d   1      16.621   7.294  31.383  0.00  0.00     0.090 H 
BRANCH  13  15
ATOM     15  O4  NON d   1      17.174   9.145  32.205  0.00  0.00    -0.391 OA
ATOM     16  H8  NON d   1      17.467   8.751  33.018  0.00  0.00     0.210 HD
ENDBRANCH  13  15
BRANCH  13  17
ATOM     17  C5  NON d   1      18.724   7.738  30.881  0.00  0.00     0.059 C 
ATOM     18  H4  NON d   1      18.779   7.058  30.018  0.00  0.00     0.079 H 
ATOM     19  H5  NON d   1      19.151   7.244  31.766  0.00  0.00     0.079 H 
BRANCH  17  20
ATOM     20  O5  NON d   1      19.443   9.016  30.592  0.00  0.00    -0.280 OA
BRANCH  20  21
ATOM     21  P   NON d   1      21.003   8.656  30.198  0.00  0.00     0.422 P 
ATOM     22  O3P NON d   1      21.659  10.015  29.921  0.00  0.00    -0.617 OA
ATOM     23  O2P NON d   1      21.031   7.776  28.963  0.00  0.00    -0.617 OA
ATOM     24  O1P NON d   1      21.688   7.850  31.309  0.00  0.00    -0.617 OA
ENDBRANCH  20  21
ENDBRANCH  17  20
ENDBRANCH  13  17
ENDBRANCH   1  13
TORSDOF 9
