REMARK  20 active torsions:
REMARK  status: ('A' for Active; 'I' for Inactive)
REMARK    1  A    between atoms: C1_1  and  C23_25 
REMARK    2  A    between atoms: C2_2  and  C8_8 
REMARK    3  A    between atoms: C5_5  and  C12_13 
REMARK    4  A    between atoms: C6_6  and  C13_14 
REMARK    5  A    between atoms: C7_7  and  O2_15 
REMARK    6  A    between atoms: C15_17  and  C9_10 
REMARK    7  A    between atoms: C9_10  and  C14_16 
REMARK    8  A    between atoms: C16_18  and  C15_17 
REMARK    9  A    between atoms: C17_19  and  C16_18 
REMARK   10  A    between atoms: C18_20  and  C17_19 
REMARK   11  A    between atoms: C20_22  and  C18_20 
REMARK   12  A    between atoms: C18_20  and  C19_21 
REMARK   13  A    between atoms: C21_23  and  C20_22 
REMARK   14  A    between atoms: C23_25  and  C22_24 
REMARK   15  A    between atoms: C23_25  and  C24_26 
REMARK   16  A    between atoms: C24_26  and  C25_27 
REMARK   17  A    between atoms: C25_27  and  C26_28 
REMARK   18  A    between atoms: C26_28  and  C27_29 
REMARK   19  A    between atoms: C27_29  and  C29_31 
REMARK   20  A    between atoms: C27_29  and  C28_30 
ROOT
ATOM      1  C17 VIT d   1      12.548  18.917  39.594  0.00  0.00    -0.062 C 
ATOM      2  H25 VIT d   1      13.456  19.211  39.046  0.00  0.00     0.033 H 
ATOM      3  H26 VIT d   1      12.594  17.844  39.830  0.00  0.00     0.033 H 
ENDROOT
BRANCH   1   4
ATOM      4  C18 VIT d   1      11.170  19.132  38.455  0.00  0.00    -0.055 C 
ATOM      5  H27 VIT d   1      11.599  19.376  37.472  0.00  0.00     0.039 H 
BRANCH   4   6
ATOM      6  C20 VIT d   1      10.731  17.622  38.565  0.00  0.00    -0.047 C 
ATOM      7  H31 VIT d   1      11.190  17.174  37.671  0.00  0.00     0.039 H 
ATOM      8  H32 VIT d   1      11.268  17.282  39.462  0.00  0.00     0.039 H 
BRANCH   6   9
ATOM      9  C21 VIT d   1       9.511  16.930  38.660  0.00  0.00    -0.106 C 
ATOM     10  C22 VIT d   1       9.010  15.742  38.153  0.00  0.00    -0.100 C 
ATOM     11  H34 VIT d   1       9.759  15.000  37.881  0.00  0.00     0.077 H 
ATOM     12  H33 VIT d   1       8.786  17.453  39.281  0.00  0.00     0.076 H 
BRANCH  10  13
ATOM     13  C23 VIT d   1       7.482  15.299  37.907  0.00  0.00    -0.025 C 
ATOM     14  H35 VIT d   1       7.138  15.857  37.024  0.00  0.00     0.051 H 
BRANCH  13  15
ATOM     15  C1  VIT d   1       6.410  15.409  39.000  0.00  0.00    -0.067 C 
ATOM     16  H1  VIT d   1       5.447  15.051  38.607  0.00  0.00     0.028 H 
ATOM     17  H2  VIT d   1       6.311  16.459  39.312  0.00  0.00     0.028 H 
ATOM     18  H3  VIT d   1       6.704  14.796  39.865  0.00  0.00     0.028 H 
ENDBRANCH  13  15
BRANCH  13  19
ATOM     19  C24 VIT d   1       7.399  13.767  37.666  0.00  0.00    -0.100 C 
ATOM     20  H36 VIT d   1       8.262  13.104  37.656  0.00  0.00     0.077 H 
BRANCH  19  21
ATOM     21  C25 VIT d   1       5.943  13.297  37.442  0.00  0.00    -0.106 C 
ATOM     22  H37 VIT d   1       5.067  13.944  37.441  0.00  0.00     0.076 H 
BRANCH  21  23
ATOM     23  C26 VIT d   1       5.922  11.805  37.225  0.00  0.00    -0.047 C 
ATOM     24  H38 VIT d   1       6.341  11.305  38.111  0.00  0.00     0.039 H 
ATOM     25  H39 VIT d   1       6.532  11.559  36.343  0.00  0.00     0.039 H 
BRANCH  23  26
ATOM     26  C27 VIT d   1       4.469  11.305  36.996  0.00  0.00    -0.058 C 
ATOM     27  H40 VIT d   1       3.857  11.564  37.873  0.00  0.00     0.039 H 
BRANCH  26  28
ATOM     28  C29 VIT d   1       4.468   9.777  36.800  0.00  0.00    -0.073 C 
ATOM     29  H44 VIT d   1       4.898   9.293  37.689  0.00  0.00     0.028 H 
ATOM     30  H45 VIT d   1       5.070   9.520  35.916  0.00  0.00     0.028 H 
ATOM     31  H46 VIT d   1       3.436   9.427  36.655  0.00  0.00     0.028 H 
ENDBRANCH  26  28
BRANCH  26  32
ATOM     32  C28 VIT d   1       3.860  11.962  35.732  0.00  0.00    -0.073 C 
ATOM     33  H41 VIT d   1       2.833  11.596  35.587  0.00  0.00     0.028 H 
ATOM     34  H42 VIT d   1       4.469  11.702  34.854  0.00  0.00     0.028 H 
ATOM     35  H43 VIT d   1       3.845  13.055  35.858  0.00  0.00     0.028 H 
ENDBRANCH  26  32
ENDBRANCH  23  26
ENDBRANCH  21  23
ENDBRANCH  19  21
ENDBRANCH  13  19
ENDBRANCH  10  13
ENDBRANCH   6   9
ENDBRANCH   4   6
BRANCH   4  36
ATOM     36  C19 VIT d   1       9.912  19.966  38.542  0.00  0.00    -0.073 C 
ATOM     37  H28 VIT d   1       9.314  19.823  37.630  0.00  0.00     0.028 H 
ATOM     38  H29 VIT d   1      10.182  21.028  38.641  0.00  0.00     0.028 H 
ATOM     39  H30 VIT d   1       9.325  19.654  39.418  0.00  0.00     0.028 H 
ENDBRANCH   4  36
ENDBRANCH   1   4
BRANCH   1  40
ATOM     40  C16 VIT d   1      12.596  19.832  41.243  0.00  0.00    -0.062 C 
ATOM     41  H23 VIT d   1      12.793  19.022  41.960  0.00  0.00     0.033 H 
ATOM     42  H24 VIT d   1      11.557  20.176  41.356  0.00  0.00     0.033 H 
BRANCH  40  43
ATOM     43  C15 VIT d   1      13.653  21.368  42.015  0.00  0.00    -0.036 C 
ATOM     44  H21 VIT d   1      14.028  20.793  42.874  0.00  0.00     0.037 H 
ATOM     45  H22 VIT d   1      12.765  21.942  42.318  0.00  0.00     0.037 H 
BRANCH  43  46
ATOM     46  C9  VIT d   1      14.812  22.759  42.256  0.00  0.00     0.064 C 
ATOM     47  C11 VIT d   1      13.595  23.201  43.229  0.00  0.00    -0.032 C 
ATOM     48  C10 VIT d   1      13.777  22.890  44.774  0.00  0.00    -0.035 C 
ATOM     49  H9  VIT d   1      12.688  22.681  42.888  0.00  0.00     0.037 H 
ATOM     50  H10 VIT d   1      13.457  24.287  43.120  0.00  0.00     0.037 H 
ATOM     51  C3  VIT d   1      15.238  22.624  45.314  0.00  0.00    -0.015 A 
ATOM     52  H7  VIT d   1      13.375  23.750  45.330  0.00  0.00     0.040 H 
ATOM     53  H8  VIT d   1      13.178  21.996  45.000  0.00  0.00     0.040 H 
ATOM     54  C4  VIT d   1      16.179  22.102  44.381  0.00  0.00     0.083 A 
ATOM     55  C2  VIT d   1      15.625  22.883  46.672  0.00  0.00    -0.019 A 
ATOM     56  O1  VIT d   1      15.737  21.857  43.044  0.00  0.00    -0.339 OA
ATOM     57  C5  VIT d   1      17.532  21.829  44.784  0.00  0.00    -0.019 A 
ATOM     58  C6  VIT d   1      17.932  22.088  46.154  0.00  0.00    -0.020 A 
ATOM     59  C7  VIT d   1      16.975  22.615  47.090  0.00  0.00     0.078 A 
BRANCH  46  60
ATOM     60  C14 VIT d   1      14.855  23.900  41.274  0.00  0.00    -0.047 C 
ATOM     61  H18 VIT d   1      15.656  23.723  40.541  0.00  0.00     0.031 H 
ATOM     62  H19 VIT d   1      15.052  24.839  41.812  0.00  0.00     0.031 H 
ATOM     63  H20 VIT d   1      13.889  23.971  40.752  0.00  0.00     0.031 H 
ENDBRANCH  46  60
BRANCH  57  64
ATOM     64  C12 VIT d   1      18.497  21.340  43.706  0.00  0.00    -0.048 C 
ATOM     65  H11 VIT d   1      17.955  21.219  42.756  0.00  0.00     0.033 H 
ATOM     66  H12 VIT d   1      18.926  20.373  44.009  0.00  0.00     0.033 H 
ATOM     67  H13 VIT d   1      19.305  22.075  43.576  0.00  0.00     0.033 H 
ENDBRANCH  57  64
BRANCH  58  68
ATOM     68  C13 VIT d   1      19.307  21.744  46.315  0.00  0.00    -0.048 C 
ATOM     69  H14 VIT d   1      19.615  21.939  47.353  0.00  0.00     0.033 H 
ATOM     70  H15 VIT d   1      19.919  22.350  45.631  0.00  0.00     0.033 H 
ATOM     71  H16 VIT d   1      19.448  20.677  46.085  0.00  0.00     0.033 H 
ENDBRANCH  58  68
BRANCH  59  72
ATOM     72  O2  VIT d   1      17.202  22.826  48.477  0.00  0.00    -0.360 OA
ATOM     73  H17 VIT d   1      18.109  22.631  48.681  0.00  0.00     0.217 HD
ENDBRANCH  59  72
BRANCH  55  74
ATOM     74  C8  VIT d   1      14.619  23.394  47.680  0.00  0.00    -0.048 C 
ATOM     75  H4  VIT d   1      13.647  23.541  47.186  0.00  0.00     0.033 H 
ATOM     76  H5  VIT d   1      14.969  24.351  48.094  0.00  0.00     0.033 H 
ATOM     77  H6  VIT d   1      14.510  22.661  48.493  0.00  0.00     0.033 H 
ENDBRANCH  55  74
ENDBRANCH  43  46
ENDBRANCH  40  43
ENDBRANCH   1  40
TORSDOF 20
