REMARK  12 active torsions:
REMARK  status: ('A' for Active; 'I' for Inactive)
REMARK    1  A    between atoms: C2_2  and  C11_11 
REMARK    2  A    between atoms: C8_8  and  C13_13 
REMARK       I    between atoms: C13_13  and  N14_14 
REMARK    3  A    between atoms: N14_14  and  C15_15 
REMARK    4  A    between atoms: C15_15  and  C17_17 
REMARK    5  A    between atoms: C15_15  and  C16_16 
REMARK    6  A    between atoms: C17_17  and  C20_20 
REMARK    7  A    between atoms: C17_17  and  C18_18 
REMARK    8  A    between atoms: C18_18  and  O19_19 
REMARK    9  A    between atoms: O19_19  and  C34_32 
REMARK   10  A    between atoms: C20_20  and  C28_26 
REMARK   11  A    between atoms: C24_22  and  C29_27 
REMARK   12  A    between atoms: C29_27  and  N30_28 
ROOT
ATOM      1  C15 FXV d   1       4.484   6.899  23.392  0.00  0.00     0.021 C 
ATOM      2  H10 FXV d   1       3.710   6.470  24.045  0.00  0.00     0.073 H 
ENDROOT
BRANCH   1   3
ATOM      3  N14 FXV d   1       5.099   5.852  22.616  0.00  0.00    -0.352 N 
ATOM      4  C13 FXV d   1       4.622   4.593  22.566  0.00  0.00     0.252 C 
ATOM      5  O33 FXV d   1       3.616   4.231  23.205  0.00  0.00    -0.268 OA
ATOM      6  H9  FXV d   1       5.920   6.071  22.089  0.00  0.00     0.163 HD
BRANCH   4   7
ATOM      7  C8  FXV d   1       5.363   3.697  21.685  0.00  0.00     0.032 A 
ATOM      8  C9  FXV d   1       4.693   2.519  21.194  0.00  0.00    -0.067 A 
ATOM      9  C10 FXV d   1       5.345   1.604  20.314  0.00  0.00    -0.071 A 
ATOM     10  H6  FXV d   1       3.671   2.324  21.500  0.00  0.00     0.085 H 
ATOM     11  C11 FXV d   1       6.695   1.825  19.882  0.00  0.00    -0.026 A 
ATOM     12  H7  FXV d   1       4.811   0.727  19.966  0.00  0.00     0.084 H 
ATOM     13  C12 FXV d   1       7.370   2.997  20.370  0.00  0.00    -0.071 A 
ATOM     14  C7  FXV d   1       6.740   3.933  21.257  0.00  0.00    -0.067 A 
ATOM     15  H8  FXV d   1       8.391   3.180  20.057  0.00  0.00     0.084 H 
ATOM     16  H5  FXV d   1       7.280   4.806  21.606  0.00  0.00     0.085 H 
BRANCH  11  17
ATOM     17  C2  FXV d   1       7.375   0.876  18.942  0.00  0.00    -0.023 A 
ATOM     18  C1  FXV d   1       6.643   0.247  17.881  0.00  0.00    -0.055 A 
ATOM     19  C6  FXV d   1       7.337  -0.642  17.007  0.00  0.00     0.011 A 
ATOM     20  H1  FXV d   1       5.585   0.443  17.746  0.00  0.00     0.087 H 
ATOM     21  N1  FXV d   1       8.694  -0.928  17.134  0.00  0.00    -0.211 N 
ATOM     22  H4  FXV d   1       6.782  -1.117  16.206  0.00  0.00     0.115 H 
ATOM     23  C4  FXV d   1       9.406  -0.331  18.145  0.00  0.00     0.011 A 
ATOM     24  O1  FXV d   1       9.287  -1.789  16.260  0.00  0.00    -0.082 OA
ATOM     25  C3  FXV d   1       8.780   0.574  19.064  0.00  0.00    -0.055 A 
ATOM     26  H3  FXV d   1      10.463  -0.548  18.250  0.00  0.00     0.115 H 
ATOM     27  H2  FXV d   1       9.365   1.033  19.853  0.00  0.00     0.087 H 
ENDBRANCH  11  17
ENDBRANCH   4   7
ENDBRANCH   1   3
BRANCH   1  28
ATOM     28  C17 FXV d   1       5.589   7.556  24.301  0.00  0.00     0.053 C 
ATOM     29  H14 FXV d   1       5.945   6.781  24.996  0.00  0.00     0.059 H 
BRANCH  28  30
ATOM     30  C20 FXV d   1       6.861   8.077  23.491  0.00  0.00    -0.027 C 
ATOM     31  H15 FXV d   1       6.596   9.042  23.035  0.00  0.00     0.041 H 
ATOM     32  H16 FXV d   1       7.078   7.345  22.699  0.00  0.00     0.041 H 
BRANCH  30  33
ATOM     33  C28 FXV d   1       8.148   8.281  24.306  0.00  0.00    -0.056 A 
ATOM     34  C27 FXV d   1       9.069   9.322  23.913  0.00  0.00    -0.077 A 
ATOM     35  C26 FXV d   1      10.287   9.557  24.645  0.00  0.00    -0.082 A 
ATOM     36  H20 FXV d   1       8.839   9.938  23.051  0.00  0.00     0.084 H 
ATOM     37  C25 FXV d   1      10.609   8.759  25.789  0.00  0.00    -0.069 A 
ATOM     38  H19 FXV d   1      10.963  10.342  24.328  0.00  0.00     0.083 H 
ATOM     39  C24 FXV d   1       9.717   7.699  26.228  0.00  0.00     0.007 A 
ATOM     40  H18 FXV d   1      11.527   8.947  26.333  0.00  0.00     0.085 H 
ATOM     41  C23 FXV d   1       8.484   7.469  25.477  0.00  0.00    -0.063 A 
ATOM     42  H17 FXV d   1       7.807   6.684  25.793  0.00  0.00     0.085 H 
BRANCH  39  43
ATOM     43  C29 FXV d   1      10.058   6.889  27.400  0.00  0.00     0.102 C 
ATOM     44  N31 FXV d   1       9.074   6.275  28.081  0.00  0.00    -0.385 N 
ATOM     45  H23 FXV d   1       8.096   6.374  27.774  0.00  0.00     0.157 HD
ATOM     46  H24 FXV d   1       9.299   5.706  28.910  0.00  0.00     0.157 HD
BRANCH  43  47
ATOM     47  N30 FXV d   1      11.321   6.749  27.813  0.00  0.00    -0.385 N 
ATOM     48  H21 FXV d   1      11.531   6.173  28.641  0.00  0.00     0.157 HD
ATOM     49  H22 FXV d   1      12.084   7.217  27.304  0.00  0.00     0.157 HD
ENDBRANCH  43  47
ENDBRANCH  39  43
ENDBRANCH  30  33
ENDBRANCH  28  30
BRANCH  28  50
ATOM     50  C18 FXV d   1       4.964   8.689  25.136  0.00  0.00     0.265 C 
ATOM     51  O32 FXV d   1       5.390   9.791  25.172  0.00  0.00    -0.265 OA
BRANCH  50  52
ATOM     52  O19 FXV d   1       3.860   8.264  25.808  0.00  0.00    -0.326 OA
BRANCH  52  53
ATOM     53  C34 FXV d   1       3.095   9.132  26.648  0.00  0.00     0.013 C 
ATOM     54  H25 FXV d   1       2.254   8.573  27.084  0.00  0.00     0.067 H 
ATOM     55  H26 FXV d   1       2.707   9.971  26.052  0.00  0.00     0.067 H 
ATOM     56  H27 FXV d   1       3.735   9.520  27.454  0.00  0.00     0.067 H 
ENDBRANCH  52  53
ENDBRANCH  50  52
ENDBRANCH  28  50
ENDBRANCH   1  28
BRANCH   1  57
ATOM     57  C16 FXV d   1       3.806   7.874  22.405  0.00  0.00    -0.057 C 
ATOM     58  H11 FXV d   1       3.325   8.688  22.966  0.00  0.00     0.030 H 
ATOM     59  H12 FXV d   1       3.047   7.334  21.819  0.00  0.00     0.030 H 
ATOM     60  H13 FXV d   1       4.563   8.294  21.726  0.00  0.00     0.030 H 
ENDBRANCH   1  57
TORSDOF 12
