REMARK  9 active torsions:
REMARK  status: ('A' for Active; 'I' for Inactive)
REMARK    1  A    between atoms: C_3  and  CA_2 
REMARK       I    between atoms: N_9  and  C_3 
REMARK    2  A    between atoms: CA_10  and  N_9 
REMARK    3  A    between atoms: C_11  and  CA_10 
REMARK    4  A    between atoms: CA_10  and  CB_13 
REMARK       I    between atoms: C_11  and  N_17 
REMARK    5  A    between atoms: CB_13  and  CG_14 
REMARK       I    between atoms: CG_14  and  ND2_16 
REMARK    6  A    between atoms: N_17  and  CA_18 
REMARK    7  A    between atoms: CA_18  and  C_19 
REMARK    8  A    between atoms: CA_18  and  CB_21 
REMARK    9  A    between atoms: CB_21  and  CG_22 
ROOT
ATOM      1  C   ASN d   1      10.890   9.684   7.729  0.00  0.00     0.241 C 
ATOM      2  O   ASN d   1      11.633   9.558   8.692  0.00  0.00    -0.271 OA
ATOM      3  N   TRP d   1       9.848  10.506   7.709  0.00  0.00    -0.344 N 
ATOM      4  H13 TRP d   1       9.330  10.605   6.859  0.00  0.00     0.163 HD
ENDROOT
BRANCH   1   5
ATOM      5  CA  ASN d   1      11.147   8.896   6.452  0.00  0.00     0.097 C 
ATOM      6  H8  ASN d   1      10.576   9.323   5.615  0.00  0.00     0.088 H 
BRANCH   5   7
ATOM      7  CB  ASN d   1      10.699   7.448   6.707  0.00  0.00     0.036 C 
ATOM      8  H9  ASN d   1       9.797   7.466   7.336  0.00  0.00     0.051 H 
ATOM      9  H10 ASN d   1      11.505   6.920   7.237  0.00  0.00     0.051 H 
BRANCH   7  10
ATOM     10  CG  ASN d   1      10.382   6.690   5.425  0.00  0.00     0.217 C 
ATOM     11  OD1 ASN d   1       9.514   7.094   4.643  0.00  0.00    -0.274 OA
ATOM     12  ND2 ASN d   1      11.082   5.578   5.210  0.00  0.00    -0.370 N 
ATOM     13  H11 ASN d   1      10.919   5.036   4.385  0.00  0.00     0.159 HD
ATOM     14  H12 ASN d   1      11.770   5.284   5.873  0.00  0.00     0.159 HD
ENDBRANCH   7  10
ENDBRANCH   5   7
BRANCH   5  15
ATOM     15  N   ASN d   1      12.569   8.957   6.158  0.00  0.00    -0.346 N 
ATOM     16  C   PCA d   1      13.033   9.810   5.258  0.00  0.00     0.241 C 
ATOM     17  O   PCA d   1      12.295  10.584   4.639  0.00  0.00    -0.271 OA
ATOM     18  H7  ASN d   1      13.202   8.350   6.639  0.00  0.00     0.163 HD
BRANCH  16  19
ATOM     19  CA  PCA d   1      14.531   9.796   5.017  0.00  0.00     0.089 C 
ATOM     20  CB  PCA d   1      15.157  11.083   5.544  0.00  0.00    -0.030 C 
ATOM     21  CG  PCA d   1      15.572  11.809   4.311  0.00  0.00     0.011 C 
ATOM     22  H3  PCA d   1      16.027  10.863   6.181  0.00  0.00     0.037 H 
ATOM     23  H4  PCA d   1      14.423  11.670   6.116  0.00  0.00     0.037 H 
ATOM     24  CD  PCA d   1      15.240  10.889   3.172  0.00  0.00     0.218 C 
ATOM     25  H5  PCA d   1      16.652  12.019   4.333  0.00  0.00     0.047 H 
ATOM     26  H6  PCA d   1      15.017  12.754   4.216  0.00  0.00     0.047 H 
ATOM     27  OE1 PCA d   1      15.420  11.182   1.994  0.00  0.00    -0.274 OA
ATOM     28  N   PCA d   1      14.734   9.722   3.561  0.00  0.00    -0.348 N 
ATOM     29  H1  PCA d   1      14.529   8.939   2.973  0.00  0.00     0.163 HD
ATOM     30  H2  PCA d   1      14.989   8.928   5.513  0.00  0.00     0.087 H 
ENDBRANCH  16  19
ENDBRANCH   5  15
ENDBRANCH   1   5
BRANCH   3  31
ATOM     31  CA  TRP d   1       9.428  11.272   8.882  0.00  0.00     0.100 C 
ATOM     32  H14 TRP d   1       9.623  10.667   9.779  0.00  0.00     0.090 H 
BRANCH  31  33
ATOM     33  C   TRP d   1       7.945  11.541   8.792  0.00  0.00     0.197 C 
ATOM     34  OXT TRP d   1       7.374  11.384   7.691  0.00  0.00    -0.646 OA
ATOM     35  O   TRP d   1       7.318  11.929   9.786  0.00  0.00    -0.646 OA
ENDBRANCH  31  33
BRANCH  31  36
ATOM     36  CB  TRP d   1      10.199  12.586   9.017  0.00  0.00    -0.011 C 
ATOM     37  H15 TRP d   1      11.269  12.346   8.927  0.00  0.00     0.044 H 
ATOM     38  H16 TRP d   1       9.995  12.981  10.023  0.00  0.00     0.044 H 
BRANCH  36  39
ATOM     39  CG  TRP d   1       9.899  13.717   8.013  0.00  0.00    -0.028 A 
ATOM     40  CD2 TRP d   1      10.240  15.084   8.204  0.00  0.00    -0.002 A 
ATOM     41  CE2 TRP d   1       9.773  15.810   7.065  0.00  0.00     0.042 A 
ATOM     42  CE3 TRP d   1      10.886  15.775   9.218  0.00  0.00    -0.070 A 
ATOM     43  NE1 TRP d   1       9.180  14.905   6.225  0.00  0.00    -0.365 N 
ATOM     44  CZ2 TRP d   1       9.936  17.198   6.936  0.00  0.00    -0.056 A 
ATOM     45  CD1 TRP d   1       9.256  13.647   6.800  0.00  0.00    -0.015 A 
ATOM     46  H18 TRP d   1       8.749  15.124   5.316  0.00  0.00     0.165 HD
ATOM     47  H17 TRP d   1       8.863  12.734   6.355  0.00  0.00     0.112 H 
ATOM     48  CH2 TRP d   1      10.591  17.857   7.971  0.00  0.00    -0.081 A 
ATOM     49  H20 TRP d   1       9.568  17.733   6.068  0.00  0.00     0.086 H 
ATOM     50  CZ3 TRP d   1      11.063  17.155   9.099  0.00  0.00    -0.082 A 
ATOM     51  H22 TRP d   1      10.741  18.929   7.909  0.00  0.00     0.083 H 
ATOM     52  H21 TRP d   1      11.572  17.696   9.888  0.00  0.00     0.083 H 
ATOM     53  H19 TRP d   1      11.250  15.249  10.094  0.00  0.00     0.084 H 
ENDBRANCH  36  39
ENDBRANCH  31  36
ENDBRANCH   3  31
TORSDOF 9
