REMARK  10 active torsions:
REMARK  status: ('A' for Active; 'I' for Inactive)
REMARK    1  A    between atoms: C_3  and  CA_2 
REMARK       I    between atoms: N_9  and  C_3 
REMARK    2  A    between atoms: CA_10  and  N_9 
REMARK    3  A    between atoms: C_11  and  CA_10 
REMARK    4  A    between atoms: CA_10  and  CB_13 
REMARK       I    between atoms: C_11  and  N_18 
REMARK    5  A    between atoms: CB_13  and  CG_14 
REMARK    6  A    between atoms: CG_14  and  CD_15 
REMARK       I    between atoms: CD_15  and  NE2_17 
REMARK    7  A    between atoms: N_18  and  CA_19 
REMARK    8  A    between atoms: CA_19  and  C_20 
REMARK    9  A    between atoms: CA_19  and  CB_22 
REMARK   10  A    between atoms: CB_22  and  CG_23 
ROOT
ATOM      1  CA  GLN d   1      10.810   8.119   6.421  0.00  0.00     0.090 C 
ATOM      2  H8  GLN d   1      10.216   8.627   5.647  0.00  0.00     0.087 H 
ENDROOT
BRANCH   1   3
ATOM      3  C   GLN d   1      10.523   8.776   7.765  0.00  0.00     0.241 C 
ATOM      4  O   GLN d   1      11.256   8.570   8.734  0.00  0.00    -0.271 OA
ATOM      5  N   TRP d   1       9.456   9.566   7.814  0.00  0.00    -0.344 N 
ATOM      6  H15 TRP d   1       8.901   9.685   6.991  0.00  0.00     0.163 HD
BRANCH   5   7
ATOM      7  CA  TRP d   1       9.072  10.264   9.033  0.00  0.00     0.100 C 
ATOM      8  H16 TRP d   1       9.324   9.633   9.899  0.00  0.00     0.090 H 
BRANCH   7   9
ATOM      9  C   TRP d   1       7.575  10.515   9.031  0.00  0.00     0.197 C 
ATOM     10  OXT TRP d   1       6.993  10.519   7.930  0.00  0.00    -0.646 OA
ATOM     11  O   TRP d   1       7.006  10.711  10.120  0.00  0.00    -0.646 OA
ENDBRANCH   7   9
BRANCH   7  12
ATOM     12  CB  TRP d   1       9.845  11.589   9.147  0.00  0.00    -0.011 C 
ATOM     13  H17 TRP d   1      10.915  11.366   9.025  0.00  0.00     0.044 H 
ATOM     14  H18 TRP d   1       9.668  11.997  10.153  0.00  0.00     0.044 H 
BRANCH  12  15
ATOM     15  CG  TRP d   1       9.478  12.659   8.143  0.00  0.00    -0.028 A 
ATOM     16  CD2 TRP d   1       9.807  14.052   8.222  0.00  0.00    -0.002 A 
ATOM     17  CE2 TRP d   1       9.316  14.668   7.049  0.00  0.00     0.042 A 
ATOM     18  CE3 TRP d   1      10.473  14.839   9.170  0.00  0.00    -0.070 A 
ATOM     19  NE1 TRP d   1       8.714  13.695   6.295  0.00  0.00    -0.365 N 
ATOM     20  CZ2 TRP d   1       9.470  16.038   6.800  0.00  0.00    -0.056 A 
ATOM     21  CD1 TRP d   1       8.815  12.494   6.957  0.00  0.00    -0.015 A 
ATOM     22  H20 TRP d   1       8.260  13.840   5.382  0.00  0.00     0.165 HD
ATOM     23  H19 TRP d   1       8.423  11.546   6.590  0.00  0.00     0.112 H 
ATOM     24  CH2 TRP d   1      10.127  16.784   7.744  0.00  0.00    -0.081 A 
ATOM     25  H22 TRP d   1       9.084  16.491   5.894  0.00  0.00     0.086 H 
ATOM     26  CZ3 TRP d   1      10.627  16.201   8.920  0.00  0.00    -0.082 A 
ATOM     27  H24 TRP d   1      10.264  17.847   7.579  0.00  0.00     0.083 H 
ATOM     28  H23 TRP d   1      11.141  16.821   9.645  0.00  0.00     0.083 H 
ATOM     29  H21 TRP d   1      10.861  14.397  10.081  0.00  0.00     0.084 H 
ENDBRANCH  12  15
ENDBRANCH   7  12
ENDBRANCH   5   7
ENDBRANCH   1   3
BRANCH   1  30
ATOM     30  CB  GLN d   1      10.401   6.644   6.468  0.00  0.00    -0.030 C 
ATOM     31  H9  GLN d   1       9.465   6.561   7.040  0.00  0.00     0.037 H 
ATOM     32  H10 GLN d   1      11.194   6.080   6.980  0.00  0.00     0.037 H 
BRANCH  30  33
ATOM     33  CG  GLN d   1      10.181   6.025   5.092  0.00  0.00     0.011 C 
ATOM     34  H11 GLN d   1      11.101   6.146   4.501  0.00  0.00     0.047 H 
ATOM     35  H12 GLN d   1       9.355   6.555   4.596  0.00  0.00     0.047 H 
BRANCH  33  36
ATOM     36  CD  GLN d   1       9.838   4.547   5.158  0.00  0.00     0.215 C 
ATOM     37  OE1 GLN d   1       9.198   4.087   6.097  0.00  0.00    -0.274 OA
ATOM     38  NE2 GLN d   1      10.254   3.801   4.151  0.00  0.00    -0.370 N 
ATOM     39  H13 GLN d   1      10.057   2.821   4.140  0.00  0.00     0.159 HD
ATOM     40  H14 GLN d   1      10.766   4.216   3.399  0.00  0.00     0.159 HD
ENDBRANCH  33  36
ENDBRANCH  30  33
ENDBRANCH   1  30
BRANCH   1  41
ATOM     41  N   GLN d   1      12.223   8.240   6.076  0.00  0.00    -0.346 N 
ATOM     42  C   PCA d   1      12.646   9.043   5.103  0.00  0.00     0.241 C 
ATOM     43  O   PCA d   1      11.880   9.736   4.428  0.00  0.00    -0.271 OA
ATOM     44  H7  GLN d   1      12.894   7.703   6.587  0.00  0.00     0.163 HD
BRANCH  42  45
ATOM     45  CA  PCA d   1      14.152   9.060   4.842  0.00  0.00     0.089 C 
ATOM     46  CB  PCA d   1      14.759  10.402   5.255  0.00  0.00    -0.030 C 
ATOM     47  CG  PCA d   1      15.142  11.044   3.991  0.00  0.00     0.011 C 
ATOM     48  H3  PCA d   1      15.641  10.248   5.894  0.00  0.00     0.037 H 
ATOM     49  H4  PCA d   1      14.019  11.014   5.792  0.00  0.00     0.037 H 
ATOM     50  CD  PCA d   1      14.833  10.034   2.923  0.00  0.00     0.218 C 
ATOM     51  H5  PCA d   1      16.215  11.287   3.992  0.00  0.00     0.047 H 
ATOM     52  H6  PCA d   1      14.558  11.963   3.833  0.00  0.00     0.047 H 
ATOM     53  OE1 PCA d   1      14.936  10.291   1.725  0.00  0.00    -0.274 OA
ATOM     54  N   PCA d   1      14.419   8.856   3.402  0.00  0.00    -0.348 N 
ATOM     55  H1  PCA d   1      14.311   8.005   2.888  0.00  0.00     0.163 HD
ATOM     56  H2  PCA d   1      14.625   8.253   5.421  0.00  0.00     0.087 H 
ENDBRANCH  42  45
ENDBRANCH   1  41
TORSDOF 10
