REMARK  12 active torsions:
REMARK  status: ('A' for Active; 'I' for Inactive)
REMARK    1  A    between atoms: C_3  and  CA_2 
REMARK       I    between atoms: N_9  and  C_3 
REMARK    2  A    between atoms: CA_10  and  N_9 
REMARK    3  A    between atoms: C_11  and  CA_10 
REMARK    4  A    between atoms: CA_10  and  CB_13 
REMARK       I    between atoms: C_11  and  N_18 
REMARK    5  A    between atoms: CB_13  and  CG_14 
REMARK    6  A    between atoms: CG_14  and  CD_15 
REMARK    7  A    between atoms: CD_15  and  CE_16 
REMARK    8  A    between atoms: CE_16  and  NZ_17 
REMARK    9  A    between atoms: N_18  and  CA_19 
REMARK   10  A    between atoms: CA_19  and  C_20 
REMARK   11  A    between atoms: CA_19  and  CB_22 
REMARK   12  A    between atoms: CB_22  and  CG_23 
ROOT
ATOM      1  CA  LYS d   1      10.827   8.210   6.391  0.00  0.00     0.089 C 
ATOM      2  H8  LYS d   1      10.290   8.710   5.572  0.00  0.00     0.087 H 
ENDROOT
BRANCH   1   3
ATOM      3  C   LYS d   1      10.510   8.911   7.695  0.00  0.00     0.241 C 
ATOM      4  O   LYS d   1      11.190   8.732   8.700  0.00  0.00    -0.271 OA
ATOM      5  N   TRP d   1       9.474   9.737   7.678  0.00  0.00    -0.344 N 
ATOM      6  H20 TRP d   1       8.985   9.889   6.819  0.00  0.00     0.163 HD
BRANCH   5   7
ATOM      7  CA  TRP d   1       9.023  10.440   8.900  0.00  0.00     0.100 C 
ATOM      8  H21 TRP d   1       9.277   9.807   9.763  0.00  0.00     0.090 H 
BRANCH   7   9
ATOM      9  C   TRP d   1       7.494  10.666   8.911  0.00  0.00     0.197 C 
ATOM     10  OXT TRP d   1       6.858  10.545   7.822  0.00  0.00    -0.646 OA
ATOM     11  O   TRP d   1       6.919  11.010   9.943  0.00  0.00    -0.646 OA
ENDBRANCH   7   9
BRANCH   7  12
ATOM     12  CB  TRP d   1       9.759  11.787   9.059  0.00  0.00    -0.011 C 
ATOM     13  H22 TRP d   1      10.836  11.581   8.967  0.00  0.00     0.044 H 
ATOM     14  H23 TRP d   1       9.542  12.158  10.072  0.00  0.00     0.044 H 
BRANCH  12  15
ATOM     15  CG  TRP d   1       9.431  12.917   8.085  0.00  0.00    -0.028 A 
ATOM     16  CD2 TRP d   1       9.854  14.276   8.215  0.00  0.00    -0.002 A 
ATOM     17  CE2 TRP d   1       9.355  14.985   7.100  0.00  0.00     0.042 A 
ATOM     18  CE3 TRP d   1      10.610  14.963   9.178  0.00  0.00    -0.070 A 
ATOM     19  NE1 TRP d   1       8.661  14.094   6.328  0.00  0.00    -0.365 N 
ATOM     20  CZ2 TRP d   1       9.575  16.362   6.920  0.00  0.00    -0.056 A 
ATOM     21  CD1 TRP d   1       8.708  12.848   6.926  0.00  0.00    -0.015 A 
ATOM     22  H25 TRP d   1       8.181  14.316   5.444  0.00  0.00     0.165 HD
ATOM     23  H24 TRP d   1       8.240  11.947   6.533  0.00  0.00     0.112 H 
ATOM     24  CH2 TRP d   1      10.318  17.027   7.889  0.00  0.00    -0.081 A 
ATOM     25  H27 TRP d   1       9.180  16.886   6.057  0.00  0.00     0.086 H 
ATOM     26  CZ3 TRP d   1      10.838  16.331   9.013  0.00  0.00    -0.082 A 
ATOM     27  H29 TRP d   1      10.503  18.090   7.785  0.00  0.00     0.083 H 
ATOM     28  H28 TRP d   1      11.420  16.869   9.753  0.00  0.00     0.083 H 
ATOM     29  H26 TRP d   1      11.011  14.439  10.038  0.00  0.00     0.084 H 
ENDBRANCH  12  15
ENDBRANCH   7  12
ENDBRANCH   5   7
ENDBRANCH   1   3
BRANCH   1  30
ATOM     30  CB  LYS d   1      10.346   6.739   6.471  0.00  0.00    -0.038 C 
ATOM     31  H9  LYS d   1       9.290   6.745   6.780  0.00  0.00     0.036 H 
ATOM     32  H10 LYS d   1      10.949   6.228   7.236  0.00  0.00     0.036 H 
BRANCH  30  33
ATOM     33  CG  LYS d   1      10.451   5.929   5.168  0.00  0.00    -0.061 C 
ATOM     34  H11 LYS d   1      11.511   5.795   4.907  0.00  0.00     0.033 H 
ATOM     35  H12 LYS d   1       9.940   6.472   4.359  0.00  0.00     0.033 H 
BRANCH  33  36
ATOM     36  CD  LYS d   1       9.791   4.547   5.353  0.00  0.00    -0.043 C 
ATOM     37  H13 LYS d   1       8.713   4.678   5.526  0.00  0.00     0.035 H 
ATOM     38  H14 LYS d   1      10.242   4.041   6.219  0.00  0.00     0.035 H 
BRANCH  36  39
ATOM     39  CE  LYS d   1      10.004   3.689   4.093  0.00  0.00     0.080 C 
ATOM     40  H15 LYS d   1       9.441   4.123   3.254  0.00  0.00     0.075 H 
ATOM     41  H16 LYS d   1       9.649   2.665   4.282  0.00  0.00     0.075 H 
BRANCH  39  42
ATOM     42  NZ  LYS d   1      11.462   3.657   3.752  0.00  0.00    -0.079 N 
ATOM     43  H17 LYS d   1      11.602   3.095   2.927  0.00  0.00     0.274 HD
ATOM     44  H18 LYS d   1      11.978   3.259   4.521  0.00  0.00     0.274 HD
ATOM     45  H19 LYS d   1      11.787   4.595   3.579  0.00  0.00     0.274 HD
ENDBRANCH  39  42
ENDBRANCH  36  39
ENDBRANCH  33  36
ENDBRANCH  30  33
ENDBRANCH   1  30
BRANCH   1  46
ATOM     46  N   LYS d   1      12.250   8.304   6.138  0.00  0.00    -0.346 N 
ATOM     47  C   PCA d   1      12.731   9.111   5.197  0.00  0.00     0.241 C 
ATOM     48  O   PCA d   1      12.011   9.810   4.496  0.00  0.00    -0.271 OA
ATOM     49  H7  LYS d   1      12.883   7.752   6.681  0.00  0.00     0.163 HD
BRANCH  47  50
ATOM     50  CA  PCA d   1      14.234   9.157   5.014  0.00  0.00     0.089 C 
ATOM     51  CB  PCA d   1      14.762  10.540   5.375  0.00  0.00    -0.030 C 
ATOM     52  CG  PCA d   1      14.968  11.206   4.072  0.00  0.00     0.011 C 
ATOM     53  H3  PCA d   1      15.710  10.463   5.927  0.00  0.00     0.037 H 
ATOM     54  H4  PCA d   1      14.028  11.091   5.982  0.00  0.00     0.037 H 
ATOM     55  CD  PCA d   1      14.805  10.124   3.049  0.00  0.00     0.218 C 
ATOM     56  H5  PCA d   1      15.977  11.641   4.016  0.00  0.00     0.047 H 
ATOM     57  H6  PCA d   1      14.219  11.997   3.920  0.00  0.00     0.047 H 
ATOM     58  OE1 PCA d   1      14.981  10.306   1.832  0.00  0.00    -0.274 OA
ATOM     59  N   PCA d   1      14.466   8.947   3.574  0.00  0.00    -0.348 N 
ATOM     60  H1  PCA d   1      14.384   8.081   3.081  0.00  0.00     0.163 HD
ATOM     61  H2  PCA d   1      14.729   8.383   5.619  0.00  0.00     0.087 H 
ENDBRANCH  47  50
ENDBRANCH   1  46
TORSDOF 12
