REMARK  7 active torsions:
REMARK  status: ('A' for Active; 'I' for Inactive)
REMARK       I    between atoms: C1_1  and  N9_10 
REMARK       I    between atoms: C1_1  and  N2_3 
REMARK    1  A    between atoms: N2_3  and  C3_4 
REMARK    2  A    between atoms: N9_10  and  C10_11 
REMARK    3  A    between atoms: C13_13  and  C16_20 
REMARK    4  A    between atoms: N11_15  and  C15_16 
REMARK    5  A    between atoms: C16_20  and  C17_17 
REMARK    6  A    between atoms: C16_20  and  C18_18 
REMARK    7  A    between atoms: C16_20  and  C19_19 
ROOT
ATOM      1  C10 BMU d   1      31.714  33.164  13.111  0.00  0.00     0.129 A 
ATOM      2  C14 BMU d   1      31.035  34.317  12.860  0.00  0.00    -0.013 A 
ATOM      3  C13 BMU d   1      29.877  33.953  12.198  0.00  0.00     0.066 A 
ATOM      4  N12 BMU d   1      29.845  32.630  12.043  0.00  0.00    -0.175 NA
ATOM      5  N11 BMU d   1      31.016  32.148  12.635  0.00  0.00    -0.258 N 
ATOM      6  H7  BMU d   1      31.343  35.327  13.128  0.00  0.00     0.092 H 
ENDROOT
BRANCH   1   7
ATOM      7  N9  BMU d   1      32.913  33.039  13.681  0.00  0.00    -0.293 N 
ATOM      8  C1  BMU d   1      33.335  33.731  14.743  0.00  0.00     0.326 C 
ATOM      9  N2  BMU d   1      34.571  33.506  15.183  0.00  0.00    -0.309 N 
ATOM     10  O1  BMU d   1      32.601  34.546  15.333  0.00  0.00    -0.247 OA
ATOM     11  H1  BMU d   1      35.110  32.813  14.704  0.00  0.00     0.170 HD
ATOM     12  H6  BMU d   1      33.546  32.375  13.282  0.00  0.00     0.172 HD
BRANCH   9  13
ATOM     13  C3  BMU d   1      35.148  34.129  16.209  0.00  0.00     0.036 A 
ATOM     14  C8  BMU d   1      34.490  34.392  17.361  0.00  0.00    -0.056 A 
ATOM     15  C7  BMU d   1      35.170  35.023  18.404  0.00  0.00    -0.060 A 
ATOM     16  H5  BMU d   1      33.448  34.116  17.473  0.00  0.00     0.087 H 
ATOM     17  C6  BMU d   1      36.476  35.363  18.245  0.00  0.00     0.034 A 
ATOM     18  H4  BMU d   1      34.659  35.240  19.335  0.00  0.00     0.086 H 
ATOM     19  C5  BMU d   1      37.114  35.104  17.108  0.00  0.00    -0.060 A 
ATOM     20 CL6  BMU d   1      37.357  36.133  19.534  0.00  0.00    -0.084 Cl
ATOM     21  C4  BMU d   1      36.448  34.479  16.074  0.00  0.00    -0.056 A 
ATOM     22  H3  BMU d   1      38.155  35.383  16.994  0.00  0.00     0.086 H 
ATOM     23  H2  BMU d   1      36.969  34.267  15.148  0.00  0.00     0.087 H 
ENDBRANCH   9  13
ENDBRANCH   1   7
BRANCH   5  24
ATOM     24  C15 BMU d   1      31.402  30.733  12.723  0.00  0.00     0.004 C 
ATOM     25  H8  BMU d   1      30.632  30.112  12.242  0.00  0.00     0.059 H 
ATOM     26  H9  BMU d   1      31.498  30.444  13.780  0.00  0.00     0.059 H 
ATOM     27  H10 BMU d   1      32.365  30.583  12.213  0.00  0.00     0.059 H 
ENDBRANCH   5  24
BRANCH   3  28
ATOM     28  C16 BMU d   1      28.878  34.807  11.778  0.00  0.00    -0.005 C 
BRANCH  28  29
ATOM     29  C17 BMU d   1      28.336  35.629  12.967  0.00  0.00    -0.064 C 
ATOM     30  H11 BMU d   1      27.542  36.303  12.615  0.00  0.00     0.028 H 
ATOM     31  H12 BMU d   1      29.152  36.222  13.405  0.00  0.00     0.028 H 
ATOM     32  H13 BMU d   1      27.928  34.948  13.728  0.00  0.00     0.028 H 
ENDBRANCH  28  29
BRANCH  28  33
ATOM     33  C18 BMU d   1      27.711  33.985  11.174  0.00  0.00    -0.064 C 
ATOM     34  H14 BMU d   1      28.081  33.393  10.324  0.00  0.00     0.028 H 
ATOM     35  H15 BMU d   1      26.922  34.669  10.828  0.00  0.00     0.028 H 
ATOM     36  H16 BMU d   1      27.302  33.310  11.941  0.00  0.00     0.028 H 
ENDBRANCH  28  33
BRANCH  28  37
ATOM     37  C19 BMU d   1      29.405  35.760  10.690  0.00  0.00    -0.064 C 
ATOM     38  H17 BMU d   1      30.236  36.356  11.096  0.00  0.00     0.028 H 
ATOM     39  H18 BMU d   1      28.596  36.431  10.367  0.00  0.00     0.028 H 
ATOM     40  H19 BMU d   1      29.760  35.174   9.830  0.00  0.00     0.028 H 
ENDBRANCH  28  37
ENDBRANCH   3  28
TORSDOF 7
