REMARK  3 active torsions:
REMARK  status: ('A' for Active; 'I' for Inactive)
REMARK    1  A    between atoms: P_1  and  O1P_2 
REMARK    2  A    between atoms: O1P_2  and  C2_6 
REMARK    3  A    between atoms: C2_6  and  C1_7 
ROOT
ATOM      1  C2  PGA d   1      -8.661  -8.230  48.217  0.00  0.00     0.112 C 
ATOM      2  H1  PGA d   1      -9.277  -8.986  47.708  0.00  0.00     0.092 H 
ATOM      3  H2  PGA d   1      -8.434  -8.569  49.238  0.00  0.00     0.092 H 
ENDROOT
BRANCH   1   4
ATOM      4  O1P PGA d   1      -9.333  -6.995  48.251  0.00  0.00    -0.272 OA
BRANCH   4   5
ATOM      5  P   PGA d   1     -10.719  -6.884  49.115  0.00  0.00     0.422 P 
ATOM      6  O2P PGA d   1     -10.579  -7.923  50.191  0.00  0.00    -0.617 OA
ATOM      7  O3P PGA d   1     -11.888  -7.063  48.135  0.00  0.00    -0.617 OA
ATOM      8  O4P PGA d   1     -10.808  -5.490  49.716  0.00  0.00    -0.617 OA
ENDBRANCH   4   5
ENDBRANCH   1   4
BRANCH   1   9
ATOM      9  C1  PGA d   1      -7.398  -7.993  47.457  0.00  0.00     0.198 C 
ATOM     10  O1  PGA d   1      -6.248  -8.620  47.850  0.00  0.00    -0.646 OA
ATOM     11  O2  PGA d   1      -7.416  -7.142  46.469  0.00  0.00    -0.646 OA
ENDBRANCH   1   9
TORSDOF 3
