REMARK  11 active torsions:
REMARK  status: ('A' for Active; 'I' for Inactive)
REMARK    1  A    between atoms: C7_11  and  C7M_12 
REMARK    2  A    between atoms: C8_13  and  C8M_14 
REMARK    3  A    between atoms: N10_17  and  C1'_19 
REMARK    4  A    between atoms: C1'_19  and  C2'_20 
REMARK    5  A    between atoms: C2'_20  and  C3'_22 
REMARK    6  A    between atoms: C2'_20  and  O2'_21 
REMARK    7  A    between atoms: C3'_22  and  C4'_24 
REMARK    8  A    between atoms: C3'_22  and  O3'_23 
REMARK    9  A    between atoms: C4'_24  and  C5'_26 
REMARK   10  A    between atoms: C4'_24  and  O4'_25 
REMARK   11  A    between atoms: C5'_26  and  O5'_27 
ROOT
ATOM      1  N1  NON d   1      74.570  22.331  38.890  0.00  0.00    -0.173 NA
ATOM      2  C2  NON d   1      73.828  21.448  38.124  0.00  0.00     0.350 A 
ATOM      3  O2  NON d   1      74.439  20.711  37.388  0.00  0.00    -0.244 OA
ATOM      4  N3  NON d   1      72.475  21.518  38.299  0.00  0.00    -0.272 N 
ATOM      5  C4  NON d   1      71.725  22.370  39.150  0.00  0.00     0.282 A 
ATOM      6  O4  NON d   1      70.518  22.315  39.199  0.00  0.00    -0.265 OA
ATOM      7  C4A NON d   1      72.597  23.330  39.960  0.00  0.00     0.171 A 
ATOM      8  N5  NON d   1      72.018  24.187  40.789  0.00  0.00    -0.237 NA
ATOM      9  C5A NON d   1      72.836  25.083  41.541  0.00  0.00     0.085 A 
ATOM     10  C6  NON d   1      72.122  26.012  42.422  0.00  0.00    -0.047 A 
ATOM     11  C7  NON d   1      72.930  26.901  43.147  0.00  0.00    -0.054 A 
ATOM     12  C8  NON d   1      74.412  26.855  42.998  0.00  0.00    -0.054 A 
ATOM     13  C9  NON d   1      75.128  25.975  42.173  0.00  0.00    -0.048 A 
ATOM     14  C9A NON d   1      74.278  25.068  41.424  0.00  0.00     0.065 A 
ATOM     15  N10 NON d   1      74.850  24.078  40.486  0.00  0.00    -0.325 N 
ATOM     16  C10 NON d   1      74.016  23.249  39.784  0.00  0.00     0.170 A 
ATOM     17  H1  NON d   1      71.937  20.878  37.750  0.00  0.00     0.174 HD
ATOM     18  H2  NON d   1      71.041  26.012  42.508  0.00  0.00     0.088 H 
ATOM     19  H9  NON d   1      76.210  25.973  42.102  0.00  0.00     0.087 H 
ENDROOT
BRANCH  15  20
ATOM     20  C1' NON d   1      76.321  24.037  40.354  0.00  0.00     0.028 C 
ATOM     21  H10 NON d   1      76.606  22.981  40.237  0.00  0.00     0.069 H 
ATOM     22  H11 NON d   1      76.741  24.429  41.292  0.00  0.00     0.069 H 
BRANCH  20  23
ATOM     23  C2' NON d   1      76.975  24.808  39.212  0.00  0.00     0.078 C 
ATOM     24  H12 NON d   1      76.498  25.790  39.079  0.00  0.00     0.089 H 
BRANCH  23  25
ATOM     25  C3' NON d   1      78.423  25.010  39.541  0.00  0.00     0.088 C 
ATOM     26  H14 NON d   1      78.874  25.354  38.599  0.00  0.00     0.091 H 
BRANCH  25  27
ATOM     27  C4' NON d   1      78.776  25.998  40.603  0.00  0.00     0.083 C 
ATOM     28  H16 NON d   1      78.620  25.467  41.553  0.00  0.00     0.090 H 
BRANCH  27  29
ATOM     29  C5' NON d   1      80.153  26.759  40.685  0.00  0.00     0.043 C 
ATOM     30  H18 NON d   1      80.910  26.134  41.182  0.00  0.00     0.078 H 
ATOM     31  H19 NON d   1      80.039  27.704  41.236  0.00  0.00     0.078 H 
BRANCH  29  32
ATOM     32  O5' NON d   1      80.528  27.014  39.320  0.00  0.00    -0.398 OA
ATOM     33  H20 NON d   1      80.612  26.189  38.857  0.00  0.00     0.209 HD
ENDBRANCH  29  32
ENDBRANCH  27  29
BRANCH  27  34
ATOM     34  O4' NON d   1      77.965  27.187  40.543  0.00  0.00    -0.391 OA
ATOM     35  H17 NON d   1      78.206  27.695  39.777  0.00  0.00     0.210 HD
ENDBRANCH  27  34
ENDBRANCH  25  27
BRANCH  25  36
ATOM     36  O3' NON d   1      79.161  23.882  39.993  0.00  0.00    -0.390 OA
ATOM     37  H15 NON d   1      79.026  23.156  39.395  0.00  0.00     0.210 HD
ENDBRANCH  25  36
ENDBRANCH  23  25
BRANCH  23  38
ATOM     38  O2' NON d   1      76.745  23.988  38.035  0.00  0.00    -0.391 OA
ATOM     39  H13 NON d   1      75.810  23.903  37.887  0.00  0.00     0.210 HD
ENDBRANCH  23  38
ENDBRANCH  20  23
ENDBRANCH  15  20
BRANCH  12  40
ATOM     40  C8M NON d   1      75.283  27.871  43.815  0.00  0.00    -0.051 C 
ATOM     41  H6  NON d   1      76.347  27.704  43.592  0.00  0.00     0.033 H 
ATOM     42  H7  NON d   1      75.106  27.723  44.891  0.00  0.00     0.033 H 
ATOM     43  H8  NON d   1      75.007  28.898  43.536  0.00  0.00     0.033 H 
ENDBRANCH  12  40
BRANCH  11  44
ATOM     44  C7M NON d   1      72.335  27.959  44.110  0.00  0.00    -0.051 C 
ATOM     45  H3  NON d   1      71.238  27.873  44.116  0.00  0.00     0.033 H 
ATOM     46  H4  NON d   1      72.622  28.965  43.772  0.00  0.00     0.033 H 
ATOM     47  H5  NON d   1      72.722  27.789  45.126  0.00  0.00     0.033 H 
ENDBRANCH  11  44
TORSDOF 11
