REMARK  15 active torsions:
REMARK  status: ('A' for Active; 'I' for Inactive)
REMARK    1  A    between atoms: C1_1  and  O2_2 
REMARK    2  A    between atoms: C6_6  and  C9_9 
REMARK    3  A    between atoms: C7_7  and  C8_8 
REMARK    4  A    between atoms: N11_11  and  C12_12 
REMARK    5  A    between atoms: C12_12  and  C20_20 
REMARK    6  A    between atoms: C12_12  and  C13_13 
REMARK    7  A    between atoms: C13_13  and  C14_14 
REMARK    8  A    between atoms: C20_20  and  C22_22 
REMARK    9  A    between atoms: C20_20  and  O21_21 
REMARK       I    between atoms: C22_22  and  N24_24 
REMARK   10  A    between atoms: C27_27  and  C29_29 
REMARK   11  A    between atoms: C27_27  and  C28_28 
REMARK   12  A    between atoms: C30_30  and  C31_31 
REMARK       I    between atoms: C31_31  and  N33_33 
REMARK   13  A    between atoms: N33_33  and  C34_34 
REMARK   14  A    between atoms: C34_34  and  C35_35 
REMARK   15  A    between atoms: C36_36  and  C41_41 
ROOT
ATOM      1  C20 JE2 d   1      20.868  -0.504  15.603  0.00  0.00     0.132 C 
ATOM      2  H17 JE2 d   1      21.959  -0.545  15.737  0.00  0.00     0.101 H 
ENDROOT
BRANCH   1   3
ATOM      3  C12 JE2 d   1      20.173  -0.362  16.980  0.00  0.00     0.048 C 
ATOM      4  H9  JE2 d   1      20.168  -1.334  17.496  0.00  0.00     0.077 H 
BRANCH   3   5
ATOM      5  N11 JE2 d   1      20.970   0.659  17.757  0.00  0.00    -0.360 N 
ATOM      6  C9  JE2 d   1      21.848   0.267  18.666  0.00  0.00     0.186 C 
ATOM      7  O10 JE2 d   1      22.069  -0.990  18.943  0.00  0.00    -0.172 OA
ATOM      8  H8  JE2 d   1      20.834   1.634  17.584  0.00  0.00     0.162 HD
BRANCH   6   9
ATOM      9  C6  JE2 d   1      22.533   1.347  19.433  0.00  0.00     0.026 A 
ATOM     10  C5  JE2 d   1      21.727   2.354  20.024  0.00  0.00    -0.068 A 
ATOM     11  C4  JE2 d   1      22.339   3.432  20.726  0.00  0.00    -0.079 A 
ATOM     12  H4  JE2 d   1      20.647   2.303  19.942  0.00  0.00     0.085 H 
ATOM     13  C3  JE2 d   1      23.687   3.448  20.947  0.00  0.00    -0.050 A 
ATOM     14  H3  JE2 d   1      21.727   4.250  21.089  0.00  0.00     0.083 H 
ATOM     15  C1  JE2 d   1      24.500   2.399  20.424  0.00  0.00     0.072 A 
ATOM     16  H2  JE2 d   1      24.136   4.253  21.517  0.00  0.00     0.087 H 
ATOM     17  C7  JE2 d   1      23.950   1.358  19.605  0.00  0.00    -0.014 A 
BRANCH  15  18
ATOM     18  O2  JE2 d   1      25.856   2.446  20.562  0.00  0.00    -0.360 OA
ATOM     19  H1  JE2 d   1      26.190   3.227  20.136  0.00  0.00     0.217 HD
ENDBRANCH  15  18
BRANCH  17  20
ATOM     20  C8  JE2 d   1      24.899   0.374  18.930  0.00  0.00    -0.048 C 
ATOM     21  H5  JE2 d   1      25.934   0.599  19.229  0.00  0.00     0.033 H 
ATOM     22  H6  JE2 d   1      24.805   0.464  17.838  0.00  0.00     0.033 H 
ATOM     23  H7  JE2 d   1      24.643  -0.651  19.237  0.00  0.00     0.033 H 
ENDBRANCH  17  20
ENDBRANCH   6   9
ENDBRANCH   3   5
BRANCH   3  24
ATOM     24  C13 JE2 d   1      18.686   0.194  16.874  0.00  0.00    -0.019 C 
ATOM     25  H10 JE2 d   1      18.038  -0.601  16.477  0.00  0.00     0.043 H 
ATOM     26  H11 JE2 d   1      18.677   1.052  16.186  0.00  0.00     0.043 H 
BRANCH  24  27
ATOM     27  C14 JE2 d   1      18.148   0.637  18.212  0.00  0.00    -0.056 A 
ATOM     28  C19 JE2 d   1      17.797  -0.295  19.213  0.00  0.00    -0.077 A 
ATOM     29  C18 JE2 d   1      17.375   0.104  20.472  0.00  0.00    -0.082 A 
ATOM     30  H16 JE2 d   1      17.859  -1.354  18.991  0.00  0.00     0.084 H 
ATOM     31  C17 JE2 d   1      17.324   1.460  20.812  0.00  0.00    -0.083 A 
ATOM     32  H15 JE2 d   1      17.081  -0.643  21.201  0.00  0.00     0.083 H 
ATOM     33  C16 JE2 d   1      17.677   2.408  19.838  0.00  0.00    -0.082 A 
ATOM     34  H14 JE2 d   1      17.019   1.772  21.804  0.00  0.00     0.083 H 
ATOM     35  C15 JE2 d   1      18.094   2.032  18.521  0.00  0.00    -0.077 A 
ATOM     36  H13 JE2 d   1      17.632   3.461  20.092  0.00  0.00     0.083 H 
ATOM     37  H12 JE2 d   1      18.360   2.780  17.783  0.00  0.00     0.084 H 
ENDBRANCH  24  27
ENDBRANCH   3  24
ENDBRANCH   1   3
BRANCH   1  38
ATOM     38  C22 JE2 d   1      20.360  -1.785  14.942  0.00  0.00     0.252 C 
ATOM     39  N24 JE2 d   1      21.105  -2.923  15.130  0.00  0.00    -0.326 N 
ATOM     40  C30 JE2 d   1      20.635  -4.226  14.610  0.00  0.00     0.108 C 
ATOM     41  C25 JE2 d   1      22.390  -2.947  15.922  0.00  0.00     0.040 C 
ATOM     42  C27 JE2 d   1      21.898  -5.137  14.596  0.00  0.00     0.032 C 
ATOM     43  H27 JE2 d   1      20.265  -4.110  13.581  0.00  0.00     0.090 H 
ATOM     44  S26 JE2 d   1      22.775  -4.705  16.144  0.00  0.00    -0.137 SA
ATOM     45  H19 JE2 d   1      22.252  -2.456  16.896  0.00  0.00     0.081 H 
ATOM     46  H20 JE2 d   1      23.195  -2.442  15.367  0.00  0.00     0.081 H 
ATOM     47  O23 JE2 d   1      19.299  -1.864  14.288  0.00  0.00    -0.270 OA
BRANCH  40  48
ATOM     48  C31 JE2 d   1      19.474  -4.746  15.483  0.00  0.00     0.242 C 
ATOM     49  N33 JE2 d   1      18.568  -5.561  14.791  0.00  0.00    -0.355 N 
ATOM     50  H28 JE2 d   1      18.694  -5.711  13.810  0.00  0.00     0.162 HD
ATOM     51  O32 JE2 d   1      19.360  -4.502  16.721  0.00  0.00    -0.271 OA
BRANCH  49  52
ATOM     52  C34 JE2 d   1      17.426  -6.206  15.483  0.00  0.00     0.019 C 
ATOM     53  H29 JE2 d   1      17.313  -5.769  16.486  0.00  0.00     0.071 H 
ATOM     54  H30 JE2 d   1      17.616  -7.286  15.572  0.00  0.00     0.071 H 
BRANCH  52  55
ATOM     55  C35 JE2 d   1      16.136  -5.981  14.682  0.00  0.00    -0.035 A 
ATOM     56  C40 JE2 d   1      15.577  -7.073  14.028  0.00  0.00    -0.075 A 
ATOM     57  C39 JE2 d   1      14.365  -6.959  13.309  0.00  0.00    -0.082 A 
ATOM     58  H34 JE2 d   1      16.081  -8.032  14.070  0.00  0.00     0.084 H 
ATOM     59  C38 JE2 d   1      13.736  -5.747  13.296  0.00  0.00    -0.082 A 
ATOM     60  H33 JE2 d   1      13.947  -7.810  12.783  0.00  0.00     0.083 H 
ATOM     61  C37 JE2 d   1      14.267  -4.624  13.979  0.00  0.00    -0.077 A 
ATOM     62  H32 JE2 d   1      12.806  -5.641  12.749  0.00  0.00     0.083 H 
ATOM     63  C36 JE2 d   1      15.480  -4.731  14.667  0.00  0.00    -0.054 A 
ATOM     64  H31 JE2 d   1      13.732  -3.681  13.968  0.00  0.00     0.084 H 
BRANCH  63  65
ATOM     65  C41 JE2 d   1      16.013  -3.575  15.420  0.00  0.00    -0.051 C 
ATOM     66  H35 JE2 d   1      16.968  -3.852  15.890  0.00  0.00     0.033 H 
ATOM     67  H36 JE2 d   1      15.293  -3.281  16.198  0.00  0.00     0.033 H 
ATOM     68  H37 JE2 d   1      16.174  -2.732  14.732  0.00  0.00     0.033 H 
ENDBRANCH  63  65
ENDBRANCH  52  55
ENDBRANCH  49  52
ENDBRANCH  40  48
BRANCH  42  69
ATOM     69  C29 JE2 d   1      21.562  -6.638  14.515  0.00  0.00    -0.058 C 
ATOM     70  H24 JE2 d   1      21.038  -6.846  13.570  0.00  0.00     0.029 H 
ATOM     71  H25 JE2 d   1      20.916  -6.915  15.361  0.00  0.00     0.029 H 
ATOM     72  H26 JE2 d   1      22.492  -7.225  14.555  0.00  0.00     0.029 H 
ENDBRANCH  42  69
BRANCH  42  73
ATOM     73  C28 JE2 d   1      22.745  -4.760  13.379  0.00  0.00    -0.058 C 
ATOM     74  H21 JE2 d   1      22.204  -5.026  12.459  0.00  0.00     0.029 H 
ATOM     75  H22 JE2 d   1      23.700  -5.305  13.414  0.00  0.00     0.029 H 
ATOM     76  H23 JE2 d   1      22.940  -3.678  13.389  0.00  0.00     0.029 H 
ENDBRANCH  42  73
ENDBRANCH   1  38
BRANCH   1  77
ATOM     77  O21 JE2 d   1      20.521   0.582  14.746  0.00  0.00    -0.384 OA
ATOM     78  H18 JE2 d   1      20.931   0.458  13.898  0.00  0.00     0.210 HD
ENDBRANCH   1  77
TORSDOF 15
