REMARK  19 active torsions:
REMARK  status: ('A' for Active; 'I' for Inactive)
REMARK    1  A    between atoms: C7_1  and  O1_31 
REMARK    2  A    between atoms: C24_8  and  C8_2 
REMARK    3  A    between atoms: C24_8  and  C12_3 
REMARK    4  A    between atoms: O1_31  and  C13_4 
REMARK    5  A    between atoms: C21_5  and  O2_32 
REMARK    6  A    between atoms: C22_6  and  O11_48 
REMARK    7  A    between atoms: C23_7  and  O4_34 
REMARK    8  A    between atoms: O4_34  and  C27_9 
REMARK    9  A    between atoms: C31_13  and  N1_30 
REMARK   10  A    between atoms: C9_14  and  O5_35 
REMARK       I    between atoms: N1_30  and  C14_18 
REMARK   11  A    between atoms: C14_18  and  C15_19 
REMARK   12  A    between atoms: C17_21  and  C25_25 
REMARK   13  A    between atoms: C18_22  and  O9_39 
REMARK   14  A    between atoms: C25_25  and  C26_26 
REMARK   15  A    between atoms: C29_27  and  C34_29 
REMARK   16  A    between atoms: C29_27  and  C30_28 
REMARK   17  A    between atoms: O2_32  and  C10_46 
REMARK   18  A    between atoms: C10_46  and  C3_42 
REMARK   19  A    between atoms: C5_44  and  C6_45 
ROOT
ATOM      1  C27 CBN d   1      21.080  30.527  34.993  0.00  0.00     0.096 A 
ATOM      2  C28 CBN d   1      20.118  31.521  35.418  0.00  0.00     0.102 A 
ATOM      3  C4  CBN d   1      19.899  32.669  34.581  0.00  0.00     0.117 A 
ATOM      4  C11 CBN d   1      18.971  34.987  34.335  0.00  0.00     0.318 A 
ATOM      5  C31 CBN d   1      19.654  35.136  33.018  0.00  0.00     0.146 A 
ATOM      6  C9  CBN d   1      20.445  34.112  32.549  0.00  0.00     0.111 A 
ATOM      7  C32 CBN d   1      20.627  32.839  33.318  0.00  0.00     0.035 A 
ATOM      8  C33 CBN d   1      21.574  31.819  32.890  0.00  0.00    -0.065 A 
ATOM      9  C35 CBN d   1      21.807  30.676  33.711  0.00  0.00    -0.048 A 
ATOM     10  O6  CBN d   1      19.061  33.742  35.021  0.00  0.00    -0.271 OA
ATOM     11  O7  CBN d   1      18.192  35.797  34.737  0.00  0.00    -0.257 OA
ATOM     12 CL1  CBN d   1      19.240  31.404  36.920  0.00  0.00    -0.078 Cl
ATOM     13  H14 CBN d   1      22.101  31.928  31.949  0.00  0.00     0.085 H 
ATOM     14  H15 CBN d   1      22.515  29.918  33.397  0.00  0.00     0.087 H 
ENDROOT
BRANCH   1  15
ATOM     15  O4  CBN d   1      21.276  29.461  35.867  0.00  0.00    -0.316 OA
BRANCH  15  16
ATOM     16  C23 CBN d   1      21.939  28.269  35.489  0.00  0.00     0.165 C 
ATOM     17  C22 CBN d   1      21.980  27.398  36.780  0.00  0.00     0.111 C 
ATOM     18  C21 CBN d   1      20.553  26.864  37.001  0.00  0.00     0.105 C 
ATOM     19  H12 CBN d   1      22.288  28.030  37.626  0.00  0.00     0.094 H 
ATOM     20  C13 CBN d   1      20.083  26.085  35.750  0.00  0.00     0.095 C 
ATOM     21  H11 CBN d   1      19.876  27.715  37.165  0.00  0.00     0.092 H 
ATOM     22  C24 CBN d   1      20.006  27.028  34.495  0.00  0.00     0.085 C 
ATOM     23  H10 CBN d   1      20.801  25.282  35.529  0.00  0.00     0.092 H 
ATOM     24  O3  CBN d   1      21.262  27.686  34.374  0.00  0.00    -0.345 OA
ATOM     25  H13 CBN d   1      22.971  28.493  35.180  0.00  0.00     0.134 H 
BRANCH  17  26
ATOM     26  O11 CBN d   1      22.853  26.265  36.710  0.00  0.00    -0.388 OA
ATOM     27  H37 CBN d   1      22.802  25.776  37.523  0.00  0.00     0.210 HD
ENDBRANCH  17  26
BRANCH  18  28
ATOM     28  O2  CBN d   1      20.518  26.019  38.154  0.00  0.00    -0.305 OA
BRANCH  28  29
ATOM     29  C10 CBN d   1      20.378  26.573  39.407  0.00  0.00     0.310 C 
ATOM     30  O10 CBN d   1      20.524  27.762  39.612  0.00  0.00    -0.258 OA
BRANCH  29  31
ATOM     31  C3  CBN d   1      20.040  25.633  40.453  0.00  0.00     0.108 A 
ATOM     32  N2  CBN d   1      20.310  25.940  41.856  0.00  0.00    -0.355 N 
ATOM     33  C5  CBN d   1      19.890  24.725  42.561  0.00  0.00     0.005 A 
ATOM     34  H33 CBN d   1      20.702  26.805  42.255  0.00  0.00     0.166 HD
ATOM     35  C1  CBN d   1      19.513  23.742  41.559  0.00  0.00    -0.059 A 
ATOM     36  C2  CBN d   1      19.556  24.269  40.345  0.00  0.00    -0.049 A 
ATOM     37  H31 CBN d   1      19.233  22.712  41.777  0.00  0.00     0.086 H 
ATOM     38  H32 CBN d   1      19.276  23.764  39.422  0.00  0.00     0.087 H 
BRANCH  33  39
ATOM     39  C6  CBN d   1      19.681  24.860  44.006  0.00  0.00    -0.037 C 
ATOM     40  H34 CBN d   1      19.370  23.891  44.424  0.00  0.00     0.035 H 
ATOM     41  H35 CBN d   1      18.898  25.609  44.195  0.00  0.00     0.035 H 
ATOM     42  H36 CBN d   1      20.618  25.181  44.484  0.00  0.00     0.035 H 
ENDBRANCH  33  39
ENDBRANCH  29  31
ENDBRANCH  28  29
ENDBRANCH  18  28
BRANCH  20  43
ATOM     43  O1  CBN d   1      18.830  25.504  36.088  0.00  0.00    -0.385 OA
BRANCH  43  44
ATOM     44  C7  CBN d   1      18.802  24.105  36.349  0.00  0.00     0.005 C 
ATOM     45  H1  CBN d   1      17.775  23.798  36.595  0.00  0.00     0.066 H 
ATOM     46  H2  CBN d   1      19.466  23.877  37.196  0.00  0.00     0.066 H 
ATOM     47  H3  CBN d   1      19.144  23.559  35.458  0.00  0.00     0.066 H 
ENDBRANCH  43  44
ENDBRANCH  20  43
BRANCH  22  48
ATOM     48  C12 CBN d   1      19.780  26.263  33.194  0.00  0.00    -0.045 C 
ATOM     49  H7  CBN d   1      19.735  26.973  32.355  0.00  0.00     0.031 H 
ATOM     50  H8  CBN d   1      18.833  25.707  33.255  0.00  0.00     0.031 H 
ATOM     51  H9  CBN d   1      20.609  25.558  33.034  0.00  0.00     0.031 H 
ENDBRANCH  22  48
BRANCH  22  52
ATOM     52  C8  CBN d   1      18.867  28.061  34.496  0.00  0.00    -0.045 C 
ATOM     53  H4  CBN d   1      18.914  28.660  33.574  0.00  0.00     0.031 H 
ATOM     54  H5  CBN d   1      18.973  28.723  35.368  0.00  0.00     0.031 H 
ATOM     55  H6  CBN d   1      17.899  27.540  34.546  0.00  0.00     0.031 H 
ENDBRANCH  22  52
ENDBRANCH  15  16
ENDBRANCH   1  15
BRANCH   6  56
ATOM     56  O5  CBN d   1      21.115  34.220  31.371  0.00  0.00    -0.357 OA
ATOM     57  H29 CBN d   1      21.605  33.422  31.212  0.00  0.00     0.217 HD
ENDBRANCH   6  56
BRANCH   5  58
ATOM     58  N1  CBN d   1      19.318  36.294  32.184  0.00  0.00    -0.316 N 
ATOM     59  C14 CBN d   1      18.084  36.676  31.852  0.00  0.00     0.256 C 
ATOM     60  O8  CBN d   1      17.887  37.824  31.757  0.00  0.00    -0.267 OA
ATOM     61  H28 CBN d   1      20.077  36.843  31.835  0.00  0.00     0.169 HD
BRANCH  59  62
ATOM     62  C15 CBN d   1      17.000  35.742  31.497  0.00  0.00     0.033 A 
ATOM     63  C20 CBN d   1      15.620  36.140  31.766  0.00  0.00    -0.065 A 
ATOM     64  C19 CBN d   1      14.544  35.351  31.245  0.00  0.00    -0.050 A 
ATOM     65  H18 CBN d   1      15.412  37.026  32.355  0.00  0.00     0.085 H 
ATOM     66  C18 CBN d   1      14.845  34.145  30.489  0.00  0.00     0.072 A 
ATOM     67  H17 CBN d   1      13.515  35.650  31.412  0.00  0.00     0.087 H 
ATOM     68  C17 CBN d   1      16.212  33.701  30.252  0.00  0.00    -0.021 A 
ATOM     69  C16 CBN d   1      17.292  34.507  30.756  0.00  0.00    -0.059 A 
ATOM     70  H16 CBN d   1      18.319  34.204  30.589  0.00  0.00     0.086 H 
BRANCH  66  71
ATOM     71  O9  CBN d   1      13.797  33.380  30.044  0.00  0.00    -0.360 OA
ATOM     72  H30 CBN d   1      12.978  33.802  30.275  0.00  0.00     0.217 HD
ENDBRANCH  66  71
BRANCH  68  73
ATOM     73  C25 CBN d   1      16.501  32.412  29.517  0.00  0.00    -0.023 C 
ATOM     74  H19 CBN d   1      17.547  32.436  29.176  0.00  0.00     0.046 H 
ATOM     75  H20 CBN d   1      15.833  32.354  28.645  0.00  0.00     0.046 H 
BRANCH  73  76
ATOM     76  C26 CBN d   1      16.296  31.130  30.375  0.00  0.00    -0.097 C 
ATOM     77  C29 CBN d   1      17.196  30.279  30.898  0.00  0.00    -0.091 C 
ATOM     78  H21 CBN d   1      15.257  30.882  30.586  0.00  0.00     0.077 H 
BRANCH  77  79
ATOM     79  C34 CBN d   1      18.621  30.536  30.738  0.00  0.00    -0.055 C 
ATOM     80  H25 CBN d   1      18.765  31.415  30.093  0.00  0.00     0.033 H 
ATOM     81  H26 CBN d   1      19.102  29.661  30.277  0.00  0.00     0.033 H 
ATOM     82  H27 CBN d   1      19.072  30.726  31.723  0.00  0.00     0.033 H 
ENDBRANCH  77  79
BRANCH  77  83
ATOM     83  C30 CBN d   1      16.721  29.156  31.716  0.00  0.00    -0.055 C 
ATOM     84  H22 CBN d   1      17.581  28.564  32.062  0.00  0.00     0.033 H 
ATOM     85  H23 CBN d   1      16.056  28.519  31.114  0.00  0.00     0.033 H 
ATOM     86  H24 CBN d   1      16.169  29.543  32.585  0.00  0.00     0.033 H 
ENDBRANCH  77  83
ENDBRANCH  73  76
ENDBRANCH  68  73
ENDBRANCH  59  62
ENDBRANCH   5  58
TORSDOF 19
