REMARK  0 active torsions:
REMARK  status: ('A' for Active; 'I' for Inactive)
ROOT
ATOM      1  CG  BNZ d   1      27.385   5.881   2.928  0.00  0.00    -0.083 A 
ATOM      2  CD1 BNZ d   1      26.408   5.086   3.512  0.00  0.00    -0.083 A 
ATOM      3  CD2 BNZ d   1      27.891   6.973   3.620  0.00  0.00    -0.083 A 
ATOM      4  CE1 BNZ d   1      25.957   5.352   4.805  0.00  0.00    -0.083 A 
ATOM      5  CE2 BNZ d   1      27.441   7.240   4.913  0.00  0.00    -0.083 A 
ATOM      6  CZ  BNZ d   1      26.490   6.418   5.520  0.00  0.00    -0.083 A 
ATOM      7  H1  BNZ d   1      27.752   5.650   1.935  0.00  0.00     0.083 H 
ATOM      8  H2  BNZ d   1      25.992   4.252   2.959  0.00  0.00     0.083 H 
ATOM      9  H3  BNZ d   1      28.632   7.615   3.158  0.00  0.00     0.083 H 
ATOM     10  H4  BNZ d   1      25.192   4.728   5.252  0.00  0.00     0.083 H 
ATOM     11  H5  BNZ d   1      27.834   8.095   5.452  0.00  0.00     0.083 H 
ATOM     12  H6  BNZ d   1      26.171   6.609   6.538  0.00  0.00     0.083 H 
ENDROOT
TORSDOF 0
