REMARK  6 active torsions:
REMARK  status: ('A' for Active; 'I' for Inactive)
REMARK    1  A    between atoms: C2_2  and  C19_19 
REMARK    2  A    between atoms: C8_8  and  N13_13 
REMARK    3  A    between atoms: C9_9  and  C10_10 
REMARK       I    between atoms: N13_13  and  C14_14 
REMARK    4  A    between atoms: C14_14  and  C15_15 
REMARK    5  A    between atoms: C19_19  and  O20_20 
REMARK    6  A    between atoms: O20_20  and  C21_21 
ROOT
ATOM      1  O1  DBD d   1      13.892  44.198  17.349  0.00  0.00    -0.378 OA
ATOM      2  C2  DBD d   1      13.816  45.044  18.486  0.00  0.00     0.091 C 
ATOM      3  C3  DBD d   1      12.387  45.372  18.768  0.00  0.00     0.023 A 
ATOM      4  C4  DBD d   1      11.353  45.039  17.981  0.00  0.00    -0.021 A 
ATOM      5  C5  DBD d   1      11.543  44.211  16.758  0.00  0.00    -0.019 C 
ATOM      6  C6  DBD d   1      12.784  43.377  17.076  0.00  0.00     0.024 C 
ATOM      7  S7  DBD d   1      11.937  46.075  20.258  0.00  0.00    -0.072 SA
ATOM      8  C8  DBD d   1      10.288  45.912  19.771  0.00  0.00     0.095 A 
ATOM      9  C9  DBD d   1      10.047  45.402  18.557  0.00  0.00     0.082 A 
ATOM     10  H1  DBD d   1      14.257  44.566  19.374  0.00  0.00     0.095 H 
ATOM     11  H2  DBD d   1      11.713  44.846  15.876  0.00  0.00     0.043 H 
ATOM     12  H3  DBD d   1      10.670  43.565  16.582  0.00  0.00     0.043 H 
ATOM     13  H4  DBD d   1      12.578  42.748  17.955  0.00  0.00     0.074 H 
ATOM     14  H5  DBD d   1      13.016  42.736  16.213  0.00  0.00     0.074 H 
ENDROOT
BRANCH   2  15
ATOM     15  C19 DBD d   1      14.638  46.212  18.060  0.00  0.00     0.056 C 
ATOM     16  H7  DBD d   1      14.770  46.914  18.896  0.00  0.00     0.079 H 
ATOM     17  H8  DBD d   1      14.159  46.732  17.217  0.00  0.00     0.079 H 
BRANCH  15  18
ATOM     18  O20 DBD d   1      15.877  45.679  17.667  0.00  0.00    -0.330 OA
BRANCH  18  19
ATOM     19  C21 DBD d   1      16.713  45.231  18.698  0.00  0.00     0.188 A 
ATOM     20  C22 DBD d   1      17.949  44.543  18.423  0.00  0.00     0.041 A 
ATOM     21  C23 DBD d   1      18.635  44.315  19.609  0.00  0.00     0.096 A 
ATOM     22  C26 DBD d   1      18.462  44.268  17.177  0.00  0.00    -0.067 C 
ATOM     23  S24 DBD d   1      17.780  44.784  21.023  0.00  0.00     0.286 S 
ATOM     24  C29 DBD d   1      19.871  43.620  19.501  0.00  0.00    -0.059 C 
ATOM     25  N25 DBD d   1      16.601  45.291  20.050  0.00  0.00    -0.134 NA
ATOM     26  O30 DBD d   1      18.420  45.879  21.625  0.00  0.00    -0.198 OA
ATOM     27  O31 DBD d   1      17.376  43.603  21.782  0.00  0.00    -0.198 OA
ATOM     28  C28 DBD d   1      20.396  43.313  18.253  0.00  0.00    -0.081 C 
ATOM     29  H12 DBD d   1      20.406  43.328  20.398  0.00  0.00     0.085 H 
ATOM     30  C27 DBD d   1      19.670  43.576  17.086  0.00  0.00    -0.082 C 
ATOM     31  H11 DBD d   1      21.380  42.864  18.182  0.00  0.00     0.083 H 
ATOM     32  H10 DBD d   1      20.042  43.246  16.123  0.00  0.00     0.083 H 
ATOM     33  H9  DBD d   1      17.938  44.583  16.282  0.00  0.00     0.085 H 
ENDBRANCH  18  19
ENDBRANCH  15  18
ENDBRANCH   2  15
BRANCH   9  34
ATOM     34  C10 DBD d   1       8.663  45.297  17.953  0.00  0.00     0.212 C 
ATOM     35  O11 DBD d   1       8.537  45.250  16.765  0.00  0.00    -0.644 OA
ATOM     36  O12 DBD d   1       7.552  45.243  18.690  0.00  0.00    -0.644 OA
ENDBRANCH   9  34
BRANCH   8  37
ATOM     37  N13 DBD d   1       9.206  46.366  20.611  0.00  0.00    -0.311 N 
ATOM     38  C14 DBD d   1       9.318  47.070  21.737  0.00  0.00     0.323 C 
ATOM     39  O18 DBD d   1      10.375  47.351  22.323  0.00  0.00    -0.260 OA
ATOM     40  H6  DBD d   1       8.280  46.129  20.319  0.00  0.00     0.170 HD
BRANCH  38  41
ATOM     41  C15 DBD d   1       7.975  47.489  22.364  0.00  0.00     0.270 C 
ATOM     42  O16 DBD d   1       7.777  48.528  22.914  0.00  0.00    -0.640 OA
ATOM     43  O17 DBD d   1       7.008  46.559  22.413  0.00  0.00    -0.640 OA
ENDBRANCH  38  41
ENDBRANCH   8  37
TORSDOF 6
