REMARK  4 active torsions:
REMARK  status: ('A' for Active; 'I' for Inactive)
REMARK    1  A    between atoms: CA_2  and  N_1 
REMARK    2  A    between atoms: CA_2  and  C_3 
REMARK    3  A    between atoms: CA_2  and  CB_5 
REMARK    4  A    between atoms: CB_5  and  CG_6 
ROOT
ATOM      1  CB  HIS d   1      32.963  28.556  67.058  0.00  0.00     0.013 C 
ATOM      2  H5  HIS d   1      33.158  29.302  66.274  0.00  0.00     0.046 H 
ATOM      3  H6  HIS d   1      32.852  27.562  66.599  0.00  0.00     0.046 H 
ENDROOT
BRANCH   1   4
ATOM      4  CA  HIS d   1      31.578  28.907  67.633  0.00  0.00     0.187 C 
ATOM      5  H4  HIS d   1      30.820  28.760  66.849  0.00  0.00     0.101 H 
BRANCH   4   6
ATOM      6  C   HIS d   1      31.240  28.064  68.870  0.00  0.00     0.204 C 
ATOM      7  OXT HIS d   1      31.133  26.867  68.690  0.00  0.00    -0.646 OA
ATOM      8  O   HIS d   1      31.077  28.593  69.984  0.00  0.00    -0.646 OA
ENDBRANCH   4   6
BRANCH   4   9
ATOM      9  N   HIS d   1      31.538  30.234  68.119  0.00  0.00    -0.065 N 
ATOM     10  H1  HIS d   1      31.750  30.873  67.369  0.00  0.00     0.275 HD
ATOM     11  H2  HIS d   1      32.218  30.343  68.855  0.00  0.00     0.275 HD
ATOM     12  H3  HIS d   1      30.618  30.432  68.479  0.00  0.00     0.275 HD
ENDBRANCH   4   9
ENDBRANCH   1   4
BRANCH   1  13
ATOM     13  CG  HIS d   1      34.246  28.487  67.895  0.00  0.00     0.053 A 
ATOM     14  CD2 HIS d   1      34.511  29.034  69.113  0.00  0.00     0.002 A 
ATOM     15  NE2 HIS d   1      35.740  28.709  69.414  0.00  0.00    -0.359 N 
ATOM     16  H7  HIS d   1      33.830  29.628  69.720  0.00  0.00     0.114 H 
ATOM     17  CE1 HIS d   1      36.264  28.022  68.464  0.00  0.00     0.064 A 
ATOM     18  H9  HIS d   1      36.220  28.967  70.288  0.00  0.00     0.166 HD
ATOM     19  ND1 HIS d   1      35.359  27.866  67.543  0.00  0.00    -0.247 NA
ATOM     20  H8  HIS d   1      37.283  27.639  68.435  0.00  0.00     0.143 H 
ENDBRANCH   1  13
TORSDOF 4
