REMARK  6 active torsions:
REMARK  status: ('A' for Active; 'I' for Inactive)
REMARK    1  A    between atoms: CA_2  and  N_1 
REMARK    2  A    between atoms: CA_2  and  CB_5 
REMARK    3  A    between atoms: CA_2  and  C_3 
REMARK    4  A    between atoms: CB_5  and  CG_6 
REMARK    5  A    between atoms: CG_6  and  CD_7 
REMARK    6  A    between atoms: CD_7  and  NE_8 
ROOT
ATOM      1  CB  ORN d   1      33.410  28.410  67.366  0.00  0.00    -0.027 C 
ATOM      2  H5  ORN d   1      33.754  28.900  66.443  0.00  0.00     0.036 H 
ATOM      3  H6  ORN d   1      33.509  27.320  67.261  0.00  0.00     0.036 H 
ENDROOT
BRANCH   1   4
ATOM      4  CA  ORN d   1      31.896  28.721  67.514  0.00  0.00     0.182 C 
ATOM      5  H4  ORN d   1      31.381  28.511  66.565  0.00  0.00     0.101 H 
BRANCH   4   6
ATOM      6  C   ORN d   1      31.299  27.913  68.675  0.00  0.00     0.204 C 
ATOM      7  OXT ORN d   1      31.199  26.711  68.543  0.00  0.00    -0.646 OA
ATOM      8  O   ORN d   1      30.939  28.462  69.717  0.00  0.00    -0.646 OA
ENDBRANCH   4   6
BRANCH   4   9
ATOM      9  N   ORN d   1      31.661  30.056  67.946  0.00  0.00    -0.065 N 
ATOM     10  H1  ORN d   1      32.015  30.700  67.256  0.00  0.00     0.275 HD
ATOM     11  H2  ORN d   1      32.131  30.213  68.824  0.00  0.00     0.275 HD
ATOM     12  H3  ORN d   1      30.671  30.201  68.065  0.00  0.00     0.275 HD
ENDBRANCH   4   9
ENDBRANCH   1   4
BRANCH   1  13
ATOM     13  CG  ORN d   1      34.369  28.851  68.504  0.00  0.00    -0.040 C 
ATOM     14  H7  ORN d   1      33.843  28.791  69.468  0.00  0.00     0.035 H 
ATOM     15  H8  ORN d   1      34.692  29.887  68.327  0.00  0.00     0.035 H 
BRANCH  13  16
ATOM     16  CD  ORN d   1      35.594  27.937  68.538  0.00  0.00     0.080 C 
ATOM     17  H9  ORN d   1      36.069  27.939  67.546  0.00  0.00     0.075 H 
ATOM     18  H10 ORN d   1      35.271  26.916  68.788  0.00  0.00     0.075 H 
BRANCH  16  19
ATOM     19  NE  ORN d   1      36.572  28.386  69.537  0.00  0.00    -0.079 N 
ATOM     20  H11 ORN d   1      37.365  27.764  69.534  0.00  0.00     0.274 HD
ATOM     21  H12 ORN d   1      36.145  28.382  70.450  0.00  0.00     0.274 HD
ATOM     22  H13 ORN d   1      36.877  29.320  69.312  0.00  0.00     0.274 HD
ENDBRANCH  16  19
ENDBRANCH  13  16
ENDBRANCH   1  13
TORSDOF 6
