REMARK  12 active torsions:
REMARK  status: ('A' for Active; 'I' for Inactive)
REMARK    1  A    between atoms: P_1  and  O5'_5 
REMARK    2  A    between atoms: O5'_5  and  C5'_6 
REMARK    3  A    between atoms: C5'_6  and  C4'_7 
REMARK    4  A    between atoms: C4'_7  and  C3'_9 
REMARK    5  A    between atoms: C4'_7  and  O4'_8 
REMARK    6  A    between atoms: C3'_9  and  C2'_11 
REMARK    7  A    between atoms: C3'_9  and  O3'_10 
REMARK    8  A    between atoms: C2'_11  and  C1'_13 
REMARK    9  A    between atoms: C2'_11  and  O2'_12 
REMARK   10  A    between atoms: C1'_13  and  NH_14 
REMARK   11  A    between atoms: NH_14  and  C2_16 
REMARK   12  A    between atoms: C1_15  and  C7_21 
ROOT
ATOM      1  C2' 137 d   1      -7.160 -20.846  33.285  0.00  0.00     0.078 C 
ATOM      2  H7  137 d   1      -7.537 -19.915  32.837  0.00  0.00     0.089 H 
ENDROOT
BRANCH   1   3
ATOM      3  C3' 137 d   1      -6.731 -21.696  32.051  0.00  0.00     0.088 C 
ATOM      4  H5  137 d   1      -7.541 -21.720  31.307  0.00  0.00     0.091 H 
BRANCH   3   5
ATOM      5  C4' 137 d   1      -5.409 -21.223  31.390  0.00  0.00     0.084 C 
ATOM      6  H3  137 d   1      -4.570 -21.431  32.070  0.00  0.00     0.090 H 
BRANCH   5   7
ATOM      7  C5' 137 d   1      -5.176 -21.958  30.056  0.00  0.00     0.059 C 
ATOM      8  H1  137 d   1      -4.515 -21.326  29.445  0.00  0.00     0.079 H 
ATOM      9  H2  137 d   1      -4.667 -22.905  30.288  0.00  0.00     0.079 H 
BRANCH   7  10
ATOM     10  O5' 137 d   1      -6.198 -22.239  29.345  0.00  0.00    -0.280 OA
BRANCH  10  11
ATOM     11  P   137 d   1      -6.313 -23.015  28.076  0.00  0.00     0.422 P 
ATOM     12  O3P 137 d   1      -6.445 -24.375  28.552  0.00  0.00    -0.617 OA
ATOM     13  O2P 137 d   1      -7.504 -22.498  27.337  0.00  0.00    -0.617 OA
ATOM     14  O1P 137 d   1      -5.092 -22.928  27.261  0.00  0.00    -0.617 OA
ENDBRANCH  10  11
ENDBRANCH   7  10
ENDBRANCH   5   7
BRANCH   5  15
ATOM     15  O4' 137 d   1      -5.483 -19.801  31.135  0.00  0.00    -0.391 OA
ATOM     16  H4  137 d   1      -6.212 -19.622  30.552  0.00  0.00     0.210 HD
ENDBRANCH   5  15
ENDBRANCH   3   5
BRANCH   3  17
ATOM     17  O3' 137 d   1      -6.444 -22.990  32.568  0.00  0.00    -0.390 OA
ATOM     18  H6  137 d   1      -5.745 -22.926  33.208  0.00  0.00     0.210 HD
ENDBRANCH   3  17
ENDBRANCH   1   3
BRANCH   1  19
ATOM     19  C1' 137 d   1      -8.310 -21.394  34.087  0.00  0.00     0.019 C 
ATOM     20  H9  137 d   1      -8.766 -20.584  34.675  0.00  0.00     0.068 H 
ATOM     21  H10 137 d   1      -7.943 -22.178  34.766  0.00  0.00     0.068 H 
BRANCH  19  22
ATOM     22  NH  137 d   1      -9.292 -21.951  33.199  0.00  0.00    -0.387 N 
ATOM     23  H11 137 d   1      -9.023 -22.295  32.266  0.00  0.00     0.159 HD
BRANCH  22  24
ATOM     24  C2  137 d   1     -10.620 -22.016  33.629  0.00  0.00     0.045 A 
ATOM     25  C1  137 d   1     -11.569 -22.859  32.960  0.00  0.00     0.067 A 
ATOM     26  C6  137 d   1     -12.907 -22.824  33.400  0.00  0.00    -0.064 A 
ATOM     27  C5  137 d   1     -13.287 -21.995  34.461  0.00  0.00    -0.082 A 
ATOM     28  H15 137 d   1     -13.649 -23.445  32.912  0.00  0.00     0.085 H 
ATOM     29  C4  137 d   1     -12.334 -21.174  35.121  0.00  0.00    -0.081 A 
ATOM     30  H14 137 d   1     -14.322 -21.979  34.783  0.00  0.00     0.083 H 
ATOM     31  C3  137 d   1     -11.003 -21.176  34.710  0.00  0.00    -0.057 A 
ATOM     32  H13 137 d   1     -12.643 -20.544  35.947  0.00  0.00     0.083 H 
ATOM     33  H12 137 d   1     -10.272 -20.548  35.206  0.00  0.00     0.086 H 
BRANCH  25  34
ATOM     34  C7  137 d   1     -11.231 -23.843  31.914  0.00  0.00     0.211 C 
ATOM     35  O72 137 d   1     -12.116 -24.587  31.497  0.00  0.00    -0.644 OA
ATOM     36  O71 137 d   1     -10.101 -23.961  31.460  0.00  0.00    -0.644 OA
ENDBRANCH  25  34
ENDBRANCH  22  24
ENDBRANCH  19  22
ENDBRANCH   1  19
BRANCH   1  37
ATOM     37  O2' 137 d   1      -6.159 -20.438  34.171  0.00  0.00    -0.391 OA
ATOM     38  H8  137 d   1      -6.503 -19.766  34.748  0.00  0.00     0.210 HD
ENDBRANCH   1  37
TORSDOF 12
