REMARK  6 active torsions:
REMARK  status: ('A' for Active; 'I' for Inactive)
REMARK    1  A    between atoms: CA_1  and  P_7 
REMARK    2  A    between atoms: CA_1  and  N_6 
REMARK    3  A    between atoms: CA_1  and  CB_2 
REMARK    4  A    between atoms: CB_2  and  CG_3 
REMARK    5  A    between atoms: CG_3  and  CD2_5 
REMARK    6  A    between atoms: CG_3  and  CD1_4 
ROOT
ATOM      1  CB  PLU d   1      -2.433  59.542  43.946  0.00  0.00    -0.023 C 
ATOM      2  H2  PLU d   1      -1.790  59.255  43.101  0.00  0.00     0.037 H 
ATOM      3  H3  PLU d   1      -2.452  60.638  44.037  0.00  0.00     0.037 H 
ENDROOT
BRANCH   1   4
ATOM      4  CA  PLU d   1      -1.791  58.983  45.225  0.00  0.00     0.206 C 
ATOM      5  H1  PLU d   1      -1.660  57.895  45.131  0.00  0.00     0.106 H 
BRANCH   4   6
ATOM      6  P   PLU d   1      -0.188  59.783  45.511  0.00  0.00     0.290 P 
ATOM      7  O3  PLU d   1       0.768  59.349  44.388  0.00  0.00    -0.638 OA
ATOM      8  O2  PLU d   1      -0.354  61.336  45.500  0.00  0.00    -0.638 OA
ATOM      9  O1  PLU d   1       0.277  59.325  46.912  0.00  0.00    -0.638 OA
ENDBRANCH   4   6
BRANCH   4  10
ATOM     10  N   PLU d   1      -2.647  59.293  46.366  0.00  0.00    -0.062 N 
ATOM     11  H11 PLU d   1      -3.549  58.861  46.237  0.00  0.00     0.275 HD
ATOM     12  H12 PLU d   1      -2.760  60.292  46.439  0.00  0.00     0.275 HD
ATOM     13  H13 PLU d   1      -2.223  58.940  47.210  0.00  0.00     0.275 HD
ENDBRANCH   4  10
ENDBRANCH   1   4
BRANCH   1  14
ATOM     14  CG  PLU d   1      -3.883  59.074  43.613  0.00  0.00    -0.059 C 
ATOM     15  H4  PLU d   1      -4.531  59.432  44.427  0.00  0.00     0.038 H 
BRANCH  14  16
ATOM     16  CD2 PLU d   1      -4.396  59.690  42.299  0.00  0.00    -0.073 C 
ATOM     17  H8  PLU d   1      -4.293  60.784  42.343  0.00  0.00     0.028 H 
ATOM     18  H9  PLU d   1      -5.455  59.426  42.159  0.00  0.00     0.028 H 
ATOM     19  H10 PLU d   1      -3.806  59.300  41.456  0.00  0.00     0.028 H 
ENDBRANCH  14  16
BRANCH  14  20
ATOM     20  CD1 PLU d   1      -4.027  57.557  43.548  0.00  0.00    -0.073 C 
ATOM     21  H5  PLU d   1      -5.069  57.297  43.310  0.00  0.00     0.028 H 
ATOM     22  H6  PLU d   1      -3.753  57.121  44.520  0.00  0.00     0.028 H 
ATOM     23  H7  PLU d   1      -3.363  57.159  42.767  0.00  0.00     0.028 H 
ENDBRANCH  14  20
ENDBRANCH   1  14
TORSDOF 6
