REMARK  19 active torsions:
REMARK  status: ('A' for Active; 'I' for Inactive)
REMARK    1  A    between atoms: C_1  and  C2_8 
REMARK    2  A    between atoms: C8_2  and  O1_16 
REMARK    3  A    between atoms: C9_3  and  C3_7 
REMARK    4  A    between atoms: C1_30  and  C16_9 
REMARK    5  A    between atoms: C29_13  and  N1_14 
REMARK    6  A    between atoms: O1_16  and  C34_17 
REMARK    7  A    between atoms: C34_17  and  C25_18 
REMARK       I    between atoms: C25_18  and  N16_20 
REMARK    8  A    between atoms: N16_20  and  C17_32 
REMARK    9  A    between atoms: C17_32  and  C15_21 
REMARK   10  A    between atoms: C15_21  and  C12_23 
REMARK   11  A    between atoms: C15_21  and  O14_22 
REMARK   12  A    between atoms: C12_23  and  C4_24 
REMARK   13  A    between atoms: C4_24  and  N3_29 
REMARK   14  A    between atoms: C4_24  and  C5_25 
REMARK   15  A    between atoms: C5_25  and  C6_26 
REMARK   16  A    between atoms: C6_26  and  C7_28 
REMARK   17  A    between atoms: C6_26  and  C11_27 
REMARK       I    between atoms: N3_29  and  C1_30 
REMARK   18  A    between atoms: C17_32  and  C18_33 
REMARK   19  A    between atoms: C18_33  and  C19_34 
ROOT
ATOM      1  C17 R36 d   1      30.662  32.518  13.029  0.00  0.00     0.041 C 
ATOM      2  H34 R36 d   1      30.484  33.538  12.658  0.00  0.00     0.076 H 
ENDROOT
BRANCH   1   3
ATOM      3  N16 R36 d   1      31.532  31.819  12.110  0.00  0.00    -0.352 N 
ATOM      4  C25 R36 d   1      31.706  32.243  10.866  0.00  0.00     0.242 C 
ATOM      5  O26 R36 d   1      31.121  33.253  10.430  0.00  0.00    -0.271 OA
ATOM      6  H18 R36 d   1      32.013  30.998  12.419  0.00  0.00     0.163 HD
BRANCH   4   7
ATOM      7  C34 R36 d   1      32.672  31.426   9.972  0.00  0.00     0.099 C 
ATOM      8  H16 R36 d   1      32.106  31.069   9.099  0.00  0.00     0.089 H 
ATOM      9  H17 R36 d   1      33.476  32.098   9.638  0.00  0.00     0.089 H 
BRANCH   7  10
ATOM     10  O1  R36 d   1      33.271  30.304  10.594  0.00  0.00    -0.341 OA
BRANCH  10  11
ATOM     11  C8  R36 d   1      34.344  29.654   9.961  0.00  0.00     0.081 A 
ATOM     12  C   R36 d   1      34.095  28.474   9.251  0.00  0.00    -0.028 A 
ATOM     13  C14 R36 d   1      35.139  27.804   8.605  0.00  0.00    -0.074 A 
ATOM     14  C13 R36 d   1      36.423  28.295   8.665  0.00  0.00    -0.082 A 
ATOM     15  H3  R36 d   1      34.935  26.893   8.054  0.00  0.00     0.084 H 
ATOM     16  C10 R36 d   1      36.690  29.449   9.345  0.00  0.00    -0.074 A 
ATOM     17  H2  R36 d   1      37.227  27.763   8.170  0.00  0.00     0.083 H 
ATOM     18  C9  R36 d   1      35.670  30.145  10.000  0.00  0.00    -0.028 A 
ATOM     19  H1  R36 d   1      37.705  29.829   9.377  0.00  0.00     0.084 H 
BRANCH  12  20
ATOM     20  C2  R36 d   1      32.690  27.916   9.168  0.00  0.00    -0.049 C 
ATOM     21  H7  R36 d   1      32.697  26.991   8.572  0.00  0.00     0.033 H 
ATOM     22  H8  R36 d   1      32.030  28.655   8.691  0.00  0.00     0.033 H 
ATOM     23  H9  R36 d   1      32.322  27.696  10.181  0.00  0.00     0.033 H 
ENDBRANCH  12  20
BRANCH  18  24
ATOM     24  C3  R36 d   1      35.992  31.446  10.705  0.00  0.00    -0.049 C 
ATOM     25  H4  R36 d   1      35.077  31.852  11.162  0.00  0.00     0.033 H 
ATOM     26  H5  R36 d   1      36.390  32.169   9.977  0.00  0.00     0.033 H 
ATOM     27  H6  R36 d   1      36.742  31.263  11.488  0.00  0.00     0.033 H 
ENDBRANCH  18  24
ENDBRANCH  10  11
ENDBRANCH   7  10
ENDBRANCH   4   7
ENDBRANCH   1   3
BRANCH   1  28
ATOM     28  C18 R36 d   1      29.341  31.783  13.145  0.00  0.00    -0.020 C 
ATOM     29  H35 R36 d   1      28.635  32.429  13.687  0.00  0.00     0.043 H 
ATOM     30  H36 R36 d   1      29.510  30.861  13.720  0.00  0.00     0.043 H 
BRANCH  28  31
ATOM     31  C19 R36 d   1      28.725  31.412  11.840  0.00  0.00    -0.056 A 
ATOM     32  C24 R36 d   1      28.827  30.113  11.364  0.00  0.00    -0.077 A 
ATOM     33  C23 R36 d   1      28.176  29.720  10.144  0.00  0.00    -0.082 A 
ATOM     34  H41 R36 d   1      29.406  29.384  11.920  0.00  0.00     0.084 H 
ATOM     35  C22 R36 d   1      27.431  30.658   9.438  0.00  0.00    -0.083 A 
ATOM     36  H40 R36 d   1      28.265  28.703   9.778  0.00  0.00     0.083 H 
ATOM     37  C21 R36 d   1      27.333  31.969   9.918  0.00  0.00    -0.082 A 
ATOM     38  H39 R36 d   1      26.928  30.375   8.520  0.00  0.00     0.083 H 
ATOM     39  C20 R36 d   1      27.986  32.340  11.115  0.00  0.00    -0.077 A 
ATOM     40  H38 R36 d   1      26.754  32.703   9.369  0.00  0.00     0.083 H 
ATOM     41  H37 R36 d   1      27.910  33.361  11.472  0.00  0.00     0.084 H 
ENDBRANCH  28  31
ENDBRANCH   1  28
BRANCH   1  42
ATOM     42  C15 R36 d   1      31.321  32.583  14.425  0.00  0.00     0.057 C 
ATOM     43  H19 R36 d   1      30.641  33.042  15.158  0.00  0.00     0.086 H 
BRANCH  42  44
ATOM     44  C12 R36 d   1      32.621  33.303  14.348  0.00  0.00    -0.020 C 
ATOM     45  H21 R36 d   1      33.337  32.630  13.855  0.00  0.00     0.040 H 
ATOM     46  H22 R36 d   1      32.949  33.495  15.380  0.00  0.00     0.040 H 
BRANCH  44  47
ATOM     47  C4  R36 d   1      32.667  34.616  13.615  0.00  0.00     0.015 C 
ATOM     48  H23 R36 d   1      32.242  34.456  12.613  0.00  0.00     0.072 H 
BRANCH  47  49
ATOM     49  N3  R36 d   1      31.827  35.612  14.290  0.00  0.00    -0.352 N 
ATOM     50  C1  R36 d   1      31.211  36.622  13.680  0.00  0.00     0.252 C 
ATOM     51  O2  R36 d   1      31.292  36.803  12.458  0.00  0.00    -0.268 OA
ATOM     52  H33 R36 d   1      31.709  35.526  15.279  0.00  0.00     0.163 HD
BRANCH  50  53
ATOM     53  C16 R36 d   1      30.462  37.497  14.532  0.00  0.00     0.034 A 
ATOM     54  C30 R36 d   1      29.448  38.349  14.045  0.00  0.00    -0.043 A 
ATOM     55  C29 R36 d   1      28.754  39.226  14.924  0.00  0.00     0.026 A 
ATOM     56  H15 R36 d   1      29.195  38.335  12.991  0.00  0.00     0.088 H 
ATOM     57  C28 R36 d   1      29.072  39.252  16.291  0.00  0.00    -0.058 A 
ATOM     58  C27 R36 d   1      30.050  38.433  16.778  0.00  0.00    -0.080 A 
ATOM     59  H12 R36 d   1      28.542  39.921  16.959  0.00  0.00     0.086 H 
ATOM     60  C26 R36 d   1      30.747  37.555  15.906  0.00  0.00    -0.068 A 
ATOM     61  H11 R36 d   1      30.295  38.453  17.834  0.00  0.00     0.083 H 
ATOM     62  H10 R36 d   1      31.520  36.912  16.312  0.00  0.00     0.085 H 
BRANCH  55  63
ATOM     63  N1  R36 d   1      27.752  40.168  14.410  0.00  0.00    -0.399 N 
ATOM     64  H13 R36 d   1      27.506  40.163  13.410  0.00  0.00     0.156 HD
ATOM     65  H14 R36 d   1      27.295  40.834  15.050  0.00  0.00     0.156 HD
ENDBRANCH  55  63
ENDBRANCH  50  53
ENDBRANCH  47  49
BRANCH  47  66
ATOM     66  C5  R36 d   1      34.119  35.076  13.425  0.00  0.00    -0.043 C 
ATOM     67  H24 R36 d   1      34.064  35.980  12.801  0.00  0.00     0.036 H 
ATOM     68  H25 R36 d   1      34.613  34.271  12.861  0.00  0.00     0.036 H 
BRANCH  66  69
ATOM     69  C6  R36 d   1      35.079  35.425  14.575  0.00  0.00    -0.059 C 
ATOM     70  H26 R36 d   1      34.543  36.034  15.318  0.00  0.00     0.038 H 
BRANCH  69  71
ATOM     71  C7  R36 d   1      35.663  34.219  15.262  0.00  0.00    -0.073 C 
ATOM     72  H30 R36 d   1      34.853  33.623  15.709  0.00  0.00     0.028 H 
ATOM     73  H31 R36 d   1      36.356  34.546  16.051  0.00  0.00     0.028 H 
ATOM     74  H32 R36 d   1      36.207  33.606  14.528  0.00  0.00     0.028 H 
ENDBRANCH  69  71
BRANCH  69  75
ATOM     75  C11 R36 d   1      36.208  36.207  13.982  0.00  0.00    -0.073 C 
ATOM     76  H27 R36 d   1      36.922  36.478  14.774  0.00  0.00     0.028 H 
ATOM     77  H28 R36 d   1      35.815  37.121  13.514  0.00  0.00     0.028 H 
ATOM     78  H29 R36 d   1      36.718  35.596  13.223  0.00  0.00     0.028 H 
ENDBRANCH  69  75
ENDBRANCH  66  69
ENDBRANCH  47  66
ENDBRANCH  44  47
ENDBRANCH  42  44
BRANCH  42  79
ATOM     79  O14 R36 d   1      31.704  31.264  14.795  0.00  0.00    -0.393 OA
ATOM     80  H20 R36 d   1      32.157  31.289  15.630  0.00  0.00     0.210 HD
ENDBRANCH  42  79
ENDBRANCH   1  42
TORSDOF 19
