REMARK  19 active torsions:
REMARK  status: ('A' for Active; 'I' for Inactive)
REMARK    1  A    between atoms: C_1  and  C2_8 
REMARK    2  A    between atoms: C8_2  and  O1_16 
REMARK    3  A    between atoms: C9_3  and  C3_7 
REMARK    4  A    between atoms: C1_30  and  C16_9 
REMARK    5  A    between atoms: C28_12  and  N1_14 
REMARK    6  A    between atoms: O1_16  and  C34_17 
REMARK    7  A    between atoms: C34_17  and  C25_18 
REMARK       I    between atoms: C25_18  and  N16_20 
REMARK    8  A    between atoms: N16_20  and  C17_32 
REMARK    9  A    between atoms: C17_32  and  C15_21 
REMARK   10  A    between atoms: C15_21  and  C12_23 
REMARK   11  A    between atoms: C15_21  and  O14_22 
REMARK   12  A    between atoms: C12_23  and  C4_24 
REMARK   13  A    between atoms: C4_24  and  N3_29 
REMARK   14  A    between atoms: C4_24  and  C5_25 
REMARK   15  A    between atoms: C5_25  and  C6_26 
REMARK   16  A    between atoms: C6_26  and  C7_28 
REMARK   17  A    between atoms: C6_26  and  C11_27 
REMARK       I    between atoms: N3_29  and  C1_30 
REMARK   18  A    between atoms: C17_32  and  C18_33 
REMARK   19  A    between atoms: C18_33  and  C19_34 
ROOT
ATOM      1  C17 R37 d   1      30.817  32.598  12.998  0.00  0.00     0.041 C 
ATOM      2  H34 R37 d   1      30.506  33.581  12.614  0.00  0.00     0.076 H 
ENDROOT
BRANCH   1   3
ATOM      3  N16 R37 d   1      31.752  31.997  12.062  0.00  0.00    -0.352 N 
ATOM      4  C25 R37 d   1      31.851  32.374  10.784  0.00  0.00     0.242 C 
ATOM      5  O26 R37 d   1      31.374  33.438  10.364  0.00  0.00    -0.271 OA
ATOM      6  H18 R37 d   1      32.350  31.266  12.390  0.00  0.00     0.163 HD
BRANCH   4   7
ATOM      7  C34 R37 d   1      32.618  31.424   9.839  0.00  0.00     0.099 C 
ATOM      8  H16 R37 d   1      31.894  30.876   9.218  0.00  0.00     0.089 H 
ATOM      9  H17 R37 d   1      33.279  32.020   9.193  0.00  0.00     0.089 H 
BRANCH   7  10
ATOM     10  O1  R37 d   1      33.389  30.506  10.552  0.00  0.00    -0.341 OA
BRANCH  10  11
ATOM     11  C8  R37 d   1      34.455  29.842   9.950  0.00  0.00     0.081 A 
ATOM     12  C   R37 d   1      34.144  28.637   9.360  0.00  0.00    -0.028 A 
ATOM     13  C14 R37 d   1      35.142  27.894   8.715  0.00  0.00    -0.074 A 
ATOM     14  C13 R37 d   1      36.442  28.360   8.664  0.00  0.00    -0.082 A 
ATOM     15  H3  R37 d   1      34.892  26.946   8.252  0.00  0.00     0.084 H 
ATOM     16  C10 R37 d   1      36.760  29.567   9.249  0.00  0.00    -0.074 A 
ATOM     17  H2  R37 d   1      37.209  27.778   8.166  0.00  0.00     0.083 H 
ATOM     18  C9  R37 d   1      35.777  30.319   9.897  0.00  0.00    -0.028 A 
ATOM     19  H1  R37 d   1      37.779  29.935   9.206  0.00  0.00     0.084 H 
BRANCH  12  20
ATOM     20  C2  R37 d   1      32.713  28.132   9.404  0.00  0.00    -0.049 C 
ATOM     21  H7  R37 d   1      32.650  27.163   8.887  0.00  0.00     0.033 H 
ATOM     22  H8  R37 d   1      32.053  28.857   8.905  0.00  0.00     0.033 H 
ATOM     23  H9  R37 d   1      32.399  28.010  10.451  0.00  0.00     0.033 H 
ENDBRANCH  12  20
BRANCH  18  24
ATOM     24  C3  R37 d   1      36.113  31.683  10.471  0.00  0.00    -0.049 C 
ATOM     25  H4  R37 d   1      35.216  32.115  10.938  0.00  0.00     0.033 H 
ATOM     26  H5  R37 d   1      36.462  32.345   9.664  0.00  0.00     0.033 H 
ATOM     27  H6  R37 d   1      36.905  31.578  11.227  0.00  0.00     0.033 H 
ENDBRANCH  18  24
ENDBRANCH  10  11
ENDBRANCH   7  10
ENDBRANCH   4   7
ENDBRANCH   1   3
BRANCH   1  28
ATOM     28  C18 R37 d   1      29.581  31.684  13.111  0.00  0.00    -0.020 C 
ATOM     29  H35 R37 d   1      28.840  32.182  13.754  0.00  0.00     0.043 H 
ATOM     30  H36 R37 d   1      29.893  30.737  13.576  0.00  0.00     0.043 H 
BRANCH  28  31
ATOM     31  C19 R37 d   1      28.922  31.368  11.782  0.00  0.00    -0.056 A 
ATOM     32  C24 R37 d   1      29.046  30.093  11.214  0.00  0.00    -0.077 A 
ATOM     33  C23 R37 d   1      28.459  29.779   9.975  0.00  0.00    -0.082 A 
ATOM     34  H41 R37 d   1      29.608  29.331  11.742  0.00  0.00     0.084 H 
ATOM     35  C22 R37 d   1      27.732  30.757   9.307  0.00  0.00    -0.083 A 
ATOM     36  H40 R37 d   1      28.572  28.789   9.548  0.00  0.00     0.083 H 
ATOM     37  C21 R37 d   1      27.598  32.027   9.872  0.00  0.00    -0.082 A 
ATOM     38  H39 R37 d   1      27.271  30.535   8.351  0.00  0.00     0.083 H 
ATOM     39  C20 R37 d   1      28.197  32.330  11.105  0.00  0.00    -0.077 A 
ATOM     40  H38 R37 d   1      27.025  32.787   9.353  0.00  0.00     0.083 H 
ATOM     41  H37 R37 d   1      28.090  33.322  11.528  0.00  0.00     0.084 H 
ENDBRANCH  28  31
ENDBRANCH   1  28
BRANCH   1  42
ATOM     42  C15 R37 d   1      31.478  32.795  14.405  0.00  0.00     0.057 C 
ATOM     43  H19 R37 d   1      30.799  33.363  15.058  0.00  0.00     0.086 H 
BRANCH  42  44
ATOM     44  C12 R37 d   1      32.801  33.497  14.287  0.00  0.00    -0.020 C 
ATOM     45  H21 R37 d   1      33.378  32.961  13.519  0.00  0.00     0.040 H 
ATOM     46  H22 R37 d   1      33.303  33.395  15.261  0.00  0.00     0.040 H 
BRANCH  44  47
ATOM     47  C4  R37 d   1      32.849  34.969  13.922  0.00  0.00     0.015 C 
ATOM     48  H23 R37 d   1      32.929  35.024  12.826  0.00  0.00     0.072 H 
BRANCH  47  49
ATOM     49  N3  R37 d   1      31.608  35.645  14.304  0.00  0.00    -0.352 N 
ATOM     50  C1  R37 d   1      31.208  36.769  13.709  0.00  0.00     0.252 C 
ATOM     51  O2  R37 d   1      31.348  36.955  12.487  0.00  0.00    -0.268 OA
ATOM     52  H33 R37 d   1      31.045  35.253  15.031  0.00  0.00     0.163 HD
BRANCH  50  53
ATOM     53  C16 R37 d   1      30.551  37.726  14.513  0.00  0.00     0.032 A 
ATOM     54  C30 R37 d   1      29.545  38.536  13.967  0.00  0.00    -0.066 A 
ATOM     55  C29 R37 d   1      28.881  39.487  14.741  0.00  0.00    -0.057 A 
ATOM     56  H15 R37 d   1      29.278  38.421  12.923  0.00  0.00     0.085 H 
ATOM     57  C28 R37 d   1      29.211  39.663  16.089  0.00  0.00     0.025 A 
ATOM     58  H12 R37 d   1      28.103  40.095  14.294  0.00  0.00     0.086 H 
ATOM     59  C27 R37 d   1      30.211  38.870  16.654  0.00  0.00    -0.057 A 
ATOM     60  C26 R37 d   1      30.879  37.905  15.868  0.00  0.00    -0.066 A 
ATOM     61  H11 R37 d   1      30.476  38.995  17.698  0.00  0.00     0.086 H 
ATOM     62  H10 R37 d   1      31.655  37.294  16.316  0.00  0.00     0.085 H 
BRANCH  57  63
ATOM     63  N1  R37 d   1      28.502  40.712  16.906  0.00  0.00    -0.399 N 
ATOM     64  H13 R37 d   1      28.744  40.842  17.899  0.00  0.00     0.156 HD
ATOM     65  H14 R37 d   1      27.775  41.299  16.472  0.00  0.00     0.156 HD
ENDBRANCH  57  63
ENDBRANCH  50  53
ENDBRANCH  47  49
BRANCH  47  66
ATOM     66  C5  R37 d   1      34.081  35.704  14.499  0.00  0.00    -0.043 C 
ATOM     67  H24 R37 d   1      33.896  35.835  15.575  0.00  0.00     0.036 H 
ATOM     68  H25 R37 d   1      34.119  36.689  14.011  0.00  0.00     0.036 H 
BRANCH  66  69
ATOM     69  C6  R37 d   1      35.480  35.090  14.364  0.00  0.00    -0.059 C 
ATOM     70  H26 R37 d   1      35.523  34.103  14.848  0.00  0.00     0.038 H 
BRANCH  69  71
ATOM     71  C7  R37 d   1      36.474  36.030  14.995  0.00  0.00    -0.073 C 
ATOM     72  H30 R37 d   1      36.262  36.120  16.071  0.00  0.00     0.028 H 
ATOM     73  H31 R37 d   1      36.394  37.020  14.522  0.00  0.00     0.028 H 
ATOM     74  H32 R37 d   1      37.492  35.637  14.854  0.00  0.00     0.028 H 
ENDBRANCH  69  71
BRANCH  69  75
ATOM     75  C11 R37 d   1      35.785  34.970  12.855  0.00  0.00    -0.073 C 
ATOM     76  H27 R37 d   1      36.784  34.532  12.717  0.00  0.00     0.028 H 
ATOM     77  H28 R37 d   1      35.755  35.968  12.394  0.00  0.00     0.028 H 
ATOM     78  H29 R37 d   1      35.032  34.324  12.379  0.00  0.00     0.028 H 
ENDBRANCH  69  75
ENDBRANCH  66  69
ENDBRANCH  47  66
ENDBRANCH  44  47
ENDBRANCH  42  44
BRANCH  42  79
ATOM     79  O14 R37 d   1      31.772  31.518  14.967  0.00  0.00    -0.393 OA
ATOM     80  H20 R37 d   1      32.181  31.634  15.817  0.00  0.00     0.210 HD
ENDBRANCH  42  79
ENDBRANCH   1  42
TORSDOF 19
