REMARK  1 active torsions:
REMARK  status: ('A' for Active; 'I' for Inactive)
REMARK    1  A    between atoms: C1_6  and  N_7 
ROOT
ATOM      1  C4  1AN d   1      26.052   5.609   5.594  0.00  0.00    -0.080 A 
ATOM      2  C5  1AN d   1      26.797   6.777   5.766  0.00  0.00    -0.081 A 
ATOM      3  C3  1AN d   1      26.113   5.013   4.340  0.00  0.00    -0.043 A 
ATOM      4  C6  1AN d   1      27.572   7.360   4.752  0.00  0.00    -0.055 A 
ATOM      5  C2  1AN d   1      26.930   5.543   3.342  0.00  0.00     0.142 A 
ATOM      6  C1  1AN d   1      27.638   6.738   3.508  0.00  0.00     0.064 A 
ATOM      7  F2  1AN d   1      26.942   4.935   2.210  0.00  0.00    -0.204 F 
ATOM      8  H1  1AN d   1      25.457   5.189   6.397  0.00  0.00     0.083 H 
ATOM      9  H2  1AN d   1      26.776   7.260   6.736  0.00  0.00     0.083 H 
ATOM     10  H3  1AN d   1      25.520   4.128   4.136  0.00  0.00     0.088 H 
ATOM     11  H4  1AN d   1      28.112   8.282   4.935  0.00  0.00     0.087 H 
ENDROOT
BRANCH   6  12
ATOM     12  N   1AN d   1      28.458   7.214   2.500  0.00  0.00    -0.397 N 
ATOM     13  H5  1AN d   1      28.976   8.095   2.630  0.00  0.00     0.156 HD
ATOM     14  H6  1AN d   1      28.550   6.688   1.620  0.00  0.00     0.156 HD
ENDBRANCH   6  12
TORSDOF 1
