REMARK  3 active torsions:
REMARK  status: ('A' for Active; 'I' for Inactive)
REMARK    1  A    between atoms: C3_3  and  O3_4 
REMARK    2  A    between atoms: C13_14  and  C18_20 
REMARK    3  A    between atoms: C17_18  and  O17_19 
ROOT
ATOM      1  C1  EST d   1      20.834   8.750  33.166  0.00  0.00    -0.073 A 
ATOM      2  C2  EST d   1      19.542   8.293  33.295  0.00  0.00    -0.051 A 
ATOM      3  C3  EST d   1      18.499   9.191  33.575  0.00  0.00     0.066 A 
ATOM      4  C4  EST d   1      18.804  10.571  33.719  0.00  0.00    -0.044 A 
ATOM      5  C5  EST d   1      20.115  11.047  33.588  0.00  0.00    -0.049 A 
ATOM      6  C6  EST d   1      20.372  12.558  33.754  0.00  0.00    -0.040 C 
ATOM      7  C7  EST d   1      21.863  12.987  33.697  0.00  0.00    -0.057 C 
ATOM      8  C8  EST d   1      22.688  12.152  32.709  0.00  0.00    -0.042 C 
ATOM      9  C9  EST d   1      22.642  10.614  33.144  0.00  0.00    -0.024 C 
ATOM     10  C10 EST d   1      21.185  10.121  33.298  0.00  0.00    -0.047 A 
ATOM     11  C11 EST d   1      23.476   9.740  32.168  0.00  0.00    -0.057 C 
ATOM     12  C12 EST d   1      24.913  10.260  32.001  0.00  0.00    -0.055 C 
ATOM     13  C13 EST d   1      24.957  11.746  31.550  0.00  0.00    -0.014 C 
ATOM     14  C14 EST d   1      24.176  12.587  32.600  0.00  0.00    -0.041 C 
ATOM     15  C15 EST d   1      24.494  14.047  32.209  0.00  0.00    -0.058 C 
ATOM     16  C16 EST d   1      25.934  13.947  31.609  0.00  0.00    -0.040 C 
ATOM     17  C17 EST d   1      26.300  12.455  31.655  0.00  0.00     0.043 C 
ATOM     18  H1  EST d   1      21.619   8.033  32.954  0.00  0.00     0.084 H 
ATOM     19  H2  EST d   1      19.329   7.236  33.180  0.00  0.00     0.087 H 
ATOM     20  H4  EST d   1      18.005  11.271  33.935  0.00  0.00     0.088 H 
ATOM     21  H5  EST d   1      19.966  12.867  34.729  0.00  0.00     0.040 H 
ATOM     22  H6  EST d   1      19.836  13.084  32.950  0.00  0.00     0.040 H 
ATOM     23  H7  EST d   1      22.299  12.875  34.701  0.00  0.00     0.034 H 
ATOM     24  H8  EST d   1      21.913  14.043  33.391  0.00  0.00     0.034 H 
ATOM     25  H9  EST d   1      22.229  12.256  31.715  0.00  0.00     0.041 H 
ATOM     26  H10 EST d   1      23.115  10.536  34.134  0.00  0.00     0.048 H 
ATOM     27  H11 EST d   1      22.983   9.740  31.184  0.00  0.00     0.034 H 
ATOM     28  H12 EST d   1      23.515   8.713  32.559  0.00  0.00     0.034 H 
ATOM     29  H13 EST d   1      25.425   9.646  31.245  0.00  0.00     0.034 H 
ATOM     30  H14 EST d   1      25.436  10.168  32.964  0.00  0.00     0.034 H 
ATOM     31  H15 EST d   1      24.614  12.409  33.593  0.00  0.00     0.042 H 
ATOM     32  H16 EST d   1      24.478  14.704  33.091  0.00  0.00     0.033 H 
ATOM     33  H17 EST d   1      23.779  14.420  31.461  0.00  0.00     0.033 H 
ATOM     34  H18 EST d   1      26.642  14.534  32.212  0.00  0.00     0.036 H 
ATOM     35  H19 EST d   1      25.944  14.313  30.572  0.00  0.00     0.036 H 
ATOM     36  H20 EST d   1      26.797  12.195  32.601  0.00  0.00     0.084 H 
ENDROOT
BRANCH  13  37
ATOM     37  C18 EST d   1      24.380  11.840  30.103  0.00  0.00    -0.066 C 
ATOM     38  H22 EST d   1      23.412  11.320  30.060  0.00  0.00     0.028 H 
ATOM     39  H23 EST d   1      25.081  11.370  29.398  0.00  0.00     0.028 H 
ATOM     40  H24 EST d   1      24.241  12.897  29.832  0.00  0.00     0.028 H 
ENDBRANCH  13  37
BRANCH  17  41
ATOM     41  O17 EST d   1      27.183  12.163  30.553  0.00  0.00    -0.395 OA
ATOM     42  H21 EST d   1      27.969  12.692  30.630  0.00  0.00     0.210 HD
ENDBRANCH  17  41
BRANCH   3  43
ATOM     43  O3  EST d   1      17.233   8.696  33.690  0.00  0.00    -0.361 OA
ATOM     44  H3  EST d   1      16.632   9.407  33.879  0.00  0.00     0.217 HD
ENDBRANCH   3  43
TORSDOF 3
