REMARK  1 active torsions:
REMARK  status: ('A' for Active; 'I' for Inactive)
REMARK    1  A    between atoms: C1_1  and  O1_7 
ROOT
ATOM      1  C1  IPH d   1      27.487   6.637   3.509  0.00  0.00     0.065 A 
ATOM      2  C2  IPH d   1      26.738   5.485   3.281  0.00  0.00    -0.051 A 
ATOM      3  C3  IPH d   1      26.000   4.920   4.320  0.00  0.00    -0.080 A 
ATOM      4  C4  IPH d   1      26.015   5.482   5.588  0.00  0.00    -0.083 A 
ATOM      5  C5  IPH d   1      26.791   6.616   5.790  0.00  0.00    -0.080 A 
ATOM      6  C6  IPH d   1      27.525   7.220   4.765  0.00  0.00    -0.051 A 
ATOM      7  H1  IPH d   1      26.729   5.029   2.298  0.00  0.00     0.087 H 
ATOM      8  H2  IPH d   1      25.408   4.031   4.135  0.00  0.00     0.083 H 
ATOM      9  H3  IPH d   1      25.438   5.049   6.397  0.00  0.00     0.083 H 
ATOM     10  H4  IPH d   1      26.829   7.050   6.782  0.00  0.00     0.083 H 
ATOM     11  H5  IPH d   1      28.106   8.117   4.947  0.00  0.00     0.087 H 
ENDROOT
BRANCH   1  12
ATOM     12  O1  IPH d   1      28.203   7.199   2.514  0.00  0.00    -0.361 OA
ATOM     13  H6  IPH d   1      27.906   8.091   2.376  0.00  0.00     0.217 HD
ENDBRANCH   1  12
TORSDOF 1
