REMARK  1 active torsions:
REMARK  status: ('A' for Active; 'I' for Inactive)
REMARK    1  A    between atoms: C1_6  and  OH_7 
ROOT
ATOM      1  C4  3CH d   1      26.724   5.142   3.313  0.00  0.00    -0.062 A 
ATOM      2  C5  3CH d   1      27.521   5.841   2.405  0.00  0.00    -0.079 A 
ATOM      3  C3  3CH d   1      26.467   5.780   4.516  0.00  0.00     0.036 A 
ATOM      4  C6  3CH d   1      28.072   7.099   2.651  0.00  0.00    -0.051 A 
ATOM      5  C2  3CH d   1      27.003   7.032   4.810  0.00  0.00    -0.030 A 
ATOM      6  C1  3CH d   1      27.803   7.693   3.874  0.00  0.00     0.067 A 
ATOM      7 CL   3CH d   1      25.677   5.144   5.436  0.00  0.00    -0.084 Cl
ATOM      8  H1  3CH d   1      26.329   4.157   3.090  0.00  0.00     0.086 H 
ATOM      9  H2  3CH d   1      27.725   5.377   1.447  0.00  0.00     0.083 H 
ATOM     10  H3  3CH d   1      28.689   7.595   1.911  0.00  0.00     0.087 H 
ATOM     11  H4  3CH d   1      26.799   7.495   5.769  0.00  0.00     0.090 H 
ENDROOT
BRANCH   6  12
ATOM     12  OH  3CH d   1      28.373   8.912   4.123  0.00  0.00    -0.361 OA
ATOM     13  H5  3CH d   1      29.319   8.832   4.085  0.00  0.00     0.217 HD
ENDBRANCH   6  12
TORSDOF 1
