REMARK  1 active torsions:
REMARK  status: ('A' for Active; 'I' for Inactive)
REMARK    1  A    between atoms: C1_1  and  C4_4 
ROOT
ATOM      1  C1  5MP d   1      26.730   5.947   4.323  0.00  0.00    -0.045 A 
ATOM      2  C2  5MP d   1      27.148   7.062   5.197  0.00  0.00    -0.061 A 
ATOM      3  C3  5MP d   1      27.338   6.147   3.146  0.00  0.00    -0.018 A 
ATOM      4  C5  5MP d   1      27.962   7.821   4.446  0.00  0.00    -0.023 A 
ATOM      5  N6  5MP d   1      28.094   7.277   3.207  0.00  0.00    -0.375 N 
ATOM      6  H1  5MP d   1      26.857   7.232   6.232  0.00  0.00     0.086 H 
ATOM      7  H2  5MP d   1      27.242   5.503   2.273  0.00  0.00     0.112 H 
ATOM      8  H6  5MP d   1      28.445   8.738   4.780  0.00  0.00     0.111 H 
ATOM      9  H7  5MP d   1      28.670   7.657   2.442  0.00  0.00     0.164 HD
ENDROOT
BRANCH   1  10
ATOM     10  C4  5MP d   1      25.801   4.823   4.696  0.00  0.00    -0.050 C 
ATOM     11  H3  5MP d   1      25.473   4.949   5.738  0.00  0.00     0.033 H 
ATOM     12  H4  5MP d   1      26.327   3.862   4.591  0.00  0.00     0.033 H 
ATOM     13  H5  5MP d   1      24.924   4.836   4.032  0.00  0.00     0.033 H 
ENDBRANCH   1  10
TORSDOF 1
