REMARK  6 active torsions:
REMARK  status: ('A' for Active; 'I' for Inactive)
REMARK    1  A    between atoms: C20_6  and  C17_7 
REMARK    2  A    between atoms: C13_9  and  C18_10 
REMARK    3  A    between atoms: C12_11  and  O12_12 
REMARK    4  A    between atoms: C14_13  and  O14_15 
REMARK    5  A    between atoms: C10_20  and  C19_21 
REMARK    6  A    between atoms: C3_25  and  O32_26 
ROOT
ATOM      1  C17 DOG d   1      11.926 -24.640  36.459  0.00  0.00    -0.018 C 
ATOM      2  C16 DOG d   1      12.130 -26.183  36.378  0.00  0.00    -0.054 C 
ATOM      3  C13 DOG d   1      10.551 -24.433  37.217  0.00  0.00     0.021 C 
ATOM      4  C12 DOG d   1       9.470 -24.215  36.129  0.00  0.00     0.046 C 
ATOM      5  C14 DOG d   1      10.304 -25.799  37.919  0.00  0.00     0.072 C 
ATOM      6  C15 DOG d   1      10.839 -26.823  36.902  0.00  0.00    -0.035 C 
ATOM      7  C8  DOG d   1       8.845 -26.009  38.357  0.00  0.00    -0.019 C 
ATOM      8  C7  DOG d   1       8.622 -27.428  38.886  0.00  0.00    -0.058 C 
ATOM      9  C9  DOG d   1       7.783 -25.675  37.284  0.00  0.00    -0.038 C 
ATOM     10  C11 DOG d   1       8.068 -24.271  36.652  0.00  0.00    -0.036 C 
ATOM     11  C10 DOG d   1       6.347 -25.809  37.860  0.00  0.00    -0.036 C 
ATOM     12  C5  DOG d   1       6.119 -27.255  38.396  0.00  0.00    -0.044 C 
ATOM     13  C6  DOG d   1       7.212 -27.655  39.411  0.00  0.00    -0.060 C 
ATOM     14  C4  DOG d   1       6.088 -28.318  37.277  0.00  0.00    -0.037 C 
ATOM     15  C3  DOG d   1       5.073 -27.962  36.189  0.00  0.00     0.036 C 
ATOM     16  C2  DOG d   1       5.289 -26.580  35.648  0.00  0.00    -0.040 C 
ATOM     17  C1  DOG d   1       5.275 -25.560  36.767  0.00  0.00    -0.055 C 
ATOM     18  H4  DOG d   1      11.782 -24.283  35.428  0.00  0.00     0.048 H 
ATOM     19  H5  DOG d   1      12.984 -26.486  37.001  0.00  0.00     0.034 H 
ATOM     20  H6  DOG d   1      12.309 -26.488  35.337  0.00  0.00     0.034 H 
ATOM     21  H10 DOG d   1       9.599 -24.985  35.354  0.00  0.00     0.084 H 
ATOM     22  H12 DOG d   1      11.050 -27.786  37.390  0.00  0.00     0.037 H 
ATOM     23  H13 DOG d   1      10.118 -26.976  36.085  0.00  0.00     0.037 H 
ATOM     24  H15 DOG d   1       8.672 -25.317  39.194  0.00  0.00     0.045 H 
ATOM     25  H16 DOG d   1       9.334 -27.613  39.704  0.00  0.00     0.033 H 
ATOM     26  H17 DOG d   1       8.810 -28.140  38.069  0.00  0.00     0.033 H 
ATOM     27  H18 DOG d   1       7.878 -26.419  36.479  0.00  0.00     0.042 H 
ATOM     28  H19 DOG d   1       7.364 -24.095  35.825  0.00  0.00     0.037 H 
ATOM     29  H20 DOG d   1       7.935 -23.494  37.419  0.00  0.00     0.037 H 
ATOM     30  H24 DOG d   1       5.146 -27.269  38.908  0.00  0.00     0.041 H 
ATOM     31  H25 DOG d   1       7.078 -27.057  40.325  0.00  0.00     0.033 H 
ATOM     32  H26 DOG d   1       7.095 -28.722  39.650  0.00  0.00     0.033 H 
ATOM     33  H27 DOG d   1       5.816 -29.290  37.715  0.00  0.00     0.037 H 
ATOM     34  H28 DOG d   1       7.088 -28.388  36.823  0.00  0.00     0.037 H 
ATOM     35  H29 DOG d   1       5.182 -28.675  35.358  0.00  0.00     0.082 H 
ATOM     36  H31 DOG d   1       4.488 -26.343  34.933  0.00  0.00     0.036 H 
ATOM     37  H32 DOG d   1       6.261 -26.541  35.135  0.00  0.00     0.036 H 
ATOM     38  H33 DOG d   1       5.450 -24.566  36.331  0.00  0.00     0.034 H 
ATOM     39  H34 DOG d   1       4.284 -25.582  37.243  0.00  0.00     0.034 H 
ENDROOT
BRANCH   1  40
ATOM     40  C20 DOG d   1      13.062 -23.854  36.979  0.00  0.00    -0.045 A 
ATOM     41  C22 DOG d   1      13.471 -22.625  36.641  0.00  0.00    -0.006 A 
ATOM     42  C23 DOG d   1      14.603 -22.272  37.461  0.00  0.00     0.283 A 
ATOM     43  H1  DOG d   1      13.023 -21.996  35.873  0.00  0.00     0.093 H 
ATOM     44  O23 DOG d   1      15.265 -21.277  37.453  0.00  0.00    -0.260 OA
ATOM     45  O21 DOG d   1      14.839 -23.306  38.292  0.00  0.00    -0.314 OA
ATOM     46  C21 DOG d   1      13.916 -24.395  38.048  0.00  0.00     0.050 A 
ATOM     47  H2  DOG d   1      13.328 -24.627  38.948  0.00  0.00     0.082 H 
ATOM     48  H3  DOG d   1      14.447 -25.299  37.714  0.00  0.00     0.082 H 
ENDBRANCH   1  40
BRANCH   3  49
ATOM     49  C18 DOG d   1      10.542 -23.257  38.190  0.00  0.00    -0.063 C 
ATOM     50  H7  DOG d   1      10.721 -22.323  37.638  0.00  0.00     0.028 H 
ATOM     51  H8  DOG d   1      11.334 -23.396  38.941  0.00  0.00     0.028 H 
ATOM     52  H9  DOG d   1       9.565 -23.204  38.693  0.00  0.00     0.028 H 
ENDBRANCH   3  49
BRANCH   4  53
ATOM     53  O12 DOG d   1       9.608 -22.895  35.544  0.00  0.00    -0.395 OA
ATOM     54  H11 DOG d   1       9.505 -22.237  36.222  0.00  0.00     0.210 HD
ENDBRANCH   4  53
BRANCH   5  55
ATOM     55  O14 DOG d   1      11.212 -25.932  39.041  0.00  0.00    -0.389 OA
ATOM     56  H14 DOG d   1      11.178 -26.822  39.371  0.00  0.00     0.210 HD
ENDBRANCH   5  55
BRANCH  11  57
ATOM     57  C19 DOG d   1       6.090 -24.776  38.990  0.00  0.00    -0.068 C 
ATOM     58  H21 DOG d   1       5.066 -24.899  39.374  0.00  0.00     0.028 H 
ATOM     59  H22 DOG d   1       6.212 -23.758  38.591  0.00  0.00     0.028 H 
ATOM     60  H23 DOG d   1       6.809 -24.939  39.806  0.00  0.00     0.028 H 
ENDBRANCH  11  57
BRANCH  15  61
ATOM     61  O32 DOG d   1       3.766 -28.098  36.746  0.00  0.00    -0.396 OA
ATOM     62  H30 DOG d   1       3.118 -27.881  36.086  0.00  0.00     0.210 HD
ENDBRANCH  15  61
TORSDOF 6
