REMARK  23 active torsions:
REMARK  status: ('A' for Active; 'I' for Inactive)
REMARK    1  A    between atoms: C_2  and  CH3_1 
REMARK       I    between atoms: N_4  and  C_2 
REMARK    2  A    between atoms: CA_5  and  N_4 
REMARK    3  A    between atoms: CA_5  and  C_6 
REMARK    4  A    between atoms: CB_8  and  CA_5 
REMARK       I    between atoms: C_6  and  N_16 
REMARK    5  A    between atoms: CG_9  and  CB_8 
REMARK    6  A    between atoms: OH_15  and  CZ_14 
REMARK    7  A    between atoms: OH_15  and  P_43 
REMARK    8  A    between atoms: N_16  and  CA_17 
REMARK    9  A    between atoms: CA_17  and  C_18 
REMARK   10  A    between atoms: CA_17  and  CB_20 
REMARK       I    between atoms: C_18  and  N_25 
REMARK   11  A    between atoms: CB_20  and  CG_21 
REMARK   12  A    between atoms: CG_21  and  CD_22 
REMARK   13  A    between atoms: N_25  and  CA_26 
REMARK   14  A    between atoms: CA_26  and  C_27 
REMARK   15  A    between atoms: CA_26  and  CB_29 
REMARK       I    between atoms: C_27  and  N_34 
REMARK   16  A    between atoms: CB_29  and  CG_30 
REMARK   17  A    between atoms: CG_30  and  CD_31 
REMARK   18  A    between atoms: N_34  and  CA_35 
REMARK   19  A    between atoms: CA_35  and  C_36 
REMARK   20  A    between atoms: CA_35  and  CB_38 
REMARK   21  A    between atoms: CB_38  and  CG1_39 
REMARK   22  A    between atoms: CB_38  and  CG2_40 
REMARK   23  A    between atoms: CG1_39  and  CD1_41 
ROOT
ATOM      1  CA  GLU d   1      24.709  -1.599   0.954  0.00  0.00     0.090 C 
ATOM      2  H13 GLU d   1      23.925  -2.084   0.354  0.00  0.00     0.087 H 
ENDROOT
BRANCH   1   3
ATOM      3  C   GLU d   1      24.534  -0.073   0.890  0.00  0.00     0.241 C 
ATOM      4  O   GLU d   1      25.495   0.679   0.911  0.00  0.00    -0.271 OA
ATOM      5  N   GLU d   1      23.260   0.306   0.879  0.00  0.00    -0.346 N 
ATOM      6  H18 GLU d   1      22.564  -0.409   0.814  0.00  0.00     0.163 HD
BRANCH   5   7
ATOM      7  CA  GLU d   1      22.807   1.685   0.955  0.00  0.00     0.090 C 
ATOM      8  H19 GLU d   1      23.675   2.358   1.020  0.00  0.00     0.087 H 
BRANCH   7   9
ATOM      9  C   GLU d   1      21.924   1.833   2.212  0.00  0.00     0.241 C 
ATOM     10  O   GLU d   1      21.177   0.919   2.573  0.00  0.00    -0.271 OA
ATOM     11  N   ILE d   1      21.943   3.013   2.802  0.00  0.00    -0.344 N 
ATOM     12  H24 ILE d   1      22.687   3.656   2.622  0.00  0.00     0.163 HD
BRANCH  11  13
ATOM     13  CA  ILE d   1      20.859   3.371   3.727  0.00  0.00     0.099 C 
ATOM     14  H25 ILE d   1      20.732   2.562   4.461  0.00  0.00     0.090 H 
BRANCH  13  15
ATOM     15  C   ILE d   1      19.554   3.524   2.943  0.00  0.00     0.197 C 
ATOM     16  OXT ILE d   1      18.525   2.945   3.397  0.00  0.00    -0.646 OA
ATOM     17  O   ILE d   1      19.583   4.169   1.870  0.00  0.00    -0.646 OA
ENDBRANCH  13  15
BRANCH  13  18
ATOM     18  CB  ILE d   1      21.243   4.669   4.487  0.00  0.00    -0.029 C 
ATOM     19  H26 ILE d   1      21.625   5.388   3.748  0.00  0.00     0.043 H 
BRANCH  18  20
ATOM     20  CG1 ILE d   1      22.367   4.399   5.470  0.00  0.00    -0.063 C 
ATOM     21  H27 ILE d   1      23.215   3.994   4.899  0.00  0.00     0.033 H 
ATOM     22  H28 ILE d   1      22.009   3.641   6.182  0.00  0.00     0.033 H 
BRANCH  20  23
ATOM     23  CD1 ILE d   1      22.874   5.561   6.266  0.00  0.00    -0.076 C 
ATOM     24  H32 ILE d   1      23.681   5.224   6.933  0.00  0.00     0.027 H 
ATOM     25  H33 ILE d   1      22.053   5.980   6.867  0.00  0.00     0.027 H 
ATOM     26  H34 ILE d   1      23.260   6.332   5.583  0.00  0.00     0.027 H 
ENDBRANCH  20  23
ENDBRANCH  18  20
BRANCH  18  27
ATOM     27  CG2 ILE d   1      20.030   5.289   5.122  0.00  0.00    -0.070 C 
ATOM     28  H29 ILE d   1      19.259   5.456   4.355  0.00  0.00     0.028 H 
ATOM     29  H30 ILE d   1      20.306   6.250   5.579  0.00  0.00     0.028 H 
ATOM     30  H31 ILE d   1      19.636   4.614   5.896  0.00  0.00     0.028 H 
ENDBRANCH  18  27
ENDBRANCH  13  18
ENDBRANCH  11  13
ENDBRANCH   7   9
BRANCH   7  31
ATOM     31  CB  GLU d   1      21.969   2.044  -0.274  0.00  0.00    -0.029 C 
ATOM     32  H20 GLU d   1      21.605   3.074  -0.143  0.00  0.00     0.037 H 
ATOM     33  H21 GLU d   1      21.113   1.355  -0.309  0.00  0.00     0.037 H 
BRANCH  31  34
ATOM     34  CG  GLU d   1      22.669   1.971  -1.596  0.00  0.00     0.018 C 
ATOM     35  H22 GLU d   1      21.898   1.927  -2.379  0.00  0.00     0.049 H 
ATOM     36  H23 GLU d   1      23.259   1.043  -1.610  0.00  0.00     0.049 H 
BRANCH  34  37
ATOM     37  CD  GLU d   1      23.594   3.102  -1.932  0.00  0.00     0.172 C 
ATOM     38  OE1 GLU d   1      23.873   3.961  -1.075  0.00  0.00    -0.648 OA
ATOM     39  OE2 GLU d   1      24.076   3.134  -3.093  0.00  0.00    -0.648 OA
ENDBRANCH  34  37
ENDBRANCH  31  34
ENDBRANCH   7  31
ENDBRANCH   5   7
ENDBRANCH   1   3
BRANCH   1  40
ATOM     40  CB  GLU d   1      24.607  -2.078   2.412  0.00  0.00    -0.029 C 
ATOM     41  H14 GLU d   1      23.779  -1.538   2.896  0.00  0.00     0.037 H 
ATOM     42  H15 GLU d   1      25.551  -1.835   2.922  0.00  0.00     0.037 H 
BRANCH  40  43
ATOM     43  CG  GLU d   1      24.358  -3.551   2.558  0.00  0.00     0.018 C 
ATOM     44  H16 GLU d   1      24.510  -3.829   3.611  0.00  0.00     0.049 H 
ATOM     45  H17 GLU d   1      25.080  -4.092   1.928  0.00  0.00     0.049 H 
BRANCH  43  46
ATOM     46  CD  GLU d   1      22.954  -3.963   2.147  0.00  0.00     0.172 C 
ATOM     47  OE1 GLU d   1      21.978  -3.506   2.814  0.00  0.00    -0.648 OA
ATOM     48  OE2 GLU d   1      22.801  -4.581   1.088  0.00  0.00    -0.648 OA
ENDBRANCH  43  46
ENDBRANCH  40  43
ENDBRANCH   1  40
BRANCH   1  49
ATOM     49  N   GLU d   1      26.010  -1.943   0.422  0.00  0.00    -0.346 N 
ATOM     50  C   PTR d   1      26.291  -1.986  -0.863  0.00  0.00     0.241 C 
ATOM     51  O   PTR d   1      25.410  -1.890  -1.745  0.00  0.00    -0.271 OA
ATOM     52  H12 GLU d   1      26.740  -2.161   1.070  0.00  0.00     0.163 HD
BRANCH  50  53
ATOM     53  CA  PTR d   1      27.772  -2.042  -1.212  0.00  0.00     0.093 C 
ATOM     54  H5  PTR d   1      28.322  -2.450  -0.351  0.00  0.00     0.088 H 
BRANCH  53  55
ATOM     55  CB  PTR d   1      28.290  -0.637  -1.501  0.00  0.00    -0.014 C 
ATOM     56  H6  PTR d   1      27.960   0.028  -0.690  0.00  0.00     0.043 H 
ATOM     57  H7  PTR d   1      27.857  -0.297  -2.453  0.00  0.00     0.043 H 
BRANCH  55  58
ATOM     58  CG  PTR d   1      29.812  -0.551  -1.605  0.00  0.00    -0.056 A 
ATOM     59  CD2 PTR d   1      30.458  -0.576  -2.823  0.00  0.00    -0.074 A 
ATOM     60  CE2 PTR d   1      31.847  -0.512  -2.919  0.00  0.00    -0.050 A 
ATOM     61  H9  PTR d   1      29.869  -0.647  -3.731  0.00  0.00     0.084 H 
ATOM     62  CZ  PTR d   1      32.566  -0.385  -1.738  0.00  0.00     0.082 A 
ATOM     63  H11 PTR d   1      32.347  -0.560  -3.880  0.00  0.00     0.087 H 
ATOM     64  CE1 PTR d   1      31.951  -0.344  -0.524  0.00  0.00    -0.050 A 
ATOM     65  CD1 PTR d   1      30.568  -0.422  -0.438  0.00  0.00    -0.074 A 
ATOM     66  H10 PTR d   1      32.544  -0.250   0.379  0.00  0.00     0.087 H 
ATOM     67  H8  PTR d   1      30.078  -0.383   0.528  0.00  0.00     0.084 H 
BRANCH  62  68
ATOM     68  OH  PTR d   1      33.959  -0.189  -1.814  0.00  0.00    -0.240 OA
BRANCH  68  69
ATOM     69  P   PTR d   1      35.061  -1.370  -1.524  0.00  0.00     0.427 P 
ATOM     70  O3P PTR d   1      36.153  -0.594  -0.760  0.00  0.00    -0.617 OA
ATOM     71  O2P PTR d   1      34.378  -2.445  -0.720  0.00  0.00    -0.617 OA
ATOM     72  O1P PTR d   1      35.539  -1.827  -2.886  0.00  0.00    -0.617 OA
ENDBRANCH  68  69
ENDBRANCH  62  68
ENDBRANCH  55  58
ENDBRANCH  53  55
BRANCH  53  73
ATOM     73  N   PTR d   1      27.992  -2.909  -2.354  0.00  0.00    -0.348 N 
ATOM     74  C   ACE d   1      28.660  -4.055  -2.292  0.00  0.00     0.214 C 
ATOM     75  O   ACE d   1      29.141  -4.482  -1.200  0.00  0.00    -0.274 OA
ATOM     76  H4  PTR d   1      27.619  -2.628  -3.238  0.00  0.00     0.163 HD
BRANCH  74  77
ATOM     77  CH3 ACE d   1      28.861  -4.794  -3.582  0.00  0.00    -0.003 C 
ATOM     78  H1  ACE d   1      28.362  -4.250  -4.398  0.00  0.00     0.040 H 
ATOM     79  H2  ACE d   1      28.431  -5.803  -3.498  0.00  0.00     0.040 H 
ATOM     80  H3  ACE d   1      29.937  -4.871  -3.797  0.00  0.00     0.040 H 
ENDBRANCH  74  77
ENDBRANCH  53  73
ENDBRANCH  50  53
ENDBRANCH   1  49
TORSDOF 23
