REMARK  19 active torsions:
REMARK  status: ('A' for Active; 'I' for Inactive)
REMARK    1  A    between atoms: C_2  and  CA_1 
REMARK       I    between atoms: N_4  and  C_2 
REMARK    2  A    between atoms: CA_5  and  N_4 
REMARK    3  A    between atoms: CA_5  and  C_6 
REMARK    4  A    between atoms: CB_8  and  CA_5 
REMARK       I    between atoms: C_6  and  N_16 
REMARK    5  A    between atoms: CG_9  and  CB_8 
REMARK    6  A    between atoms: OH_15  and  CZ_14 
REMARK    7  A    between atoms: OH_15  and  P_39 
REMARK    8  A    between atoms: N_16  and  CA_17 
REMARK    9  A    between atoms: CA_17  and  C_18 
REMARK   10  A    between atoms: CA_17  and  CB_20 
REMARK       I    between atoms: C_18  and  N_25 
REMARK   11  A    between atoms: CB_20  and  CG_21 
REMARK   12  A    between atoms: CG_21  and  CD_22 
REMARK   13  A    between atoms: N_25  and  CA_26 
REMARK   14  A    between atoms: CA_26  and  C_27 
REMARK   15  A    between atoms: CA_26  and  CB_29 
REMARK       I    between atoms: C_27  and  N_34 
REMARK   16  A    between atoms: CB_29  and  CG_30 
REMARK   17  A    between atoms: CG_30  and  CD_31 
REMARK   18  A    between atoms: N_34  and  CA_35 
REMARK   19  A    between atoms: CA_35  and  C_36 
ROOT
ATOM      1  CA  GLU d   1      24.769  -1.640   0.882  0.00  0.00     0.090 C 
ATOM      2  H13 GLU d   1      24.021  -2.119   0.233  0.00  0.00     0.087 H 
ENDROOT
BRANCH   1   3
ATOM      3  C   GLU d   1      24.547  -0.142   0.941  0.00  0.00     0.241 C 
ATOM      4  O   GLU d   1      25.503   0.628   0.976  0.00  0.00    -0.271 OA
ATOM      5  N   GLU d   1      23.286   0.270   0.908  0.00  0.00    -0.346 N 
ATOM      6  H18 GLU d   1      22.557  -0.410   0.834  0.00  0.00     0.163 HD
BRANCH   5   7
ATOM      7  CA  GLU d   1      22.930   1.680   0.976  0.00  0.00     0.090 C 
ATOM      8  H19 GLU d   1      23.816   2.305   0.793  0.00  0.00     0.087 H 
BRANCH   7   9
ATOM      9  C   GLU d   1      22.367   1.939   2.369  0.00  0.00     0.240 C 
ATOM     10  O   GLU d   1      21.629   1.104   2.904  0.00  0.00    -0.271 OA
ATOM     11  N   GLY d   1      22.701   3.093   2.933  0.00  0.00    -0.349 N 
ATOM     12  H24 GLY d   1      23.305   3.720   2.441  0.00  0.00     0.163 HD
BRANCH  11  13
ATOM     13  CA  GLY d   1      22.210   3.468   4.247  0.00  0.00     0.075 C 
ATOM     14  H25 GLY d   1      21.764   2.590   4.737  0.00  0.00     0.080 H 
ATOM     15  H26 GLY d   1      23.044   3.845   4.858  0.00  0.00     0.080 H 
BRANCH  13  16
ATOM     16  C   GLY d   1      21.160   4.554   4.096  0.00  0.00     0.191 C 
ATOM     17  OXT GLY d   1      21.131   5.488   4.927  0.00  0.00    -0.647 OA
ATOM     18  O   GLY d   1      20.385   4.487   3.111  0.00  0.00    -0.647 OA
ENDBRANCH  13  16
ENDBRANCH  11  13
ENDBRANCH   7   9
BRANCH   7  19
ATOM     19  CB  GLU d   1      21.840   2.002  -0.050  0.00  0.00    -0.029 C 
ATOM     20  H20 GLU d   1      21.593   3.070   0.037  0.00  0.00     0.037 H 
ATOM     21  H21 GLU d   1      20.952   1.399   0.193  0.00  0.00     0.037 H 
BRANCH  19  22
ATOM     22  CG  GLU d   1      22.222   1.721  -1.492  0.00  0.00     0.018 C 
ATOM     23  H22 GLU d   1      21.310   1.742  -2.106  0.00  0.00     0.049 H 
ATOM     24  H23 GLU d   1      22.677   0.721  -1.545  0.00  0.00     0.049 H 
BRANCH  22  25
ATOM     25  CD  GLU d   1      23.209   2.733  -2.056  0.00  0.00     0.172 C 
ATOM     26  OE1 GLU d   1      23.118   3.932  -1.697  0.00  0.00    -0.648 OA
ATOM     27  OE2 GLU d   1      24.063   2.337  -2.887  0.00  0.00    -0.648 OA
ENDBRANCH  22  25
ENDBRANCH  19  22
ENDBRANCH   7  19
ENDBRANCH   5   7
ENDBRANCH   1   3
BRANCH   1  28
ATOM     28  CB  GLU d   1      24.690  -2.232   2.288  0.00  0.00    -0.029 C 
ATOM     29  H14 GLU d   1      23.943  -1.666   2.864  0.00  0.00     0.037 H 
ATOM     30  H15 GLU d   1      25.676  -2.131   2.766  0.00  0.00     0.037 H 
BRANCH  28  31
ATOM     31  CG  GLU d   1      24.302  -3.680   2.299  0.00  0.00     0.018 C 
ATOM     32  H16 GLU d   1      24.372  -4.059   3.329  0.00  0.00     0.049 H 
ATOM     33  H17 GLU d   1      24.996  -4.239   1.655  0.00  0.00     0.049 H 
BRANCH  31  34
ATOM     34  CD  GLU d   1      22.880  -3.891   1.791  0.00  0.00     0.172 C 
ATOM     35  OE1 GLU d   1      21.933  -3.372   2.430  0.00  0.00    -0.648 OA
ATOM     36  OE2 GLU d   1      22.712  -4.565   0.756  0.00  0.00    -0.648 OA
ENDBRANCH  31  34
ENDBRANCH  28  31
ENDBRANCH   1  28
BRANCH   1  37
ATOM     37  N   GLU d   1      26.094  -1.817   0.348  0.00  0.00    -0.346 N 
ATOM     38  C   PTR d   1      26.336  -1.977  -0.945  0.00  0.00     0.241 C 
ATOM     39  O   PTR d   1      25.456  -2.090  -1.805  0.00  0.00    -0.271 OA
ATOM     40  H12 GLU d   1      26.867  -1.819   0.982  0.00  0.00     0.163 HD
BRANCH  38  41
ATOM     41  CA  PTR d   1      27.808  -2.081  -1.308  0.00  0.00     0.093 C 
ATOM     42  H5  PTR d   1      28.345  -2.499  -0.444  0.00  0.00     0.088 H 
BRANCH  41  43
ATOM     43  CB  PTR d   1      28.357  -0.679  -1.593  0.00  0.00    -0.014 C 
ATOM     44  H6  PTR d   1      28.024  -0.005  -0.790  0.00  0.00     0.043 H 
ATOM     45  H7  PTR d   1      27.949  -0.334  -2.555  0.00  0.00     0.043 H 
BRANCH  43  46
ATOM     46  CG  PTR d   1      29.872  -0.626  -1.667  0.00  0.00    -0.056 A 
ATOM     47  CD2 PTR d   1      30.539  -0.655  -2.898  0.00  0.00    -0.074 A 
ATOM     48  CE2 PTR d   1      31.937  -0.553  -2.963  0.00  0.00    -0.050 A 
ATOM     49  H9  PTR d   1      29.967  -0.758  -3.813  0.00  0.00     0.084 H 
ATOM     50  CZ  PTR d   1      32.665  -0.418  -1.785  0.00  0.00     0.082 A 
ATOM     51  H11 PTR d   1      32.444  -0.579  -3.921  0.00  0.00     0.087 H 
ATOM     52  CE1 PTR d   1      32.019  -0.396  -0.557  0.00  0.00    -0.050 A 
ATOM     53  CD1 PTR d   1      30.632  -0.503  -0.507  0.00  0.00    -0.074 A 
ATOM     54  H10 PTR d   1      32.591  -0.296   0.358  0.00  0.00     0.087 H 
ATOM     55  H8  PTR d   1      30.133  -0.490   0.455  0.00  0.00     0.084 H 
BRANCH  50  56
ATOM     56  OH  PTR d   1      34.028  -0.259  -1.833  0.00  0.00    -0.240 OA
BRANCH  56  57
ATOM     57  P   PTR d   1      35.092  -1.433  -1.551  0.00  0.00     0.427 P 
ATOM     58  O3P PTR d   1      36.115  -0.710  -0.765  0.00  0.00    -0.617 OA
ATOM     59  O2P PTR d   1      34.490  -2.496  -0.748  0.00  0.00    -0.617 OA
ATOM     60  O1P PTR d   1      35.600  -1.987  -2.821  0.00  0.00    -0.617 OA
ENDBRANCH  56  57
ENDBRANCH  50  56
ENDBRANCH  43  46
ENDBRANCH  41  43
BRANCH  41  61
ATOM     61  N   PTR d   1      28.040  -2.951  -2.439  0.00  0.00    -0.348 N 
ATOM     62  C   ACE d   1      28.721  -4.085  -2.330  0.00  0.00     0.214 C 
ATOM     63  O   ACE d   1      29.173  -4.497  -1.256  0.00  0.00    -0.274 OA
ATOM     64  H4  PTR d   1      27.675  -2.690  -3.333  0.00  0.00     0.163 HD
BRANCH  62  65
ATOM     65  CA  ACE d   1      28.927  -4.924  -3.580  0.00  0.00    -0.003 C 
ATOM     66  H1  ACE d   1      28.467  -4.418  -4.441  0.00  0.00     0.040 H 
ATOM     67  H2  ACE d   1      28.459  -5.910  -3.441  0.00  0.00     0.040 H 
ATOM     68  H3  ACE d   1      30.004  -5.052  -3.762  0.00  0.00     0.040 H 
ENDBRANCH  62  65
ENDBRANCH  41  61
ENDBRANCH  38  41
ENDBRANCH   1  37
TORSDOF 19
