REMARK  5 active torsions:
REMARK  status: ('A' for Active; 'I' for Inactive)
REMARK    1  A    between atoms: C20_6  and  C17_7 
REMARK    2  A    between atoms: C13_9  and  C18_12 
REMARK    3  A    between atoms: C14_13  and  O14_15 
REMARK    4  A    between atoms: C10_19  and  C19_21 
REMARK    5  A    between atoms: C3_25  and  O32_27 
ROOT
ATOM      1  C17 DTX d   1      11.203 -24.507  36.116  0.00  0.00    -0.020 C 
ATOM      2  C16 DTX d   1      11.556 -26.043  36.112  0.00  0.00    -0.055 C 
ATOM      3  C13 DTX d   1       9.967 -24.317  36.994  0.00  0.00    -0.005 C 
ATOM      4  C12 DTX d   1       8.737 -24.155  36.051  0.00  0.00    -0.055 C 
ATOM      5  C11 DTX d   1       7.376 -24.351  36.706  0.00  0.00    -0.060 C 
ATOM      6  C14 DTX d   1       9.790 -25.726  37.682  0.00  0.00     0.070 C 
ATOM      7  C15 DTX d   1      10.262 -26.683  36.612  0.00  0.00    -0.035 C 
ATOM      8  C8  DTX d   1       8.419 -25.959  38.361  0.00  0.00    -0.019 C 
ATOM      9  C7  DTX d   1       8.393 -27.311  39.079  0.00  0.00    -0.058 C 
ATOM     10  C9  DTX d   1       7.222 -25.746  37.373  0.00  0.00    -0.041 C 
ATOM     11  C10 DTX d   1       5.866 -25.976  38.106  0.00  0.00    -0.036 C 
ATOM     12  C1  DTX d   1       4.706 -25.856  37.078  0.00  0.00    -0.055 C 
ATOM     13  C5  DTX d   1       5.864 -27.386  38.657  0.00  0.00    -0.044 C 
ATOM     14  C6  DTX d   1       7.004 -27.671  39.646  0.00  0.00    -0.060 C 
ATOM     15  C4  DTX d   1       5.935 -28.426  37.528  0.00  0.00    -0.037 C 
ATOM     16  C3  DTX d   1       4.835 -28.258  36.495  0.00  0.00     0.036 C 
ATOM     17  C2  DTX d   1       4.860 -26.850  35.934  0.00  0.00    -0.040 C 
ATOM     18  H4  DTX d   1      10.942 -24.192  35.095  0.00  0.00     0.048 H 
ATOM     19  H5  DTX d   1      12.394 -26.260  36.791  0.00  0.00     0.034 H 
ATOM     20  H6  DTX d   1      11.805 -26.391  35.099  0.00  0.00     0.034 H 
ATOM     21  H7  DTX d   1       8.832 -24.893  35.241  0.00  0.00     0.034 H 
ATOM     22  H8  DTX d   1       8.766 -23.140  35.628  0.00  0.00     0.034 H 
ATOM     23  H9  DTX d   1       6.597 -24.242  35.937  0.00  0.00     0.033 H 
ATOM     24  H10 DTX d   1       7.242 -23.577  37.476  0.00  0.00     0.033 H 
ATOM     25  H14 DTX d   1      10.453 -27.681  37.033  0.00  0.00     0.037 H 
ATOM     26  H15 DTX d   1       9.523 -26.762  35.801  0.00  0.00     0.037 H 
ATOM     27  H17 DTX d   1       8.315 -25.189  39.140  0.00  0.00     0.045 H 
ATOM     28  H18 DTX d   1       9.113 -27.279  39.910  0.00  0.00     0.033 H 
ATOM     29  H19 DTX d   1       8.692 -28.092  38.365  0.00  0.00     0.033 H 
ATOM     30  H20 DTX d   1       7.291 -26.502  36.577  0.00  0.00     0.042 H 
ATOM     31  H21 DTX d   1       4.700 -24.836  36.665  0.00  0.00     0.034 H 
ATOM     32  H22 DTX d   1       3.753 -26.049  37.592  0.00  0.00     0.034 H 
ATOM     33  H26 DTX d   1       4.913 -27.523  39.193  0.00  0.00     0.041 H 
ATOM     34  H27 DTX d   1       6.833 -27.081  40.558  0.00  0.00     0.033 H 
ATOM     35  H28 DTX d   1       6.993 -28.742  39.895  0.00  0.00     0.033 H 
ATOM     36  H29 DTX d   1       5.850 -29.430  37.970  0.00  0.00     0.037 H 
ATOM     37  H30 DTX d   1       6.907 -28.329  37.023  0.00  0.00     0.037 H 
ATOM     38  H31 DTX d   1       4.972 -28.984  35.680  0.00  0.00     0.082 H 
ATOM     39  H32 DTX d   1       5.817 -26.675  35.420  0.00  0.00     0.036 H 
ATOM     40  H33 DTX d   1       4.032 -26.723  35.221  0.00  0.00     0.036 H 
ENDROOT
BRANCH   1  41
ATOM     41  C20 DTX d   1      12.420 -23.740  36.532  0.00  0.00    -0.045 A 
ATOM     42  C22 DTX d   1      12.904 -22.525  36.164  0.00  0.00    -0.006 A 
ATOM     43  C23 DTX d   1      14.040 -22.208  37.035  0.00  0.00     0.283 A 
ATOM     44  H1  DTX d   1      12.516 -21.897  35.363  0.00  0.00     0.093 H 
ATOM     45  O23 DTX d   1      14.781 -21.292  37.106  0.00  0.00    -0.260 OA
ATOM     46  O21 DTX d   1      14.230 -23.261  37.923  0.00  0.00    -0.314 OA
ATOM     47  C21 DTX d   1      13.224 -24.265  37.662  0.00  0.00     0.050 A 
ATOM     48  H2  DTX d   1      12.590 -24.413  38.548  0.00  0.00     0.082 H 
ATOM     49  H3  DTX d   1      13.697 -25.219  37.386  0.00  0.00     0.082 H 
ENDBRANCH   1  41
BRANCH   3  50
ATOM     50  C18 DTX d   1      10.070 -23.118  37.931  0.00  0.00    -0.066 C 
ATOM     51  H11 DTX d   1      10.190 -22.199  37.339  0.00  0.00     0.028 H 
ATOM     52  H12 DTX d   1      10.940 -23.244  38.593  0.00  0.00     0.028 H 
ATOM     53  H13 DTX d   1       9.155 -23.047  38.537  0.00  0.00     0.028 H 
ENDBRANCH   3  50
BRANCH   6  54
ATOM     54  O14 DTX d   1      10.826 -25.864  38.702  0.00  0.00    -0.389 OA
ATOM     55  H16 DTX d   1      10.858 -26.766  38.999  0.00  0.00     0.210 HD
ENDBRANCH   6  54
BRANCH  11  56
ATOM     56  C19 DTX d   1       5.512 -24.881  39.166  0.00  0.00    -0.068 C 
ATOM     57  H23 DTX d   1       6.277 -24.874  39.956  0.00  0.00     0.028 H 
ATOM     58  H24 DTX d   1       4.530 -25.103  39.609  0.00  0.00     0.028 H 
ATOM     59  H25 DTX d   1       5.480 -23.895  38.678  0.00  0.00     0.028 H 
ENDBRANCH  11  56
BRANCH  16  60
ATOM     60  O32 DTX d   1       3.555 -28.483  37.158  0.00  0.00    -0.396 OA
ATOM     61  H34 DTX d   1       3.534 -29.364  37.512  0.00  0.00     0.210 HD
ENDBRANCH  16  60
TORSDOF 5
