REMARK  14 active torsions:
REMARK  status: ('A' for Active; 'I' for Inactive)
REMARK    1  A    between atoms: C11_1  and  O1_34 
REMARK    2  A    between atoms: C20_10  and  N18_8 
REMARK    3  A    between atoms: C19_9  and  C21_11 
REMARK    4  A    between atoms: C28_16  and  C20_10 
REMARK       I    between atoms: C21_11  and  N22_12 
REMARK    5  A    between atoms: N22_12  and  C23_13 
REMARK    6  A    between atoms: C23_13  and  C24_14 
REMARK    7  A    between atoms: C31_17  and  C36_22 
REMARK    8  A    between atoms: C36_22  and  N37_23 
REMARK    9  A    between atoms: C40_26  and  N44_30 
REMARK   10  A    between atoms: N44_30  and  C45_31 
REMARK   11  A    between atoms: N44_30  and  C49_32 
REMARK   12  A    between atoms: N44_30  and  C53_33 
REMARK   13  A    between atoms: O1_34  and  C1_35 
REMARK   14  A    between atoms: C1_35  and  C2_36 
ROOT
ATOM      1  C11 IMA d   1       2.855  10.412  24.278  0.00  0.00     0.070 A 
ATOM      2  C12 IMA d   1       3.653   9.817  25.282  0.00  0.00    -0.049 A 
ATOM      3  C13 IMA d   1       4.752   9.045  24.910  0.00  0.00    -0.053 A 
ATOM      4  C14 IMA d   1       5.052   8.897  23.534  0.00  0.00     0.045 A 
ATOM      5  C15 IMA d   1       4.271   9.530  22.518  0.00  0.00    -0.004 A 
ATOM      6  C16 IMA d   1       3.159  10.275  22.906  0.00  0.00    -0.039 A 
ATOM      7  C17 IMA d   1       4.832   9.243  21.259  0.00  0.00    -0.039 A 
ATOM      8  N18 IMA d   1       6.068   8.208  22.880  0.00  0.00    -0.337 N 
ATOM      9  C19 IMA d   1       5.946   8.416  21.538  0.00  0.00     0.104 A 
ATOM     10  H1  IMA d   1       3.413   9.960  26.329  0.00  0.00     0.087 H 
ATOM     11  H2  IMA d   1       5.368   8.565  25.662  0.00  0.00     0.087 H 
ATOM     12  H3  IMA d   1       2.531  10.747  22.159  0.00  0.00     0.089 H 
ATOM     13  H4  IMA d   1       4.485   9.583  20.284  0.00  0.00     0.088 H 
ENDROOT
BRANCH   9  14
ATOM     14  C21 IMA d   1       6.789   7.900  20.548  0.00  0.00     0.268 C 
ATOM     15  N22 IMA d   1       6.269   7.692  19.348  0.00  0.00    -0.351 N 
ATOM     16  H7  IMA d   1       5.296   7.801  19.143  0.00  0.00     0.163 HD
ATOM     17  O27 IMA d   1       7.972   7.672  20.782  0.00  0.00    -0.266 OA
BRANCH  15  18
ATOM     18  C23 IMA d   1       7.251   7.291  18.364  0.00  0.00     0.019 C 
ATOM     19  H8  IMA d   1       8.206   7.766  18.632  0.00  0.00     0.071 H 
ATOM     20  H9  IMA d   1       6.917   7.666  17.386  0.00  0.00     0.071 H 
BRANCH  18  21
ATOM     21  C24 IMA d   1       7.500   5.798  18.226  0.00  0.00    -0.040 A 
ATOM     22  C42 IMA d   1       6.882   5.126  17.157  0.00  0.00    -0.073 A 
ATOM     23  C41 IMA d   1       7.200   3.775  16.907  0.00  0.00    -0.049 A 
ATOM     24  H20 IMA d   1       6.166   5.643  16.529  0.00  0.00     0.084 H 
ATOM     25  C40 IMA d   1       8.111   3.084  17.732  0.00  0.00     0.135 A 
ATOM     26  H19 IMA d   1       6.739   3.262  16.071  0.00  0.00     0.086 H 
ATOM     27  C39 IMA d   1       8.673   3.767  18.834  0.00  0.00    -0.049 A 
ATOM     28  C43 IMA d   1       8.368   5.119  19.086  0.00  0.00    -0.073 A 
ATOM     29  H18 IMA d   1       9.351   3.241  19.497  0.00  0.00     0.086 H 
ATOM     30  H21 IMA d   1       8.802   5.628  19.939  0.00  0.00     0.084 H 
BRANCH  25  31
ATOM     31  N44 IMA d   1       8.435   1.711  17.401  0.00  0.00    -0.049 N 
BRANCH  31  32
ATOM     32  C45 IMA d   1       9.282   1.739  16.207  0.00  0.00     0.072 C 
ATOM     33  H22 IMA d   1       9.550   0.711  15.923  0.00  0.00     0.069 H 
ATOM     34  H23 IMA d   1      10.197   2.311  16.420  0.00  0.00     0.069 H 
ATOM     35  H24 IMA d   1       8.735   2.216  15.381  0.00  0.00     0.069 H 
ENDBRANCH  31  32
BRANCH  31  36
ATOM     36  C49 IMA d   1       7.221   0.923  17.121  0.00  0.00     0.072 C 
ATOM     37  H25 IMA d   1       6.583   0.901  18.017  0.00  0.00     0.069 H 
ATOM     38  H26 IMA d   1       7.505  -0.104  16.848  0.00  0.00     0.069 H 
ATOM     39  H27 IMA d   1       6.668   1.384  16.289  0.00  0.00     0.069 H 
ENDBRANCH  31  36
BRANCH  31  40
ATOM     40  C53 IMA d   1       9.154   0.860  18.365  0.00  0.00     0.072 C 
ATOM     41  H28 IMA d   1      10.095   1.350  18.656  0.00  0.00     0.069 H 
ATOM     42  H29 IMA d   1       9.375  -0.113  17.902  0.00  0.00     0.069 H 
ATOM     43  H30 IMA d   1       8.529   0.708  19.257  0.00  0.00     0.069 H 
ENDBRANCH  31  40
ENDBRANCH  25  31
ENDBRANCH  18  21
ENDBRANCH  15  18
ENDBRANCH   9  14
BRANCH   8  44
ATOM     44  C20 IMA d   1       7.002   7.276  23.530  0.00  0.00     0.024 C 
ATOM     45  H5  IMA d   1       7.365   6.568  22.770  0.00  0.00     0.072 H 
ATOM     46  H6  IMA d   1       6.453   6.728  24.310  0.00  0.00     0.072 H 
BRANCH  44  47
ATOM     47  C28 IMA d   1       8.189   7.928  24.165  0.00  0.00    -0.039 A 
ATOM     48  C32 IMA d   1       8.630   7.311  25.336  0.00  0.00    -0.062 A 
ATOM     49  C31 IMA d   1       9.813   7.778  25.959  0.00  0.00     0.007 A 
ATOM     50  H10 IMA d   1       8.074   6.484  25.764  0.00  0.00     0.085 H 
ATOM     51  C35 IMA d   1      10.510   8.892  25.406  0.00  0.00    -0.069 A 
ATOM     52  C34 IMA d   1      10.037   9.537  24.249  0.00  0.00    -0.082 A 
ATOM     53  H13 IMA d   1      11.416   9.247  25.883  0.00  0.00     0.085 H 
ATOM     54  C33 IMA d   1       8.871   9.046  23.624  0.00  0.00    -0.075 A 
ATOM     55  H12 IMA d   1      10.559  10.396  23.844  0.00  0.00     0.083 H 
ATOM     56  H11 IMA d   1       8.496   9.526  22.727  0.00  0.00     0.084 H 
BRANCH  49  57
ATOM     57  C36 IMA d   1      10.244   7.054  27.173  0.00  0.00     0.102 C 
ATOM     58  N38 IMA d   1      11.527   7.046  27.555  0.00  0.00    -0.385 N 
ATOM     59  H16 IMA d   1      12.232   7.553  27.002  0.00  0.00     0.157 HD
ATOM     60  H17 IMA d   1      11.809   6.533  28.402  0.00  0.00     0.157 HD
BRANCH  57  61
ATOM     61  N37 IMA d   1       9.260   6.414  27.844  0.00  0.00    -0.385 N 
ATOM     62  H14 IMA d   1       8.290   6.457  27.500  0.00  0.00     0.157 HD
ATOM     63  H15 IMA d   1       9.480   5.883  28.699  0.00  0.00     0.157 HD
ENDBRANCH  57  61
ENDBRANCH  49  57
ENDBRANCH  44  47
ENDBRANCH   8  44
BRANCH   1  64
ATOM     64  O1  IMA d   1       1.749  11.123  24.703  0.00  0.00    -0.347 OA
BRANCH  64  65
ATOM     65  C1  IMA d   1       0.943  11.799  23.747  0.00  0.00     0.050 C 
ATOM     66  H31 IMA d   1       0.408  11.084  23.105  0.00  0.00     0.082 H 
ATOM     67  H32 IMA d   1       1.550  12.470  23.122  0.00  0.00     0.082 H 
BRANCH  65  68
ATOM     68  C2  IMA d   1      -0.012  12.576  24.599  0.00  0.00    -0.034 A 
ATOM     69  C3  IMA d   1      -1.142  13.132  23.989  0.00  0.00    -0.075 A 
ATOM     70  C4  IMA d   1      -2.087  13.812  24.785  0.00  0.00    -0.082 A 
ATOM     71  H33 IMA d   1      -1.289  13.041  22.919  0.00  0.00     0.084 H 
ATOM     72  C5  IMA d   1      -1.873  13.925  26.175  0.00  0.00    -0.083 A 
ATOM     73  H34 IMA d   1      -2.972  14.245  24.332  0.00  0.00     0.083 H 
ATOM     74  C6  IMA d   1      -0.724  13.391  26.784  0.00  0.00    -0.082 A 
ATOM     75  H35 IMA d   1      -2.610  14.434  26.786  0.00  0.00     0.083 H 
ATOM     76  C7  IMA d   1       0.215  12.718  25.991  0.00  0.00    -0.075 A 
ATOM     77  H36 IMA d   1      -0.567  13.498  27.851  0.00  0.00     0.083 H 
ATOM     78  H37 IMA d   1       1.112  12.307  26.441  0.00  0.00     0.084 H 
ENDBRANCH  65  68
ENDBRANCH  64  65
ENDBRANCH   1  64
TORSDOF 14
