REMARK  2 active torsions:
REMARK  status: ('A' for Active; 'I' for Inactive)
REMARK    1  A    between atoms: C2_2  and  C11_11 
REMARK    2  A    between atoms: C11_11  and  C12_12 
ROOT
ATOM      1  C1  NON d   1      67.062  41.412  23.377  0.00  0.00    -0.019 A 
ATOM      2  C2  NON d   1      67.356  41.035  24.709  0.00  0.00    -0.037 A 
ATOM      3  C3  NON d   1      68.683  41.075  25.179  0.00  0.00    -0.075 A 
ATOM      4  C4  NON d   1      69.724  41.449  24.294  0.00  0.00    -0.082 A 
ATOM      5  C5  NON d   1      69.472  41.832  23.022  0.00  0.00    -0.072 A 
ATOM      6  C6  NON d   1      68.162  41.833  22.509  0.00  0.00    -0.025 A 
ATOM      7  C7  NON d   1      67.887  42.194  21.138  0.00  0.00    -0.072 A 
ATOM      8  C8  NON d   1      66.586  42.176  20.671  0.00  0.00    -0.082 A 
ATOM      9  C9  NON d   1      65.503  41.794  21.509  0.00  0.00    -0.082 A 
ATOM     10  C10 NON d   1      65.723  41.425  22.831  0.00  0.00    -0.072 A 
ATOM     11  H1  NON d   1      68.906  40.822  26.209  0.00  0.00     0.084 H 
ATOM     12  H2  NON d   1      70.749  41.428  24.646  0.00  0.00     0.083 H 
ATOM     13  H3  NON d   1      70.293  42.144  22.387  0.00  0.00     0.084 H 
ATOM     14  H4  NON d   1      68.698  42.478  20.477  0.00  0.00     0.084 H 
ATOM     15  H5  NON d   1      66.387  42.459  19.644  0.00  0.00     0.083 H 
ATOM     16  H6  NON d   1      64.494  41.790  21.113  0.00  0.00     0.083 H 
ATOM     17  H7  NON d   1      64.884  41.145  23.458  0.00  0.00     0.084 H 
ENDROOT
BRANCH   2  18
ATOM     18  C11 NON d   1      66.266  40.606  25.745  0.00  0.00     0.040 C 
ATOM     19  H8  NON d   1      65.420  40.162  25.200  0.00  0.00     0.056 H 
ATOM     20  H9  NON d   1      65.925  41.501  26.286  0.00  0.00     0.056 H 
BRANCH  18  21
ATOM     21  C12 NON d   1      66.758  39.624  26.727  0.00  0.00     0.176 C 
ATOM     22  O2  NON d   1      67.221  40.164  27.841  0.00  0.00    -0.648 OA
ATOM     23  O1  NON d   1      66.801  38.325  26.473  0.00  0.00    -0.648 OA
ENDBRANCH  18  21
ENDBRANCH   2  18
TORSDOF 2
