REMARK  7 active torsions:
REMARK  status: ('A' for Active; 'I' for Inactive)
REMARK    1  A    between atoms: N_1  and  CA_2 
REMARK    2  A    between atoms: CA_2  and  C_3 
REMARK    3  A    between atoms: CA_2  and  CB_5 
REMARK    4  A    between atoms: CB_5  and  CG_6 
REMARK    5  A    between atoms: CG_6  and  CD_7 
REMARK    6  A    between atoms: CD_7  and  CE_8 
REMARK    7  A    between atoms: CE_8  and  NZ_9 
ROOT
ATOM      1  CG  LYS d   1      21.160  58.248  47.238  0.00  0.00    -0.061 C 
ATOM      2  H7  LYS d   1      20.753  59.090  47.817  0.00  0.00     0.033 H 
ATOM      3  H8  LYS d   1      21.340  58.569  46.201  0.00  0.00     0.033 H 
ENDROOT
BRANCH   1   4
ATOM      4  CB  LYS d   1      20.183  57.087  47.258  0.00  0.00    -0.029 C 
ATOM      5  H5  LYS d   1      20.503  56.362  46.495  0.00  0.00     0.036 H 
ATOM      6  H6  LYS d   1      20.233  56.620  48.252  0.00  0.00     0.036 H 
BRANCH   4   7
ATOM      7  CA  LYS d   1      18.729  57.446  46.982  0.00  0.00     0.182 C 
ATOM      8  H4  LYS d   1      18.141  56.524  46.863  0.00  0.00     0.101 H 
BRANCH   7   9
ATOM      9  N   LYS d   1      18.663  58.231  45.771  0.00  0.00    -0.065 N 
ATOM     10  H1  LYS d   1      19.042  57.698  45.004  0.00  0.00     0.275 HD
ATOM     11  H2  LYS d   1      19.198  59.077  45.889  0.00  0.00     0.275 HD
ATOM     12  H3  LYS d   1      17.703  58.465  45.575  0.00  0.00     0.275 HD
ENDBRANCH   7   9
BRANCH   7  13
ATOM     13  C   LYS d   1      18.141  58.287  48.141  0.00  0.00     0.204 C 
ATOM     14  O   LYS d   1      18.040  57.797  49.267  0.00  0.00    -0.646 OA
ATOM     15  OXT LYS d   1      17.791  59.453  47.900  0.00  0.00    -0.646 OA
ENDBRANCH   7  13
ENDBRANCH   4   7
ENDBRANCH   1   4
BRANCH   1  16
ATOM     16  CD  LYS d   1      22.442  57.774  47.856  0.00  0.00    -0.043 C 
ATOM     17  H9  LYS d   1      22.753  56.835  47.375  0.00  0.00     0.035 H 
ATOM     18  H10 LYS d   1      22.286  57.602  48.931  0.00  0.00     0.035 H 
BRANCH  16  19
ATOM     19  CE  LYS d   1      23.521  58.814  47.667  0.00  0.00     0.080 C 
ATOM     20  H11 LYS d   1      23.164  59.775  48.066  0.00  0.00     0.075 H 
ATOM     21  H12 LYS d   1      23.732  58.918  46.592  0.00  0.00     0.075 H 
BRANCH  19  22
ATOM     22  NZ  LYS d   1      24.756  58.442  48.359  0.00  0.00    -0.079 N 
ATOM     23  H13 LYS d   1      25.452  59.156  48.212  0.00  0.00     0.274 HD
ATOM     24  H14 LYS d   1      25.093  57.564  47.996  0.00  0.00     0.274 HD
ATOM     25  H15 LYS d   1      24.573  58.349  49.346  0.00  0.00     0.274 HD
ENDBRANCH  19  22
ENDBRANCH  16  19
ENDBRANCH   1  16
TORSDOF 7
