REMARK WARNING: 32 MAX_TORS EXCEEDED!!!
REMARK  35 active torsions:
REMARK  status: ('A' for Active; 'I' for Inactive)
REMARK    1  A    between atoms: CA_1  and  CB_2 
REMARK    2  A    between atoms: C_5  and  CA_1 
REMARK    3  A    between atoms: CB_2  and  CG1_3 
REMARK    4  A    between atoms: CB_2  and  CG2_4 
REMARK       I    between atoms: N_7  and  C_5 
REMARK    5  A    between atoms: CA_8  and  N_7 
REMARK    6  A    between atoms: CA_8  and  CB_11 
REMARK    7  A    between atoms: C_9  and  CA_8 
REMARK       I    between atoms: N_14  and  C_9 
REMARK    8  A    between atoms: CB_11  and  CG2_13 
REMARK    9  A    between atoms: CB_11  and  CG1_12 
REMARK   10  A    between atoms: CA_15  and  N_14 
REMARK   11  A    between atoms: CA_15  and  CB_18 
REMARK   12  A    between atoms: C_16  and  CA_15 
REMARK       I    between atoms: N_21  and  C_16 
REMARK   13  A    between atoms: CB_18  and  CG2_20 
REMARK   14  A    between atoms: CB_18  and  CG1_19 
REMARK   15  A    between atoms: CA_22  and  N_21 
REMARK   16  A    between atoms: CA_22  and  CB_23 
REMARK   17  A    between atoms: CH_27  and  CA_22 
REMARK   18  A    between atoms: CB_23  and  CG_24 
REMARK   19  A    between atoms: CG_24  and  CD1_25 
REMARK   20  A    between atoms: CG_24  and  CD2_26 
REMARK   21  A    between atoms: CH_27  and  OH_28 
REMARK   22  A    between atoms: CM_29  and  CH_27 
REMARK   23  A    between atoms: C_30  and  CM_29 
REMARK       I    between atoms: N_32  and  C_30 
REMARK   24  A    between atoms: N_32  and  CA_33 
REMARK   25  A    between atoms: CA_33  and  CB_36 
REMARK   26  A    between atoms: CA_33  and  C_34 
REMARK       I    between atoms: C_34  and  N_37 
REMARK   27  A    between atoms: N_37  and  CA_38 
REMARK   28  A    between atoms: CA_38  and  CB_39 
REMARK   29  A    between atoms: CA_38  and  CH_43 
REMARK   30  A    between atoms: CB_39  and  CG_40 
REMARK   31  A    between atoms: CG_40  and  CD1_41 
REMARK   32  A    between atoms: CG_40  and  CD2_42 
REMARK   33  A    between atoms: CH_43  and  OH_44 
REMARK   34  A    between atoms: CH_43  and  CM_45 
REMARK   35  A    between atoms: CM_45  and  C_46 
ROOT
ATOM      1  CA  STA d   1      18.897  94.730  10.674  0.00  0.00     0.037 C 
ATOM      2  H29 STA d   1      18.509  95.462   9.950  0.00  0.00     0.076 H 
ENDROOT
BRANCH   1   3
ATOM      3  N   STA d   1      20.164  94.229  10.236  0.00  0.00    -0.352 N 
ATOM      4  C   VAL d   1      20.612  94.461   9.021  0.00  0.00     0.241 C 
ATOM      5  O   VAL d   1      20.038  95.121   8.151  0.00  0.00    -0.271 OA
ATOM      6  H28 STA d   1      20.721  93.690  10.868  0.00  0.00     0.163 HD
BRANCH   4   7
ATOM      7  CA  VAL d   1      21.894  93.727   8.772  0.00  0.00     0.092 C 
ATOM      8  H20 VAL d   1      22.224  93.178   9.666  0.00  0.00     0.088 H 
BRANCH   7   9
ATOM      9  N   VAL d   1      21.468  92.820   7.731  0.00  0.00    -0.346 N 
ATOM     10  C   VAL d   1      21.854  91.558   7.652  0.00  0.00     0.241 C 
ATOM     11  O   VAL d   1      22.777  91.087   8.338  0.00  0.00    -0.271 OA
ATOM     12  H19 VAL d   1      20.845  93.167   7.030  0.00  0.00     0.163 HD
BRANCH  10  13
ATOM     13  CA  VAL d   1      21.175  90.844   6.495  0.00  0.00     0.092 C 
ATOM     14  H11 VAL d   1      20.453  91.520   6.013  0.00  0.00     0.088 H 
BRANCH  13  15
ATOM     15  N   VAL d   1      22.260  90.538   5.558  0.00  0.00    -0.347 N 
ATOM     16  C   IVA d   1      23.111  89.501   5.601  0.00  0.00     0.218 C 
ATOM     17  O   IVA d   1      23.025  88.575   6.395  0.00  0.00    -0.274 OA
ATOM     18  H10 VAL d   1      22.380  91.177   4.798  0.00  0.00     0.163 HD
BRANCH  16  19
ATOM     19  CA  IVA d   1      24.238  89.503   4.582  0.00  0.00     0.012 C 
ATOM     20  H1  IVA d   1      24.000  90.231   3.793  0.00  0.00     0.047 H 
ATOM     21  H2  IVA d   1      25.170  89.799   5.085  0.00  0.00     0.047 H 
BRANCH  19  22
ATOM     22  CB  IVA d   1      24.439  88.140   3.945  0.00  0.00    -0.053 C 
ATOM     23  H3  IVA d   1      23.503  87.565   4.009  0.00  0.00     0.039 H 
BRANCH  22  24
ATOM     24  CG1 IVA d   1      24.807  88.380   2.491  0.00  0.00    -0.073 C 
ATOM     25  H4  IVA d   1      24.963  87.414   1.988  0.00  0.00     0.028 H 
ATOM     26  H5  IVA d   1      25.732  88.973   2.440  0.00  0.00     0.028 H 
ATOM     27  H6  IVA d   1      23.993  88.926   1.992  0.00  0.00     0.028 H 
ENDBRANCH  22  24
BRANCH  22  28
ATOM     28  CG2 IVA d   1      25.556  87.346   4.612  0.00  0.00    -0.073 C 
ATOM     29  H7  IVA d   1      25.299  87.167   5.666  0.00  0.00     0.028 H 
ATOM     30  H8  IVA d   1      26.495  87.916   4.555  0.00  0.00     0.028 H 
ATOM     31  H9  IVA d   1      25.680  86.383   4.096  0.00  0.00     0.028 H 
ENDBRANCH  22  28
ENDBRANCH  19  22
ENDBRANCH  16  19
ENDBRANCH  13  15
BRANCH  13  32
ATOM     32  CB  VAL d   1      20.394  89.553   6.979  0.00  0.00    -0.033 C 
ATOM     33  H12 VAL d   1      21.014  88.668   6.772  0.00  0.00     0.042 H 
BRANCH  32  34
ATOM     34  CG2 VAL d   1      19.101  89.470   6.168  0.00  0.00    -0.071 C 
ATOM     35  H16 VAL d   1      19.341  89.461   5.095  0.00  0.00     0.028 H 
ATOM     36  H17 VAL d   1      18.469  90.342   6.395  0.00  0.00     0.028 H 
ATOM     37  H18 VAL d   1      18.562  88.548   6.431  0.00  0.00     0.028 H 
ENDBRANCH  32  34
BRANCH  32  38
ATOM     38  CG1 VAL d   1      20.061  89.566   8.467  0.00  0.00    -0.071 C 
ATOM     39  H13 VAL d   1      19.522  88.644   8.730  0.00  0.00     0.028 H 
ATOM     40  H14 VAL d   1      19.429  90.437   8.694  0.00  0.00     0.028 H 
ATOM     41  H15 VAL d   1      20.991  89.626   9.050  0.00  0.00     0.028 H 
ENDBRANCH  32  38
ENDBRANCH  13  32
ENDBRANCH  10  13
ENDBRANCH   7   9
BRANCH   7  42
ATOM     42  CB  VAL d   1      23.036  94.691   8.322  0.00  0.00    -0.033 C 
ATOM     43  H21 VAL d   1      24.002  94.243   8.596  0.00  0.00     0.042 H 
BRANCH  42  44
ATOM     44  CG2 VAL d   1      22.895  96.034   9.043  0.00  0.00    -0.071 C 
ATOM     45  H25 VAL d   1      22.916  95.870  10.130  0.00  0.00     0.028 H 
ATOM     46  H26 VAL d   1      21.941  96.503   8.762  0.00  0.00     0.028 H 
ATOM     47  H27 VAL d   1      23.727  96.694   8.755  0.00  0.00     0.028 H 
ENDBRANCH  42  44
BRANCH  42  48
ATOM     48  CG1 VAL d   1      23.009  94.893   6.828  0.00  0.00    -0.071 C 
ATOM     49  H22 VAL d   1      23.821  95.575   6.535  0.00  0.00     0.028 H 
ATOM     50  H23 VAL d   1      22.042  95.328   6.534  0.00  0.00     0.028 H 
ATOM     51  H24 VAL d   1      23.144  93.924   6.324  0.00  0.00     0.028 H 
ENDBRANCH  42  48
ENDBRANCH   7  42
ENDBRANCH   4   7
ENDBRANCH   1   3
BRANCH   1  52
ATOM     52  CB  STA d   1      17.972  93.543  10.732  0.00  0.00    -0.041 C 
ATOM     53  H30 STA d   1      16.969  93.959  10.908  0.00  0.00     0.036 H 
ATOM     54  H31 STA d   1      18.289  92.964  11.612  0.00  0.00     0.036 H 
BRANCH  52  55
ATOM     55  CG  STA d   1      17.800  92.516   9.604  0.00  0.00    -0.059 C 
ATOM     56  H32 STA d   1      18.787  92.279   9.180  0.00  0.00     0.038 H 
BRANCH  55  57
ATOM     57  CD1 STA d   1      17.182  91.283  10.206  0.00  0.00    -0.073 C 
ATOM     58  H33 STA d   1      17.044  90.523   9.423  0.00  0.00     0.028 H 
ATOM     59  H34 STA d   1      16.206  91.539  10.645  0.00  0.00     0.028 H 
ATOM     60  H35 STA d   1      17.844  90.886  10.990  0.00  0.00     0.028 H 
ENDBRANCH  55  57
BRANCH  55  61
ATOM     61  CD2 STA d   1      16.896  92.984   8.508  0.00  0.00    -0.073 C 
ATOM     62  H36 STA d   1      17.319  93.887   8.044  0.00  0.00     0.028 H 
ATOM     63  H37 STA d   1      15.905  93.216   8.924  0.00  0.00     0.028 H 
ATOM     64  H38 STA d   1      16.800  92.193   7.749  0.00  0.00     0.028 H 
ENDBRANCH  55  61
ENDBRANCH  52  55
ENDBRANCH   1  52
BRANCH   1  65
ATOM     65  CH  STA d   1      19.058  95.421  12.039  0.00  0.00     0.063 C 
ATOM     66  H39 STA d   1      18.062  95.578  12.479  0.00  0.00     0.086 H 
BRANCH  65  67
ATOM     67  OH  STA d   1      19.853  94.550  12.824  0.00  0.00    -0.393 OA
ATOM     68  H40 STA d   1      19.984  94.932  13.684  0.00  0.00     0.210 HD
ENDBRANCH  65  67
BRANCH  65  69
ATOM     69  CM  STA d   1      19.842  96.720  12.083  0.00  0.00     0.035 C 
ATOM     70  H41 STA d   1      20.793  96.591  11.545  0.00  0.00     0.051 H 
ATOM     71  H42 STA d   1      20.047  96.987  13.130  0.00  0.00     0.051 H 
BRANCH  69  72
ATOM     72  C   STA d   1      19.040  97.830  11.428  0.00  0.00     0.220 C 
ATOM     73  O   STA d   1      19.123  98.033  10.210  0.00  0.00    -0.274 OA
ATOM     74  N   ALA d   1      18.258  98.555  12.219  0.00  0.00    -0.348 N 
ATOM     75  H43 ALA d   1      18.229  98.340  13.195  0.00  0.00     0.163 HD
BRANCH  74  76
ATOM     76  CA  ALA d   1      17.448  99.643  11.721  0.00  0.00     0.086 C 
ATOM     77  H44 ALA d   1      17.078  99.401  10.713  0.00  0.00     0.086 H 
BRANCH  76  78
ATOM     78  CB  ALA d   1      16.283  99.906  12.640  0.00  0.00    -0.049 C 
ATOM     79  H45 ALA d   1      15.682 100.737  12.242  0.00  0.00     0.030 H 
ATOM     80  H46 ALA d   1      16.657 100.171  13.640  0.00  0.00     0.030 H 
ATOM     81  H47 ALA d   1      15.659  99.002  12.710  0.00  0.00     0.030 H 
ENDBRANCH  76  78
BRANCH  76  82
ATOM     82  C   ALA d   1      18.310 100.882  11.679  0.00  0.00     0.240 C 
ATOM     83  O   ALA d   1      18.352 101.686  12.611  0.00  0.00    -0.271 OA
ATOM     84  N   STA d   1      19.066 100.939  10.580  0.00  0.00    -0.352 N 
ATOM     85  H48 STA d   1      18.996 100.189   9.922  0.00  0.00     0.163 HD
BRANCH  84  86
ATOM     86  CA  STA d   1      19.982 102.023  10.282  0.00  0.00     0.038 C 
ATOM     87  H49 STA d   1      20.172 102.589  11.206  0.00  0.00     0.076 H 
BRANCH  86  88
ATOM     88  CB  STA d   1      21.287 101.366   9.823  0.00  0.00    -0.041 C 
ATOM     89  H50 STA d   1      21.706 102.050   9.070  0.00  0.00     0.036 H 
ATOM     90  H51 STA d   1      20.983 100.427   9.337  0.00  0.00     0.036 H 
BRANCH  88  91
ATOM     91  CG  STA d   1      22.466 100.989  10.724  0.00  0.00    -0.059 C 
ATOM     92  H52 STA d   1      23.269 101.729  10.594  0.00  0.00     0.038 H 
BRANCH  91  93
ATOM     93  CD1 STA d   1      22.107 100.915  12.197  0.00  0.00    -0.073 C 
ATOM     94  H53 STA d   1      22.999 100.641  12.778  0.00  0.00     0.028 H 
ATOM     95  H54 STA d   1      21.325 100.156  12.346  0.00  0.00     0.028 H 
ATOM     96  H55 STA d   1      21.737 101.894  12.534  0.00  0.00     0.028 H 
ENDBRANCH  91  93
BRANCH  91  97
ATOM     97  CD2 STA d   1      22.942  99.611  10.266  0.00  0.00    -0.073 C 
ATOM     98  H56 STA d   1      23.206  99.650   9.199  0.00  0.00     0.028 H 
ATOM     99  H57 STA d   1      22.138  98.876  10.418  0.00  0.00     0.028 H 
ATOM    100  H58 STA d   1      23.825  99.315  10.851  0.00  0.00     0.028 H 
ENDBRANCH  91  97
ENDBRANCH  88  91
ENDBRANCH  86  88
BRANCH  86 101
ATOM    101  CH  STA d   1      19.430 103.019   9.228  0.00  0.00     0.064 C 
ATOM    102  H59 STA d   1      19.782 104.034   9.466  0.00  0.00     0.086 H 
BRANCH 101 103
ATOM    103  OH  STA d   1      19.953 102.549   7.980  0.00  0.00    -0.393 OA
ATOM    104  H60 STA d   1      19.654 103.116   7.279  0.00  0.00     0.210 HD
ENDBRANCH 101 103
BRANCH 101 105
ATOM    105  CM  STA d   1      17.899 103.043   9.019  0.00  0.00     0.041 C 
ATOM    106  H61 STA d   1      17.465 102.241   9.634  0.00  0.00     0.053 H 
ATOM    107  H62 STA d   1      17.703 102.837   7.956  0.00  0.00     0.053 H 
BRANCH 105 108
ATOM    108  C   STA d   1      17.181 104.348   9.380  0.00  0.00     0.175 C 
ATOM    109  O   STA d   1      16.794 104.542  10.545  0.00  0.00    -0.648 OA
ATOM    110  OXT STA d   1      16.931 105.143   8.459  0.00  0.00    -0.648 OA
ENDBRANCH 105 108
ENDBRANCH 101 105
ENDBRANCH  86 101
ENDBRANCH  84  86
ENDBRANCH  76  82
ENDBRANCH  74  76
ENDBRANCH  69  72
ENDBRANCH  65  69
ENDBRANCH   1  65
TORSDOF 35
