REMARK  24 active torsions:
REMARK  status: ('A' for Active; 'I' for Inactive)
REMARK    1  A    between atoms: C_2  and  O2_3 
REMARK       I    between atoms: C_2  and  N_8 
REMARK    2  A    between atoms: O2_3  and  CT_4 
REMARK    3  A    between atoms: CT_4  and  C1_5 
REMARK    4  A    between atoms: CT_4  and  C2_6 
REMARK    5  A    between atoms: CT_4  and  C3_7 
REMARK    6  A    between atoms: N_8  and  CA_9 
REMARK    7  A    between atoms: CA_9  and  C_10 
REMARK    8  A    between atoms: CA_9  and  CB_11 
REMARK    9  A    between atoms: C_10  and  CM_18 
REMARK   10  A    between atoms: CB_11  and  CG_12 
REMARK   11  A    between atoms: CM_18  and  N_19 
REMARK   12  A    between atoms: N_19  and  CA_20 
REMARK   13  A    between atoms: CA_20  and  C_21 
REMARK   14  A    between atoms: CA_20  and  CB_23 
REMARK       I    between atoms: C_21  and  N_30 
REMARK   15  A    between atoms: CB_23  and  CG_24 
REMARK   16  A    between atoms: N_30  and  CA_31 
REMARK   17  A    between atoms: CA_31  and  C_32 
REMARK   18  A    between atoms: CA_31  and  CB_34 
REMARK       I    between atoms: C_32  and  N_39 
REMARK   19  A    between atoms: CB_34  and  CG_35 
REMARK   20  A    between atoms: CG_35  and  CD_36 
REMARK   21  A    between atoms: N_39  and  CA_40 
REMARK   22  A    between atoms: CA_40  and  C_41 
REMARK   23  A    between atoms: CA_40  and  CB_43 
REMARK       I    between atoms: C_41  and  N_50 
REMARK   24  A    between atoms: CB_43  and  CG_44 
ROOT
ATOM      1  CA  0ZQ d   1     -23.217  36.219  26.906  0.00  0.00     0.181 C 
ATOM      2  H25 0ZQ d   1     -23.348  35.233  26.437  0.00  0.00     0.100 H 
ENDROOT
BRANCH   1   3
ATOM      3  N   0ZQ d   1     -21.856  36.255  27.440  0.00  0.00    -0.062 N 
ATOM      4  H23 0ZQ d   1     -21.898  36.014  28.418  0.00  0.00     0.278 HD
ATOM      5  H24 0ZQ d   1     -21.309  35.566  26.947  0.00  0.00     0.278 HD
BRANCH   3   6
ATOM      6  CM  0ZQ d   1     -21.174  37.545  27.321  0.00  0.00     0.084 C 
ATOM      7  H21 0ZQ d   1     -20.931  37.722  26.263  0.00  0.00     0.075 H 
ATOM      8  H22 0ZQ d   1     -21.847  38.337  27.681  0.00  0.00     0.075 H 
BRANCH   6   9
ATOM      9  C   0ZQ d   1     -19.891  37.585  28.132  0.00  0.00    -0.023 C 
ATOM     10  H12 0ZQ d   1     -19.910  36.750  28.848  0.00  0.00     0.038 H 
ATOM     11  H13 0ZQ d   1     -19.043  37.458  27.442  0.00  0.00     0.038 H 
BRANCH   9  12
ATOM     12  CA  0ZQ d   1     -19.682  38.883  28.915  0.00  0.00     0.019 C 
ATOM     13  H11 0ZQ d   1     -20.325  39.667  28.489  0.00  0.00     0.073 H 
BRANCH  12  14
ATOM     14  N   0ZQ d   1     -20.042  38.692  30.325  0.00  0.00    -0.332 N 
ATOM     15  C   0ZQ d   1     -21.204  39.179  30.869  0.00  0.00     0.361 C 
ATOM     16  O1  0ZQ d   1     -22.050  39.829  30.273  0.00  0.00    -0.238 OA
ATOM     17  H10 0ZQ d   1     -19.413  38.185  30.915  0.00  0.00     0.165 HD
BRANCH  15  18
ATOM     18  O2  0ZQ d   1     -21.240  38.807  32.212  0.00  0.00    -0.294 OA
BRANCH  18  19
ATOM     19  CT  0ZQ d   1     -22.469  38.866  33.096  0.00  0.00     0.061 C 
BRANCH  19  20
ATOM     20  C1  0ZQ d   1     -22.030  38.370  34.465  0.00  0.00    -0.048 C 
ATOM     21  H1  0ZQ d   1     -22.887  38.391  35.154  0.00  0.00     0.031 H 
ATOM     22  H2  0ZQ d   1     -21.232  39.021  34.852  0.00  0.00     0.031 H 
ATOM     23  H3  0ZQ d   1     -21.654  37.340  34.379  0.00  0.00     0.031 H 
ENDBRANCH  19  20
BRANCH  19  24
ATOM     24  C2  0ZQ d   1     -23.551  37.951  32.525  0.00  0.00    -0.048 C 
ATOM     25  H4  0ZQ d   1     -24.443  37.994  33.167  0.00  0.00     0.031 H 
ATOM     26  H5  0ZQ d   1     -23.175  36.918  32.488  0.00  0.00     0.031 H 
ATOM     27  H6  0ZQ d   1     -23.813  38.283  31.510  0.00  0.00     0.031 H 
ENDBRANCH  19  24
BRANCH  19  28
ATOM     28  C3  0ZQ d   1     -22.961  40.312  33.177  0.00  0.00    -0.048 C 
ATOM     29  H7  0ZQ d   1     -23.854  40.360  33.818  0.00  0.00     0.031 H 
ATOM     30  H8  0ZQ d   1     -23.214  40.670  32.168  0.00  0.00     0.031 H 
ATOM     31  H9  0ZQ d   1     -22.169  40.946  33.603  0.00  0.00     0.031 H 
ENDBRANCH  19  28
ENDBRANCH  18  19
ENDBRANCH  15  18
ENDBRANCH  12  14
BRANCH  12  32
ATOM     32  CB  0ZQ d   1     -18.213  39.314  28.786  0.00  0.00    -0.022 C 
ATOM     33  H14 0ZQ d   1     -17.955  39.346  27.717  0.00  0.00     0.043 H 
ATOM     34  H15 0ZQ d   1     -17.587  38.564  29.292  0.00  0.00     0.043 H 
BRANCH  32  35
ATOM     35  CG  0ZQ d   1     -17.913  40.663  29.386  0.00  0.00    -0.056 A 
ATOM     36  CD1 0ZQ d   1     -16.642  40.950  29.875  0.00  0.00    -0.077 A 
ATOM     37  CE1 0ZQ d   1     -16.347  42.209  30.410  0.00  0.00    -0.082 A 
ATOM     38  H16 0ZQ d   1     -15.871  40.189  29.841  0.00  0.00     0.084 H 
ATOM     39  CZ  0ZQ d   1     -17.331  43.194  30.459  0.00  0.00    -0.083 A 
ATOM     40  H18 0ZQ d   1     -15.352  42.418  30.787  0.00  0.00     0.083 H 
ATOM     41  CE2 0ZQ d   1     -18.610  42.922  29.973  0.00  0.00    -0.082 A 
ATOM     42  H20 0ZQ d   1     -17.103  44.169  30.874  0.00  0.00     0.083 H 
ATOM     43  CD2 0ZQ d   1     -18.895  41.661  29.440  0.00  0.00    -0.077 A 
ATOM     44  H19 0ZQ d   1     -19.380  43.685  30.008  0.00  0.00     0.083 H 
ATOM     45  H17 0ZQ d   1     -19.890  41.453  29.063  0.00  0.00     0.084 H 
ENDBRANCH  32  35
ENDBRANCH  12  32
ENDBRANCH   9  12
ENDBRANCH   6   9
ENDBRANCH   3   6
ENDBRANCH   1   3
BRANCH   1  46
ATOM     46  C   0ZQ d   1     -23.533  37.271  25.846  0.00  0.00     0.249 C 
ATOM     47  O   0ZQ d   1     -23.841  38.413  26.172  0.00  0.00    -0.271 OA
ATOM     48  N   0ZQ d   1     -23.471  36.867  24.582  0.00  0.00    -0.346 N 
ATOM     49  H33 0ZQ d   1     -23.208  35.921  24.392  0.00  0.00     0.163 HD
BRANCH  48  50
ATOM     50  CA  0ZQ d   1     -23.771  37.748  23.462  0.00  0.00     0.090 C 
ATOM     51  H34 0ZQ d   1     -24.344  38.614  23.825  0.00  0.00     0.087 H 
BRANCH  50  52
ATOM     52  C   0ZQ d   1     -24.612  36.981  22.445  0.00  0.00     0.241 C 
ATOM     53  O   0ZQ d   1     -24.311  35.830  22.112  0.00  0.00    -0.271 OA
ATOM     54  N   0ZQ d   1     -25.675  37.611  21.962  0.00  0.00    -0.346 N 
ATOM     55  H39 0ZQ d   1     -25.895  38.534  22.278  0.00  0.00     0.163 HD
BRANCH  54  56
ATOM     56  CA  0ZQ d   1     -26.519  36.961  20.974  0.00  0.00     0.093 C 
ATOM     57  H40 0ZQ d   1     -25.975  36.088  20.583  0.00  0.00     0.088 H 
BRANCH  56  58
ATOM     58  C   0ZQ d   1     -26.816  37.893  19.797  0.00  0.00     0.238 C 
ATOM     59  O   0ZQ d   1     -26.919  39.111  19.955  0.00  0.00    -0.271 OA
ATOM     60  N   0ZQ d   1     -26.927  37.315  18.608  0.00  0.00    -0.368 N 
ATOM     61  H48 0ZQ d   1     -27.120  37.870  17.799  0.00  0.00     0.159 HD
ATOM     62  H49 0ZQ d   1     -26.817  36.325  18.521  0.00  0.00     0.159 HD
ENDBRANCH  56  58
BRANCH  56  63
ATOM     63  CB  0ZQ d   1     -27.817  36.458  21.632  0.00  0.00    -0.014 C 
ATOM     64  H41 0ZQ d   1     -27.546  35.832  22.495  0.00  0.00     0.043 H 
ATOM     65  H42 0ZQ d   1     -28.364  35.851  20.896  0.00  0.00     0.043 H 
BRANCH  63  66
ATOM     66  CG  0ZQ d   1     -28.731  37.554  22.113  0.00  0.00    -0.056 A 
ATOM     67  CD1 0ZQ d   1     -29.773  38.015  21.310  0.00  0.00    -0.077 A 
ATOM     68  CE1 0ZQ d   1     -30.624  39.030  21.753  0.00  0.00    -0.082 A 
ATOM     69  H43 0ZQ d   1     -29.925  37.580  20.329  0.00  0.00     0.084 H 
ATOM     70  CZ  0ZQ d   1     -30.438  39.596  23.009  0.00  0.00    -0.083 A 
ATOM     71  H45 0ZQ d   1     -31.430  39.377  21.117  0.00  0.00     0.083 H 
ATOM     72  CE2 0ZQ d   1     -29.404  39.149  23.818  0.00  0.00    -0.082 A 
ATOM     73  H47 0ZQ d   1     -31.098  40.383  23.355  0.00  0.00     0.083 H 
ATOM     74  CD2 0ZQ d   1     -28.554  38.128  23.369  0.00  0.00    -0.077 A 
ATOM     75  H46 0ZQ d   1     -29.253  39.589  24.797  0.00  0.00     0.083 H 
ATOM     76  H44 0ZQ d   1     -27.750  37.782  24.008  0.00  0.00     0.084 H 
ENDBRANCH  63  66
ENDBRANCH  56  63
ENDBRANCH  54  56
ENDBRANCH  50  52
BRANCH  50  77
ATOM     77  CB  0ZQ d   1     -22.470  38.248  22.816  0.00  0.00    -0.029 C 
ATOM     78  H35 0ZQ d   1     -21.851  37.371  22.575  0.00  0.00     0.037 H 
ATOM     79  H36 0ZQ d   1     -21.945  38.877  23.550  0.00  0.00     0.037 H 
BRANCH  77  80
ATOM     80  CG  0ZQ d   1     -22.650  39.067  21.535  0.00  0.00     0.018 C 
ATOM     81  H37 0ZQ d   1     -21.735  39.652  21.360  0.00  0.00     0.049 H 
ATOM     82  H38 0ZQ d   1     -23.501  39.750  21.672  0.00  0.00     0.049 H 
BRANCH  80  83
ATOM     83  CD  0ZQ d   1     -22.914  38.199  20.310  0.00  0.00     0.172 C 
ATOM     84  OE1 0ZQ d   1     -23.264  38.747  19.240  0.00  0.00    -0.648 OA
ATOM     85  OE2 0ZQ d   1     -22.765  36.964  20.418  0.00  0.00    -0.648 OA
ENDBRANCH  80  83
ENDBRANCH  77  80
ENDBRANCH  50  77
ENDBRANCH  48  50
ENDBRANCH   1  46
BRANCH   1  86
ATOM     86  CB  0ZQ d   1     -24.247  36.354  28.030  0.00  0.00    -0.006 C 
ATOM     87  H26 0ZQ d   1     -24.029  37.273  28.594  0.00  0.00     0.043 H 
ATOM     88  H27 0ZQ d   1     -24.152  35.484  28.696  0.00  0.00     0.043 H 
BRANCH  86  89
ATOM     89  CG  0ZQ d   1     -25.669  36.424  27.534  0.00  0.00    -0.056 A 
ATOM     90  CD1 0ZQ d   1     -26.476  37.517  27.842  0.00  0.00    -0.077 A 
ATOM     91  CE1 0ZQ d   1     -27.785  37.611  27.367  0.00  0.00    -0.082 A 
ATOM     92  H28 0ZQ d   1     -26.079  38.311  28.464  0.00  0.00     0.084 H 
ATOM     93  CZ  0ZQ d   1     -28.299  36.600  26.567  0.00  0.00    -0.083 A 
ATOM     94  H30 0ZQ d   1     -28.397  38.469  27.622  0.00  0.00     0.083 H 
ATOM     95  CE2 0ZQ d   1     -27.499  35.492  26.247  0.00  0.00    -0.082 A 
ATOM     96  H32 0ZQ d   1     -29.314  36.666  26.191  0.00  0.00     0.083 H 
ATOM     97  CD2 0ZQ d   1     -26.192  35.411  26.734  0.00  0.00    -0.077 A 
ATOM     98  H31 0ZQ d   1     -27.895  34.700  25.622  0.00  0.00     0.083 H 
ATOM     99  H29 0ZQ d   1     -25.579  34.552  26.487  0.00  0.00     0.084 H 
ENDBRANCH  86  89
ENDBRANCH   1  86
TORSDOF 24
