REMARK  24 active torsions:
REMARK  status: ('A' for Active; 'I' for Inactive)
REMARK    1  A    between atoms: C_2  and  O2_3 
REMARK       I    between atoms: C_2  and  N_8 
REMARK    2  A    between atoms: O2_3  and  CT_4 
REMARK    3  A    between atoms: CT_4  and  C1_5 
REMARK    4  A    between atoms: CT_4  and  C2_6 
REMARK    5  A    between atoms: CT_4  and  C3_7 
REMARK    6  A    between atoms: N_8  and  CA_9 
REMARK    7  A    between atoms: CA_9  and  C_10 
REMARK    8  A    between atoms: CA_9  and  CB_11 
REMARK    9  A    between atoms: C_10  and  CM_18 
REMARK   10  A    between atoms: CB_11  and  CG_12 
REMARK   11  A    between atoms: CM_18  and  N_19 
REMARK   12  A    between atoms: N_19  and  CA_20 
REMARK   13  A    between atoms: CA_20  and  C_21 
REMARK   14  A    between atoms: CA_20  and  CB_23 
REMARK       I    between atoms: C_21  and  N_30 
REMARK   15  A    between atoms: CB_23  and  CG_24 
REMARK   16  A    between atoms: N_30  and  CA_31 
REMARK   17  A    between atoms: CA_31  and  C_32 
REMARK   18  A    between atoms: CA_31  and  CB_34 
REMARK       I    between atoms: C_32  and  N_39 
REMARK   19  A    between atoms: CB_34  and  CG_35 
REMARK   20  A    between atoms: CG_35  and  CD_36 
REMARK   21  A    between atoms: N_39  and  CA_40 
REMARK   22  A    between atoms: CA_40  and  C_41 
REMARK   23  A    between atoms: CA_40  and  CB_43 
REMARK       I    between atoms: C_41  and  N_50 
REMARK   24  A    between atoms: CB_43  and  CG_44 
ROOT
ATOM      1  CA  0ZQ d   1     -11.262  15.914   0.418  0.00  0.00     0.181 C 
ATOM      2  H25 0ZQ d   1     -12.177  16.305   0.886  0.00  0.00     0.100 H 
ENDROOT
BRANCH   1   3
ATOM      3  N   0ZQ d   1     -10.676  17.027  -0.334  0.00  0.00    -0.062 N 
ATOM      4  H23 0ZQ d   1     -10.332  16.664  -1.209  0.00  0.00     0.278 HD
ATOM      5  H24 0ZQ d   1     -11.405  17.699  -0.512  0.00  0.00     0.278 HD
BRANCH   3   6
ATOM      6  CM  0ZQ d   1      -9.576  17.722   0.327  0.00  0.00     0.084 C 
ATOM      7  H21 0ZQ d   1      -9.984  18.338   1.142  0.00  0.00     0.075 H 
ATOM      8  H22 0ZQ d   1      -8.884  16.975   0.743  0.00  0.00     0.075 H 
BRANCH   6   9
ATOM      9  C   0ZQ d   1      -8.806  18.625  -0.634  0.00  0.00    -0.023 C 
ATOM     10  H12 0ZQ d   1      -9.502  18.985  -1.406  0.00  0.00     0.038 H 
ATOM     11  H13 0ZQ d   1      -8.414  19.482  -0.067  0.00  0.00     0.038 H 
BRANCH   9  12
ATOM     12  CA  0ZQ d   1      -7.634  17.926  -1.327  0.00  0.00     0.019 C 
ATOM     13  H11 0ZQ d   1      -7.518  16.930  -0.874  0.00  0.00     0.073 H 
BRANCH  12  14
ATOM     14  N   0ZQ d   1      -7.901  17.752  -2.751  0.00  0.00    -0.332 N 
ATOM     15  C   0ZQ d   1      -8.237  16.533  -3.254  0.00  0.00     0.361 C 
ATOM     16  O1  0ZQ d   1      -8.388  15.529  -2.595  0.00  0.00    -0.238 OA
ATOM     17  H10 0ZQ d   1      -7.836  18.539  -3.365  0.00  0.00     0.165 HD
BRANCH  15  18
ATOM     18  O2  0ZQ d   1      -8.370  16.644  -4.615  0.00  0.00    -0.294 OA
BRANCH  18  19
ATOM     19  CT  0ZQ d   1      -9.002  15.595  -5.493  0.00  0.00     0.061 C 
BRANCH  19  20
ATOM     20  C1  0ZQ d   1      -8.915  16.140  -6.914  0.00  0.00    -0.048 C 
ATOM     21  H1  0ZQ d   1      -9.363  15.417  -7.612  0.00  0.00     0.031 H 
ATOM     22  H2  0ZQ d   1      -7.860  16.302  -7.181  0.00  0.00     0.031 H 
ATOM     23  H3  0ZQ d   1      -9.460  17.094  -6.975  0.00  0.00     0.031 H 
ENDBRANCH  19  20
BRANCH  19  24
ATOM     24  C2  0ZQ d   1     -10.479  15.388  -5.086  0.00  0.00    -0.048 C 
ATOM     25  H4  0ZQ d   1     -10.933  14.621  -5.731  0.00  0.00     0.031 H 
ATOM     26  H5  0ZQ d   1     -11.027  16.335  -5.200  0.00  0.00     0.031 H 
ATOM     27  H6  0ZQ d   1     -10.528  15.060  -4.037  0.00  0.00     0.031 H 
ENDBRANCH  19  24
BRANCH  19  28
ATOM     28  C3  0ZQ d   1      -8.198  14.287  -5.369  0.00  0.00    -0.048 C 
ATOM     29  H7  0ZQ d   1      -8.653  13.515  -6.007  0.00  0.00     0.031 H 
ATOM     30  H8  0ZQ d   1      -8.207  13.949  -4.322  0.00  0.00     0.031 H 
ATOM     31  H9  0ZQ d   1      -7.160  14.463  -5.689  0.00  0.00     0.031 H 
ENDBRANCH  19  28
ENDBRANCH  18  19
ENDBRANCH  15  18
ENDBRANCH  12  14
BRANCH  12  32
ATOM     32  CB  0ZQ d   1      -6.320  18.694  -1.131  0.00  0.00    -0.022 C 
ATOM     33  H14 0ZQ d   1      -6.125  18.782  -0.052  0.00  0.00     0.043 H 
ATOM     34  H15 0ZQ d   1      -6.434  19.698  -1.565  0.00  0.00     0.043 H 
BRANCH  32  35
ATOM     35  CG  0ZQ d   1      -5.140  18.028  -1.776  0.00  0.00    -0.056 A 
ATOM     36  CD1 0ZQ d   1      -4.692  18.439  -3.033  0.00  0.00    -0.077 A 
ATOM     37  CE1 0ZQ d   1      -3.653  17.771  -3.676  0.00  0.00    -0.082 A 
ATOM     38  H16 0ZQ d   1      -5.160  19.290  -3.515  0.00  0.00     0.084 H 
ATOM     39  CZ  0ZQ d   1      -3.049  16.678  -3.059  0.00  0.00    -0.083 A 
ATOM     40  H18 0ZQ d   1      -3.316  18.100  -4.652  0.00  0.00     0.083 H 
ATOM     41  CE2 0ZQ d   1      -3.483  16.259  -1.802  0.00  0.00    -0.082 A 
ATOM     42  H20 0ZQ d   1      -2.241  16.153  -3.556  0.00  0.00     0.083 H 
ATOM     43  CD2 0ZQ d   1      -4.523  16.935  -1.166  0.00  0.00    -0.077 A 
ATOM     44  H19 0ZQ d   1      -3.013  15.409  -1.320  0.00  0.00     0.083 H 
ATOM     45  H17 0ZQ d   1      -4.856  16.608  -0.188  0.00  0.00     0.084 H 
ENDBRANCH  32  35
ENDBRANCH  12  32
ENDBRANCH   9  12
ENDBRANCH   6   9
ENDBRANCH   3   6
ENDBRANCH   1   3
BRANCH   1  46
ATOM     46  C   0ZQ d   1     -10.419  15.295   1.546  0.00  0.00     0.249 C 
ATOM     47  O   0ZQ d   1      -9.373  14.698   1.296  0.00  0.00    -0.271 OA
ATOM     48  N   0ZQ d   1     -10.903  15.425   2.780  0.00  0.00    -0.346 N 
ATOM     49  H33 0ZQ d   1     -11.760  15.925   2.902  0.00  0.00     0.163 HD
BRANCH  48  50
ATOM     50  CA  0ZQ d   1     -10.246  14.875   3.965  0.00  0.00     0.090 C 
ATOM     51  H34 0ZQ d   1      -9.737  13.935   3.706  0.00  0.00     0.087 H 
BRANCH  50  52
ATOM     52  C   0ZQ d   1     -11.335  14.610   5.001  0.00  0.00     0.241 C 
ATOM     53  O   0ZQ d   1     -12.191  15.460   5.225  0.00  0.00    -0.271 OA
ATOM     54  N   0ZQ d   1     -11.310  13.439   5.631  0.00  0.00    -0.346 N 
ATOM     55  H39 0ZQ d   1     -10.595  12.776   5.410  0.00  0.00     0.163 HD
BRANCH  54  56
ATOM     56  CA  0ZQ d   1     -12.309  13.108   6.637  0.00  0.00     0.093 C 
ATOM     57  H40 0ZQ d   1     -12.764  14.053   6.967  0.00  0.00     0.088 H 
BRANCH  56  58
ATOM     58  C   0ZQ d   1     -11.740  12.424   7.882  0.00  0.00     0.238 C 
ATOM     59  O   0ZQ d   1     -10.619  11.918   7.878  0.00  0.00    -0.271 OA
ATOM     60  N   0ZQ d   1     -12.522  12.416   8.955  0.00  0.00    -0.368 N 
ATOM     61  H48 0ZQ d   1     -12.207  11.984   9.800  0.00  0.00     0.159 HD
ATOM     62  H49 0ZQ d   1     -13.426  12.842   8.918  0.00  0.00     0.159 HD
ENDBRANCH  56  58
BRANCH  56  63
ATOM     63  CB  0ZQ d   1     -13.414  12.243   6.011  0.00  0.00    -0.014 C 
ATOM     64  H41 0ZQ d   1     -13.885  12.818   5.200  0.00  0.00     0.043 H 
ATOM     65  H42 0ZQ d   1     -14.162  12.023   6.787  0.00  0.00     0.043 H 
BRANCH  63  66
ATOM     66  CG  0ZQ d   1     -12.926  10.937   5.442  0.00  0.00    -0.056 A 
ATOM     67  CD1 0ZQ d   1     -13.059   9.758   6.159  0.00  0.00    -0.077 A 
ATOM     68  CE1 0ZQ d   1     -12.622   8.545   5.623  0.00  0.00    -0.082 A 
ATOM     69  H43 0ZQ d   1     -13.507   9.778   7.146  0.00  0.00     0.084 H 
ATOM     70  CZ  0ZQ d   1     -12.043   8.506   4.356  0.00  0.00    -0.083 A 
ATOM     71  H45 0ZQ d   1     -12.733   7.631   6.194  0.00  0.00     0.083 H 
ATOM     72  CE2 0ZQ d   1     -11.902   9.675   3.631  0.00  0.00    -0.082 A 
ATOM     73  H47 0ZQ d   1     -11.705   7.564   3.941  0.00  0.00     0.083 H 
ATOM     74  CD2 0ZQ d   1     -12.343  10.886   4.176  0.00  0.00    -0.077 A 
ATOM     75  H46 0ZQ d   1     -11.452   9.653   2.645  0.00  0.00     0.083 H 
ATOM     76  H44 0ZQ d   1     -12.230  11.800   3.604  0.00  0.00     0.084 H 
ENDBRANCH  63  66
ENDBRANCH  56  63
ENDBRANCH  54  56
ENDBRANCH  50  52
BRANCH  50  77
ATOM     77  CB  0ZQ d   1      -9.221  15.867   4.527  0.00  0.00    -0.029 C 
ATOM     78  H35 0ZQ d   1      -9.746  16.803   4.770  0.00  0.00     0.037 H 
ATOM     79  H36 0ZQ d   1      -8.468  16.061   3.749  0.00  0.00     0.037 H 
BRANCH  77  80
ATOM     80  CG  0ZQ d   1      -8.497  15.386   5.783  0.00  0.00     0.018 C 
ATOM     81  H37 0ZQ d   1      -7.622  16.032   5.952  0.00  0.00     0.049 H 
ATOM     82  H38 0ZQ d   1      -8.162  14.351   5.619  0.00  0.00     0.049 H 
BRANCH  80  83
ATOM     83  CD  0ZQ d   1      -9.376  15.421   7.034  0.00  0.00     0.172 C 
ATOM     84  OE1 0ZQ d   1      -8.992  14.827   8.069  0.00  0.00    -0.648 OA
ATOM     85  OE2 0ZQ d   1     -10.451  16.056   6.988  0.00  0.00    -0.648 OA
ENDBRANCH  80  83
ENDBRANCH  77  80
ENDBRANCH  50  77
ENDBRANCH  48  50
ENDBRANCH   1  46
BRANCH   1  86
ATOM     86  CB  0ZQ d   1     -11.657  14.793  -0.543  0.00  0.00    -0.006 C 
ATOM     87  H26 0ZQ d   1     -10.743  14.394  -1.007  0.00  0.00     0.043 H 
ATOM     88  H27 0ZQ d   1     -12.309  15.216  -1.322  0.00  0.00     0.043 H 
BRANCH  86  89
ATOM     89  CG  0ZQ d   1     -12.383  13.663   0.120  0.00  0.00    -0.056 A 
ATOM     90  CD1 0ZQ d   1     -12.108  12.350  -0.229  0.00  0.00    -0.077 A 
ATOM     91  CE1 0ZQ d   1     -12.752  11.293   0.399  0.00  0.00    -0.082 A 
ATOM     92  H28 0ZQ d   1     -11.379  12.146  -1.004  0.00  0.00     0.084 H 
ATOM     93  CZ  0ZQ d   1     -13.691  11.549   1.395  0.00  0.00    -0.083 A 
ATOM     94  H30 0ZQ d   1     -12.525  10.272   0.115  0.00  0.00     0.083 H 
ATOM     95  CE2 0ZQ d   1     -13.979  12.859   1.752  0.00  0.00    -0.082 A 
ATOM     96  H32 0ZQ d   1     -14.196  10.727   1.890  0.00  0.00     0.083 H 
ATOM     97  CD2 0ZQ d   1     -13.325  13.912   1.113  0.00  0.00    -0.077 A 
ATOM     98  H31 0ZQ d   1     -14.710  13.063   2.526  0.00  0.00     0.083 H 
ATOM     99  H29 0ZQ d   1     -13.553  14.934   1.393  0.00  0.00     0.084 H 
ENDBRANCH  86  89
ENDBRANCH   1  86
TORSDOF 24
