REMARK  8 active torsions:
REMARK  status: ('A' for Active; 'I' for Inactive)
REMARK    1  A    between atoms: C3_1  and  O1_17 
REMARK    2  A    between atoms: C2_2  and  C2A_18 
REMARK    3  A    between atoms: C4_5  and  C4A_6 
REMARK    4  A    between atoms: N2_7  and  C_8 
REMARK    5  A    between atoms: C_8  and  P2_13 
REMARK    6  A    between atoms: C5_19  and  C5A_20 
REMARK    7  A    between atoms: C5A_20  and  O2_21 
REMARK    8  A    between atoms: O2_21  and  P1_22 
ROOT
ATOM      1  C3  HCP d   1      16.108  52.480  15.596  0.00  0.00     0.102 A 
ATOM      2  C2  HCP d   1      16.409  53.011  14.386  0.00  0.00     0.064 A 
ATOM      3  N1  HCP d   1      17.620  52.700  13.698  0.00  0.00    -0.262 NA
ATOM      4  C6  HCP d   1      18.452  51.865  14.210  0.00  0.00     0.012 A 
ATOM      5  C4  HCP d   1      17.052  51.567  16.213  0.00  0.00     0.026 A 
ATOM      6  C5  HCP d   1      18.174  51.271  15.534  0.00  0.00    -0.002 A 
ATOM      7  H1  HCP d   1      19.355  51.597  13.672  0.00  0.00     0.115 H 
ENDROOT
BRANCH   5   8
ATOM      8  C4A HCP d   1      16.802  51.067  17.596  0.00  0.00     0.012 C 
ATOM      9  N2  HCP d   1      15.747  51.357  18.299  0.00  0.00    -0.276 NA
ATOM     10  H2  HCP d   1      17.551  50.417  18.046  0.00  0.00     0.115 H 
BRANCH   9  11
ATOM     11  C   HCP d   1      15.786  51.136  19.740  0.00  0.00     0.166 C 
ATOM     12  CA2 HCP d   1      16.553  52.304  20.453  0.00  0.00    -0.027 C 
ATOM     13  CB2 HCP d   1      16.590  51.752  21.887  0.00  0.00    -0.062 C 
ATOM     14  H9  HCP d   1      16.000  53.253  20.394  0.00  0.00     0.037 H 
ATOM     15  H10 HCP d   1      17.564  52.442  20.041  0.00  0.00     0.037 H 
ATOM     16  CB1 HCP d   1      16.685  50.146  21.708  0.00  0.00    -0.062 C 
ATOM     17  H7  HCP d   1      17.469  52.135  22.427  0.00  0.00     0.033 H 
ATOM     18  H8  HCP d   1      15.675  52.028  22.432  0.00  0.00     0.033 H 
ATOM     19  CA1 HCP d   1      16.695  49.935  20.190  0.00  0.00    -0.027 C 
ATOM     20  H5  HCP d   1      17.609  49.757  22.162  0.00  0.00     0.033 H 
ATOM     21  H6  HCP d   1      15.815  49.651  22.165  0.00  0.00     0.033 H 
ATOM     22  H3  HCP d   1      17.710  50.013  19.774  0.00  0.00     0.037 H 
ATOM     23  H4  HCP d   1      16.258  48.965  19.910  0.00  0.00     0.037 H 
BRANCH  11  24
ATOM     24  P2  HCP d   1      14.012  51.112  20.173  0.00  0.00     0.290 P 
ATOM     25  O8  HCP d   1      13.341  49.875  19.479  0.00  0.00    -0.638 OA
ATOM     26  O7  HCP d   1      13.367  52.413  19.568  0.00  0.00    -0.638 OA
ATOM     27  O6  HCP d   1      13.567  51.016  21.681  0.00  0.00    -0.638 OA
ENDBRANCH  11  24
ENDBRANCH   9  11
ENDBRANCH   5   8
BRANCH   1  28
ATOM     28  O1  HCP d   1      14.883  52.857  16.240  0.00  0.00    -0.358 OA
ATOM     29  H11 HCP d   1      15.079  53.281  17.067  0.00  0.00     0.217 HD
ENDBRANCH   1  28
BRANCH   6  30
ATOM     30  C5A HCP d   1      19.201  50.352  16.060  0.00  0.00     0.058 C 
ATOM     31  H15 HCP d   1      19.129  50.344  17.158  0.00  0.00     0.082 H 
ATOM     32  H16 HCP d   1      20.190  50.730  15.760  0.00  0.00     0.082 H 
BRANCH  30  33
ATOM     33  O2  HCP d   1      19.077  49.058  15.609  0.00  0.00    -0.278 OA
BRANCH  33  34
ATOM     34  P1  HCP d   1      19.885  48.204  16.564  0.00  0.00     0.422 P 
ATOM     35  O4  HCP d   1      21.254  48.202  15.901  0.00  0.00    -0.617 OA
ATOM     36  O3  HCP d   1      19.408  46.758  16.661  0.00  0.00    -0.617 OA
ATOM     37  O5  HCP d   1      20.178  48.876  17.912  0.00  0.00    -0.617 OA
ENDBRANCH  33  34
ENDBRANCH  30  33
ENDBRANCH   6  30
BRANCH   2  38
ATOM     38  C2A HCP d   1      15.441  54.000  13.778  0.00  0.00    -0.033 C 
ATOM     39  H12 HCP d   1      15.825  54.337  12.803  0.00  0.00     0.035 H 
ATOM     40  H13 HCP d   1      15.332  54.866  14.448  0.00  0.00     0.035 H 
ATOM     41  H14 HCP d   1      14.462  53.517  13.640  0.00  0.00     0.035 H 
ENDBRANCH   2  38
TORSDOF 8
