REMARK  11 active torsions:
REMARK  status: ('A' for Active; 'I' for Inactive)
REMARK    1  A    between atoms: C4_1  and  C4A_4 
REMARK    2  A    between atoms: C3_2  and  O1_7 
REMARK    3  A    between atoms: C5_3  and  C5A_8 
REMARK    4  A    between atoms: C2_5  and  C2A_11 
REMARK    5  A    between atoms: C5A_8  and  O2_12 
REMARK    6  A    between atoms: N2_9  and  C_13 
REMARK    7  A    between atoms: O2_12  and  P1_14 
REMARK    8  A    between atoms: C_13  and  P2_17 
REMARK    9  A    between atoms: C_13  and  CA1_16 
REMARK   10  A    between atoms: C_13  and  CA2_15 
REMARK   11  A    between atoms: CA2_15  and  CA3_24 
ROOT
ATOM      1  C4  MPM d   1      17.289  52.338  16.549  0.00  0.00     0.026 A 
ATOM      2  C3  MPM d   1      16.288  53.247  16.095  0.00  0.00     0.102 A 
ATOM      3  C5  MPM d   1      18.364  52.000  15.639  0.00  0.00    -0.002 A 
ATOM      4  C2  MPM d   1      16.401  53.786  14.782  0.00  0.00     0.064 A 
ATOM      5  C6  MPM d   1      18.433  52.575  14.378  0.00  0.00     0.012 A 
ATOM      6  N1  MPM d   1      17.455  53.449  13.993  0.00  0.00    -0.262 NA
ATOM      7  H2  MPM d   1      19.250  52.335  13.708  0.00  0.00     0.115 H 
ENDROOT
BRANCH   1   8
ATOM      8  C4A MPM d   1      17.292  51.718  17.964  0.00  0.00     0.012 C 
ATOM      9  N2  MPM d   1      16.373  52.182  18.754  0.00  0.00    -0.276 NA
ATOM     10  H1  MPM d   1      18.006  50.955  18.273  0.00  0.00     0.115 H 
BRANCH   9  11
ATOM     11  C   MPM d   1      16.153  51.798  20.173  0.00  0.00     0.162 C 
BRANCH  11  12
ATOM     12  P2  MPM d   1      14.498  51.687  20.454  0.00  0.00     0.290 P 
ATOM     13  O7  MPM d   1      13.752  52.793  19.779  0.00  0.00    -0.638 OA
ATOM     14  O6  MPM d   1      14.201  51.714  21.897  0.00  0.00    -0.638 OA
ATOM     15  O8  MPM d   1      14.023  50.391  19.921  0.00  0.00    -0.638 OA
ENDBRANCH  11  12
BRANCH  11  16
ATOM     16  CA1 MPM d   1      16.960  50.512  20.686  0.00  0.00    -0.039 C 
ATOM     17  H11 MPM d   1      18.032  50.643  20.475  0.00  0.00     0.032 H 
ATOM     18  H12 MPM d   1      16.591  49.616  20.166  0.00  0.00     0.032 H 
ATOM     19  H13 MPM d   1      16.811  50.394  21.770  0.00  0.00     0.032 H 
ENDBRANCH  11  16
BRANCH  11  20
ATOM     20  CA2 MPM d   1      16.782  52.960  20.997  0.00  0.00    -0.031 C 
ATOM     21  H9  MPM d   1      17.861  53.000  20.788  0.00  0.00     0.037 H 
ATOM     22  H10 MPM d   1      16.622  52.763  22.067  0.00  0.00     0.037 H 
BRANCH  20  23
ATOM     23  CA3 MPM d   1      16.160  54.315  20.645  0.00  0.00    -0.074 C 
ATOM     24  H14 MPM d   1      16.633  55.103  21.249  0.00  0.00     0.027 H 
ATOM     25  H15 MPM d   1      15.081  54.289  20.856  0.00  0.00     0.027 H 
ATOM     26  H16 MPM d   1      16.320  54.526  19.577  0.00  0.00     0.027 H 
ENDBRANCH  20  23
ENDBRANCH  11  20
ENDBRANCH   9  11
ENDBRANCH   1   8
BRANCH   3  27
ATOM     27  C5A MPM d   1      19.330  51.064  16.103  0.00  0.00     0.058 C 
ATOM     28  H4  MPM d   1      19.455  51.279  17.174  0.00  0.00     0.082 H 
ATOM     29  H5  MPM d   1      20.259  51.313  15.569  0.00  0.00     0.082 H 
BRANCH  27  30
ATOM     30  O2  MPM d   1      19.215  49.709  16.017  0.00  0.00    -0.278 OA
BRANCH  30  31
ATOM     31  P1  MPM d   1      20.133  48.742  16.746  0.00  0.00     0.422 P 
ATOM     32  O4  MPM d   1      21.458  48.798  16.211  0.00  0.00    -0.617 OA
ATOM     33  O5  MPM d   1      20.063  49.050  18.159  0.00  0.00    -0.617 OA
ATOM     34  O3  MPM d   1      19.678  47.393  16.471  0.00  0.00    -0.617 OA
ENDBRANCH  30  31
ENDBRANCH  27  30
ENDBRANCH   3  27
BRANCH   2  35
ATOM     35  O1  MPM d   1      15.229  53.611  16.898  0.00  0.00    -0.358 OA
ATOM     36  H3  MPM d   1      14.671  54.219  16.428  0.00  0.00     0.217 HD
ENDBRANCH   2  35
BRANCH   4  37
ATOM     37  C2A MPM d   1      15.370  54.774  14.259  0.00  0.00    -0.033 C 
ATOM     38  H6  MPM d   1      15.633  55.070  13.233  0.00  0.00     0.035 H 
ATOM     39  H7  MPM d   1      15.355  55.664  14.905  0.00  0.00     0.035 H 
ATOM     40  H8  MPM d   1      14.376  54.303  14.261  0.00  0.00     0.035 H 
ENDBRANCH   4  37
TORSDOF 11
