REMARK  9 active torsions:
REMARK  status: ('A' for Active; 'I' for Inactive)
REMARK    1  A    between atoms: C_1  and  CA_22 
REMARK    2  A    between atoms: C_1  and  P2_18 
REMARK    3  A    between atoms: C_1  and  N2_2 
REMARK    4  A    between atoms: C2_4  and  C2A_5 
REMARK    5  A    between atoms: C3_6  and  O1_7 
REMARK    6  A    between atoms: C4A_9  and  C4_8 
REMARK    7  A    between atoms: C5_10  and  C5A_12 
REMARK    8  A    between atoms: C5A_12  and  O2_13 
REMARK    9  A    between atoms: O2_13  and  P1_14 
ROOT
ATOM      1  N1  EPC d   1      17.162  52.567  13.629  0.00  0.00    -0.262 NA
ATOM      2  C2  EPC d   1      16.037  52.877  14.457  0.00  0.00     0.064 A 
ATOM      3  C3  EPC d   1      15.966  52.342  15.751  0.00  0.00     0.102 A 
ATOM      4  C4  EPC d   1      17.093  51.447  16.278  0.00  0.00     0.026 A 
ATOM      5  C5  EPC d   1      18.203  51.180  15.423  0.00  0.00    -0.002 A 
ATOM      6  C6  EPC d   1      18.188  51.782  14.029  0.00  0.00     0.012 A 
ATOM      7  H7  EPC d   1      19.007  51.581  13.348  0.00  0.00     0.115 H 
ENDROOT
BRANCH   4   8
ATOM      8  C4A EPC d   1      17.010  50.930  17.703  0.00  0.00     0.011 C 
ATOM      9  N2  EPC d   1      16.009  51.247  18.428  0.00  0.00    -0.282 NA
ATOM     10  H6  EPC d   1      17.798  50.294  18.103  0.00  0.00     0.115 H 
BRANCH   9  11
ATOM     11  C   EPC d   1      15.865  51.049  19.831  0.00  0.00     0.136 C 
ATOM     12  H1  EPC d   1      16.356  51.902  20.323  0.00  0.00     0.097 H 
BRANCH  11  13
ATOM     13  CA  EPC d   1      16.614  49.734  20.346  0.00  0.00    -0.043 C 
ATOM     14  H10 EPC d   1      17.664  49.758  20.018  0.00  0.00     0.031 H 
ATOM     15  H11 EPC d   1      16.120  48.844  19.930  0.00  0.00     0.031 H 
ATOM     16  H12 EPC d   1      16.574  49.696  21.445  0.00  0.00     0.031 H 
ENDBRANCH  11  13
BRANCH  11  17
ATOM     17  P2  EPC d   1      14.254  51.087  20.292  0.00  0.00     0.284 P 
ATOM     18  O6  EPC d   1      14.140  51.074  21.894  0.00  0.00    -0.638 OA
ATOM     19  O8  EPC d   1      13.640  49.754  19.851  0.00  0.00    -0.638 OA
ATOM     20  O7  EPC d   1      13.550  52.343  19.651  0.00  0.00    -0.638 OA
ENDBRANCH  11  17
ENDBRANCH   9  11
ENDBRANCH   4   8
BRANCH   5  21
ATOM     21  C5A EPC d   1      19.404  50.341  15.868  0.00  0.00     0.058 C 
ATOM     22  H8  EPC d   1      19.806  50.726  16.817  0.00  0.00     0.082 H 
ATOM     23  H9  EPC d   1      20.191  50.366  15.100  0.00  0.00     0.082 H 
BRANCH  21  24
ATOM     24  O2  EPC d   1      18.932  49.027  16.037  0.00  0.00    -0.278 OA
BRANCH  24  25
ATOM     25  P1  EPC d   1      20.016  48.093  16.640  0.00  0.00     0.422 P 
ATOM     26  O5  EPC d   1      20.474  48.793  17.926  0.00  0.00    -0.617 OA
ATOM     27  O4  EPC d   1      21.257  47.976  15.824  0.00  0.00    -0.617 OA
ATOM     28  O3  EPC d   1      19.391  46.717  16.853  0.00  0.00    -0.617 OA
ENDBRANCH  24  25
ENDBRANCH  21  24
ENDBRANCH   5  21
BRANCH   3  29
ATOM     29  O1  EPC d   1      14.876  52.663  16.559  0.00  0.00    -0.358 OA
ATOM     30  H5  EPC d   1      15.181  53.120  17.334  0.00  0.00     0.217 HD
ENDBRANCH   3  29
BRANCH   2  31
ATOM     31  C2A EPC d   1      14.941  53.831  13.943  0.00  0.00    -0.033 C 
ATOM     32  H2  EPC d   1      15.176  54.139  12.914  0.00  0.00     0.035 H 
ATOM     33  H3  EPC d   1      14.895  54.719  14.590  0.00  0.00     0.035 H 
ATOM     34  H4  EPC d   1      13.969  53.316  13.959  0.00  0.00     0.035 H 
ENDBRANCH   2  31
TORSDOF 9
