REMARK  3 active torsions:
REMARK  status: ('A' for Active; 'I' for Inactive)
REMARK    1  A    between atoms: C1_1  and  C2_4 
REMARK    2  A    between atoms: C2_4  and  C3_5 
REMARK    3  A    between atoms: C3_5  and  S_7 
ROOT
ATOM      1  C3  SPV d   1      28.066  68.287  73.779  0.00  0.00     0.110 C 
ATOM      2  H1  SPV d   1      28.275  67.392  73.174  0.00  0.00     0.072 H 
ATOM      3  H2  SPV d   1      26.998  68.538  73.705  0.00  0.00     0.072 H 
ENDROOT
BRANCH   1   4
ATOM      4  C2  SPV d   1      28.792  69.322  73.292  0.00  0.00     0.241 C 
ATOM      5  O2  SPV d   1      28.112  70.340  72.926  0.00  0.00    -0.285 OA
BRANCH   4   6
ATOM      6  C1  SPV d   1      30.311  69.447  73.114  0.00  0.00     0.247 C 
ATOM      7  O2' SPV d   1      30.977  70.348  73.575  0.00  0.00    -0.642 OA
ATOM      8  O1  SPV d   1      30.824  68.479  72.432  0.00  0.00    -0.642 OA
ENDBRANCH   4   6
ENDBRANCH   1   4
BRANCH   1   9
ATOM      9  S   SPV d   1      28.466  67.924  75.526  0.00  0.00     0.109 S 
ATOM     10  O3S SPV d   1      27.512  67.001  75.956  0.00  0.00    -0.595 OA
ATOM     11  O2S SPV d   1      29.823  67.478  75.504  0.00  0.00    -0.595 OA
ATOM     12  O1S SPV d   1      28.263  69.127  76.221  0.00  0.00    -0.595 OA
ENDBRANCH   1   9
TORSDOF 3
