REMARK  3 active torsions:
REMARK  status: ('A' for Active; 'I' for Inactive)
REMARK    1  A    between atoms: C1_1  and  O1_17 
REMARK    2  A    between atoms: C4_4  and  N4_19 
REMARK    3  A    between atoms: C22_11  and  O22_18 
ROOT
ATOM      1  C1  HNA d   1      25.473   3.551  18.002  0.00  0.00     0.081 A 
ATOM      2  C2  HNA d   1      24.712   4.767  17.875  0.00  0.00     0.065 A 
ATOM      3  C3  HNA d   1      23.966   5.270  19.004  0.00  0.00     0.065 A 
ATOM      4  C4  HNA d   1      23.997   4.544  20.221  0.00  0.00     0.118 A 
ATOM      5  C5  HNA d   1      24.751   3.341  20.310  0.00  0.00    -0.047 A 
ATOM      6  C6  HNA d   1      25.488   2.846  19.218  0.00  0.00    -0.048 A 
ATOM      7  C13 HNA d   1      23.193   6.565  18.822  0.00  0.00     0.197 A 
ATOM      8  C14 HNA d   1      23.188   7.281  17.530  0.00  0.00     0.032 A 
ATOM      9  C15 HNA d   1      23.913   6.776  16.407  0.00  0.00     0.062 A 
ATOM     10  C16 HNA d   1      24.700   5.509  16.564  0.00  0.00     0.200 A 
ATOM     11  C22 HNA d   1      23.874   7.506  15.161  0.00  0.00     0.080 A 
ATOM     12  C23 HNA d   1      23.123   8.705  15.070  0.00  0.00    -0.050 A 
ATOM     13  C24 HNA d   1      22.412   9.200  16.192  0.00  0.00    -0.079 A 
ATOM     14  C25 HNA d   1      22.442   8.492  17.411  0.00  0.00    -0.068 A 
ATOM     15  O16 HNA d   1      25.334   5.062  15.610  0.00  0.00    -0.286 OA
ATOM     16  O13 HNA d   1      22.532   7.067  19.728  0.00  0.00    -0.286 OA
ATOM     17  H1  HNA d   1      24.758   2.791  21.244  0.00  0.00     0.087 H 
ATOM     18  H2  HNA d   1      26.061   1.931  19.314  0.00  0.00     0.087 H 
ATOM     19  H3  HNA d   1      23.092   9.249  14.133  0.00  0.00     0.087 H 
ATOM     20  H4  HNA d   1      21.846  10.121  16.113  0.00  0.00     0.083 H 
ATOM     21  H5  HNA d   1      21.893   8.871  18.266  0.00  0.00     0.085 H 
ENDROOT
BRANCH   4  22
ATOM     22  N4  HNA d   1      23.309   4.891  21.433  0.00  0.00    -0.115 N 
ATOM     23  O4B HNA d   1      22.082   4.492  21.549  0.00  0.00    -0.532 OA
ATOM     24  O4A HNA d   1      23.802   5.561  22.375  0.00  0.00    -0.532 OA
ENDBRANCH   4  22
BRANCH   1  25
ATOM     25  O1  HNA d   1      26.207   3.038  16.947  0.00  0.00    -0.360 OA
ATOM     26  H6  HNA d   1      26.112   3.605  16.191  0.00  0.00     0.217 HD
ENDBRANCH   1  25
BRANCH  11  27
ATOM     27  O22 HNA d   1      24.542   7.067  14.028  0.00  0.00    -0.360 OA
ATOM     28  H7  HNA d   1      25.002   6.260  14.226  0.00  0.00     0.217 HD
ENDBRANCH  11  27
TORSDOF 3
