REMARK  3 active torsions:
REMARK  status: ('A' for Active; 'I' for Inactive)
REMARK    1  A    between atoms: C1_1  and  O1_16 
REMARK    2  A    between atoms: C22_11  and  O22_17 
REMARK    3  A    between atoms: C25_14  and  N25_18 
ROOT
ATOM      1  C1  MNX d   1      26.650   3.579  16.384  0.00  0.00     0.082 A 
ATOM      2  C2  MNX d   1      25.952   4.813  16.172  0.00  0.00     0.082 A 
ATOM      3  C3  MNX d   1      25.311   5.464  17.285  0.00  0.00     0.093 A 
ATOM      4  C4  MNX d   1      25.345   4.872  18.572  0.00  0.00    -0.049 A 
ATOM      5  C5  MNX d   1      26.031   3.649  18.775  0.00  0.00    -0.078 A 
ATOM      6  C6  MNX d   1      26.676   3.000  17.684  0.00  0.00    -0.050 A 
ATOM      7  O13 MNX d   1      24.624   6.655  17.108  0.00  0.00    -0.306 OA
ATOM      8  C14 MNX d   1      24.525   7.313  15.872  0.00  0.00     0.126 A 
ATOM      9  C15 MNX d   1      25.144   6.756  14.702  0.00  0.00     0.085 A 
ATOM     10  C16 MNX d   1      25.895   5.474  14.839  0.00  0.00     0.203 A 
ATOM     11  C22 MNX d   1      25.029   7.439  13.448  0.00  0.00     0.082 A 
ATOM     12  C23 MNX d   1      24.310   8.650  13.367  0.00  0.00    -0.048 A 
ATOM     13  C24 MNX d   1      23.695   9.197  14.519  0.00  0.00    -0.045 A 
ATOM     14  C25 MNX d   1      23.797   8.542  15.772  0.00  0.00     0.137 A 
ATOM     15  O16 MNX d   1      26.445   4.949  13.856  0.00  0.00    -0.286 OA
ATOM     16  H1  MNX d   1      24.845   5.356  19.403  0.00  0.00     0.087 H 
ATOM     17  H2  MNX d   1      26.065   3.206  19.764  0.00  0.00     0.083 H 
ATOM     18  H3  MNX d   1      27.190   2.059  17.845  0.00  0.00     0.087 H 
ATOM     19  H4  MNX d   1      24.228   9.165  12.417  0.00  0.00     0.087 H 
ATOM     20  H5  MNX d   1      23.141  10.126  14.442  0.00  0.00     0.087 H 
ENDROOT
BRANCH  14  21
ATOM     21  N25 MNX d   1      23.147   9.142  16.920  0.00  0.00    -0.113 N 
ATOM     22  O2B MNX d   1      23.203   8.565  18.160  0.00  0.00    -0.532 OA
ATOM     23  O2A MNX d   1      22.459  10.314  16.769  0.00  0.00    -0.532 OA
ENDBRANCH  14  21
BRANCH  11  24
ATOM     24  O22 MNX d   1      25.610   6.945  12.281  0.00  0.00    -0.360 OA
ATOM     25  H7  MNX d   1      26.060   6.131  12.473  0.00  0.00     0.217 HD
ENDBRANCH  11  24
BRANCH   1  26
ATOM     26  O1  MNX d   1      27.287   2.914  15.334  0.00  0.00    -0.360 OA
ATOM     27  H6  MNX d   1      27.186   3.417  14.534  0.00  0.00     0.217 HD
ENDBRANCH   1  26
TORSDOF 3
