REMARK  5 active torsions:
REMARK  status: ('A' for Active; 'I' for Inactive)
REMARK    1  A    between atoms: C9_2  and  C8_4 
REMARK       I    between atoms: N_8  and  C4_9 
REMARK    2  A    between atoms: C4_9  and  C2_11 
REMARK    3  A    between atoms: C2_11  and  C3_12 
REMARK    4  A    between atoms: C2_11  and  C1_13 
REMARK    5  A    between atoms: C1_13  and  S_14 
ROOT
ATOM      1  C8  MCO d   1     -28.041  36.409   8.574  0.00  0.00     0.098 C 
ATOM      2  C7  MCO d   1     -28.763  35.752   9.752  0.00  0.00    -0.035 C 
ATOM      3  C6  MCO d   1     -27.781  34.697  10.275  0.00  0.00    -0.048 C 
ATOM      4  C5  MCO d   1     -26.394  35.313  10.065  0.00  0.00    -0.001 C 
ATOM      5  N   MCO d   1     -26.625  36.306   8.990  0.00  0.00    -0.337 N 
ATOM      6  C4  MCO d   1     -25.654  37.122   8.526  0.00  0.00     0.225 C 
ATOM      7  O1  MCO d   1     -25.928  37.991   7.697  0.00  0.00    -0.273 OA
ATOM      8  H1  MCO d   1     -28.358  37.452   8.423  0.00  0.00     0.089 H 
ATOM      9  H2  MCO d   1     -29.698  35.279   9.418  0.00  0.00     0.036 H 
ATOM     10  H3  MCO d   1     -28.986  36.494  10.533  0.00  0.00     0.036 H 
ATOM     11  H4  MCO d   1     -27.879  33.761   9.706  0.00  0.00     0.035 H 
ATOM     12  H5  MCO d   1     -27.959  34.498  11.342  0.00  0.00     0.035 H 
ATOM     13  H6  MCO d   1     -25.667  34.550   9.748  0.00  0.00     0.064 H 
ATOM     14  H7  MCO d   1     -26.036  35.802  10.983  0.00  0.00     0.064 H 
ENDROOT
BRANCH   1  15
ATOM     15  C9  MCO d   1     -28.257  35.582   7.286  0.00  0.00     0.196 C 
ATOM     16  O2  MCO d   1     -29.413  35.148   7.074  0.00  0.00    -0.646 OA
ATOM     17  O3  MCO d   1     -27.268  35.407   6.548  0.00  0.00    -0.646 OA
ENDBRANCH   1  15
BRANCH   6  18
ATOM     18  C2  MCO d   1     -24.213  36.950   9.022  0.00  0.00     0.028 C 
ATOM     19  H8  MCO d   1     -24.059  35.904   9.327  0.00  0.00     0.055 H 
BRANCH  18  20
ATOM     20  C3  MCO d   1     -23.989  37.862  10.234  0.00  0.00    -0.064 C 
ATOM     21  H9  MCO d   1     -22.957  37.744  10.596  0.00  0.00     0.028 H 
ATOM     22  H10 MCO d   1     -24.692  37.587  11.034  0.00  0.00     0.028 H 
ATOM     23  H11 MCO d   1     -24.158  38.909   9.941  0.00  0.00     0.028 H 
ENDBRANCH  18  20
BRANCH  18  24
ATOM     24  C1  MCO d   1     -23.228  37.287   7.900  0.00  0.00    -0.015 C 
ATOM     25  H12 MCO d   1     -23.262  38.370   7.712  0.00  0.00     0.049 H 
ATOM     26  H13 MCO d   1     -23.529  36.748   6.990  0.00  0.00     0.049 H 
BRANCH  24  27
ATOM     27  S   MCO d   1     -21.514  36.816   8.323  0.00  0.00    -0.181 SA
ATOM     28  H14 MCO d   1     -21.471  35.823   8.491  0.00  0.00     0.101 HD
ENDBRANCH  24  27
ENDBRANCH  18  24
ENDBRANCH   6  18
TORSDOF 5
