REMARK  11 active torsions:
REMARK  status: ('A' for Active; 'I' for Inactive)
REMARK       I    between atoms: N33_1  and  C31_2 
REMARK       I    between atoms: C31_2  and  N29_4 
REMARK    1  A    between atoms: C24_9  and  C23_10 
REMARK    2  A    between atoms: C23_10  and  C22_11 
REMARK       I    between atoms: C22_11  and  N21_13 
REMARK    3  A    between atoms: N21_13  and  C16_14 
REMARK    4  A    between atoms: C16_14  and  C15_19 
REMARK    5  A    between atoms: C16_14  and  C17_15 
REMARK    6  A    between atoms: C17_15  and  O18_17 
REMARK    7  A    between atoms: O18_17  and  C20_18 
REMARK    8  A    between atoms: C15_19  and  C12_20 
REMARK    9  A    between atoms: C9_25  and  C8_26 
REMARK   10  A    between atoms: C8_26  and  C7_27 
REMARK   11  A    between atoms: C7_27  and  C4_28 
ROOT
ATOM      1  C16 FRG d   1       0.917  18.464  -8.903  0.00  0.00     0.100 C 
ATOM      2  H17 FRG d   1       1.931  18.149  -9.190  0.00  0.00     0.088 H 
ENDROOT
BRANCH   1   3
ATOM      3  N21 FRG d   1       0.813  18.252  -7.455  0.00  0.00    -0.347 N 
ATOM      4  C22 FRG d   1       1.864  18.424  -6.630  0.00  0.00     0.218 C 
ATOM      5  O25 FRG d   1       2.929  18.879  -7.009  0.00  0.00    -0.274 OA
ATOM      6  H16 FRG d   1      -0.065  17.971  -7.068  0.00  0.00     0.163 HD
BRANCH   4   7
ATOM      7  C23 FRG d   1       1.701  18.040  -5.172  0.00  0.00     0.014 C 
ATOM      8  H14 FRG d   1       0.723  17.555  -5.036  0.00  0.00     0.047 H 
ATOM      9  H15 FRG d   1       2.501  17.337  -4.895  0.00  0.00     0.047 H 
BRANCH   7  10
ATOM     10  C24 FRG d   1       1.780  19.279  -4.256  0.00  0.00    -0.030 C 
ATOM     11  C30 FRG d   1       1.544  18.891  -2.796  0.00  0.00     0.015 C 
ATOM     12  N29 FRG d   1       1.464  20.010  -1.816  0.00  0.00    -0.218 N 
ATOM     13  H5  FRG d   1       0.596  18.335  -2.747  0.00  0.00     0.065 H 
ATOM     14  H6  FRG d   1       2.371  18.234  -2.487  0.00  0.00     0.065 H 
ATOM     15  C31 FRG d   1       2.603  20.115  -0.924  0.00  0.00     0.667 C 
ATOM     16  C28 FRG d   1       0.777  21.259  -2.263  0.00  0.00     0.012 C 
ATOM     17  N33 FRG d   1       2.564  20.965   0.102  0.00  0.00    -0.235 N 
ATOM     18  N32 FRG d   1       3.664  19.309  -1.006  0.00  0.00    -0.235 N 
ATOM     19  H1  FRG d   1       3.371  21.042   0.738  0.00  0.00     0.174 HD
ATOM     20  H2  FRG d   1       1.727  21.544   0.259  0.00  0.00     0.174 HD
ATOM     21  H3  FRG d   1       4.449  19.423  -0.349  0.00  0.00     0.174 HD
ATOM     22  H4  FRG d   1       3.697  18.573  -1.726  0.00  0.00     0.174 HD
ATOM     23  C27 FRG d   1       0.792  21.555  -3.768  0.00  0.00    -0.049 C 
ATOM     24  H7  FRG d   1       1.260  22.105  -1.752  0.00  0.00     0.065 H 
ATOM     25  H8  FRG d   1      -0.275  21.192  -1.948  0.00  0.00     0.065 H 
ATOM     26  C26 FRG d   1       0.765  20.334  -4.685  0.00  0.00    -0.058 C 
ATOM     27  H9  FRG d   1      -0.089  22.171  -4.000  0.00  0.00     0.035 H 
ATOM     28  H10 FRG d   1       1.706  22.125  -3.991  0.00  0.00     0.035 H 
ATOM     29  H11 FRG d   1      -0.241  19.891  -4.658  0.00  0.00     0.033 H 
ATOM     30  H12 FRG d   1       0.997  20.655  -5.711  0.00  0.00     0.033 H 
ATOM     31  H13 FRG d   1       2.788  19.710  -4.343  0.00  0.00     0.043 H 
ENDBRANCH   7  10
ENDBRANCH   4   7
ENDBRANCH   1   3
BRANCH   1  32
ATOM     32  C15 FRG d   1      -0.045  17.556  -9.642  0.00  0.00    -0.013 C 
ATOM     33  H21 FRG d   1       0.143  17.710 -10.715  0.00  0.00     0.043 H 
ATOM     34  H22 FRG d   1      -1.058  17.907  -9.393  0.00  0.00     0.043 H 
BRANCH  32  35
ATOM     35  C12 FRG d   1      -0.043  16.092  -9.422  0.00  0.00    -0.056 A 
ATOM     36  C11 FRG d   1       0.972  15.336  -9.994  0.00  0.00    -0.075 A 
ATOM     37  C10 FRG d   1       0.993  13.971  -9.821  0.00  0.00    -0.064 A 
ATOM     38  H25 FRG d   1       1.747  15.821 -10.576  0.00  0.00     0.084 H 
ATOM     39  C9  FRG d   1      -0.010  13.371  -9.072  0.00  0.00     0.018 A 
ATOM     40  H26 FRG d   1       1.782  13.373 -10.263  0.00  0.00     0.085 H 
ATOM     41  C14 FRG d   1      -1.044  14.091  -8.507  0.00  0.00    -0.064 A 
ATOM     42  C13 FRG d   1      -1.043  15.467  -8.680  0.00  0.00    -0.075 A 
ATOM     43  H24 FRG d   1      -1.830  13.597  -7.947  0.00  0.00     0.085 H 
ATOM     44  H23 FRG d   1      -1.830  16.064  -8.232  0.00  0.00     0.084 H 
BRANCH  39  45
ATOM     45  C8  FRG d   1       0.045  11.930  -8.932  0.00  0.00    -0.061 C 
BRANCH  45  46
ATOM     46  C7  FRG d   1       0.114  10.638  -8.862  0.00  0.00    -0.061 C 
BRANCH  46  47
ATOM     47  C4  FRG d   1       0.160   9.195  -8.824  0.00  0.00     0.018 A 
ATOM     48  C3  FRG d   1       1.016   8.567  -7.956  0.00  0.00    -0.065 A 
ATOM     49  C2  FRG d   1       1.023   7.189  -7.948  0.00  0.00    -0.082 A 
ATOM     50  H29 FRG d   1       1.665   9.135  -7.299  0.00  0.00     0.085 H 
ATOM     51  C1  FRG d   1       0.168   6.479  -8.783  0.00  0.00    -0.083 A 
ATOM     52  H30 FRG d   1       1.698   6.657  -7.288  0.00  0.00     0.083 H 
ATOM     53  C6  FRG d   1      -0.693   7.128  -9.658  0.00  0.00    -0.082 A 
ATOM     54  H31 FRG d   1       0.173   5.396  -8.750  0.00  0.00     0.083 H 
ATOM     55  C5  FRG d   1      -0.699   8.509  -9.669  0.00  0.00    -0.065 A 
ATOM     56  H28 FRG d   1      -1.344   6.565 -10.316  0.00  0.00     0.083 H 
ATOM     57  H27 FRG d   1      -1.367   9.050 -10.330  0.00  0.00     0.085 H 
ENDBRANCH  46  47
ENDBRANCH  45  46
ENDBRANCH  39  45
ENDBRANCH  32  35
ENDBRANCH   1  32
BRANCH   1  58
ATOM     58  C17 FRG d   1       0.797  19.910  -9.327  0.00  0.00     0.281 C 
ATOM     59  O19 FRG d   1       1.472  20.379 -10.235  0.00  0.00    -0.263 OA
BRANCH  58  60
ATOM     60  O18 FRG d   1      -0.109  20.801  -8.619  0.00  0.00    -0.325 OA
BRANCH  60  61
ATOM     61  C20 FRG d   1      -0.440  22.088  -9.140  0.00  0.00     0.013 C 
ATOM     62  H18 FRG d   1      -1.135  22.594  -8.453  0.00  0.00     0.067 H 
ATOM     63  H19 FRG d   1      -0.916  21.974 -10.125  0.00  0.00     0.067 H 
ATOM     64  H20 FRG d   1       0.476  22.689  -9.243  0.00  0.00     0.067 H 
ENDBRANCH  60  61
ENDBRANCH  58  60
ENDBRANCH   1  58
TORSDOF 11
