REMARK WARNING: 32 MAX_TORS EXCEEDED!!!
REMARK  40 active torsions:
REMARK  status: ('A' for Active; 'I' for Inactive)
REMARK    1  A    between atoms: CA_2  and  N_1 
REMARK    2  A    between atoms: C_3  and  CA_2 
REMARK    3  A    between atoms: CA_2  and  CB_5 
REMARK       I    between atoms: N_10  and  C_3 
REMARK    4  A    between atoms: CB_5  and  CG_6 
REMARK    5  A    between atoms: CG_6  and  CD_7 
REMARK    6  A    between atoms: CA_11  and  N_10 
REMARK    7  A    between atoms: C_12  and  CA_11 
REMARK    8  A    between atoms: CA_11  and  CB_14 
REMARK       I    between atoms: N_18  and  C_12 
REMARK    9  A    between atoms: CB_14  and  CG_15 
REMARK   10  A    between atoms: CG_15  and  CD2_17 
REMARK   11  A    between atoms: CG_15  and  CD1_16 
REMARK   12  A    between atoms: CA_19  and  N_18 
REMARK   13  A    between atoms: C_20  and  CA_19 
REMARK   14  A    between atoms: CA_19  and  CB_22 
REMARK       I    between atoms: N_30  and  C_20 
REMARK   15  A    between atoms: CB_22  and  CG_23 
REMARK   16  A    between atoms: CG_28  and  CD1_26 
REMARK   17  A    between atoms: CG_28  and  CD2_27 
REMARK   18  A    between atoms: CB_29  and  CG_28 
REMARK   19  A    between atoms: CA_31  and  CB_29 
REMARK   20  A    between atoms: N_30  and  CA_31 
REMARK   21  A    between atoms: CA_31  and  C_32 
REMARK   22  A    between atoms: C_32  and  O_33 
REMARK   23  A    between atoms: C_32  and  CM_34 
REMARK   24  A    between atoms: CM_34  and  CA_35 
REMARK   25  A    between atoms: CA_35  and  C_37 
REMARK   26  A    between atoms: CA_35  and  CB_36 
REMARK       I    between atoms: C_37  and  N_39 
REMARK   27  A    between atoms: N_39  and  CA_40 
REMARK   28  A    between atoms: CA_40  and  C_41 
REMARK   29  A    between atoms: CA_40  and  CB_43 
REMARK       I    between atoms: C_41  and  N_46 
REMARK   30  A    between atoms: CB_43  and  CG1_44 
REMARK   31  A    between atoms: CB_43  and  CG2_45 
REMARK   32  A    between atoms: N_46  and  CA_47 
REMARK   33  A    between atoms: CA_47  and  C_48 
REMARK   34  A    between atoms: CA_47  and  CB_50 
REMARK       I    between atoms: C_48  and  N_55 
REMARK   35  A    between atoms: CB_50  and  CG_51 
REMARK   36  A    between atoms: CG_51  and  CD_52 
REMARK   37  A    between atoms: N_55  and  CA_56 
REMARK   38  A    between atoms: CA_56  and  C_57 
REMARK   39  A    between atoms: CA_56  and  CB_59 
REMARK   40  A    between atoms: CB_59  and  CG_60 
ROOT
ATOM      1  C   1OL d   1      20.992  34.286  23.939  0.00  0.00     0.056 C 
ATOM      2  H35 1OL d   1      21.877  34.756  23.485  0.00  0.00     0.086 H 
ENDROOT
BRANCH   1   3
ATOM      3  CA  1OL d   1      20.314  33.383  22.876  0.00  0.00     0.037 C 
ATOM      4  H34 1OL d   1      21.064  32.648  22.547  0.00  0.00     0.076 H 
BRANCH   3   5
ATOM      5  CB  1OL d   1      19.877  34.200  21.651  0.00  0.00    -0.041 C 
ATOM      6  H31 1OL d   1      19.160  34.965  21.983  0.00  0.00     0.036 H 
ATOM      7  H32 1OL d   1      20.766  34.690  21.227  0.00  0.00     0.036 H 
BRANCH   5   8
ATOM      8  CG  1OL d   1      19.212  33.359  20.545  0.00  0.00    -0.059 C 
ATOM      9  H30 1OL d   1      18.468  32.692  21.006  0.00  0.00     0.038 H 
BRANCH   8  10
ATOM     10  CD1 1OL d   1      18.504  34.261  19.541  0.00  0.00    -0.073 C 
ATOM     11  H24 1OL d   1      18.036  33.644  18.760  0.00  0.00     0.028 H 
ATOM     12  H25 1OL d   1      19.235  34.942  19.081  0.00  0.00     0.028 H 
ATOM     13  H26 1OL d   1      17.730  34.848  20.057  0.00  0.00     0.028 H 
ENDBRANCH   8  10
BRANCH   8  14
ATOM     14  CD2 1OL d   1      20.270  32.505  19.834  0.00  0.00    -0.073 C 
ATOM     15  H27 1OL d   1      20.774  31.859  20.568  0.00  0.00     0.028 H 
ATOM     16  H28 1OL d   1      21.011  33.162  19.355  0.00  0.00     0.028 H 
ATOM     17  H29 1OL d   1      19.784  31.881  19.069  0.00  0.00     0.028 H 
ENDBRANCH   8  14
ENDBRANCH   5   8
ENDBRANCH   3   5
BRANCH   3  18
ATOM     18  N   1OL d   1      19.169  32.645  23.390  0.00  0.00    -0.352 N 
ATOM     19  C   ASP d   1      19.237  31.332  23.575  0.00  0.00     0.241 C 
ATOM     20  O   ASP d   1      20.266  30.684  23.372  0.00  0.00    -0.271 OA
ATOM     21  H33 1OL d   1      18.323  33.132  23.606  0.00  0.00     0.163 HD
BRANCH  19  22
ATOM     22  CA  ASP d   1      17.967  30.647  24.072  0.00  0.00     0.098 C 
ATOM     23  H21 ASP d   1      17.633  31.125  25.004  0.00  0.00     0.088 H 
BRANCH  22  24
ATOM     24  CB  ASP d   1      18.231  29.163  24.336  0.00  0.00     0.043 C 
ATOM     25  H22 ASP d   1      19.233  29.056  24.778  0.00  0.00     0.052 H 
ATOM     26  H23 ASP d   1      18.192  28.622  23.379  0.00  0.00     0.052 H 
BRANCH  24  27
ATOM     27  CG  ASP d   1      17.225  28.560  25.271  0.00  0.00     0.175 C 
ATOM     28  OD1 ASP d   1      17.200  28.996  26.442  0.00  0.00    -0.648 OA
ATOM     29  OD2 ASP d   1      16.463  27.665  24.835  0.00  0.00    -0.648 OA
ENDBRANCH  24  27
ENDBRANCH  22  24
BRANCH  22  30
ATOM     30  N   ASP d   1      16.938  30.796  23.051  0.00  0.00    -0.346 N 
ATOM     31  C   LEU d   1      15.673  31.024  23.367  0.00  0.00     0.241 C 
ATOM     32  O   LEU d   1      15.285  31.117  24.525  0.00  0.00    -0.271 OA
ATOM     33  H20 ASP d   1      17.194  30.724  22.087  0.00  0.00     0.163 HD
BRANCH  31  34
ATOM     34  CA  LEU d   1      14.710  31.201  22.204  0.00  0.00     0.089 C 
ATOM     35  H10 LEU d   1      15.165  30.778  21.296  0.00  0.00     0.087 H 
BRANCH  34  36
ATOM     36  CB  LEU d   1      14.515  32.707  22.010  0.00  0.00    -0.035 C 
ATOM     37  H11 LEU d   1      15.351  33.211  22.517  0.00  0.00     0.037 H 
ATOM     38  H12 LEU d   1      13.570  32.978  22.503  0.00  0.00     0.037 H 
BRANCH  36  39
ATOM     39  CG  LEU d   1      14.454  33.255  20.588  0.00  0.00    -0.059 C 
ATOM     40  H13 LEU d   1      13.481  33.006  20.139  0.00  0.00     0.038 H 
BRANCH  39  41
ATOM     41  CD2 LEU d   1      15.571  32.657  19.727  0.00  0.00    -0.073 C 
ATOM     42  H17 LEU d   1      15.449  31.565  19.675  0.00  0.00     0.028 H 
ATOM     43  H18 LEU d   1      16.547  32.897  20.174  0.00  0.00     0.028 H 
ATOM     44  H19 LEU d   1      15.519  33.080  18.713  0.00  0.00     0.028 H 
ENDBRANCH  39  41
BRANCH  39  45
ATOM     45  CD1 LEU d   1      14.611  34.764  20.667  0.00  0.00    -0.073 C 
ATOM     46  H14 LEU d   1      14.571  35.190  19.654  0.00  0.00     0.028 H 
ATOM     47  H15 LEU d   1      15.579  35.008  21.130  0.00  0.00     0.028 H 
ATOM     48  H16 LEU d   1      13.797  35.186  21.275  0.00  0.00     0.028 H 
ENDBRANCH  39  45
ENDBRANCH  36  39
ENDBRANCH  34  36
BRANCH  34  49
ATOM     49  N   LEU d   1      13.434  30.515  22.433  0.00  0.00    -0.346 N 
ATOM     50  C   GLU d   1      13.210  29.292  21.956  0.00  0.00     0.249 C 
ATOM     51  O   GLU d   1      14.048  28.684  21.283  0.00  0.00    -0.271 OA
ATOM     52  H9  LEU d   1      12.718  30.975  22.958  0.00  0.00     0.163 HD
BRANCH  50  53
ATOM     53  CA  GLU d   1      11.850  28.642  22.303  0.00  0.00     0.176 C 
ATOM     54  H4  GLU d   1      12.048  27.646  22.727  0.00  0.00     0.099 H 
BRANCH  53  55
ATOM     55  CB  GLU d   1      10.963  28.470  21.064  0.00  0.00    -0.021 C 
ATOM     56  H5  GLU d   1      11.076  27.442  20.689  0.00  0.00     0.037 H 
ATOM     57  H6  GLU d   1      11.293  29.181  20.292  0.00  0.00     0.037 H 
BRANCH  55  58
ATOM     58  CG  GLU d   1       9.477  28.724  21.364  0.00  0.00     0.018 C 
ATOM     59  H7  GLU d   1       9.242  29.760  21.077  0.00  0.00     0.049 H 
ATOM     60  H8  GLU d   1       9.320  28.598  22.445  0.00  0.00     0.049 H 
BRANCH  58  61
ATOM     61  CD  GLU d   1       8.506  27.797  20.632  0.00  0.00     0.172 C 
ATOM     62  OE1 GLU d   1       8.604  26.559  20.803  0.00  0.00    -0.648 OA
ATOM     63  OE2 GLU d   1       7.628  28.309  19.899  0.00  0.00    -0.648 OA
ENDBRANCH  58  61
ENDBRANCH  55  58
ENDBRANCH  53  55
BRANCH  53  64
ATOM     64  N   GLU d   1      11.122  29.449  23.314  0.00  0.00    -0.066 N 
ATOM     65  H1  GLU d   1      10.241  29.008  23.525  0.00  0.00     0.275 HD
ATOM     66  H2  GLU d   1      10.956  30.374  22.950  0.00  0.00     0.275 HD
ATOM     67  H3  GLU d   1      11.675  29.513  24.154  0.00  0.00     0.275 HD
ENDBRANCH  53  64
ENDBRANCH  50  53
ENDBRANCH  34  49
ENDBRANCH  31  34
ENDBRANCH  22  30
ENDBRANCH  19  22
ENDBRANCH   3  18
ENDBRANCH   1   3
BRANCH   1  68
ATOM     68  O   1OL d   1      20.097  35.316  24.374  0.00  0.00    -0.393 OA
ATOM     69  H36 1OL d   1      19.847  35.852  23.630  0.00  0.00     0.210 HD
ENDBRANCH   1  68
BRANCH   1  70
ATOM     70  CM  1OL d   1      21.441  33.456  25.145  0.00  0.00    -0.028 C 
ATOM     71  H37 1OL d   1      20.626  33.475  25.884  0.00  0.00     0.038 H 
ATOM     72  H38 1OL d   1      21.598  32.424  24.799  0.00  0.00     0.038 H 
BRANCH  70  73
ATOM     73  CA  1OL d   1      22.724  33.908  25.856  0.00  0.00     0.022 C 
ATOM     74  H39 1OL d   1      22.781  35.006  25.843  0.00  0.00     0.054 H 
BRANCH  73  75
ATOM     75  C   1OL d   1      23.934  33.332  25.130  0.00  0.00     0.222 C 
ATOM     76  O   1OL d   1      23.963  32.146  24.805  0.00  0.00    -0.273 OA
ATOM     77  N   VAL d   1      24.934  34.165  24.862  0.00  0.00    -0.347 N 
ATOM     78  H43 VAL d   1      24.850  35.137  25.080  0.00  0.00     0.163 HD
BRANCH  77  79
ATOM     79  CA  VAL d   1      26.155  33.653  24.248  0.00  0.00     0.092 C 
ATOM     80  H44 VAL d   1      25.885  33.022  23.388  0.00  0.00     0.088 H 
BRANCH  79  81
ATOM     81  C   VAL d   1      26.926  32.809  25.275  0.00  0.00     0.241 C 
ATOM     82  O   VAL d   1      26.833  33.057  26.477  0.00  0.00    -0.271 OA
ATOM     83  N   GLU d   1      27.669  31.811  24.808  0.00  0.00    -0.346 N 
ATOM     84  H52 GLU d   1      27.693  31.632  23.824  0.00  0.00     0.163 HD
BRANCH  83  85
ATOM     85  CA  GLU d   1      28.450  30.972  25.712  0.00  0.00     0.090 C 
ATOM     86  H53 GLU d   1      27.893  30.816  26.648  0.00  0.00     0.087 H 
BRANCH  85  87
ATOM     87  C   GLU d   1      29.751  31.697  25.994  0.00  0.00     0.241 C 
ATOM     88  O   GLU d   1      30.244  32.437  25.149  0.00  0.00    -0.271 OA
ATOM     89  N   PHE d   1      30.308  31.505  27.182  0.00  0.00    -0.344 N 
ATOM     90  H58 PHE d   1      29.857  30.919  27.855  0.00  0.00     0.163 HD
BRANCH  89  91
ATOM     91  CA  PHE d   1      31.578  32.146  27.510  0.00  0.00     0.100 C 
ATOM     92  H59 PHE d   1      31.934  32.688  26.622  0.00  0.00     0.090 H 
BRANCH  91  93
ATOM     93  C   PHE d   1      32.627  31.096  27.894  0.00  0.00     0.197 C 
ATOM     94  OXT PHE d   1      32.385  30.362  28.875  0.00  0.00    -0.646 OA
ATOM     95  O   PHE d   1      33.673  31.008  27.206  0.00  0.00    -0.646 OA
ENDBRANCH  91  93
BRANCH  91  96
ATOM     96  CB  PHE d   1      31.397  33.148  28.652  0.00  0.00    -0.013 C 
ATOM     97  H60 PHE d   1      31.186  32.588  29.575  0.00  0.00     0.043 H 
ATOM     98  H61 PHE d   1      30.541  33.797  28.412  0.00  0.00     0.043 H 
BRANCH  96  99
ATOM     99  CG  PHE d   1      32.598  34.017  28.890  0.00  0.00    -0.056 A 
ATOM    100  CD2 PHE d   1      33.180  34.096  30.153  0.00  0.00    -0.077 A 
ATOM    101  CE2 PHE d   1      34.292  34.929  30.389  0.00  0.00    -0.082 A 
ATOM    102  H63 PHE d   1      32.771  33.508  30.967  0.00  0.00     0.084 H 
ATOM    103  CZ  PHE d   1      34.823  35.687  29.346  0.00  0.00    -0.083 A 
ATOM    104  H65 PHE d   1      34.733  34.980  31.378  0.00  0.00     0.083 H 
ATOM    105  CE1 PHE d   1      34.249  35.612  28.084  0.00  0.00    -0.082 A 
ATOM    106  H66 PHE d   1      35.678  36.330  29.519  0.00  0.00     0.083 H 
ATOM    107  CD1 PHE d   1      33.139  34.776  27.861  0.00  0.00    -0.077 A 
ATOM    108  H64 PHE d   1      34.657  36.199  27.269  0.00  0.00     0.083 H 
ATOM    109  H62 PHE d   1      32.700  34.724  26.871  0.00  0.00     0.084 H 
ENDBRANCH  96  99
ENDBRANCH  91  96
ENDBRANCH  89  91
ENDBRANCH  85  87
BRANCH  85 110
ATOM    110  CB  GLU d   1      28.762  29.606  25.069  0.00  0.00    -0.029 C 
ATOM    111  H54 GLU d   1      29.205  28.957  25.838  0.00  0.00     0.037 H 
ATOM    112  H55 GLU d   1      29.489  29.765  24.259  0.00  0.00     0.037 H 
BRANCH 110 113
ATOM    113  CG  GLU d   1      27.539  28.889  24.482  0.00  0.00     0.018 C 
ATOM    114  H56 GLU d   1      27.192  29.456  23.606  0.00  0.00     0.049 H 
ATOM    115  H57 GLU d   1      26.747  28.872  25.245  0.00  0.00     0.049 H 
BRANCH 113 116
ATOM    116  CD  GLU d   1      27.817  27.453  24.046  0.00  0.00     0.172 C 
ATOM    117  OE1 GLU d   1      28.813  27.212  23.327  0.00  0.00    -0.648 OA
ATOM    118  OE2 GLU d   1      27.023  26.563  24.418  0.00  0.00    -0.648 OA
ENDBRANCH 113 116
ENDBRANCH 110 113
ENDBRANCH  85 110
ENDBRANCH  83  85
ENDBRANCH  79  81
BRANCH  79 119
ATOM    119  CB  VAL d   1      27.051  34.804  23.761  0.00  0.00    -0.033 C 
ATOM    120  H45 VAL d   1      26.446  35.488  23.148  0.00  0.00     0.042 H 
BRANCH 119 121
ATOM    121  CG1 VAL d   1      27.589  35.571  24.946  0.00  0.00    -0.071 C 
ATOM    122  H46 VAL d   1      28.229  36.392  24.591  0.00  0.00     0.028 H 
ATOM    123  H47 VAL d   1      28.179  34.895  25.583  0.00  0.00     0.028 H 
ATOM    124  H48 VAL d   1      26.751  35.984  25.527  0.00  0.00     0.028 H 
ENDBRANCH 119 121
BRANCH 119 125
ATOM    125  CG2 VAL d   1      28.195  34.250  22.889  0.00  0.00    -0.071 C 
ATOM    126  H49 VAL d   1      27.772  33.698  22.037  0.00  0.00     0.028 H 
ATOM    127  H50 VAL d   1      28.820  33.573  23.490  0.00  0.00     0.028 H 
ATOM    128  H51 VAL d   1      28.809  35.083  22.518  0.00  0.00     0.028 H 
ENDBRANCH 119 125
ENDBRANCH  79 119
ENDBRANCH  77  79
ENDBRANCH  73  75
BRANCH  73 129
ATOM    129  CB  1OL d   1      22.702  33.421  27.306  0.00  0.00    -0.065 C 
ATOM    130  H40 1OL d   1      23.622  33.745  27.816  0.00  0.00     0.028 H 
ATOM    131  H41 1OL d   1      22.641  32.323  27.323  0.00  0.00     0.028 H 
ATOM    132  H42 1OL d   1      21.828  33.845  27.822  0.00  0.00     0.028 H 
ENDBRANCH  73 129
ENDBRANCH  70  73
ENDBRANCH   1  70
TORSDOF 40
