REMARK  8 active torsions:
REMARK  status: ('A' for Active; 'I' for Inactive)
REMARK    1  A    between atoms: C1_1  and  C2_2 
REMARK    2  A    between atoms: C2_2  and  C3_3 
REMARK    3  A    between atoms: C3_3  and  C4_4 
REMARK    4  A    between atoms: C3_3  and  O3_7 
REMARK    5  A    between atoms: C4_4  and  C5_5 
REMARK    6  A    between atoms: C4_4  and  O4_8 
REMARK    7  A    between atoms: C5_5  and  O5_9 
REMARK    8  A    between atoms: O5_9  and  P_10 
ROOT
ATOM      1  C4  DXP d   1      30.712   2.956  35.727  0.00  0.00     0.088 C 
ATOM      2  H5  DXP d   1      30.199   2.914  36.699  0.00  0.00     0.090 H 
ENDROOT
BRANCH   1   3
ATOM      3  C3  DXP d   1      30.126   2.034  34.909  0.00  0.00     0.119 C 
ATOM      4  H4  DXP d   1      31.001   1.633  34.377  0.00  0.00     0.099 H 
BRANCH   3   5
ATOM      5  C2  DXP d   1      29.349   0.864  35.091  0.00  0.00     0.154 C 
ATOM      6  O2  DXP d   1      29.382  -0.077  34.310  0.00  0.00    -0.295 OA
BRANCH   5   7
ATOM      7  C1  DXP d   1      28.428   0.880  36.334  0.00  0.00    -0.018 C 
ATOM      8  H1  DXP d   1      27.869  -0.066  36.388  0.00  0.00     0.037 H 
ATOM      9  H2  DXP d   1      27.721   1.719  36.256  0.00  0.00     0.037 H 
ATOM     10  H3  DXP d   1      29.039   0.998  37.241  0.00  0.00     0.037 H 
ENDBRANCH   5   7
ENDBRANCH   3   5
BRANCH   3  11
ATOM     11  O3  DXP d   1      29.447   2.724  34.076  0.00  0.00    -0.385 OA
ATOM     12  H8  DXP d   1      30.029   3.302  33.597  0.00  0.00     0.210 HD
ENDBRANCH   3  11
ENDBRANCH   1   3
BRANCH   1  13
ATOM     13  C5  DXP d   1      32.143   2.518  35.832  0.00  0.00     0.059 C 
ATOM     14  H6  DXP d   1      32.402   2.051  34.870  0.00  0.00     0.079 H 
ATOM     15  H7  DXP d   1      32.185   1.762  36.630  0.00  0.00     0.079 H 
BRANCH  13  16
ATOM     16  O5  DXP d   1      33.162   3.464  36.113  0.00  0.00    -0.280 OA
BRANCH  16  17
ATOM     17  P   DXP d   1      34.606   3.198  36.256  0.00  0.00     0.422 P 
ATOM     18  O2P DXP d   1      35.257   4.579  36.573  0.00  0.00    -0.617 OA
ATOM     19  O1P DXP d   1      35.011   2.526  34.863  0.00  0.00    -0.617 OA
ATOM     20  O3P DXP d   1      34.621   2.185  37.515  0.00  0.00    -0.617 OA
ENDBRANCH  16  17
ENDBRANCH  13  16
ENDBRANCH   1  13
BRANCH   1  21
ATOM     21  O4  DXP d   1      30.849   4.352  35.348  0.00  0.00    -0.390 OA
ATOM     22  H9  DXP d   1      29.987   4.739  35.252  0.00  0.00     0.210 HD
ENDBRANCH   1  21
TORSDOF 8
