REMARK  17 active torsions:
REMARK  status: ('A' for Active; 'I' for Inactive)
REMARK    1  A    between atoms: O3_14  and  C1_1 
REMARK    2  A    between atoms: C2_2  and  O2_3 
REMARK    3  A    between atoms: C3_4  and  O3_5 
REMARK    4  A    between atoms: C4_6  and  O4_7 
REMARK    5  A    between atoms: C5_8  and  C6_10 
REMARK    6  A    between atoms: O3_31  and  C1_11 
REMARK    7  A    between atoms: C3_13  and  O3_14 
REMARK    8  A    between atoms: C4_15  and  O4_16 
REMARK    9  A    between atoms: C5_17  and  C6_19 
REMARK   10  A    between atoms: C1_20  and  O1_30 
REMARK   11  A    between atoms: C2_21  and  N2_29 
REMARK   12  A    between atoms: O3_31  and  C3_22 
REMARK   13  A    between atoms: C4_23  and  O4_32 
REMARK   14  A    between atoms: C5_24  and  C6_25 
REMARK   15  A    between atoms: C6_25  and  O6_34 
REMARK   16  A    between atoms: C7_26  and  C8_27 
REMARK       I    between atoms: N2_29  and  C7_26 
REMARK   17  A    between atoms: O1_30  and  CM_28 
ROOT
ATOM      1  H12 RAM d   1      -6.134  21.238  31.609  0.00  0.00     0.129 H 
ATOM      2  H13 RAM d   1      -8.418  22.199  32.077  0.00  0.00     0.044 H 
ATOM      3  H14 RAM d   1      -7.311  23.292  31.178  0.00  0.00     0.044 H 
ATOM      4  H15 RAM d   1      -7.997  23.391  34.163  0.00  0.00     0.087 H 
ATOM      5  H16 RAM d   1      -6.058  25.112  32.527  0.00  0.00     0.090 H 
ATOM      6  H18 RAM d   1      -5.532  23.067  34.726  0.00  0.00     0.086 H 
ATOM      7  C1  RAE d   1      -6.326  21.885  32.477  0.00  0.00     0.134 C 
ATOM      8  C2  RAE d   1      -7.499  22.800  32.144  0.00  0.00     0.008 C 
ATOM      9  C3  RAE d   1      -7.675  23.868  33.226  0.00  0.00     0.073 C 
ATOM     10  C4  RAE d   1      -6.339  24.597  33.457  0.00  0.00     0.085 C 
ATOM     11  C5  RAE d   1      -5.249  23.600  33.806  0.00  0.00     0.065 C 
ATOM     12  O5  RAE d   1      -5.129  22.654  32.730  0.00  0.00    -0.354 OA
ENDROOT
BRANCH   7  13
ATOM     13  O3  MAG d   1      -6.671  21.051  33.587  0.00  0.00    -0.351 OA
BRANCH  13  14
ATOM     14  C3  MAG d   1      -5.883  19.858  33.674  0.00  0.00     0.092 C 
ATOM     15  C2  MAG d   1      -6.782  18.640  33.438  0.00  0.00     0.087 C 
ATOM     16  C1  MAG d   1      -5.978  17.360  33.689  0.00  0.00     0.152 C 
ATOM     17  H23 RAM d   1      -7.635  18.675  34.132  0.00  0.00     0.084 H 
ATOM     18  O5  MAG d   1      -5.418  17.391  35.014  0.00  0.00    -0.349 OA
ATOM     19  H22 RAM d   1      -5.146  17.330  32.970  0.00  0.00     0.132 H 
ATOM     20  C5  MAG d   1      -4.470  18.451  35.198  0.00  0.00     0.089 C 
ATOM     21  C4  MAG d   1      -5.163  19.799  35.033  0.00  0.00     0.089 C 
ATOM     22  H26 RAM d   1      -3.696  18.366  34.421  0.00  0.00     0.090 H 
ATOM     23  H25 RAM d   1      -5.897  19.934  35.841  0.00  0.00     0.091 H 
ATOM     24  H24 RAM d   1      -5.119  19.881  32.883  0.00  0.00     0.091 H 
BRANCH  15  25
ATOM     25  N2  MAG d   1      -7.276  18.661  32.069  0.00  0.00    -0.349 N 
ATOM     26  C7  MAG d   1      -8.492  19.123  31.765  0.00  0.00     0.214 C 
ATOM     27  O7  MAG d   1      -9.283  19.551  32.602  0.00  0.00    -0.274 OA
ATOM     28  H35 RAM d   1      -6.688  18.320  31.335  0.00  0.00     0.163 HD
BRANCH  26  29
ATOM     29  C8  MAG d   1      -8.854  19.084  30.290  0.00  0.00    -0.003 C 
ATOM     30  H29 RAM d   1      -9.869  19.484  30.151  0.00  0.00     0.040 H 
ATOM     31  H30 RAM d   1      -8.817  18.045  29.931  0.00  0.00     0.040 H 
ATOM     32  H31 RAM d   1      -8.138  19.695  29.720  0.00  0.00     0.040 H 
ENDBRANCH  26  29
ENDBRANCH  15  25
BRANCH  16  33
ATOM     33  O1  MAG d   1      -6.782  16.204  33.469  0.00  0.00    -0.364 OA
BRANCH  33  34
ATOM     34  CM  MAG d   1      -6.073  14.977  33.626  0.00  0.00     0.007 C 
ATOM     35  H32 RAM d   1      -6.755  14.133  33.442  0.00  0.00     0.066 H 
ATOM     36  H33 RAM d   1      -5.676  14.911  34.650  0.00  0.00     0.066 H 
ATOM     37  H34 RAM d   1      -5.241  14.940  32.907  0.00  0.00     0.066 H 
ENDBRANCH  33  34
ENDBRANCH  16  33
BRANCH  20  38
ATOM     38  C6  MAG d   1      -3.794  18.319  36.552  0.00  0.00     0.043 C 
ATOM     39  H27 RAM d   1      -3.059  19.129  36.671  0.00  0.00     0.078 H 
ATOM     40  H28 RAM d   1      -3.281  17.348  36.608  0.00  0.00     0.078 H 
BRANCH  38  41
ATOM     41  O6  MAG d   1      -4.751  18.401  37.593  0.00  0.00    -0.398 OA
ATOM     42  H37 RAM d   1      -5.194  19.240  37.549  0.00  0.00     0.209 HD
ENDBRANCH  38  41
ENDBRANCH  20  38
BRANCH  21  43
ATOM     43  O4  MAG d   1      -4.195  20.830  35.095  0.00  0.00    -0.390 OA
ATOM     44  H36 RAM d   1      -3.754  20.798  35.936  0.00  0.00     0.210 HD
ENDBRANCH  21  43
ENDBRANCH  13  14
ENDBRANCH   7  13
BRANCH   9  45
ATOM     45  O3  RAE d   1      -8.678  24.816  32.798  0.00  0.00    -0.350 OA
BRANCH  45  46
ATOM     46  C1  RAM d   1      -9.923  24.793  33.539  0.00  0.00     0.159 C 
ATOM     47  C2  RAM d   1     -10.821  25.940  33.046  0.00  0.00     0.110 C 
ATOM     48  C3  RAM d   1     -11.265  25.657  31.606  0.00  0.00     0.092 C 
ATOM     49  H2  RAM d   1     -10.240  26.874  33.061  0.00  0.00     0.094 H 
ATOM     50  C4  RAM d   1     -11.958  24.291  31.512  0.00  0.00     0.087 C 
ATOM     51  H4  RAM d   1     -10.379  25.650  30.954  0.00  0.00     0.091 H 
ATOM     52  C5  RAM d   1     -11.037  23.197  32.061  0.00  0.00     0.065 C 
ATOM     53  H6  RAM d   1     -12.878  24.317  32.114  0.00  0.00     0.091 H 
ATOM     54  O5  RAM d   1     -10.627  23.528  33.410  0.00  0.00    -0.351 OA
ATOM     55  H8  RAM d   1     -10.144  23.127  31.423  0.00  0.00     0.086 H 
ATOM     56  H1  RAM d   1      -9.695  24.952  34.603  0.00  0.00     0.133 H 
BRANCH  47  57
ATOM     57  O2  RAM d   1     -11.954  26.101  33.890  0.00  0.00    -0.388 OA
ATOM     58  H3  RAM d   1     -12.491  26.814  33.565  0.00  0.00     0.210 HD
ENDBRANCH  47  57
BRANCH  48  59
ATOM     59  O3  RAM d   1     -12.146  26.679  31.177  0.00  0.00    -0.390 OA
ATOM     60  H5  RAM d   1     -11.699  27.517  31.213  0.00  0.00     0.210 HD
ENDBRANCH  48  59
BRANCH  50  61
ATOM     61  O4  RAM d   1     -12.300  24.005  30.162  0.00  0.00    -0.390 OA
ATOM     62  H7  RAM d   1     -12.728  23.158  30.117  0.00  0.00     0.210 HD
ENDBRANCH  50  61
BRANCH  52  63
ATOM     63  C6  RAM d   1     -11.762  21.853  32.048  0.00  0.00    -0.050 C 
ATOM     64  H9  RAM d   1     -11.095  21.073  32.443  0.00  0.00     0.031 H 
ATOM     65  H10 RAM d   1     -12.050  21.601  31.017  0.00  0.00     0.031 H 
ATOM     66  H11 RAM d   1     -12.664  21.917  32.675  0.00  0.00     0.031 H 
ENDBRANCH  52  63
ENDBRANCH  45  46
ENDBRANCH   9  45
BRANCH  11  67
ATOM     67  C6  RAE d   1      -3.919  24.304  34.040  0.00  0.00    -0.050 C 
ATOM     68  H19 RAM d   1      -3.149  23.559  34.291  0.00  0.00     0.031 H 
ATOM     69  H20 RAM d   1      -4.023  25.018  34.871  0.00  0.00     0.031 H 
ATOM     70  H21 RAM d   1      -3.624  24.843  33.128  0.00  0.00     0.031 H 
ENDBRANCH  11  67
BRANCH  10  71
ATOM     71  O4  RAE d   1      -6.466  25.561  34.483  0.00  0.00    -0.390 OA
ATOM     72  H17 RAM d   1      -7.126  26.199  34.237  0.00  0.00     0.210 HD
ENDBRANCH  10  71
TORSDOF 17
