REMARK  28 active torsions:
REMARK  status: ('A' for Active; 'I' for Inactive)
REMARK    1  A    between atoms: O2_13  and  C1_1 
REMARK    2  A    between atoms: C2_2  and  O2_3 
REMARK    3  A    between atoms: C3_4  and  O3_5 
REMARK    4  A    between atoms: C4_6  and  O4_7 
REMARK    5  A    between atoms: C5_8  and  C6_10 
REMARK    6  A    between atoms: O3_25  and  C1_11 
REMARK    7  A    between atoms: C2_12  and  O2_13 
REMARK    8  A    between atoms: C3_14  and  O3_15 
REMARK    9  A    between atoms: C4_16  and  O4_17 
REMARK   10  A    between atoms: C5_18  and  C6_20 
REMARK   11  A    between atoms: O3_40  and  C1_21 
REMARK   12  A    between atoms: C2_22  and  O2_23 
REMARK   13  A    between atoms: C3_24  and  O3_25 
REMARK   14  A    between atoms: C4_26  and  O4_27 
REMARK   15  A    between atoms: C5_28  and  C6_30 
REMARK   16  A    between atoms: O2_48  and  C1_31 
REMARK   17  A    between atoms: C2_32  and  N2_39 
REMARK   18  A    between atoms: C3_33  and  O3_40 
REMARK   19  A    between atoms: C4_34  and  O4_41 
REMARK   20  A    between atoms: C5_35  and  C6_36 
REMARK   21  A    between atoms: C6_36  and  O6_43 
REMARK   22  A    between atoms: C7_37  and  C8_38 
REMARK       I    between atoms: N2_39  and  C7_37 
REMARK   23  A    between atoms: C1_45  and  O1_46 
REMARK   24  A    between atoms: O1_46  and  C7_47 
REMARK   25  A    between atoms: O2_48  and  C2_49 
REMARK   26  A    between atoms: C3_50  and  O3_51 
REMARK   27  A    between atoms: C4_52  and  O4_53 
REMARK   28  A    between atoms: C5_54  and  C6_56 
ROOT
ATOM      1  C1  RAM d   1      -5.399  21.056  33.930  0.00  0.00     0.159 C 
ATOM      2  C2  RAM d   1      -6.627  21.732  33.317  0.00  0.00     0.110 C 
ATOM      3  C3  RAM d   1      -7.050  22.931  34.159  0.00  0.00     0.098 C 
ATOM      4  C4  RAM d   1      -5.866  23.878  34.416  0.00  0.00     0.088 C 
ATOM      5  C5  RAM d   1      -4.656  23.122  34.962  0.00  0.00     0.065 C 
ATOM      6  O5  RAM d   1      -4.337  22.022  34.090  0.00  0.00    -0.351 OA
ATOM      7  H22 RAM d   1      -5.046  20.291  33.223  0.00  0.00     0.133 H 
ATOM      8  H23 RAM d   1      -7.453  21.006  33.299  0.00  0.00     0.094 H 
ATOM      9  H25 RAM d   1      -7.421  22.564  35.127  0.00  0.00     0.091 H 
ATOM     10  H26 RAM d   1      -5.583  24.351  33.464  0.00  0.00     0.091 H 
ATOM     11  H28 RAM d   1      -4.892  22.734  35.964  0.00  0.00     0.086 H 
ENDROOT
BRANCH   1  12
ATOM     12  O3  NAG d   1      -5.740  20.379  35.159  0.00  0.00    -0.348 OA
BRANCH  12  13
ATOM     13  C3  NAG d   1      -5.462  18.964  35.130  0.00  0.00     0.093 C 
ATOM     14  C2  NAG d   1      -6.685  18.164  34.634  0.00  0.00     0.087 C 
ATOM     15  C1  NAG d   1      -6.378  16.664  34.713  0.00  0.00     0.154 C 
ATOM     16  H33 RAM d   1      -7.551  18.396  35.272  0.00  0.00     0.084 H 
ATOM     17  O5  NAG d   1      -6.007  16.310  36.050  0.00  0.00    -0.349 OA
ATOM     18  H32 RAM d   1      -5.529  16.445  34.048  0.00  0.00     0.132 H 
ATOM     19  C5  NAG d   1      -4.815  16.958  36.530  0.00  0.00     0.089 C 
ATOM     20  C4  NAG d   1      -5.002  18.486  36.519  0.00  0.00     0.089 C 
ATOM     21  H36 RAM d   1      -3.982  16.710  35.855  0.00  0.00     0.090 H 
ATOM     22  H35 RAM d   1      -5.772  18.751  37.258  0.00  0.00     0.091 H 
ATOM     23  H34 RAM d   1      -4.638  18.793  34.421  0.00  0.00     0.091 H 
BRANCH  14  24
ATOM     24  N2  NAG d   1      -6.999  18.508  33.256  0.00  0.00    -0.349 N 
ATOM     25  C7  NAG d   1      -8.153  19.101  32.947  0.00  0.00     0.214 C 
ATOM     26  O7  NAG d   1      -8.991  19.406  33.792  0.00  0.00    -0.274 OA
ATOM     27  H42 RAM d   1      -6.342  18.297  32.532  0.00  0.00     0.163 HD
BRANCH  25  28
ATOM     28  C8  NAG d   1      -8.382  19.405  31.480  0.00  0.00    -0.003 C 
ATOM     29  H39 RAM d   1      -9.361  19.890  31.355  0.00  0.00     0.040 H 
ATOM     30  H40 RAM d   1      -8.360  18.468  30.904  0.00  0.00     0.040 H 
ATOM     31  H41 RAM d   1      -7.591  20.077  31.117  0.00  0.00     0.040 H 
ENDBRANCH  25  28
ENDBRANCH  14  24
BRANCH  15  32
ATOM     32  O2  RAO d   1      -7.511  15.900  34.266  0.00  0.00    -0.346 OA
BRANCH  32  33
ATOM     33  C2  RAO d   1      -7.190  14.656  33.605  0.00  0.00     0.116 C 
ATOM     34  C1  RAO d   1      -6.261  13.755  34.446  0.00  0.00     0.158 C 
ATOM     35  O5  RAO d   1      -6.952  13.282  35.620  0.00  0.00    -0.351 OA
ATOM     36  H45 RAM d   1      -5.405  14.360  34.779  0.00  0.00     0.133 H 
ATOM     37  C5  RAO d   1      -8.116  12.475  35.326  0.00  0.00     0.065 C 
ATOM     38  C4  RAO d   1      -9.135  13.300  34.509  0.00  0.00     0.087 C 
ATOM     39  H54 RAM d   1      -7.800  11.622  34.708  0.00  0.00     0.086 H 
ATOM     40  C3  RAO d   1      -8.480  13.911  33.255  0.00  0.00     0.092 C 
ATOM     41  H52 RAM d   1      -9.504  14.120  35.143  0.00  0.00     0.091 H 
ATOM     42  H50 RAM d   1      -8.240  13.100  32.552  0.00  0.00     0.091 H 
ATOM     43  H49 RAM d   1      -6.665  14.897  32.669  0.00  0.00     0.095 H 
BRANCH  34  44
ATOM     44  O1  RAO d   1      -5.752  12.674  33.641  0.00  0.00    -0.363 OA
BRANCH  44  45
ATOM     45  C7  RAO d   1      -5.121  11.637  34.391  0.00  0.00     0.007 C 
ATOM     46  H46 RAM d   1      -4.762  10.855  33.706  0.00  0.00     0.066 H 
ATOM     47  H47 RAM d   1      -5.844  11.203  35.097  0.00  0.00     0.066 H 
ATOM     48  H48 RAM d   1      -4.270  12.054  34.949  0.00  0.00     0.066 H 
ENDBRANCH  44  45
ENDBRANCH  34  44
BRANCH  37  49
ATOM     49  C6  RAO d   1      -8.708  11.921  36.620  0.00  0.00    -0.050 C 
ATOM     50  H55 RAM d   1      -7.940  11.345  37.157  0.00  0.00     0.031 H 
ATOM     51  H56 RAM d   1      -9.559  11.265  36.383  0.00  0.00     0.031 H 
ATOM     52  H57 RAM d   1      -9.051  12.753  37.252  0.00  0.00     0.031 H 
ENDBRANCH  37  49
BRANCH  38  53
ATOM     53  O4  RAO d   1     -10.239  12.486  34.133  0.00  0.00    -0.390 OA
ATOM     54  H53 RAM d   1     -10.879  13.015  33.672  0.00  0.00     0.210 HD
ENDBRANCH  38  53
BRANCH  40  55
ATOM     55  O3  RAO d   1      -9.391  14.810  32.636  0.00  0.00    -0.390 OA
ATOM     56  H51 RAM d   1      -9.587  15.522  33.234  0.00  0.00     0.210 HD
ENDBRANCH  40  55
ENDBRANCH  32  33
ENDBRANCH  15  32
BRANCH  19  57
ATOM     57  C6  NAG d   1      -4.479  16.425  37.922  0.00  0.00     0.043 C 
ATOM     58  H37 RAM d   1      -5.163  16.872  38.658  0.00  0.00     0.078 H 
ATOM     59  H38 RAM d   1      -3.443  16.694  38.175  0.00  0.00     0.078 H 
BRANCH  57  60
ATOM     60  O6  NAG d   1      -4.618  15.010  37.948  0.00  0.00    -0.398 OA
ATOM     61  H44 RAM d   1      -5.513  14.777  37.731  0.00  0.00     0.209 HD
ENDBRANCH  57  60
ENDBRANCH  19  57
BRANCH  20  62
ATOM     62  O4  NAG d   1      -3.789  19.134  36.870  0.00  0.00    -0.390 OA
ATOM     63  H43 RAM d   1      -3.919  20.075  36.859  0.00  0.00     0.210 HD
ENDBRANCH  20  62
ENDBRANCH  12  13
ENDBRANCH   1  12
BRANCH   2  64
ATOM     64  O2  RAM d   1      -6.357  22.144  31.987  0.00  0.00    -0.388 OA
ATOM     65  H24 RAM d   1      -5.634  22.760  31.988  0.00  0.00     0.210 HD
ENDBRANCH   2  64
BRANCH   3  66
ATOM     66  O3  RAM d   1      -8.112  23.651  33.496  0.00  0.00    -0.348 OA
BRANCH  66  67
ATOM     67  C1  RAM d   1      -9.325  23.743  34.276  0.00  0.00     0.159 C 
ATOM     68  C2  RAM d   1     -10.151  24.967  33.876  0.00  0.00     0.116 C 
ATOM     69  C3  RAM d   1     -10.741  24.769  32.469  0.00  0.00     0.092 C 
ATOM     70  H13 RAM d   1      -9.527  25.872  33.897  0.00  0.00     0.095 H 
ATOM     71  C4  RAM d   1     -11.529  23.453  32.384  0.00  0.00     0.087 C 
ATOM     72  H14 RAM d   1      -9.910  24.722  31.750  0.00  0.00     0.091 H 
ATOM     73  C5  RAM d   1     -10.678  22.270  32.876  0.00  0.00     0.065 C 
ATOM     74  H16 RAM d   1     -12.413  23.536  33.033  0.00  0.00     0.091 H 
ATOM     75  O5  RAM d   1     -10.158  22.559  34.196  0.00  0.00    -0.351 OA
ATOM     76  H18 RAM d   1      -9.838  22.120  32.182  0.00  0.00     0.086 H 
ATOM     77  H12 RAM d   1      -9.025  23.865  35.327  0.00  0.00     0.133 H 
BRANCH  68  78
ATOM     78  O2  RAM d   1     -11.226  25.075  34.821  0.00  0.00    -0.346 OA
BRANCH  78  79
ATOM     79  C1  RAM d   1     -11.696  26.401  35.097  0.00  0.00     0.159 C 
ATOM     80  C2  RAM d   1     -12.911  26.281  36.023  0.00  0.00     0.110 C 
ATOM     81  C3  RAM d   1     -12.468  25.722  37.396  0.00  0.00     0.092 C 
ATOM     82  H2  RAM d   1     -13.625  25.576  35.572  0.00  0.00     0.094 H 
ATOM     83  C4  RAM d   1     -11.309  26.560  37.984  0.00  0.00     0.087 C 
ATOM     84  H4  RAM d   1     -12.102  24.696  37.243  0.00  0.00     0.091 H 
ATOM     85  C5  RAM d   1     -10.164  26.708  36.971  0.00  0.00     0.065 C 
ATOM     86  H6  RAM d   1     -11.695  27.562  38.222  0.00  0.00     0.091 H 
ATOM     87  O5  RAM d   1     -10.678  27.230  35.716  0.00  0.00    -0.351 OA
ATOM     88  H8  RAM d   1      -9.710  25.723  36.791  0.00  0.00     0.086 H 
ATOM     89  H1  RAM d   1     -12.003  26.874  34.152  0.00  0.00     0.133 H 
BRANCH  80  90
ATOM     90  O2  RAM d   1     -13.559  27.536  36.175  0.00  0.00    -0.388 OA
ATOM     91  H3  RAM d   1     -14.307  27.437  36.752  0.00  0.00     0.210 HD
ENDBRANCH  80  90
BRANCH  81  92
ATOM     92  O3  RAM d   1     -13.564  25.666  38.299  0.00  0.00    -0.390 OA
ATOM     93  H5  RAM d   1     -13.268  25.320  39.133  0.00  0.00     0.210 HD
ENDBRANCH  81  92
BRANCH  83  94
ATOM     94  O4  RAM d   1     -10.819  25.969  39.181  0.00  0.00    -0.390 OA
ATOM     95  H7  RAM d   1     -11.520  25.923  39.820  0.00  0.00     0.210 HD
ENDBRANCH  83  94
BRANCH  85  96
ATOM     96  C6  RAM d   1      -9.107  27.651  37.542  0.00  0.00    -0.050 C 
ATOM     97  H9  RAM d   1      -8.284  27.760  36.820  0.00  0.00     0.031 H 
ATOM     98  H10 RAM d   1      -8.716  27.237  38.483  0.00  0.00     0.031 H 
ATOM     99  H11 RAM d   1      -9.559  28.635  37.734  0.00  0.00     0.031 H 
ENDBRANCH  85  96
ENDBRANCH  78  79
ENDBRANCH  68  78
BRANCH  69 100
ATOM    100  O3  RAM d   1     -11.577  25.861  32.118  0.00  0.00    -0.390 OA
ATOM    101  H15 RAM d   1     -11.069  26.664  32.129  0.00  0.00     0.210 HD
ENDBRANCH  69 100
BRANCH  71 102
ATOM    102  O4  RAM d   1     -11.970  23.229  31.051  0.00  0.00    -0.390 OA
ATOM    103  H17 RAM d   1     -11.217  23.179  30.474  0.00  0.00     0.210 HD
ENDBRANCH  71 102
BRANCH  73 104
ATOM    104  C6  RAM d   1     -11.518  20.992  32.927  0.00  0.00    -0.050 C 
ATOM    105  H19 RAM d   1     -10.895  20.157  33.280  0.00  0.00     0.031 H 
ATOM    106  H20 RAM d   1     -11.900  20.764  31.921  0.00  0.00     0.031 H 
ATOM    107  H21 RAM d   1     -12.363  21.136  33.616  0.00  0.00     0.031 H 
ENDBRANCH  73 104
ENDBRANCH  66  67
ENDBRANCH   3  66
BRANCH   5 108
ATOM    108  C6  RAM d   1      -3.463  24.065  35.056  0.00  0.00    -0.050 C 
ATOM    109  H29 RAM d   1      -2.593  23.518  35.449  0.00  0.00     0.031 H 
ATOM    110  H30 RAM d   1      -3.707  24.899  35.730  0.00  0.00     0.031 H 
ATOM    111  H31 RAM d   1      -3.227  24.459  34.056  0.00  0.00     0.031 H 
ENDBRANCH   5 108
BRANCH   4 112
ATOM    112  O4  RAM d   1      -6.250  24.885  35.331  0.00  0.00    -0.390 OA
ATOM    113  H27 RAM d   1      -6.976  25.379  34.970  0.00  0.00     0.210 HD
ENDBRANCH   4 112
TORSDOF 28
