REMARK  10 active torsions:
REMARK  status: ('A' for Active; 'I' for Inactive)
REMARK    1  A    between atoms: O3B_8  and  PG_1 
REMARK    2  A    between atoms: PB_5  and  O3B_8 
REMARK    3  A    between atoms: O3A_12  and  PB_5 
REMARK    4  A    between atoms: PA_9  and  O3A_12 
REMARK    5  A    between atoms: PA_9  and  O5_13 
REMARK    6  A    between atoms: O5_13  and  C5_14 
REMARK    7  A    between atoms: C5_14  and  C4_15 
REMARK    8  A    between atoms: C3_17  and  O3_18 
REMARK    9  A    between atoms: C2_19  and  O2_20 
REMARK   10  A    between atoms: C1_21  and  N9_22 
ROOT
ATOM      1  C4  ATP d   1      56.122  23.946  36.705  0.00  0.00     0.089 C 
ATOM      2  O4  ATP d   1      55.762  24.755  35.566  0.00  0.00    -0.353 OA
ATOM      3  C3  ATP d   1      56.194  24.946  37.882  0.00  0.00     0.091 C 
ATOM      4  C2  ATP d   1      55.269  26.021  37.325  0.00  0.00     0.105 C 
ATOM      5  C1  ATP d   1      55.705  26.109  35.853  0.00  0.00     0.139 C 
ATOM      6  H3  ATP d   1      57.147  23.580  36.547  0.00  0.00     0.090 H 
ATOM      7  H4  ATP d   1      55.805  24.521  38.819  0.00  0.00     0.091 H 
ATOM      8  H6  ATP d   1      54.242  25.628  37.367  0.00  0.00     0.093 H 
ATOM      9  H8  ATP d   1      56.656  26.645  35.720  0.00  0.00     0.122 H 
ENDROOT
BRANCH   1  10
ATOM     10  C5  ATP d   1      55.305  22.730  36.824  0.00  0.00     0.058 C 
ATOM     11  H1  ATP d   1      55.227  22.243  35.841  0.00  0.00     0.079 H 
ATOM     12  H2  ATP d   1      55.777  22.040  37.538  0.00  0.00     0.079 H 
BRANCH  10  13
ATOM     13  O5  ATP d   1      53.957  23.088  37.304  0.00  0.00    -0.287 OA
BRANCH  13  14
ATOM     14  PA  ATP d   1      52.668  22.236  37.062  0.00  0.00     0.417 P 
ATOM     15  O1A ATP d   1      51.638  22.711  38.008  0.00  0.00    -0.624 OA
ATOM     16  O2A ATP d   1      53.018  20.819  37.090  0.00  0.00    -0.624 OA
BRANCH  14  17
ATOM     17  O3A ATP d   1      52.123  22.648  35.588  0.00  0.00    -0.180 OA
BRANCH  17  18
ATOM     18  PB  ATP d   1      50.666  23.044  35.013  0.00  0.00     0.428 P 
ATOM     19  O1B ATP d   1      50.243  24.338  35.596  0.00  0.00    -0.624 OA
ATOM     20  O2B ATP d   1      50.753  23.219  33.554  0.00  0.00    -0.624 OA
BRANCH  18  21
ATOM     21  O3B ATP d   1      49.753  21.792  35.301  0.00  0.00    -0.173 OA
BRANCH  21  22
ATOM     22  PG  ATP d   1      48.244  21.596  35.800  0.00  0.00     0.431 P 
ATOM     23  O1G ATP d   1      48.105  22.186  37.157  0.00  0.00    -0.616 OA
ATOM     24  O2G ATP d   1      47.931  20.159  35.895  0.00  0.00    -0.616 OA
ATOM     25  O3G ATP d   1      47.356  22.291  34.825  0.00  0.00    -0.616 OA
ENDBRANCH  21  22
ENDBRANCH  18  21
ENDBRANCH  17  18
ENDBRANCH  14  17
ENDBRANCH  13  14
ENDBRANCH  10  13
ENDBRANCH   1  10
BRANCH   3  26
ATOM     26  O3  ATP d   1      57.538  25.386  38.082  0.00  0.00    -0.390 OA
ATOM     27  H5  ATP d   1      58.089  24.637  38.278  0.00  0.00     0.210 HD
ENDBRANCH   3  26
BRANCH   5  28
ATOM     28  N9  ATP d   1      54.612  26.666  34.942  0.00  0.00    -0.294 N 
ATOM     29  C8  ATP d   1      53.309  26.195  34.831  0.00  0.00     0.071 A 
ATOM     30  N7  ATP d   1      52.569  26.899  33.925  0.00  0.00    -0.236 NA
ATOM     31  H9  ATP d   1      52.920  25.355  35.405  0.00  0.00     0.144 H 
ATOM     32  C5  ATP d   1      53.449  27.839  33.447  0.00  0.00     0.149 A 
ATOM     33  C6  ATP d   1      53.262  28.883  32.453  0.00  0.00     0.155 A 
ATOM     34  C4  ATP d   1      54.716  27.708  34.074  0.00  0.00     0.167 A 
ATOM     35  N6  ATP d   1      52.130  29.104  31.792  0.00  0.00    -0.382 N 
ATOM     36  N1  ATP d   1      54.376  29.686  32.198  0.00  0.00    -0.222 NA
ATOM     37  H10 ATP d   1      52.077  29.866  31.101  0.00  0.00     0.157 HD
ATOM     38  H11 ATP d   1      51.306  28.513  31.971  0.00  0.00     0.157 HD
ATOM     39  C2  ATP d   1      55.624  29.528  32.841  0.00  0.00     0.091 A 
ATOM     40  N3  ATP d   1      55.785  28.531  33.792  0.00  0.00    -0.222 NA
ATOM     41  H12 ATP d   1      56.452  30.183  32.593  0.00  0.00     0.146 H 
ENDBRANCH   5  28
BRANCH   4  42
ATOM     42  O2  ATP d   1      55.219  27.278  37.958  0.00  0.00    -0.388 OA
ATOM     43  H7  ATP d   1      54.603  27.837  37.500  0.00  0.00     0.210 HD
ENDBRANCH   4  42
TORSDOF 10
