REMARK  9 active torsions:
REMARK  status: ('A' for Active; 'I' for Inactive)
REMARK    1  A    between atoms: C1_1  and  O1_7 
REMARK    2  A    between atoms: C2_2  and  O2_8 
REMARK    3  A    between atoms: C3_3  and  O3_9 
REMARK    4  A    between atoms: C4_4  and  O4_10 
REMARK    5  A    between atoms: C5_5  and  O5_11 
REMARK    6  A    between atoms: C6_6  and  O6_12 
REMARK    7  A    between atoms: O1_7  and  P1_13 
REMARK    8  A    between atoms: O4_10  and  P4_17 
REMARK    9  A    between atoms: O5_11  and  P5_21 
ROOT
ATOM      1  C1  I3P d   1      33.728  18.040   3.967  0.00  0.00     0.106 C 
ATOM      2  C2  I3P d   1      34.238  18.504   5.338  0.00  0.00     0.090 C 
ATOM      3  C3  I3P d   1      33.200  18.234   6.408  0.00  0.00     0.091 C 
ATOM      4  C4  I3P d   1      32.880  16.741   6.442  0.00  0.00     0.106 C 
ATOM      5  C5  I3P d   1      32.371  16.278   5.067  0.00  0.00     0.106 C 
ATOM      6  C6  I3P d   1      33.417  16.547   3.994  0.00  0.00     0.091 C 
ATOM      7  H1  I3P d   1      32.813  18.608   3.743  0.00  0.00     0.092 H 
ATOM      8  H2  I3P d   1      34.428  19.587   5.293  0.00  0.00     0.091 H 
ATOM      9  H3  I3P d   1      32.284  18.800   6.184  0.00  0.00     0.091 H 
ATOM     10  H4  I3P d   1      33.806  16.188   6.659  0.00  0.00     0.092 H 
ATOM     11  H5  I3P d   1      31.431  16.795   4.823  0.00  0.00     0.092 H 
ATOM     12  H6  I3P d   1      34.334  15.993   4.245  0.00  0.00     0.091 H 
ENDROOT
BRANCH   1  13
ATOM     13  O1  I3P d   1      34.677  18.202   2.840  0.00  0.00    -0.272 OA
BRANCH  13  14
ATOM     14  P1  I3P d   1      35.011  19.612   2.190  0.00  0.00     0.422 P 
ATOM     15  O13 I3P d   1      33.795  19.825   1.415  0.00  0.00    -0.617 OA
ATOM     16  O12 I3P d   1      35.108  20.522   3.363  0.00  0.00    -0.617 OA
ATOM     17  O11 I3P d   1      36.281  19.427   1.443  0.00  0.00    -0.617 OA
ENDBRANCH  13  14
ENDBRANCH   1  13
BRANCH   6  18
ATOM     18  O6  I3P d   1      32.965  16.120   2.715  0.00  0.00    -0.390 OA
ATOM     19  H9  I3P d   1      32.788  15.187   2.738  0.00  0.00     0.210 HD
ENDBRANCH   6  18
BRANCH   2  20
ATOM     20  O2  I3P d   1      35.447  17.842   5.674  0.00  0.00    -0.390 OA
ATOM     21  H7  I3P d   1      35.745  18.142   6.524  0.00  0.00     0.210 HD
ENDBRANCH   2  20
BRANCH   5  22
ATOM     22  O5  I3P d   1      32.170  14.832   5.098  0.00  0.00    -0.272 OA
BRANCH  22  23
ATOM     23  P5  I3P d   1      30.940  14.040   4.445  0.00  0.00     0.422 P 
ATOM     24  O53 I3P d   1      31.187  14.276   3.018  0.00  0.00    -0.617 OA
ATOM     25  O52 I3P d   1      29.750  14.735   5.020  0.00  0.00    -0.617 OA
ATOM     26  O51 I3P d   1      31.221  12.666   4.928  0.00  0.00    -0.617 OA
ENDBRANCH  22  23
ENDBRANCH   5  22
BRANCH   3  27
ATOM     27  O3  I3P d   1      33.712  18.641   7.659  0.00  0.00    -0.390 OA
ATOM     28  H8  I3P d   1      33.065  18.474   8.334  0.00  0.00     0.210 HD
ENDBRANCH   3  27
BRANCH   4  29
ATOM     29  O4  I3P d   1      31.921  16.482   7.552  0.00  0.00    -0.272 OA
BRANCH  29  30
ATOM     30  P4  I3P d   1      32.260  15.794   8.967  0.00  0.00     0.422 P 
ATOM     31  O43 I3P d   1      31.004  15.333   9.614  0.00  0.00    -0.617 OA
ATOM     32  O42 I3P d   1      32.915  16.882   9.705  0.00  0.00    -0.617 OA
ATOM     33  O41 I3P d   1      33.200  14.745   8.487  0.00  0.00    -0.617 OA
ENDBRANCH  29  30
ENDBRANCH   4  29
TORSDOF 9
