REMARK  14 active torsions:
REMARK  status: ('A' for Active; 'I' for Inactive)
REMARK    1  A    between atoms: C3_2  and  C30_14 
REMARK    2  A    between atoms: C4_3  and  O4_39 
REMARK    3  A    between atoms: C5_4  and  O5_40 
REMARK    4  A    between atoms: C6_5  and  C60_21 
REMARK    5  A    between atoms: N2_36  and  C20_6 
REMARK    6  A    between atoms: C20_6  and  C21_7 
REMARK    7  A    between atoms: C24_10  and  C27_13 
REMARK    8  A    between atoms: C27_13  and  O27_41 
REMARK    9  A    between atoms: C30_14  and  C31_15 
REMARK   10  A    between atoms: C60_21  and  C61_22 
REMARK   11  A    between atoms: N7_37  and  C70_28 
REMARK   12  A    between atoms: C70_28  and  C71_29 
REMARK   13  A    between atoms: C74_32  and  C77_35 
REMARK   14  A    between atoms: C77_35  and  O77_42 
ROOT
ATOM      1  C1  DMP d   1      -8.869  15.378  27.964  0.00  0.00     0.322 C 
ATOM      2  C3  DMP d   1      -8.815  17.672  26.960  0.00  0.00     0.047 C 
ATOM      3  C4  DMP d   1     -10.199  18.248  27.179  0.00  0.00     0.082 C 
ATOM      4  C5  DMP d   1     -10.669  18.006  28.598  0.00  0.00     0.082 C 
ATOM      5  C6  DMP d   1     -10.909  16.541  28.885  0.00  0.00     0.047 C 
ATOM      6  N2  DMP d   1      -8.658  16.207  26.925  0.00  0.00    -0.322 N 
ATOM      7  N7  DMP d   1      -9.736  15.638  28.963  0.00  0.00    -0.322 N 
ATOM      8  O1  DMP d   1      -8.248  14.324  27.998  0.00  0.00    -0.247 OA
ATOM      9  H1  DMP d   1      -8.571  17.994  25.937  0.00  0.00     0.077 H 
ATOM     10  H2  DMP d   1     -10.916  17.788  26.483  0.00  0.00     0.090 H 
ATOM     11  H3  DMP d   1      -9.905  18.391  29.289  0.00  0.00     0.090 H 
ATOM     12  H4  DMP d   1     -11.314  16.549  29.908  0.00  0.00     0.077 H 
ENDROOT
BRANCH   6  13
ATOM     13  C20 DMP d   1      -8.011  15.606  25.770  0.00  0.00     0.024 C 
ATOM     14  H5  DMP d   1      -8.167  14.519  25.831  0.00  0.00     0.071 H 
ATOM     15  H6  DMP d   1      -6.936  15.827  25.840  0.00  0.00     0.071 H 
BRANCH  13  16
ATOM     16  C21 DMP d   1      -8.474  16.051  24.425  0.00  0.00    -0.040 A 
ATOM     17  C26 DMP d   1      -7.476  16.178  23.446  0.00  0.00    -0.075 A 
ATOM     18  C25 DMP d   1      -7.848  16.523  22.138  0.00  0.00    -0.074 A 
ATOM     19  H10 DMP d   1      -6.434  16.012  23.697  0.00  0.00     0.084 H 
ATOM     20  C24 DMP d   1      -9.205  16.757  21.817  0.00  0.00    -0.035 A 
ATOM     21  H9  DMP d   1      -7.090  16.611  21.368  0.00  0.00     0.084 H 
ATOM     22  C23 DMP d   1     -10.205  16.636  22.813  0.00  0.00    -0.074 A 
ATOM     23  C22 DMP d   1      -9.836  16.282  24.130  0.00  0.00    -0.075 A 
ATOM     24  H8  DMP d   1     -11.245  16.814  22.567  0.00  0.00     0.084 H 
ATOM     25  H7  DMP d   1     -10.589  16.189  24.904  0.00  0.00     0.084 H 
BRANCH  20  26
ATOM     26  C27 DMP d   1      -9.586  17.104  20.397  0.00  0.00     0.040 C 
ATOM     27  H11 DMP d   1     -10.626  17.461  20.383  0.00  0.00     0.081 H 
ATOM     28  H12 DMP d   1      -9.499  16.203  19.773  0.00  0.00     0.081 H 
BRANCH  26  29
ATOM     29  O27 DMP d   1      -8.734  18.127  19.862  0.00  0.00    -0.396 OA
ATOM     30  H37 DMP d   1      -8.998  18.323  18.971  0.00  0.00     0.209 HD
ENDBRANCH  26  29
ENDBRANCH  20  26
ENDBRANCH  13  16
ENDBRANCH   6  13
BRANCH   2  31
ATOM     31  C30 DMP d   1      -7.704  18.279  27.841  0.00  0.00    -0.019 C 
ATOM     32  H13 DMP d   1      -7.709  17.773  28.818  0.00  0.00     0.043 H 
ATOM     33  H14 DMP d   1      -7.908  19.351  27.982  0.00  0.00     0.043 H 
BRANCH  31  34
ATOM     34  C31 DMP d   1      -6.332  18.120  27.213  0.00  0.00    -0.056 A 
ATOM     35  C36 DMP d   1      -6.063  18.717  25.954  0.00  0.00    -0.077 A 
ATOM     36  C35 DMP d   1      -4.812  18.529  25.342  0.00  0.00    -0.082 A 
ATOM     37  H19 DMP d   1      -6.822  19.317  25.465  0.00  0.00     0.084 H 
ATOM     38  C34 DMP d   1      -3.833  17.755  25.994  0.00  0.00    -0.083 A 
ATOM     39  H18 DMP d   1      -4.603  18.976  24.377  0.00  0.00     0.083 H 
ATOM     40  C33 DMP d   1      -4.094  17.168  27.250  0.00  0.00    -0.082 A 
ATOM     41  H17 DMP d   1      -2.867  17.608  25.525  0.00  0.00     0.083 H 
ATOM     42  C32 DMP d   1      -5.346  17.347  27.863  0.00  0.00    -0.077 A 
ATOM     43  H16 DMP d   1      -3.329  16.579  27.742  0.00  0.00     0.083 H 
ATOM     44  H15 DMP d   1      -5.553  16.895  28.826  0.00  0.00     0.084 H 
ENDBRANCH  31  34
ENDBRANCH   2  31
BRANCH   7  45
ATOM     45  C70 DMP d   1      -9.629  14.753  30.114  0.00  0.00     0.024 C 
ATOM     46  H27 DMP d   1      -8.656  14.245  30.048  0.00  0.00     0.071 H 
ATOM     47  H28 DMP d   1     -10.437  14.011  30.033  0.00  0.00     0.071 H 
BRANCH  45  48
ATOM     48  C71 DMP d   1      -9.720  15.363  31.470  0.00  0.00    -0.040 A 
ATOM     49  C76 DMP d   1      -9.143  16.612  31.798  0.00  0.00    -0.075 A 
ATOM     50  C75 DMP d   1      -9.197  17.061  33.131  0.00  0.00    -0.074 A 
ATOM     51  H32 DMP d   1      -8.666  17.215  31.034  0.00  0.00     0.084 H 
ATOM     52  C74 DMP d   1      -9.839  16.267  34.111  0.00  0.00    -0.035 A 
ATOM     53  H31 DMP d   1      -8.749  18.009  33.405  0.00  0.00     0.084 H 
ATOM     54  C73 DMP d   1     -10.417  15.025  33.755  0.00  0.00    -0.074 A 
ATOM     55  C72 DMP d   1     -10.366  14.576  32.435  0.00  0.00    -0.075 A 
ATOM     56  H30 DMP d   1     -10.902  14.419  34.512  0.00  0.00     0.084 H 
ATOM     57  H29 DMP d   1     -10.820  13.631  32.159  0.00  0.00     0.084 H 
BRANCH  52  58
ATOM     58  C77 DMP d   1      -9.890  16.729  35.545  0.00  0.00     0.040 C 
ATOM     59  H33 DMP d   1      -9.650  17.802  35.587  0.00  0.00     0.081 H 
ATOM     60  H34 DMP d   1      -9.151  16.165  36.132  0.00  0.00     0.081 H 
BRANCH  58  61
ATOM     61  O77 DMP d   1     -11.195  16.517  36.103  0.00  0.00    -0.396 OA
ATOM     62  H38 DMP d   1     -11.205  16.814  37.005  0.00  0.00     0.209 HD
ENDBRANCH  58  61
ENDBRANCH  52  58
ENDBRANCH  45  48
ENDBRANCH   7  45
BRANCH   3  63
ATOM     63  O4  DMP d   1     -10.073  19.626  26.903  0.00  0.00    -0.391 OA
ATOM     64  H35 DMP d   1     -10.915  20.050  27.023  0.00  0.00     0.210 HD
ENDBRANCH   3  63
BRANCH   5  65
ATOM     65  C60 DMP d   1     -12.011  15.876  28.025  0.00  0.00    -0.019 C 
ATOM     66  H20 DMP d   1     -11.583  15.614  27.046  0.00  0.00     0.043 H 
ATOM     67  H21 DMP d   1     -12.831  16.596  27.886  0.00  0.00     0.043 H 
BRANCH  65  68
ATOM     68  C61 DMP d   1     -12.570  14.622  28.660  0.00  0.00    -0.056 A 
ATOM     69  C66 DMP d   1     -13.409  14.733  29.798  0.00  0.00    -0.077 A 
ATOM     70  C65 DMP d   1     -13.876  13.560  30.425  0.00  0.00    -0.082 A 
ATOM     71  H26 DMP d   1     -13.688  15.708  30.181  0.00  0.00     0.084 H 
ATOM     72  C64 DMP d   1     -13.511  12.290  29.917  0.00  0.00    -0.083 A 
ATOM     73  H25 DMP d   1     -14.515  13.630  31.297  0.00  0.00     0.083 H 
ATOM     74  C63 DMP d   1     -12.684  12.184  28.778  0.00  0.00    -0.082 A 
ATOM     75  H24 DMP d   1     -13.870  11.392  30.407  0.00  0.00     0.083 H 
ATOM     76  C62 DMP d   1     -12.208  13.354  28.147  0.00  0.00    -0.077 A 
ATOM     77  H23 DMP d   1     -12.415  11.208  28.389  0.00  0.00     0.083 H 
ATOM     78  H22 DMP d   1     -11.569  13.281  27.274  0.00  0.00     0.084 H 
ENDBRANCH  65  68
ENDBRANCH   5  65
BRANCH   4  79
ATOM     79  O5  DMP d   1     -11.889  18.659  28.831  0.00  0.00    -0.391 OA
ATOM     80  H36 DMP d   1     -11.777  19.593  28.698  0.00  0.00     0.210 HD
ENDBRANCH   4  79
TORSDOF 14
