REMARK  14 active torsions:
REMARK  status: ('A' for Active; 'I' for Inactive)
REMARK    1  A    between atoms: C3_2  and  C30_14 
REMARK    2  A    between atoms: C4_3  and  O4_39 
REMARK    3  A    between atoms: C5_4  and  O5_40 
REMARK    4  A    between atoms: C6_5  and  C60_21 
REMARK    5  A    between atoms: N2_36  and  C20_6 
REMARK    6  A    between atoms: C20_6  and  C21_7 
REMARK    7  A    between atoms: C24_10  and  C27_13 
REMARK    8  A    between atoms: C27_13  and  O27_41 
REMARK    9  A    between atoms: C30_14  and  C31_15 
REMARK   10  A    between atoms: C60_21  and  C61_22 
REMARK   11  A    between atoms: N7_37  and  C70_28 
REMARK   12  A    between atoms: C70_28  and  C71_29 
REMARK   13  A    between atoms: C74_32  and  C77_35 
REMARK   14  A    between atoms: C77_35  and  O77_42 
ROOT
ATOM      1  C1  DMP d   1      -8.777  15.301  27.889  0.00  0.00     0.322 C 
ATOM      2  C3  DMP d   1      -8.710  17.600  26.924  0.00  0.00     0.047 C 
ATOM      3  C4  DMP d   1     -10.087  18.186  27.182  0.00  0.00     0.082 C 
ATOM      4  C5  DMP d   1     -10.493  17.964  28.620  0.00  0.00     0.082 C 
ATOM      5  C6  DMP d   1     -10.788  16.495  28.841  0.00  0.00     0.047 C 
ATOM      6  N2  DMP d   1      -8.594  16.130  26.843  0.00  0.00    -0.322 N 
ATOM      7  N7  DMP d   1      -9.638  15.553  28.893  0.00  0.00    -0.322 N 
ATOM      8  O1  DMP d   1      -8.127  14.267  27.932  0.00  0.00    -0.247 OA
ATOM      9  H1  DMP d   1      -8.462  17.956  25.913  0.00  0.00     0.077 H 
ATOM     10  H2  DMP d   1     -10.831  17.710  26.526  0.00  0.00     0.090 H 
ATOM     11  H3  DMP d   1      -9.696  18.317  29.291  0.00  0.00     0.090 H 
ATOM     12  H4  DMP d   1     -11.207  16.468  29.858  0.00  0.00     0.077 H 
ENDROOT
BRANCH   6  13
ATOM     13  C20 DMP d   1      -8.025  15.516  25.646  0.00  0.00     0.024 C 
ATOM     14  H5  DMP d   1      -8.190  14.432  25.728  0.00  0.00     0.071 H 
ATOM     15  H6  DMP d   1      -6.945  15.724  25.657  0.00  0.00     0.071 H 
BRANCH  13  16
ATOM     16  C21 DMP d   1      -8.545  15.943  24.302  0.00  0.00    -0.040 A 
ATOM     17  C26 DMP d   1      -7.564  16.285  23.360  0.00  0.00    -0.075 A 
ATOM     18  C25 DMP d   1      -7.944  16.621  22.057  0.00  0.00    -0.074 A 
ATOM     19  H10 DMP d   1      -6.517  16.289  23.640  0.00  0.00     0.084 H 
ATOM     20  C24 DMP d   1      -9.304  16.636  21.683  0.00  0.00    -0.035 A 
ATOM     21  H9  DMP d   1      -7.184  16.873  21.326  0.00  0.00     0.084 H 
ATOM     22  C23 DMP d   1     -10.304  16.294  22.635  0.00  0.00    -0.074 A 
ATOM     23  C22 DMP d   1      -9.921  15.949  23.957  0.00  0.00    -0.075 A 
ATOM     24  H8  DMP d   1     -11.351  16.297  22.353  0.00  0.00     0.084 H 
ATOM     25  H7  DMP d   1     -10.672  15.693  24.695  0.00  0.00     0.084 H 
BRANCH  20  26
ATOM     26  C27 DMP d   1      -9.680  17.014  20.263  0.00  0.00     0.040 C 
ATOM     27  H11 DMP d   1     -10.711  17.397  20.256  0.00  0.00     0.081 H 
ATOM     28  H12 DMP d   1      -9.617  16.119  19.627  0.00  0.00     0.081 H 
BRANCH  26  29
ATOM     29  O27 DMP d   1      -8.804  18.023  19.736  0.00  0.00    -0.396 OA
ATOM     30  H37 DMP d   1      -9.066  18.236  18.848  0.00  0.00     0.209 HD
ENDBRANCH  26  29
ENDBRANCH  20  26
ENDBRANCH  13  16
ENDBRANCH   6  13
BRANCH   2  31
ATOM     31  C30 DMP d   1      -7.590  18.146  27.835  0.00  0.00    -0.019 C 
ATOM     32  H13 DMP d   1      -7.609  17.596  28.787  0.00  0.00     0.043 H 
ATOM     33  H14 DMP d   1      -7.777  19.213  28.024  0.00  0.00     0.043 H 
BRANCH  31  34
ATOM     34  C31 DMP d   1      -6.219  17.996  27.215  0.00  0.00    -0.056 A 
ATOM     35  C36 DMP d   1      -5.892  18.756  26.061  0.00  0.00    -0.077 A 
ATOM     36  C35 DMP d   1      -4.644  18.567  25.440  0.00  0.00    -0.082 A 
ATOM     37  H19 DMP d   1      -6.598  19.476  25.662  0.00  0.00     0.084 H 
ATOM     38  C34 DMP d   1      -3.729  17.633  25.984  0.00  0.00    -0.083 A 
ATOM     39  H18 DMP d   1      -4.385  19.132  24.552  0.00  0.00     0.083 H 
ATOM     40  C33 DMP d   1      -4.053  16.894  27.141  0.00  0.00    -0.082 A 
ATOM     41  H17 DMP d   1      -2.768  17.484  25.505  0.00  0.00     0.083 H 
ATOM     42  C32 DMP d   1      -5.303  17.073  27.759  0.00  0.00    -0.077 A 
ATOM     43  H16 DMP d   1      -3.340  16.189  27.553  0.00  0.00     0.083 H 
ATOM     44  H15 DMP d   1      -5.560  16.506  28.646  0.00  0.00     0.084 H 
ENDBRANCH  31  34
ENDBRANCH   2  31
BRANCH   7  45
ATOM     45  C70 DMP d   1      -9.476  14.679  30.041  0.00  0.00     0.024 C 
ATOM     46  H27 DMP d   1      -8.489  14.200  29.958  0.00  0.00     0.071 H 
ATOM     47  H28 DMP d   1     -10.262  13.912  29.988  0.00  0.00     0.071 H 
BRANCH  45  48
ATOM     48  C71 DMP d   1      -9.556  15.315  31.388  0.00  0.00    -0.040 A 
ATOM     49  C76 DMP d   1      -8.871  16.510  31.725  0.00  0.00    -0.075 A 
ATOM     50  C75 DMP d   1      -8.969  17.013  33.041  0.00  0.00    -0.074 A 
ATOM     51  H32 DMP d   1      -8.279  17.031  30.981  0.00  0.00     0.084 H 
ATOM     52  C74 DMP d   1      -9.755  16.300  33.991  0.00  0.00    -0.035 A 
ATOM     53  H31 DMP d   1      -8.455  17.925  33.323  0.00  0.00     0.084 H 
ATOM     54  C73 DMP d   1     -10.431  15.113  33.623  0.00  0.00    -0.074 A 
ATOM     55  C72 DMP d   1     -10.336  14.618  32.323  0.00  0.00    -0.075 A 
ATOM     56  H30 DMP d   1     -11.027  14.584  34.358  0.00  0.00     0.084 H 
ATOM     57  H29 DMP d   1     -10.856  13.710  32.039  0.00  0.00     0.084 H 
BRANCH  52  58
ATOM     58  C77 DMP d   1      -9.855  16.791  35.414  0.00  0.00     0.040 C 
ATOM     59  H33 DMP d   1      -9.670  17.875  35.433  0.00  0.00     0.081 H 
ATOM     60  H34 DMP d   1      -9.096  16.279  36.024  0.00  0.00     0.081 H 
BRANCH  58  61
ATOM     61  O77 DMP d   1     -11.157  16.528  35.967  0.00  0.00    -0.396 OA
ATOM     62  H38 DMP d   1     -11.190  16.847  36.861  0.00  0.00     0.209 HD
ENDBRANCH  58  61
ENDBRANCH  52  58
ENDBRANCH  45  48
ENDBRANCH   7  45
BRANCH   3  63
ATOM     63  O4  DMP d   1      -9.977  19.549  26.867  0.00  0.00    -0.391 OA
ATOM     64  H35 DMP d   1     -10.814  19.974  27.009  0.00  0.00     0.210 HD
ENDBRANCH   3  63
BRANCH   5  65
ATOM     65  C60 DMP d   1     -11.906  15.921  27.933  0.00  0.00    -0.019 C 
ATOM     66  H20 DMP d   1     -11.506  15.728  26.927  0.00  0.00     0.043 H 
ATOM     67  H21 DMP d   1     -12.737  16.639  27.866  0.00  0.00     0.043 H 
BRANCH  65  68
ATOM     68  C61 DMP d   1     -12.389  14.645  28.537  0.00  0.00    -0.056 A 
ATOM     69  C66 DMP d   1     -12.119  13.429  27.884  0.00  0.00    -0.077 A 
ATOM     70  C65 DMP d   1     -12.397  12.217  28.547  0.00  0.00    -0.082 A 
ATOM     71  H26 DMP d   1     -11.702  13.424  26.883  0.00  0.00     0.084 H 
ATOM     72  C64 DMP d   1     -12.940  12.234  29.853  0.00  0.00    -0.083 A 
ATOM     73  H25 DMP d   1     -12.195  11.272  28.056  0.00  0.00     0.083 H 
ATOM     74  C63 DMP d   1     -13.229  13.458  30.505  0.00  0.00    -0.082 A 
ATOM     75  H24 DMP d   1     -13.138  11.297  30.362  0.00  0.00     0.083 H 
ATOM     76  C62 DMP d   1     -12.963  14.672  29.838  0.00  0.00    -0.077 A 
ATOM     77  H23 DMP d   1     -13.649  13.462  31.504  0.00  0.00     0.083 H 
ATOM     78  H22 DMP d   1     -13.194  15.618  30.313  0.00  0.00     0.084 H 
ENDBRANCH  65  68
ENDBRANCH   5  65
BRANCH   4  79
ATOM     79  O5  DMP d   1     -11.698  18.588  28.911  0.00  0.00    -0.391 OA
ATOM     80  H36 DMP d   1     -11.613  19.523  28.763  0.00  0.00     0.210 HD
ENDBRANCH   4  79
TORSDOF 14
