REMARK  17 active torsions:
REMARK  status: ('A' for Active; 'I' for Inactive)
REMARK    1  A    between atoms: O2_20  and  C1_1 
REMARK    2  A    between atoms: C2_2  and  O2_7 
REMARK    3  A    between atoms: C3_3  and  O3_8 
REMARK    4  A    between atoms: C4_4  and  O4_9 
REMARK    5  A    between atoms: C5_5  and  C6_6 
REMARK    6  A    between atoms: C6_6  and  O6_11 
REMARK    7  A    between atoms: C1_12  and  O1_19 
REMARK    8  A    between atoms: C2_13  and  O2_20 
REMARK    9  A    between atoms: O3_21  and  C3_14 
REMARK   10  A    between atoms: C4_15  and  O4_22 
REMARK   11  A    between atoms: C5_16  and  C6_17 
REMARK   12  A    between atoms: C6_17  and  O6_24 
REMARK   13  A    between atoms: O1_19  and  C7_18 
REMARK   14  A    between atoms: O3_21  and  C1_25 
REMARK   15  A    between atoms: C2_26  and  O2_31 
REMARK   16  A    between atoms: C4_28  and  O4_32 
REMARK   17  A    between atoms: C5_29  and  C6_30 
ROOT
ATOM      1  H12 GLA d   1       9.403 -11.384  63.857  0.00  0.00     0.133 H 
ATOM      2  H13 GLA d   1      10.499  -9.667  62.373  0.00  0.00     0.095 H 
ATOM      3  H14 GLA d   1      11.971 -11.044  61.026  0.00  0.00     0.091 H 
ATOM      4  H15 GLA d   1      13.484 -11.728  63.598  0.00  0.00     0.091 H 
ATOM      5  H16 GLA d   1      11.677 -13.499  61.887  0.00  0.00     0.090 H 
ATOM      6  C1  MMA d   1      10.194 -11.642  63.138  0.00  0.00     0.158 C 
ATOM      7  C2  MMA d   1      11.077 -10.446  62.891  0.00  0.00     0.116 C 
ATOM      8  C3  MMA d   1      12.294 -10.807  62.050  0.00  0.00     0.098 C 
ATOM      9  C4  MMA d   1      13.042 -12.017  62.633  0.00  0.00     0.090 C 
ATOM     10  C5  MMA d   1      12.061 -13.180  62.867  0.00  0.00     0.089 C 
ATOM     11  O5  MMA d   1      10.985 -12.709  63.670  0.00  0.00    -0.349 OA
ENDROOT
BRANCH   7  12
ATOM     12  O2  MMA d   1      11.517  -9.966  64.146  0.00  0.00    -0.346 OA
BRANCH  12  13
ATOM     13  C1  GLA d   1      10.706  -8.905  64.676  0.00  0.00     0.159 C 
ATOM     14  O5  GLA d   1       9.496  -9.446  65.223  0.00  0.00    -0.348 OA
ATOM     15  C5  GLA d   1       9.671 -10.203  66.440  0.00  0.00     0.089 C 
ATOM     16  C4  GLA d   1      10.294  -9.245  67.484  0.00  0.00     0.090 C 
ATOM     17  H5  GLA d   1      10.369 -11.033  66.257  0.00  0.00     0.090 H 
ATOM     18  C3  GLA d   1      11.675  -8.803  67.006  0.00  0.00     0.092 C 
ATOM     19  H4  GLA d   1      10.379  -9.764  68.450  0.00  0.00     0.091 H 
ATOM     20  C2  GLA d   1      11.550  -8.139  65.661  0.00  0.00     0.110 C 
ATOM     21  H3  GLA d   1      12.334  -9.681  66.936  0.00  0.00     0.091 H 
ATOM     22  H2  GLA d   1      11.123  -7.133  65.788  0.00  0.00     0.094 H 
ATOM     23  H1  GLA d   1      10.428  -8.222  63.860  0.00  0.00     0.133 H 
BRANCH  15  24
ATOM     24  C6  GLA d   1       8.320 -10.798  66.899  0.00  0.00     0.043 C 
ATOM     25  H6  GLA d   1       7.527 -10.051  66.750  0.00  0.00     0.078 H 
ATOM     26  H7  GLA d   1       8.383 -11.058  67.966  0.00  0.00     0.078 H 
BRANCH  24  27
ATOM     27  O6  GLA d   1       8.007 -11.968  66.150  0.00  0.00    -0.398 OA
ATOM     28  H11 GLA d   1       7.175 -12.319  66.446  0.00  0.00     0.209 HD
ENDBRANCH  24  27
ENDBRANCH  15  24
BRANCH  16  29
ATOM     29  O4  GLA d   1       9.494  -8.075  67.635  0.00  0.00    -0.390 OA
ATOM     30  H10 GLA d   1       9.896  -7.498  68.273  0.00  0.00     0.210 HD
ENDBRANCH  16  29
BRANCH  18  31
ATOM     31  O3  GLA d   1      12.240  -7.849  67.882  0.00  0.00    -0.390 OA
ATOM     32  H9  GLA d   1      13.092  -7.586  67.555  0.00  0.00     0.210 HD
ENDBRANCH  18  31
BRANCH  20  33
ATOM     33  O2  GLA d   1      12.848  -8.060  65.163  0.00  0.00    -0.388 OA
ATOM     34  H8  GLA d   1      13.196  -8.937  65.049  0.00  0.00     0.210 HD
ENDBRANCH  20  33
ENDBRANCH  12  13
ENDBRANCH   7  12
BRANCH   6  35
ATOM     35  O1  MMA d   1       9.611 -12.002  61.899  0.00  0.00    -0.363 OA
BRANCH  35  36
ATOM     36  C7  MMA d   1       8.488 -12.895  61.917  0.00  0.00     0.007 C 
ATOM     37  H19 GLA d   1       8.149 -13.079  60.887  0.00  0.00     0.066 H 
ATOM     38  H20 GLA d   1       7.670 -12.444  62.497  0.00  0.00     0.066 H 
ATOM     39  H21 GLA d   1       8.784 -13.848  62.381  0.00  0.00     0.066 H 
ENDBRANCH  35  36
ENDBRANCH   6  35
BRANCH   8  40
ATOM     40  O3  MMA d   1      13.177  -9.668  62.031  0.00  0.00    -0.348 OA
BRANCH  40  41
ATOM     41  C1  ABE d   1      13.727  -9.324  60.732  0.00  0.00     0.157 C 
ATOM     42  O5  ABE d   1      12.736  -8.770  59.890  0.00  0.00    -0.351 OA
ATOM     43  C5  ABE d   1      12.217  -7.492  60.277  0.00  0.00     0.063 C 
ATOM     44  C4  ABE d   1      13.388  -6.513  60.376  0.00  0.00     0.062 C 
ATOM     45  H29 GLA d   1      11.721  -7.570  61.256  0.00  0.00     0.086 H 
ATOM     46  C3  ABE d   1      14.386  -7.023  61.420  0.00  0.00    -0.010 C 
ATOM     47  H28 GLA d   1      13.010  -5.529  60.691  0.00  0.00     0.086 H 
ATOM     48  C2  ABE d   1      14.894  -8.388  60.961  0.00  0.00     0.085 C 
ATOM     49  H26 GLA d   1      15.228  -6.321  61.505  0.00  0.00     0.041 H 
ATOM     50  H27 GLA d   1      13.888  -7.119  62.396  0.00  0.00     0.041 H 
ATOM     51  H25 GLA d   1      15.465  -8.267  60.029  0.00  0.00     0.090 H 
ATOM     52  H24 GLA d   1      14.103 -10.239  60.252  0.00  0.00     0.133 H 
BRANCH  43  53
ATOM     53  C6  ABE d   1      11.194  -7.030  59.224  0.00  0.00    -0.050 C 
ATOM     54  H30 GLA d   1      10.366  -7.752  59.176  0.00  0.00     0.031 H 
ATOM     55  H31 GLA d   1      11.683  -6.967  58.241  0.00  0.00     0.031 H 
ATOM     56  H32 GLA d   1      10.802  -6.041  59.503  0.00  0.00     0.031 H 
ENDBRANCH  43  53
BRANCH  44  57
ATOM     57  O4  ABE d   1      14.026  -6.378  59.100  0.00  0.00    -0.393 OA
ATOM     58  H34 GLA d   1      14.360  -7.223  58.823  0.00  0.00     0.210 HD
ENDBRANCH  44  57
BRANCH  48  59
ATOM     59  O2  ABE d   1      15.716  -8.973  61.951  0.00  0.00    -0.391 OA
ATOM     60  H33 GLA d   1      15.216  -9.084  62.751  0.00  0.00     0.210 HD
ENDBRANCH  48  59
ENDBRANCH  40  41
ENDBRANCH   8  40
BRANCH   9  61
ATOM     61  O4  MMA d   1      14.083 -12.422  61.760  0.00  0.00    -0.390 OA
ATOM     62  H22 GLA d   1      13.713 -12.662  60.918  0.00  0.00     0.210 HD
ENDBRANCH   9  61
BRANCH  10  63
ATOM     63  C6  MMA d   1      12.643 -14.411  63.574  0.00  0.00     0.043 C 
ATOM     64  H17 GLA d   1      13.444 -14.844  62.956  0.00  0.00     0.078 H 
ATOM     65  H18 GLA d   1      11.849 -15.158  63.722  0.00  0.00     0.078 H 
BRANCH  63  66
ATOM     66  O6  MMA d   1      13.176 -14.025  64.843  0.00  0.00    -0.398 OA
ATOM     67  H23 GLA d   1      12.484 -13.651  65.376  0.00  0.00     0.209 HD
ENDBRANCH  63  66
ENDBRANCH  10  63
TORSDOF 17
