REMARK  3 active torsions:
REMARK  status: ('A' for Active; 'I' for Inactive)
REMARK    1  A    between atoms: C7_2  and  C1_1 
REMARK    2  A    between atoms: C8_3  and  C9_4 
REMARK    3  A    between atoms: C4_9  and  O1_10 
ROOT
ATOM      1  C1  FHC d   1      -5.779  12.831  -3.460  0.00  0.00    -0.033 A 
ATOM      2  C6  FHC d   1      -4.647  12.665  -2.653  0.00  0.00    -0.070 A 
ATOM      3  C5  FHC d   1      -4.220  13.721  -1.808  0.00  0.00    -0.050 A 
ATOM      4  C4  FHC d   1      -4.975  14.933  -1.773  0.00  0.00     0.065 A 
ATOM      5  C3  FHC d   1      -6.059  15.118  -2.604  0.00  0.00    -0.050 A 
ATOM      6  C2  FHC d   1      -6.458  14.067  -3.423  0.00  0.00    -0.070 A 
ATOM      7  H2  FHC d   1      -4.098  11.731  -2.674  0.00  0.00     0.084 H 
ATOM      8  H3  FHC d   1      -3.332  13.610  -1.196  0.00  0.00     0.087 H 
ATOM      9  H5  FHC d   1      -6.590  16.063  -2.619  0.00  0.00     0.087 H 
ATOM     10  H6  FHC d   1      -7.326  14.203  -4.058  0.00  0.00     0.084 H 
ENDROOT
BRANCH   1  11
ATOM     11  C7  FHC d   1      -6.327  11.768  -4.315  0.00  0.00    -0.029 C 
ATOM     12  C8  FHC d   1      -5.802  10.579  -4.641  0.00  0.00     0.193 C 
ATOM     13  F1  FHC d   1      -6.583   9.724  -5.424  0.00  0.00    -0.199 F 
ATOM     14  H1  FHC d   1      -7.304  11.978  -4.747  0.00  0.00     0.089 H 
BRANCH  12  15
ATOM     15  C9  FHC d   1      -4.433  10.146  -4.321  0.00  0.00     0.239 C 
ATOM     16  O2  FHC d   1      -3.489  10.971  -4.426  0.00  0.00    -0.642 OA
ATOM     17  O3  FHC d   1      -4.330   8.899  -4.056  0.00  0.00    -0.642 OA
ENDBRANCH  12  15
ENDBRANCH   1  11
BRANCH   4  18
ATOM     18  O1  FHC d   1      -4.613  15.973  -0.951  0.00  0.00    -0.361 OA
ATOM     19  H4  FHC d   1      -5.337  16.185  -0.373  0.00  0.00     0.217 HD
ENDBRANCH   4  18
TORSDOF 3
