REMARK  14 active torsions:
REMARK  status: ('A' for Active; 'I' for Inactive)
REMARK    1  A    between atoms: CP1_1  and  C1_7 
REMARK    2  A    between atoms: C1_7  and  C2_8 
REMARK    3  A    between atoms: C2_8  and  N1_9 
REMARK       I    between atoms: N1_9  and  C3_10 
REMARK    4  A    between atoms: C3_10  and  C4_12 
REMARK    5  A    between atoms: C4_12  and  O2_13 
REMARK    6  A    between atoms: O2_13  and  P_14 
REMARK    7  A    between atoms: P_14  and  C5_17 
REMARK    8  A    between atoms: C5_17  and  C6_18 
REMARK    9  A    between atoms: C5_17  and  N2_25 
REMARK   10  A    between atoms: C6_18  and  CR1_19 
REMARK       I    between atoms: N2_25  and  C7_26 
REMARK   11  A    between atoms: C7_26  and  C8_28 
REMARK   12  A    between atoms: C8_28  and  C9_29 
REMARK   13  A    between atoms: C9_29  and  C10_30 
REMARK   14  A    between atoms: C10_30  and  C11_31 
ROOT
ATOM      1  C5  HAL d   1      29.539 -46.964  41.852  0.00  0.00     0.116 C 
ATOM      2  H13 HAL d   1      28.633 -47.585  41.789  0.00  0.00     0.093 H 
ENDROOT
BRANCH   1   3
ATOM      3  P   HAL d   1      29.205 -45.658  41.347  0.00  0.00     0.273 P 
ATOM      4  O3  HAL d   1      30.476 -44.885  41.281  0.00  0.00    -0.645 OA
ATOM      5  O4  HAL d   1      28.422 -45.871  40.107  0.00  0.00    -0.645 OA
BRANCH   3   6
ATOM      6  O2  HAL d   1      28.230 -45.006  42.423  0.00  0.00    -0.301 OA
BRANCH   6   7
ATOM      7  C4  HAL d   1      27.083 -44.276  42.004  0.00  0.00     0.103 C 
ATOM      8  H11 HAL d   1      26.879 -44.503  40.947  0.00  0.00     0.089 H 
ATOM      9  H12 HAL d   1      26.221 -44.578  42.617  0.00  0.00     0.089 H 
BRANCH   7  10
ATOM     10  C3  HAL d   1      27.303 -42.766  42.159  0.00  0.00     0.241 C 
ATOM     11  N1  HAL d   1      28.525 -42.277  41.973  0.00  0.00    -0.359 N 
ATOM     12  H10 HAL d   1      29.269 -42.909  41.757  0.00  0.00     0.162 HD
ATOM     13  O1  HAL d   1      26.350 -42.036  42.418  0.00  0.00    -0.271 OA
BRANCH  11  14
ATOM     14  C2  HAL d   1      28.820 -40.849  42.073  0.00  0.00    -0.001 C 
ATOM     15  H8  HAL d   1      28.462 -40.365  41.152  0.00  0.00     0.064 H 
ATOM     16  H9  HAL d   1      28.267 -40.450  42.936  0.00  0.00     0.064 H 
BRANCH  14  17
ATOM     17  C1  HAL d   1      30.268 -40.492  42.248  0.00  0.00    -0.026 C 
ATOM     18  H6  HAL d   1      30.619 -40.913  43.202  0.00  0.00     0.042 H 
ATOM     19  H7  HAL d   1      30.840 -40.935  41.419  0.00  0.00     0.042 H 
BRANCH  17  20
ATOM     20  CP1 HAL d   1      30.516 -39.001  42.260  0.00  0.00    -0.057 A 
ATOM     21  CP2 HAL d   1      30.751 -38.308  41.070  0.00  0.00    -0.077 A 
ATOM     22  CP3 HAL d   1      30.883 -36.918  41.061  0.00  0.00    -0.082 A 
ATOM     23  H1  HAL d   1      30.832 -38.858  40.139  0.00  0.00     0.084 H 
ATOM     24  CP4 HAL d   1      30.783 -36.205  42.247  0.00  0.00    -0.083 A 
ATOM     25  H2  HAL d   1      31.064 -36.396  40.128  0.00  0.00     0.083 H 
ATOM     26  CP5 HAL d   1      30.557 -36.881  43.442  0.00  0.00    -0.082 A 
ATOM     27  H3  HAL d   1      30.881 -35.125  42.243  0.00  0.00     0.083 H 
ATOM     28  CP6 HAL d   1      30.426 -38.278  43.443  0.00  0.00    -0.077 A 
ATOM     29  H4  HAL d   1      30.482 -36.329  44.372  0.00  0.00     0.083 H 
ATOM     30  H5  HAL d   1      30.253 -38.799  44.377  0.00  0.00     0.084 H 
ENDBRANCH  17  20
ENDBRANCH  14  17
ENDBRANCH  11  14
ENDBRANCH   7  10
ENDBRANCH   6   7
ENDBRANCH   3   6
ENDBRANCH   1   3
BRANCH   1  31
ATOM     31  C6  HAL d   1      30.637 -47.629  41.032  0.00  0.00    -0.011 C 
ATOM     32  H14 HAL d   1      31.531 -46.989  41.064  0.00  0.00     0.044 H 
ATOM     33  H15 HAL d   1      30.288 -47.720  39.993  0.00  0.00     0.044 H 
BRANCH  31  34
ATOM     34  CR1 HAL d   1      31.015 -48.997  41.528  0.00  0.00    -0.056 A 
ATOM     35  CR2 HAL d   1      30.302 -50.122  41.120  0.00  0.00    -0.077 A 
ATOM     36  CR3 HAL d   1      30.653 -51.389  41.580  0.00  0.00    -0.082 A 
ATOM     37  H16 HAL d   1      29.466 -50.010  40.438  0.00  0.00     0.084 H 
ATOM     38  CR4 HAL d   1      31.722 -51.539  42.460  0.00  0.00    -0.083 A 
ATOM     39  H17 HAL d   1      30.094 -52.258  41.253  0.00  0.00     0.083 H 
ATOM     40  CR5 HAL d   1      32.435 -50.422  42.874  0.00  0.00    -0.082 A 
ATOM     41  H18 HAL d   1      31.996 -52.524  42.820  0.00  0.00     0.083 H 
ATOM     42  CR6 HAL d   1      32.079 -49.163  42.410  0.00  0.00    -0.077 A 
ATOM     43  H19 HAL d   1      33.268 -50.533  43.558  0.00  0.00     0.083 H 
ATOM     44  H20 HAL d   1      32.639 -48.295  42.740  0.00  0.00     0.084 H 
ENDBRANCH  31  34
ENDBRANCH   1  31
BRANCH   1  45
ATOM     45  N2  HAL d   1      29.975 -46.929  43.239  0.00  0.00    -0.344 N 
ATOM     46  C7  HAL d   1      29.410 -47.686  44.174  0.00  0.00     0.218 C 
ATOM     47  O5  HAL d   1      28.473 -48.448  43.942  0.00  0.00    -0.274 OA
ATOM     48  H21 HAL d   1      30.723 -46.317  43.497  0.00  0.00     0.163 HD
BRANCH  46  49
ATOM     49  C8  HAL d   1      29.962 -47.560  45.574  0.00  0.00     0.010 C 
ATOM     50  H22 HAL d   1      29.148 -47.256  46.249  0.00  0.00     0.047 H 
ATOM     51  H23 HAL d   1      30.747 -46.790  45.577  0.00  0.00     0.047 H 
BRANCH  49  52
ATOM     52  C9  HAL d   1      30.550 -48.853  46.075  0.00  0.00    -0.048 C 
ATOM     53  H24 HAL d   1      31.002 -48.685  47.064  0.00  0.00     0.034 H 
ATOM     54  H25 HAL d   1      31.323 -49.195  45.371  0.00  0.00     0.034 H 
BRANCH  52  55
ATOM     55  C10 HAL d   1      29.482 -49.914  46.192  0.00  0.00     0.016 C 
ATOM     56  H26 HAL d   1      28.895 -49.927  45.262  0.00  0.00     0.049 H 
ATOM     57  H27 HAL d   1      28.824 -49.660  47.036  0.00  0.00     0.049 H 
BRANCH  55  58
ATOM     58  C11 HAL d   1      30.056 -51.296  46.423  0.00  0.00     0.172 C 
ATOM     59  O6  HAL d   1      30.817 -51.777  45.551  0.00  0.00    -0.648 OA
ATOM     60  O7  HAL d   1      29.746 -51.898  47.474  0.00  0.00    -0.648 OA
ENDBRANCH  55  58
ENDBRANCH  52  55
ENDBRANCH  49  52
ENDBRANCH  46  49
ENDBRANCH   1  45
TORSDOF 14
