REMARK  9 active torsions:
REMARK  status: ('A' for Active; 'I' for Inactive)
REMARK    1  A    between atoms: C1_1  and  C2_5 
REMARK       I    between atoms: C1_1  and  N1_3 
REMARK    2  A    between atoms: N1_3  and  O1_4 
REMARK    3  A    between atoms: C2_5  and  C3_6 
REMARK    4  A    between atoms: C3_6  and  C13_21 
REMARK    5  A    between atoms: C3_6  and  C4_7 
REMARK       I    between atoms: C4_7  and  N2_9 
REMARK    6  A    between atoms: N2_9  and  C5_10 
REMARK    7  A    between atoms: C13_21  and  C14_22 
REMARK    8  A    between atoms: C14_22  and  C16_24 
REMARK    9  A    between atoms: C14_22  and  C15_23 
ROOT
ATOM      1  C5  RRS d   1      49.279 -37.197  46.610  0.00  0.00     0.093 C 
ATOM      2  C6  RRS d   1      49.463 -35.689  46.551  0.00  0.00     0.240 C 
ATOM      3  O4  RRS d   1      48.507 -34.934  46.734  0.00  0.00    -0.271 OA
ATOM      4  N3  RRS d   1      50.662 -35.242  46.213  0.00  0.00    -0.359 N 
ATOM      5  C7  RRS d   1      50.974 -33.806  46.061  0.00  0.00    -0.005 C 
ATOM      6  C8  RRS d   1      52.187 -33.675  45.110  0.00  0.00    -0.050 C 
ATOM      7  C9  RRS d   1      51.967 -34.303  43.717  0.00  0.00    -0.064 C 
ATOM      8  C10 RRS d   1      51.042 -33.500  42.777  0.00  0.00    -0.064 C 
ATOM      9  C11 RRS d   1      50.808 -34.163  41.397  0.00  0.00    -0.050 C 
ATOM     10  C12 RRS d   1      49.555 -35.060  41.230  0.00  0.00    -0.000 C 
ATOM     11  N4  RRS d   1      49.511 -36.172  42.195  0.00  0.00    -0.356 N 
ATOM     12  C17 RRS d   1      48.436 -37.741  45.408  0.00  0.00    -0.012 C 
ATOM     13  C18 RRS d   1      49.024 -37.363  44.098  0.00  0.00    -0.028 A 
ATOM     14  C19 RRS d   1      48.760 -36.195  43.341  0.00  0.00    -0.013 A 
ATOM     15  C20 RRS d   1      49.989 -38.074  43.356  0.00  0.00    -0.002 A 
ATOM     16  C21 RRS d   1      50.268 -37.307  42.178  0.00  0.00     0.045 A 
ATOM     17  C22 RRS d   1      50.639 -39.293  43.589  0.00  0.00    -0.070 A 
ATOM     18  C23 RRS d   1      51.197 -37.784  41.251  0.00  0.00    -0.056 A 
ATOM     19  C24 RRS d   1      51.569 -39.759  42.652  0.00  0.00    -0.082 A 
ATOM     20  C25 RRS d   1      51.840 -39.008  41.495  0.00  0.00    -0.081 A 
ATOM     21  H7  RRS d   1      50.287 -37.635  46.557  0.00  0.00     0.088 H 
ATOM     22  H8  RRS d   1      51.391 -35.908  46.053  0.00  0.00     0.162 HD
ATOM     23  H9  RRS d   1      51.221 -33.372  47.041  0.00  0.00     0.064 H 
ATOM     24  H10 RRS d   1      50.108 -33.279  45.635  0.00  0.00     0.064 H 
ATOM     25  H11 RRS d   1      53.049 -34.170  45.580  0.00  0.00     0.035 H 
ATOM     26  H12 RRS d   1      52.407 -32.606  44.976  0.00  0.00     0.035 H 
ATOM     27  H13 RRS d   1      51.526 -35.301  43.858  0.00  0.00     0.033 H 
ATOM     28  H14 RRS d   1      52.948 -34.401  43.228  0.00  0.00     0.033 H 
ATOM     29  H15 RRS d   1      51.493 -32.510  42.612  0.00  0.00     0.033 H 
ATOM     30  H16 RRS d   1      50.067 -33.381  43.272  0.00  0.00     0.033 H 
ATOM     31  H17 RRS d   1      51.688 -34.785  41.178  0.00  0.00     0.035 H 
ATOM     32  H18 RRS d   1      50.735 -33.356  40.653  0.00  0.00     0.035 H 
ATOM     33  H19 RRS d   1      49.556 -35.478  40.213  0.00  0.00     0.064 H 
ATOM     34  H20 RRS d   1      48.658 -34.439  41.370  0.00  0.00     0.064 H 
ATOM     35  H30 RRS d   1      47.419 -37.328  45.472  0.00  0.00     0.044 H 
ATOM     36  H31 RRS d   1      48.391 -38.838  45.474  0.00  0.00     0.044 H 
ATOM     37  H32 RRS d   1      48.054 -35.418  43.631  0.00  0.00     0.112 H 
ATOM     38  H33 RRS d   1      50.425 -39.868  44.483  0.00  0.00     0.084 H 
ATOM     39  H34 RRS d   1      51.419 -37.217  40.355  0.00  0.00     0.087 H 
ATOM     40  H35 RRS d   1      52.081 -40.700  42.819  0.00  0.00     0.083 H 
ATOM     41  H36 RRS d   1      52.560 -39.382  40.776  0.00  0.00     0.083 H 
ENDROOT
BRANCH   1  42
ATOM     42  N2  RRS d   1      48.628 -37.723  47.803  0.00  0.00    -0.347 N 
ATOM     43  C4  RRS d   1      49.326 -38.139  48.841  0.00  0.00     0.223 C 
ATOM     44  O3  RRS d   1      50.557 -38.066  48.895  0.00  0.00    -0.273 OA
ATOM     45  H6  RRS d   1      47.630 -37.769  47.835  0.00  0.00     0.163 HD
BRANCH  43  46
ATOM     46  C3  RRS d   1      48.508 -38.724  49.970  0.00  0.00     0.032 C 
ATOM     47  H5  RRS d   1      47.439 -38.537  49.792  0.00  0.00     0.055 H 
BRANCH  46  48
ATOM     48  C2  RRS d   1      48.778 -40.247  49.876  0.00  0.00     0.022 C 
ATOM     49  H3  RRS d   1      48.495 -40.607  48.876  0.00  0.00     0.048 H 
ATOM     50  H4  RRS d   1      49.848 -40.440  50.046  0.00  0.00     0.048 H 
BRANCH  48  51
ATOM     51  C1  RRS d   1      47.969 -40.971  50.915  0.00  0.00     0.241 C 
ATOM     52  N1  RRS d   1      48.603 -41.484  51.951  0.00  0.00    -0.237 N 
ATOM     53  H1  RRS d   1      49.600 -41.489  52.030  0.00  0.00     0.197 HD
ATOM     54  O2  RRS d   1      46.756 -40.827  50.601  0.00  0.00    -0.271 OA
BRANCH  52  55
ATOM     55  O1  RRS d   1      47.763 -42.018  52.925  0.00  0.00    -0.287 OA
ATOM     56  H2  RRS d   1      48.287 -42.367  53.636  0.00  0.00     0.244 HD
ENDBRANCH  52  55
ENDBRANCH  48  51
ENDBRANCH  46  48
BRANCH  46  57
ATOM     57  C13 RRS d   1      48.878 -38.078  51.326  0.00  0.00    -0.051 C 
ATOM     58  H21 RRS d   1      49.974 -38.088  51.425  0.00  0.00     0.034 H 
ATOM     59  H22 RRS d   1      48.432 -38.683  52.129  0.00  0.00     0.034 H 
BRANCH  57  60
ATOM     60  C14 RRS d   1      48.389 -36.615  51.491  0.00  0.00    -0.060 C 
ATOM     61  H23 RRS d   1      48.877 -35.982  50.735  0.00  0.00     0.038 H 
BRANCH  60  62
ATOM     62  C16 RRS d   1      48.784 -36.146  52.897  0.00  0.00    -0.073 C 
ATOM     63  H27 RRS d   1      49.874 -36.228  53.018  0.00  0.00     0.028 H 
ATOM     64  H28 RRS d   1      48.283 -36.775  53.648  0.00  0.00     0.028 H 
ATOM     65  H29 RRS d   1      48.478 -35.098  53.034  0.00  0.00     0.028 H 
ENDBRANCH  60  62
BRANCH  60  66
ATOM     66  C15 RRS d   1      46.861 -36.494  51.337  0.00  0.00    -0.073 C 
ATOM     67  H24 RRS d   1      46.562 -35.443  51.462  0.00  0.00     0.028 H 
ATOM     68  H25 RRS d   1      46.365 -37.109  52.102  0.00  0.00     0.028 H 
ATOM     69  H26 RRS d   1      46.564 -36.844  50.337  0.00  0.00     0.028 H 
ENDBRANCH  60  66
ENDBRANCH  57  60
ENDBRANCH  46  57
ENDBRANCH  43  46
ENDBRANCH   1  42
TORSDOF 9
