REMARK  11 active torsions:
REMARK  status: ('A' for Active; 'I' for Inactive)
REMARK    1  A    between atoms: S1_1  and  C26_33 
REMARK    2  A    between atoms: S1_1  and  C2_4 
REMARK    3  A    between atoms: S1_1  and  N6_3 
REMARK    4  A    between atoms: S1_1  and  N5_2 
REMARK    5  A    between atoms: C2_4  and  C3_5 
REMARK    6  A    between atoms: C3_5  and  C13_20 
REMARK    7  A    between atoms: C3_5  and  C4_6 
REMARK       I    between atoms: C4_6  and  N2_8 
REMARK    8  A    between atoms: N2_8  and  C5_9 
REMARK    9  A    between atoms: C13_20  and  C14_21 
REMARK   10  A    between atoms: C14_21  and  C16_23 
REMARK   11  A    between atoms: C14_21  and  C15_22 
ROOT
ATOM      1  C5  SRS d   1      49.560 -37.774  46.525  0.00  0.00     0.093 C 
ATOM      2  C6  SRS d   1      49.659 -36.260  46.432  0.00  0.00     0.240 C 
ATOM      3  O4  SRS d   1      48.695 -35.540  46.697  0.00  0.00    -0.271 OA
ATOM      4  N3  SRS d   1      50.827 -35.759  46.059  0.00  0.00    -0.359 N 
ATOM      5  C7  SRS d   1      51.067 -34.323  45.878  0.00  0.00    -0.005 C 
ATOM      6  C8  SRS d   1      52.322 -34.166  44.969  0.00  0.00    -0.050 C 
ATOM      7  C9  SRS d   1      52.011 -33.572  43.589  0.00  0.00    -0.064 C 
ATOM      8  C10 SRS d   1      51.576 -34.619  42.587  0.00  0.00    -0.064 C 
ATOM      9  C11 SRS d   1      50.344 -34.192  41.776  0.00  0.00    -0.050 C 
ATOM     10  C12 SRS d   1      49.618 -35.433  41.204  0.00  0.00    -0.000 C 
ATOM     11  N4  SRS d   1      49.622 -36.576  42.151  0.00  0.00    -0.356 N 
ATOM     12  C17 SRS d   1      48.774 -38.343  45.328  0.00  0.00    -0.012 C 
ATOM     13  C18 SRS d   1      49.307 -37.869  44.014  0.00  0.00    -0.028 A 
ATOM     14  C19 SRS d   1      48.974 -36.676  43.337  0.00  0.00    -0.013 A 
ATOM     15  C20 SRS d   1      50.217 -38.515  43.161  0.00  0.00    -0.002 A 
ATOM     16  C21 SRS d   1      50.387 -37.686  42.015  0.00  0.00     0.045 A 
ATOM     17  C22 SRS d   1      50.906 -39.727  43.262  0.00  0.00    -0.070 A 
ATOM     18  C23 SRS d   1      51.248 -38.077  40.975  0.00  0.00    -0.056 A 
ATOM     19  C24 SRS d   1      51.756 -40.112  42.222  0.00  0.00    -0.082 A 
ATOM     20  C25 SRS d   1      51.928 -39.297  41.088  0.00  0.00    -0.081 A 
ATOM     21  H7  SRS d   1      50.576 -38.196  46.517  0.00  0.00     0.088 H 
ATOM     22  H8  SRS d   1      51.583 -36.392  45.892  0.00  0.00     0.162 HD
ATOM     23  H9  SRS d   1      51.248 -33.847  46.853  0.00  0.00     0.064 H 
ATOM     24  H10 SRS d   1      50.195 -33.855  45.398  0.00  0.00     0.064 H 
ATOM     25  H11 SRS d   1      52.774 -35.158  44.826  0.00  0.00     0.035 H 
ATOM     26  H12 SRS d   1      53.040 -33.506  45.478  0.00  0.00     0.035 H 
ATOM     27  H13 SRS d   1      52.915 -33.075  43.208  0.00  0.00     0.033 H 
ATOM     28  H14 SRS d   1      51.204 -32.833  43.698  0.00  0.00     0.033 H 
ATOM     29  H15 SRS d   1      51.336 -35.546  43.129  0.00  0.00     0.033 H 
ATOM     30  H16 SRS d   1      52.407 -34.806  41.891  0.00  0.00     0.033 H 
ATOM     31  H17 SRS d   1      50.663 -33.544  40.946  0.00  0.00     0.035 H 
ATOM     32  H18 SRS d   1      49.654 -33.638  42.429  0.00  0.00     0.035 H 
ATOM     33  H19 SRS d   1      50.122 -35.741  40.276  0.00  0.00     0.064 H 
ATOM     34  H20 SRS d   1      48.575 -35.161  40.982  0.00  0.00     0.064 H 
ATOM     35  H30 SRS d   1      47.723 -38.030  45.416  0.00  0.00     0.044 H 
ATOM     36  H31 SRS d   1      48.834 -39.441  45.357  0.00  0.00     0.044 H 
ATOM     37  H32 SRS d   1      48.282 -35.928  43.721  0.00  0.00     0.112 H 
ATOM     38  H33 SRS d   1      50.783 -40.359  44.134  0.00  0.00     0.084 H 
ATOM     39  H34 SRS d   1      51.383 -37.447  40.103  0.00  0.00     0.087 H 
ATOM     40  H35 SRS d   1      52.291 -41.052  42.290  0.00  0.00     0.083 H 
ATOM     41  H36 SRS d   1      52.593 -39.616  40.294  0.00  0.00     0.083 H 
ENDROOT
BRANCH   1  42
ATOM     42  N2  SRS d   1      48.896 -38.155  47.765  0.00  0.00    -0.347 N 
ATOM     43  C4  SRS d   1      49.588 -38.605  48.810  0.00  0.00     0.223 C 
ATOM     44  O3  SRS d   1      50.816 -38.687  48.763  0.00  0.00    -0.273 OA
ATOM     45  H6  SRS d   1      47.901 -38.077  47.833  0.00  0.00     0.163 HD
BRANCH  43  46
ATOM     46  C3  SRS d   1      48.824 -38.952  50.084  0.00  0.00     0.034 C 
ATOM     47  H5  SRS d   1      47.764 -39.107  49.836  0.00  0.00     0.056 H 
BRANCH  46  48
ATOM     48  C2  SRS d   1      49.369 -40.168  50.841  0.00  0.00     0.006 C 
ATOM     49  H3  SRS d   1      50.432 -40.287  50.584  0.00  0.00     0.052 H 
ATOM     50  H4  SRS d   1      49.272 -39.975  51.920  0.00  0.00     0.052 H 
BRANCH  48  51
ATOM     51  S1  SRS d   1      48.547 -41.662  50.475  0.00  0.00    -0.074 SA
BRANCH  51  52
ATOM     52  C26 SRS d   1      49.539 -42.689  49.460  0.00  0.00    -0.017 C 
ATOM     53  H37 SRS d   1      48.999 -43.623  49.244  0.00  0.00     0.044 H 
ATOM     54  H38 SRS d   1      50.479 -42.921  49.981  0.00  0.00     0.044 H 
ATOM     55  H39 SRS d   1      49.761 -42.168  48.517  0.00  0.00     0.044 H 
ENDBRANCH  51  52
BRANCH  51  56
ATOM     56  N6  SRS d   1      48.448 -42.300  51.933  0.00  0.00    -0.270 NA
ATOM     57  H2  SRS d   1      49.286 -42.468  52.467  0.00  0.00     0.196 HD
ENDBRANCH  51  56
BRANCH  51  58
ATOM     58  N5  SRS d   1      46.989 -41.619  50.106  0.00  0.00    -0.270 NA
ATOM     59  H1  SRS d   1      46.498 -42.473  49.892  0.00  0.00     0.196 HD
ENDBRANCH  51  58
ENDBRANCH  48  51
ENDBRANCH  46  48
BRANCH  46  60
ATOM     60  C13 SRS d   1      49.001 -37.794  51.095  0.00  0.00    -0.050 C 
ATOM     61  H21 SRS d   1      50.047 -37.469  50.996  0.00  0.00     0.034 H 
ATOM     62  H22 SRS d   1      48.848 -38.240  52.089  0.00  0.00     0.034 H 
BRANCH  60  63
ATOM     63  C14 SRS d   1      48.164 -36.510  51.083  0.00  0.00    -0.060 C 
ATOM     64  H23 SRS d   1      48.585 -35.801  50.355  0.00  0.00     0.038 H 
BRANCH  63  65
ATOM     65  C16 SRS d   1      48.286 -35.955  52.516  0.00  0.00    -0.073 C 
ATOM     66  H27 SRS d   1      49.347 -35.793  52.757  0.00  0.00     0.028 H 
ATOM     67  H28 SRS d   1      47.854 -36.675  53.226  0.00  0.00     0.028 H 
ATOM     68  H29 SRS d   1      47.744 -35.000  52.587  0.00  0.00     0.028 H 
ENDBRANCH  63  65
BRANCH  63  69
ATOM     69  C15 SRS d   1      46.672 -36.735  50.750  0.00  0.00    -0.073 C 
ATOM     70  H24 SRS d   1      46.144 -35.770  50.762  0.00  0.00     0.028 H 
ATOM     71  H25 SRS d   1      46.226 -37.406  51.499  0.00  0.00     0.028 H 
ATOM     72  H26 SRS d   1      46.584 -37.189  49.752  0.00  0.00     0.028 H 
ENDBRANCH  63  69
ENDBRANCH  60  63
ENDBRANCH  46  60
ENDBRANCH  43  46
ENDBRANCH   1  42
TORSDOF 11
