REMARK  7 active torsions:
REMARK  status: ('A' for Active; 'I' for Inactive)
REMARK    1  A    between atoms: C1_1  and  O1_7 
REMARK    2  A    between atoms: C2_2  and  N2_8 
REMARK    3  A    between atoms: C3_3  and  O3_9 
REMARK    4  A    between atoms: C4_4  and  O4_10 
REMARK    5  A    between atoms: C5_5  and  C6_6 
REMARK    6  A    between atoms: C6_6  and  O6_12 
REMARK    7  A    between atoms: O6_12  and  P_13 
ROOT
ATOM      1  C1  GLP d   1      28.601  16.111  -4.414  0.00  0.00     0.158 C 
ATOM      2  C2  GLP d   1      28.891  15.432  -3.091  0.00  0.00     0.173 C 
ATOM      3  C3  GLP d   1      28.469  16.331  -1.941  0.00  0.00     0.094 C 
ATOM      4  C4  GLP d   1      29.146  17.683  -2.019  0.00  0.00     0.089 C 
ATOM      5  C5  GLP d   1      28.852  18.308  -3.399  0.00  0.00     0.089 C 
ATOM      6  O5  GLP d   1      29.146  17.392  -4.435  0.00  0.00    -0.349 OA
ATOM      7  H1  GLP d   1      29.009  15.509  -5.239  0.00  0.00     0.132 H 
ATOM      8  H2  GLP d   1      29.974  15.252  -3.015  0.00  0.00     0.096 H 
ATOM      9  H3  GLP d   1      27.377  16.463  -1.961  0.00  0.00     0.090 H 
ATOM     10  H4  GLP d   1      30.230  17.540  -1.896  0.00  0.00     0.091 H 
ATOM     11  H5  GLP d   1      27.797  18.615  -3.453  0.00  0.00     0.090 H 
ENDROOT
BRANCH   5  12
ATOM     12  C6  GLP d   1      29.779  19.521  -3.592  0.00  0.00     0.059 C 
ATOM     13  H6  GLP d   1      29.715  20.181  -2.714  0.00  0.00     0.079 H 
ATOM     14  H7  GLP d   1      29.479  20.078  -4.492  0.00  0.00     0.079 H 
BRANCH  12  15
ATOM     15  O6  GLP d   1      31.138  19.041  -3.744  0.00  0.00    -0.280 OA
BRANCH  15  16
ATOM     16  P   GLP d   1      32.401  19.889  -3.182  0.00  0.00     0.422 P 
ATOM     17  O3P GLP d   1      32.152  20.228  -1.726  0.00  0.00    -0.617 OA
ATOM     18  O2P GLP d   1      33.552  19.003  -3.386  0.00  0.00    -0.617 OA
ATOM     19  O1P GLP d   1      32.431  21.182  -3.906  0.00  0.00    -0.617 OA
ENDBRANCH  15  16
ENDBRANCH  12  15
ENDBRANCH   5  12
BRANCH   4  20
ATOM     20  O4  GLP d   1      28.690  18.599  -1.045  0.00  0.00    -0.390 OA
ATOM     21  H13 GLP d   1      28.856  18.247  -0.178  0.00  0.00     0.210 HD
ENDBRANCH   4  20
BRANCH   3  22
ATOM     22  O3  GLP d   1      28.873  15.709  -0.704  0.00  0.00    -0.391 OA
ATOM     23  H12 GLP d   1      29.816  15.597  -0.700  0.00  0.00     0.210 HD
ENDBRANCH   3  22
BRANCH   1  24
ATOM     24  O1  GLP d   1      27.210  16.267  -4.555  0.00  0.00    -0.369 OA
ATOM     25  H8  GLP d   1      27.023  16.703  -5.378  0.00  0.00     0.212 HD
ENDBRANCH   1  24
BRANCH   2  26
ATOM     26  N2  GLP d   1      28.212  14.167  -3.035  0.00  0.00    -0.068 N 
ATOM     27  H9  GLP d   1      28.510  13.591  -3.807  0.00  0.00     0.275 HD
ATOM     28  H10 GLP d   1      27.217  14.317  -3.092  0.00  0.00     0.275 HD
ATOM     29  H11 GLP d   1      28.433  13.705  -2.167  0.00  0.00     0.275 HD
ENDBRANCH   2  26
TORSDOF 7
