REMARK  20 active torsions:
REMARK  status: ('A' for Active; 'I' for Inactive)
REMARK    1  A    between atoms: BC1'_13  and  BN1_1 
REMARK    2  A    between atoms: BC5_8  and  BC7_9 
REMARK    3  A    between atoms: BC5'_10  and  BC4'_11 
REMARK    4  A    between atoms: BC5'_10  and  BO5'_20 
REMARK    5  A    between atoms: BC3'_15  and  BO3'_16 
REMARK    6  A    between atoms: BO5'_20  and  PA_17 
REMARK    7  A    between atoms: PA_17  and  O3A_21 
REMARK    8  A    between atoms: O3A_21  and  PB_22 
REMARK    9  A    between atoms: PB_22  and  O3B_25 
REMARK   10  A    between atoms: O3B_25  and  PC_26 
REMARK   11  A    between atoms: PC_26  and  O3C_29 
REMARK   12  A    between atoms: O3C_29  and  PD_30 
REMARK   13  A    between atoms: PD_30  and  O3D_33 
REMARK   14  A    between atoms: O3D_33  and  PE_34 
REMARK   15  A    between atoms: PE_34  and  AO5'_37 
REMARK   16  A    between atoms: AO5'_37  and  AC5'_38 
REMARK   17  A    between atoms: AC5'_38  and  AC4'_39 
REMARK   18  A    between atoms: AC1'_41  and  AN9_46 
REMARK   19  A    between atoms: AC2'_42  and  AO2'_43 
REMARK   20  A    between atoms: AC3'_44  and  AO3'_45 
ROOT
ATOM      1  PC  T5A d   1      27.259  18.929   6.366  0.00  0.00     0.427 P 
ATOM      2  O1C T5A d   1      27.191  19.487   7.720  0.00  0.00    -0.624 OA
ATOM      3  O2C T5A d   1      28.562  18.875   5.702  0.00  0.00    -0.624 OA
ENDROOT
BRANCH   1   4
ATOM      4  O3B T5A d   1      26.778  17.517   6.465  0.00  0.00    -0.180 OA
BRANCH   4   5
ATOM      5  PB  T5A d   1      25.427  16.769   6.226  0.00  0.00     0.427 P 
ATOM      6  O1B T5A d   1      24.219  17.613   5.988  0.00  0.00    -0.624 OA
ATOM      7  O2B T5A d   1      25.748  15.767   5.177  0.00  0.00    -0.624 OA
BRANCH   5   8
ATOM      8  O3A T5A d   1      25.243  15.961   7.637  0.00  0.00    -0.180 OA
BRANCH   8   9
ATOM      9  PA  T5A d   1      25.804  14.829   8.255  0.00  0.00     0.417 P 
ATOM     10  O1A T5A d   1      27.227  14.981   8.368  0.00  0.00    -0.624 OA
ATOM     11  O2A T5A d   1      25.042  14.979   9.508  0.00  0.00    -0.624 OA
BRANCH   9  12
ATOM     12  BO5 T5A d   1      25.321  13.409   7.591  0.00  0.00    -0.287 OA
BRANCH  12  13
ATOM     13  BC5 T5A d   1      24.226  13.399   6.761  0.00  0.00     0.058 C 
ATOM     14  H6  T5A d   1      23.827  14.419   6.660  0.00  0.00     0.079 H 
ATOM     15  H7  T5A d   1      24.514  13.018   5.770  0.00  0.00     0.079 H 
BRANCH  13  16
ATOM     16  BC4 T5A d   1      23.162  12.487   7.376  0.00  0.00     0.087 C 
ATOM     17  BO4 T5A d   1      23.738  11.181   7.552  0.00  0.00    -0.356 OA
ATOM     18  BC1 T5A d   1      23.175  10.643   8.786  0.00  0.00     0.116 C 
ATOM     19  BC2 T5A d   1      23.071  11.925   9.646  0.00  0.00     0.002 C 
ATOM     20  H9  T5A d   1      22.180  10.195   8.646  0.00  0.00     0.118 H 
ATOM     21  BC3 T5A d   1      22.682  13.041   8.700  0.00  0.00     0.066 C 
ATOM     22  H10 T5A d   1      24.039  12.146  10.118  0.00  0.00     0.043 H 
ATOM     23  H11 T5A d   1      22.303  11.800  10.424  0.00  0.00     0.043 H 
ATOM     24  H12 T5A d   1      23.187  13.981   8.966  0.00  0.00     0.087 H 
ATOM     25  H8  T5A d   1      22.305  12.416   6.690  0.00  0.00     0.090 H 
BRANCH  18  26
ATOM     26  BN1 T5A d   1      24.111   9.625   9.212  0.00  0.00    -0.282 N 
ATOM     27  BC6 T5A d   1      25.449   9.953   9.314  0.00  0.00    -0.002 A 
ATOM     28  BC5 T5A d   1      26.404   9.071   9.679  0.00  0.00     0.022 A 
ATOM     29  H1  T5A d   1      25.749  10.975   9.088  0.00  0.00     0.113 H 
ATOM     30  BC4 T5A d   1      26.001   7.698   9.984  0.00  0.00     0.256 A 
ATOM     31  BN3 T5A d   1      24.622   7.452   9.857  0.00  0.00    -0.275 N 
ATOM     32  BO4 T5A d   1      26.816   6.792  10.333  0.00  0.00    -0.267 OA
ATOM     33  BC2 T5A d   1      23.623   8.350   9.476  0.00  0.00     0.331 A 
ATOM     34  H2  T5A d   1      24.321   6.521  10.065  0.00  0.00     0.173 HD
ATOM     35  BO2 T5A d   1      22.430   7.955   9.390  0.00  0.00    -0.246 OA
BRANCH  28  36
ATOM     36  BC7 T5A d   1      27.894   9.420   9.791  0.00  0.00    -0.045 C 
ATOM     37  H3  T5A d   1      28.043  10.479   9.534  0.00  0.00     0.033 H 
ATOM     38  H4  T5A d   1      28.471   8.790   9.098  0.00  0.00     0.033 H 
ATOM     39  H5  T5A d   1      28.236   9.242  10.821  0.00  0.00     0.033 H 
ENDBRANCH  28  36
ENDBRANCH  18  26
BRANCH  21  40
ATOM     40  BO3 T5A d   1      21.280  13.256   8.619  0.00  0.00    -0.393 OA
ATOM     41  H13 T5A d   1      20.966  13.604   9.445  0.00  0.00     0.210 HD
ENDBRANCH  21  40
ENDBRANCH  13  16
ENDBRANCH  12  13
ENDBRANCH   9  12
ENDBRANCH   8   9
ENDBRANCH   5   8
ENDBRANCH   4   5
ENDBRANCH   1   4
BRANCH   1  42
ATOM     42  O3C T5A d   1      26.233  19.635   5.330  0.00  0.00    -0.180 OA
BRANCH  42  43
ATOM     43  PD  T5A d   1      26.306  20.859   4.208  0.00  0.00     0.427 P 
ATOM     44  O1D T5A d   1      26.979  22.046   4.821  0.00  0.00    -0.624 OA
ATOM     45  O2D T5A d   1      24.932  20.898   3.713  0.00  0.00    -0.624 OA
BRANCH  43  46
ATOM     46  O3D T5A d   1      27.411  20.402   3.133  0.00  0.00    -0.180 OA
BRANCH  46  47
ATOM     47  PE  T5A d   1      27.465  19.665   1.668  0.00  0.00     0.417 P 
ATOM     48  O1E T5A d   1      26.545  20.375   0.721  0.00  0.00    -0.624 OA
ATOM     49  O2E T5A d   1      28.908  19.679   1.392  0.00  0.00    -0.624 OA
BRANCH  47  50
ATOM     50  AO5 T5A d   1      26.996  18.222   2.035  0.00  0.00    -0.287 OA
BRANCH  50  51
ATOM     51  AC5 T5A d   1      25.971  17.514   1.316  0.00  0.00     0.058 C 
ATOM     52  H14 T5A d   1      25.490  18.217   0.620  0.00  0.00     0.079 H 
ATOM     53  H15 T5A d   1      25.229  17.151   2.042  0.00  0.00     0.079 H 
BRANCH  51  54
ATOM     54  AC4 T5A d   1      26.468  16.342   0.529  0.00  0.00     0.089 C 
ATOM     55  AO4 T5A d   1      25.310  15.772  -0.065  0.00  0.00    -0.353 OA
ATOM     56  AC1 T5A d   1      25.395  15.660  -1.513  0.00  0.00     0.139 C 
ATOM     57  AC2 T5A d   1      26.892  15.706  -1.801  0.00  0.00     0.105 C 
ATOM     58  H17 T5A d   1      24.952  14.710  -1.846  0.00  0.00     0.122 H 
ATOM     59  AC3 T5A d   1      27.461  16.653  -0.689  0.00  0.00     0.091 C 
ATOM     60  H18 T5A d   1      27.106  16.129  -2.794  0.00  0.00     0.093 H 
ATOM     61  H20 T5A d   1      27.460  17.708  -1.002  0.00  0.00     0.091 H 
ATOM     62  H16 T5A d   1      26.956  15.633   1.214  0.00  0.00     0.090 H 
BRANCH  56  63
ATOM     63  AN9 T5A d   1      24.748  16.790  -2.242  0.00  0.00    -0.294 N 
ATOM     64  AC4 T5A d   1      24.128  16.691  -3.480  0.00  0.00     0.167 A 
ATOM     65  AN3 T5A d   1      23.990  15.538  -4.254  0.00  0.00    -0.222 NA
ATOM     66  AC5 T5A d   1      23.670  17.973  -3.800  0.00  0.00     0.149 A 
ATOM     67  AC2 T5A d   1      23.338  15.767  -5.422  0.00  0.00     0.091 A 
ATOM     68  AN1 T5A d   1      22.845  16.984  -5.847  0.00  0.00    -0.222 NA
ATOM     69  H22 T5A d   1      23.191  14.918  -6.080  0.00  0.00     0.146 H 
ATOM     70  AC6 T5A d   1      22.990  18.111  -5.068  0.00  0.00     0.155 A 
ATOM     71  AN6 T5A d   1      22.483  19.226  -5.567  0.00  0.00    -0.382 N 
ATOM     72  H23 T5A d   1      22.555  20.107  -5.038  0.00  0.00     0.157 HD
ATOM     73  H24 T5A d   1      22.016  19.214  -6.485  0.00  0.00     0.157 HD
ATOM     74  AN7 T5A d   1      23.995  18.839  -2.786  0.00  0.00    -0.236 NA
ATOM     75  AC8 T5A d   1      24.618  18.123  -1.899  0.00  0.00     0.071 A 
ATOM     76  H25 T5A d   1      25.004  18.536  -0.968  0.00  0.00     0.144 H 
ENDBRANCH  56  63
BRANCH  57  77
ATOM     77  AO2 T5A d   1      27.334  14.355  -1.758  0.00  0.00    -0.388 OA
ATOM     78  H19 T5A d   1      28.267  14.323  -1.932  0.00  0.00     0.210 HD
ENDBRANCH  57  77
BRANCH  59  79
ATOM     79  AO3 T5A d   1      28.760  16.242  -0.231  0.00  0.00    -0.390 OA
ATOM     80  H21 T5A d   1      28.704  15.365   0.130  0.00  0.00     0.210 HD
ENDBRANCH  59  79
ENDBRANCH  51  54
ENDBRANCH  50  51
ENDBRANCH  47  50
ENDBRANCH  46  47
ENDBRANCH  43  46
ENDBRANCH  42  43
ENDBRANCH   1  42
TORSDOF 20
