REMARK  7 active torsions:
REMARK  status: ('A' for Active; 'I' for Inactive)
REMARK    1  A    between atoms: P_1  and  O5'_5 
REMARK    2  A    between atoms: O5'_5  and  C5'_6 
REMARK    3  A    between atoms: C5'_6  and  C4'_7 
REMARK    4  A    between atoms: C3'_9  and  O3'_10 
REMARK    5  A    between atoms: C1'_12  and  N1_13 
REMARK    6  A    between atoms: C5_19  and  C5A_20 
REMARK    7  A    between atoms: C5A_20  and  O5B_22 
ROOT
ATOM      1  C4' 5HU d   1      23.937  12.428   7.521  0.00  0.00     0.087 C 
ATOM      2  O4' 5HU d   1      23.831  11.013   7.711  0.00  0.00    -0.356 OA
ATOM      3  C3' 5HU d   1      22.949  12.897   8.652  0.00  0.00     0.066 C 
ATOM      4  C2' 5HU d   1      23.502  11.932   9.749  0.00  0.00     0.002 C 
ATOM      5  C1' 5HU d   1      23.551  10.629   9.042  0.00  0.00     0.116 C 
ATOM      6  H3  5HU d   1      23.447  12.663   6.565  0.00  0.00     0.090 H 
ATOM      7  H4  5HU d   1      23.275  13.907   8.939  0.00  0.00     0.087 H 
ATOM      8  H6  5HU d   1      22.826  11.888  10.616  0.00  0.00     0.043 H 
ATOM      9  H7  5HU d   1      24.504  12.241  10.081  0.00  0.00     0.043 H 
ATOM     10  H8  5HU d   1      22.567  10.146   9.129  0.00  0.00     0.118 H 
ENDROOT
BRANCH   5  11
ATOM     11  N1  5HU d   1      24.582   9.632   9.383  0.00  0.00    -0.282 N 
ATOM     12  C2  5HU d   1      24.098   8.369   9.646  0.00  0.00     0.330 A 
ATOM     13  O2  5HU d   1      22.830   8.136   9.576  0.00  0.00    -0.246 OA
ATOM     14  N3  5HU d   1      24.918   7.363   9.978  0.00  0.00    -0.286 N 
ATOM     15  C4  5HU d   1      26.248   7.575  10.059  0.00  0.00     0.192 A 
ATOM     16  H9  5HU d   1      24.544   6.455  10.166  0.00  0.00     0.172 HD
ATOM     17  O4  5HU d   1      27.021   6.550  10.393  0.00  0.00    -0.171 OA
ATOM     18  C5  5HU d   1      26.801   8.851   9.795  0.00  0.00     0.035 A 
ATOM     19  C6  5HU d   1      25.923   9.880   9.454  0.00  0.00    -0.001 A 
ATOM     20  H12 5HU d   1      26.306  10.878   9.245  0.00  0.00     0.113 H 
BRANCH  18  21
ATOM     21  C5A 5HU d   1      28.283   9.041   9.890  0.00  0.00     0.046 C 
ATOM     22  H10 5HU d   1      28.720   8.331  10.607  0.00  0.00     0.081 H 
ATOM     23  H11 5HU d   1      28.523  10.069  10.199  0.00  0.00     0.081 H 
BRANCH  21  24
ATOM     24  O5B 5HU d   1      28.639   8.853   8.917  0.00  0.00    -0.396 OA
ATOM     25  H13 5HU d   1      29.583   8.956   8.901  0.00  0.00     0.209 HD
ENDBRANCH  21  24
ENDBRANCH  18  21
ENDBRANCH   5  11
BRANCH   1  26
ATOM     26  C5' 5HU d   1      25.344  13.054   7.345  0.00  0.00     0.059 C 
ATOM     27  H1  5HU d   1      26.121  12.350   7.678  0.00  0.00     0.079 H 
ATOM     28  H2  5HU d   1      25.516  13.320   6.292  0.00  0.00     0.079 H 
BRANCH  26  29
ATOM     29  O5' 5HU d   1      25.351  14.179   8.129  0.00  0.00    -0.280 OA
BRANCH  29  30
ATOM     30  P   5HU d   1      26.429  15.281   8.373  0.00  0.00     0.422 P 
ATOM     31  O1P 5HU d   1      27.421  14.840   9.555  0.00  0.00    -0.617 OA
ATOM     32  O2P 5HU d   1      25.545  16.639   8.835  0.00  0.00    -0.617 OA
ATOM     33  O3P 5HU d   1      27.272  15.644   6.985  0.00  0.00    -0.617 OA
ENDBRANCH  29  30
ENDBRANCH  26  29
ENDBRANCH   1  26
BRANCH   3  34
ATOM     34  O3' 5HU d   1      21.484  13.119   8.436  0.00  0.00    -0.393 OA
ATOM     35  H5  5HU d   1      21.361  13.790   7.775  0.00  0.00     0.210 HD
ENDBRANCH   3  34
TORSDOF 7
