REMARK  16 active torsions:
REMARK  status: ('A' for Active; 'I' for Inactive)
REMARK    1  A    between atoms: C4_4  and  C8_8 
REMARK    2  A    between atoms: C5_5  and  C7_7 
REMARK    3  A    between atoms: C6_6  and  O33_33 
REMARK       I    between atoms: C8_8  and  N9_9 
REMARK    4  A    between atoms: N9_9  and  C10_10 
REMARK    5  A    between atoms: C10_10  and  C11_11 
REMARK    6  A    between atoms: C10_10  and  C12_12 
REMARK    7  A    between atoms: C11_11  and  C19_19 
REMARK    8  A    between atoms: C12_12  and  C13_13 
REMARK    9  A    between atoms: C12_12  and  O25_25 
REMARK       I    between atoms: C13_13  and  N14_14 
REMARK   10  A    between atoms: C15_15  and  C29_29 
REMARK   11  A    between atoms: C16_16  and  C27_27 
REMARK   12  A    between atoms: C16_16  and  C28_28 
REMARK       I    between atoms: C29_29  and  N30_30 
REMARK   13  A    between atoms: N30_30  and  C31_31 
REMARK   14  A    between atoms: C31_31  and  C35_35 
REMARK   15  A    between atoms: C31_31  and  C67_36 
REMARK   16  A    between atoms: C31_31  and  C71_37 
ROOT
ATOM      1  C12 K57 d   1      15.036  23.836  18.244  0.00  0.00     0.132 C 
ATOM      2  H11 K57 d   1      15.271  23.229  19.131  0.00  0.00     0.101 H 
ENDROOT
BRANCH   1   3
ATOM      3  C10 K57 d   1      15.113  22.598  17.345  0.00  0.00     0.049 C 
ATOM      4  H8  K57 d   1      16.090  22.136  17.553  0.00  0.00     0.077 H 
BRANCH   3   5
ATOM      5  N9  K57 d   1      14.102  21.637  17.807  0.00  0.00    -0.349 N 
ATOM      6  C8  K57 d   1      14.441  20.389  18.234  0.00  0.00     0.252 C 
ATOM      7  O34 K57 d   1      15.625  20.063  18.335  0.00  0.00    -0.268 OA
ATOM      8  H7  K57 d   1      13.139  21.907  17.808  0.00  0.00     0.163 HD
BRANCH   6   9
ATOM      9  C4  K57 d   1      13.308  19.467  18.542  0.00  0.00     0.040 A 
ATOM     10  C3  K57 d   1      12.282  19.264  17.569  0.00  0.00    -0.067 A 
ATOM     11  C2  K57 d   1      11.196  18.394  17.824  0.00  0.00    -0.079 A 
ATOM     12  H3  K57 d   1      12.336  19.785  16.620  0.00  0.00     0.085 H 
ATOM     13  C1  K57 d   1      11.114  17.709  19.053  0.00  0.00    -0.050 A 
ATOM     14  H2  K57 d   1      10.426  18.254  17.074  0.00  0.00     0.083 H 
ATOM     15  C6  K57 d   1      12.115  17.891  20.036  0.00  0.00     0.072 A 
ATOM     16  H1  K57 d   1      10.282  17.041  19.245  0.00  0.00     0.087 H 
ATOM     17  C5  K57 d   1      13.225  18.766  19.807  0.00  0.00    -0.013 A 
BRANCH  15  18
ATOM     18  O33 K57 d   1      12.008  17.206  21.231  0.00  0.00    -0.360 OA
ATOM     19  H28 K57 d   1      11.221  16.674  21.221  0.00  0.00     0.217 HD
ENDBRANCH  15  18
BRANCH  17  20
ATOM     20  C7  K57 d   1      14.276  18.923  20.901  0.00  0.00    -0.048 C 
ATOM     21  H4  K57 d   1      15.053  19.625  20.565  0.00  0.00     0.033 H 
ATOM     22  H5  K57 d   1      14.733  17.945  21.114  0.00  0.00     0.033 H 
ATOM     23  H6  K57 d   1      13.800  19.312  21.814  0.00  0.00     0.033 H 
ENDBRANCH  17  20
ENDBRANCH   6   9
ENDBRANCH   3   5
BRANCH   3  24
ATOM     24  C11 K57 d   1      15.125  22.858  15.814  0.00  0.00    -0.019 C 
ATOM     25  H9  K57 d   1      16.144  22.661  15.448  0.00  0.00     0.043 H 
ATOM     26  H10 K57 d   1      14.875  23.917  15.652  0.00  0.00     0.043 H 
BRANCH  24  27
ATOM     27  C19 K57 d   1      14.178  22.034  14.994  0.00  0.00    -0.056 A 
ATOM     28  C20 K57 d   1      14.728  21.053  14.126  0.00  0.00    -0.077 A 
ATOM     29  C21 K57 d   1      13.887  20.230  13.328  0.00  0.00    -0.082 A 
ATOM     30  H15 K57 d   1      15.804  20.930  14.071  0.00  0.00     0.084 H 
ATOM     31  C22 K57 d   1      12.484  20.392  13.402  0.00  0.00    -0.083 A 
ATOM     32  H16 K57 d   1      14.317  19.485  12.669  0.00  0.00     0.083 H 
ATOM     33  C23 K57 d   1      11.924  21.375  14.268  0.00  0.00    -0.082 A 
ATOM     34  H17 K57 d   1      11.834  19.768  12.799  0.00  0.00     0.083 H 
ATOM     35  C24 K57 d   1      12.766  22.192  15.060  0.00  0.00    -0.077 A 
ATOM     36  H18 K57 d   1      10.848  21.498  14.321  0.00  0.00     0.083 H 
ATOM     37  H19 K57 d   1      12.335  22.938  15.717  0.00  0.00     0.084 H 
ENDBRANCH  24  27
ENDBRANCH   3  24
ENDBRANCH   1   3
BRANCH   1  38
ATOM     38  C13 K57 d   1      16.298  24.703  18.479  0.00  0.00     0.252 C 
ATOM     39  N14 K57 d   1      17.437  24.097  19.034  0.00  0.00    -0.326 N 
ATOM     40  C15 K57 d   1      18.748  24.756  18.869  0.00  0.00     0.108 C 
ATOM     41  C18 K57 d   1      17.502  22.758  19.683  0.00  0.00     0.040 C 
ATOM     42  C16 K57 d   1      19.733  24.120  19.907  0.00  0.00     0.032 C 
ATOM     43  H12 K57 d   1      18.666  25.833  19.078  0.00  0.00     0.090 H 
ATOM     44  S17 K57 d   1      19.236  22.406  20.042  0.00  0.00    -0.137 SA
ATOM     45  H13 K57 d   1      17.097  21.993  19.005  0.00  0.00     0.081 H 
ATOM     46  H14 K57 d   1      16.920  22.765  20.616  0.00  0.00     0.081 H 
ATOM     47  O26 K57 d   1      16.307  25.831  18.008  0.00  0.00    -0.270 OA
BRANCH  40  48
ATOM     48  C29 K57 d   1      19.142  24.559  17.360  0.00  0.00     0.242 C 
ATOM     49  N30 K57 d   1      19.729  25.670  16.793  0.00  0.00    -0.351 N 
ATOM     50  H27 K57 d   1      19.849  26.465  17.388  0.00  0.00     0.163 HD
ATOM     51  O32 K57 d   1      18.912  23.490  16.783  0.00  0.00    -0.271 OA
BRANCH  49  52
ATOM     52  C31 K57 d   1      20.202  25.812  15.392  0.00  0.00     0.022 C 
BRANCH  52  53
ATOM     53  C35 K57 d   1      20.757  27.241  15.275  0.00  0.00    -0.054 C 
ATOM     54  H29 K57 d   1      21.126  27.409  14.252  0.00  0.00     0.030 H 
ATOM     55  H30 K57 d   1      21.584  27.373  15.989  0.00  0.00     0.030 H 
ATOM     56  H31 K57 d   1      19.959  27.964  15.500  0.00  0.00     0.030 H 
ENDBRANCH  52  53
BRANCH  52  57
ATOM     57  C67 K57 d   1      19.031  25.622  14.400  0.00  0.00    -0.054 C 
ATOM     58  H32 K57 d   1      19.402  25.731  13.370  0.00  0.00     0.030 H 
ATOM     59  H33 K57 d   1      18.259  26.381  14.594  0.00  0.00     0.030 H 
ATOM     60  H34 K57 d   1      18.599  24.619  14.530  0.00  0.00     0.030 H 
ENDBRANCH  52  57
BRANCH  52  61
ATOM     61  C71 K57 d   1      21.341  24.801  15.094  0.00  0.00    -0.054 C 
ATOM     62  H35 K57 d   1      21.676  24.923  14.053  0.00  0.00     0.030 H 
ATOM     63  H36 K57 d   1      20.970  23.776  15.242  0.00  0.00     0.030 H 
ATOM     64  H37 K57 d   1      22.184  24.988  15.775  0.00  0.00     0.030 H 
ENDBRANCH  52  61
ENDBRANCH  49  52
ENDBRANCH  40  48
BRANCH  42  65
ATOM     65  C27 K57 d   1      19.619  24.767  21.303  0.00  0.00    -0.058 C 
ATOM     66  H21 K57 d   1      20.330  24.285  21.990  0.00  0.00     0.029 H 
ATOM     67  H22 K57 d   1      18.595  24.638  21.684  0.00  0.00     0.029 H 
ATOM     68  H23 K57 d   1      19.851  25.840  21.230  0.00  0.00     0.029 H 
ENDBRANCH  42  65
BRANCH  42  69
ATOM     69  C28 K57 d   1      21.203  24.152  19.427  0.00  0.00    -0.058 C 
ATOM     70  H24 K57 d   1      21.848  23.695  20.191  0.00  0.00     0.029 H 
ATOM     71  H25 K57 d   1      21.512  25.195  19.262  0.00  0.00     0.029 H 
ATOM     72  H26 K57 d   1      21.294  23.590  18.486  0.00  0.00     0.029 H 
ENDBRANCH  42  69
ENDBRANCH   1  38
BRANCH   1  73
ATOM     73  O25 K57 d   1      13.814  24.204  18.796  0.00  0.00    -0.384 OA
ATOM     74  H20 K57 d   1      13.892  24.237  19.742  0.00  0.00     0.210 HD
ENDBRANCH   1  73
TORSDOF 16
