REMARK  16 active torsions:
REMARK  status: ('A' for Active; 'I' for Inactive)
REMARK    1  A    between atoms: C4_4  and  C8_8 
REMARK    2  A    between atoms: C5_5  and  C7_7 
REMARK    3  A    between atoms: C6_6  and  O33_33 
REMARK       I    between atoms: C8_8  and  N9_9 
REMARK    4  A    between atoms: N9_9  and  C10_10 
REMARK    5  A    between atoms: C10_10  and  C11_11 
REMARK    6  A    between atoms: C10_10  and  C12_12 
REMARK    7  A    between atoms: C11_11  and  C19_19 
REMARK    8  A    between atoms: C12_12  and  C13_13 
REMARK    9  A    between atoms: C12_12  and  O25_25 
REMARK       I    between atoms: C13_13  and  N14_14 
REMARK   10  A    between atoms: C15_15  and  C29_29 
REMARK   11  A    between atoms: C16_16  and  C27_27 
REMARK   12  A    between atoms: C16_16  and  C28_28 
REMARK       I    between atoms: C29_29  and  N30_30 
REMARK   13  A    between atoms: N30_30  and  C31_31 
REMARK   14  A    between atoms: C31_31  and  C35_35 
REMARK   15  A    between atoms: C31_31  and  C67_36 
REMARK   16  A    between atoms: C31_31  and  C71_37 
ROOT
ATOM      1  C12 K57 d   1      14.791  24.012  18.064  0.00  0.00     0.132 C 
ATOM      2  H11 K57 d   1      15.041  23.328  18.889  0.00  0.00     0.101 H 
ENDROOT
BRANCH   1   3
ATOM      3  C10 K57 d   1      14.640  22.826  17.082  0.00  0.00     0.049 C 
ATOM      4  H8  K57 d   1      15.617  22.331  16.985  0.00  0.00     0.077 H 
BRANCH   3   5
ATOM      5  N9  K57 d   1      13.721  21.779  17.526  0.00  0.00    -0.349 N 
ATOM      6  C8  K57 d   1      14.080  20.524  17.897  0.00  0.00     0.252 C 
ATOM      7  O34 K57 d   1      15.268  20.175  17.892  0.00  0.00    -0.268 OA
ATOM      8  H7  K57 d   1      12.748  22.006  17.559  0.00  0.00     0.163 HD
BRANCH   6   9
ATOM      9  C4  K57 d   1      12.989  19.581  18.285  0.00  0.00     0.040 A 
ATOM     10  C3  K57 d   1      11.903  19.369  17.370  0.00  0.00    -0.067 A 
ATOM     11  C2  K57 d   1      10.846  18.486  17.685  0.00  0.00    -0.079 A 
ATOM     12  H3  K57 d   1      11.894  19.895  16.422  0.00  0.00     0.085 H 
ATOM     13  C1  K57 d   1      10.854  17.803  18.915  0.00  0.00    -0.050 A 
ATOM     14  H2  K57 d   1      10.034  18.336  16.983  0.00  0.00     0.083 H 
ATOM     15  C6  K57 d   1      11.913  17.996  19.832  0.00  0.00     0.072 A 
ATOM     16  H1  K57 d   1      10.044  17.125  19.161  0.00  0.00     0.087 H 
ATOM     17  C5  K57 d   1      12.997  18.882  19.548  0.00  0.00    -0.013 A 
BRANCH  15  18
ATOM     18  O33 K57 d   1      11.886  17.310  21.024  0.00  0.00    -0.360 OA
ATOM     19  H28 K57 d   1      11.107  16.768  21.059  0.00  0.00     0.217 HD
ENDBRANCH  15  18
BRANCH  17  20
ATOM     20  C7  K57 d   1      14.102  19.035  20.590  0.00  0.00    -0.048 C 
ATOM     21  H4  K57 d   1      14.856  19.747  20.223  0.00  0.00     0.033 H 
ATOM     22  H5  K57 d   1      14.576  18.058  20.768  0.00  0.00     0.033 H 
ATOM     23  H6  K57 d   1      13.671  19.410  21.530  0.00  0.00     0.033 H 
ENDBRANCH  17  20
ENDBRANCH   6   9
ENDBRANCH   3   5
BRANCH   3  24
ATOM     24  C11 K57 d   1      14.345  23.546  15.742  0.00  0.00    -0.019 C 
ATOM     25  H9  K57 d   1      15.189  24.206  15.492  0.00  0.00     0.043 H 
ATOM     26  H10 K57 d   1      13.429  24.146  15.848  0.00  0.00     0.043 H 
BRANCH  24  27
ATOM     27  C19 K57 d   1      14.154  22.537  14.629  0.00  0.00    -0.056 A 
ATOM     28  C20 K57 d   1      15.279  22.339  13.790  0.00  0.00    -0.077 A 
ATOM     29  C21 K57 d   1      15.240  21.422  12.710  0.00  0.00    -0.082 A 
ATOM     30  H15 K57 d   1      16.187  22.900  13.978  0.00  0.00     0.084 H 
ATOM     31  C22 K57 d   1      14.049  20.692  12.474  0.00  0.00    -0.083 A 
ATOM     32  H16 K57 d   1      16.107  21.282  12.075  0.00  0.00     0.083 H 
ATOM     33  C23 K57 d   1      12.914  20.877  13.304  0.00  0.00    -0.082 A 
ATOM     34  H17 K57 d   1      14.005  19.986  11.652  0.00  0.00     0.083 H 
ATOM     35  C24 K57 d   1      12.964  21.800  14.382  0.00  0.00    -0.077 A 
ATOM     36  H18 K57 d   1      12.008  20.313  13.115  0.00  0.00     0.083 H 
ATOM     37  H19 K57 d   1      12.096  21.942  15.015  0.00  0.00     0.084 H 
ENDBRANCH  24  27
ENDBRANCH   3  24
ENDBRANCH   1   3
BRANCH   1  38
ATOM     38  C13 K57 d   1      16.151  24.741  18.218  0.00  0.00     0.252 C 
ATOM     39  N14 K57 d   1      17.266  24.094  18.735  0.00  0.00    -0.326 N 
ATOM     40  C15 K57 d   1      18.574  24.791  18.642  0.00  0.00     0.108 C 
ATOM     41  C18 K57 d   1      17.356  22.762  19.380  0.00  0.00     0.040 C 
ATOM     42  C16 K57 d   1      19.509  24.194  19.734  0.00  0.00     0.032 C 
ATOM     43  H12 K57 d   1      18.454  25.866  18.841  0.00  0.00     0.090 H 
ATOM     44  S17 K57 d   1      19.075  22.451  19.834  0.00  0.00    -0.137 SA
ATOM     45  H13 K57 d   1      17.013  21.987  18.678  0.00  0.00     0.081 H 
ATOM     46  H14 K57 d   1      16.727  22.745  20.282  0.00  0.00     0.081 H 
ATOM     47  O26 K57 d   1      16.173  25.863  17.713  0.00  0.00    -0.270 OA
BRANCH  40  48
ATOM     48  C29 K57 d   1      19.032  24.600  17.156  0.00  0.00     0.242 C 
ATOM     49  N30 K57 d   1      19.571  25.723  16.597  0.00  0.00    -0.351 N 
ATOM     50  H27 K57 d   1      19.620  26.527  17.189  0.00  0.00     0.163 HD
ATOM     51  O32 K57 d   1      18.889  23.517  16.590  0.00  0.00    -0.271 OA
BRANCH  49  52
ATOM     52  C31 K57 d   1      20.092  25.896  15.221  0.00  0.00     0.022 C 
BRANCH  52  53
ATOM     53  C35 K57 d   1      20.571  27.355  15.152  0.00  0.00    -0.054 C 
ATOM     54  H29 K57 d   1      20.975  27.561  14.150  0.00  0.00     0.030 H 
ATOM     55  H30 K57 d   1      21.356  27.519  15.905  0.00  0.00     0.030 H 
ATOM     56  H31 K57 d   1      19.725  28.029  15.351  0.00  0.00     0.030 H 
ENDBRANCH  52  53
BRANCH  52  57
ATOM     57  C67 K57 d   1      18.975  25.660  14.183  0.00  0.00    -0.054 C 
ATOM     58  H32 K57 d   1      19.382  25.793  13.170  0.00  0.00     0.030 H 
ATOM     59  H33 K57 d   1      18.162  26.382  14.349  0.00  0.00     0.030 H 
ATOM     60  H34 K57 d   1      18.585  24.637  14.290  0.00  0.00     0.030 H 
ENDBRANCH  52  57
BRANCH  52  61
ATOM     61  C71 K57 d   1      21.291  24.960  14.933  0.00  0.00    -0.054 C 
ATOM     62  H35 K57 d   1      21.644  25.122  13.904  0.00  0.00     0.030 H 
ATOM     63  H36 K57 d   1      20.976  23.913  15.052  0.00  0.00     0.030 H 
ATOM     64  H37 K57 d   1      22.106  25.180  15.639  0.00  0.00     0.030 H 
ENDBRANCH  52  61
ENDBRANCH  49  52
ENDBRANCH  40  48
BRANCH  42  65
ATOM     65  C27 K57 d   1      19.223  24.825  21.109  0.00  0.00    -0.058 C 
ATOM     66  H21 K57 d   1      19.896  24.387  21.861  0.00  0.00     0.029 H 
ATOM     67  H22 K57 d   1      18.178  24.628  21.393  0.00  0.00     0.029 H 
ATOM     68  H23 K57 d   1      19.390  25.911  21.056  0.00  0.00     0.029 H 
ENDBRANCH  42  65
BRANCH  42  69
ATOM     69  C28 K57 d   1      21.022  24.314  19.416  0.00  0.00    -0.058 C 
ATOM     70  H24 K57 d   1      21.605  23.869  20.236  0.00  0.00     0.029 H 
ATOM     71  H25 K57 d   1      21.291  25.375  19.308  0.00  0.00     0.029 H 
ATOM     72  H26 K57 d   1      21.243  23.783  18.479  0.00  0.00     0.029 H 
ENDBRANCH  42  69
ENDBRANCH   1  38
BRANCH   1  73
ATOM     73  O25 K57 d   1      13.673  24.475  18.744  0.00  0.00    -0.384 OA
ATOM     74  H20 K57 d   1      13.841  24.453  19.679  0.00  0.00     0.210 HD
ENDBRANCH   1  73
TORSDOF 16
