REMARK  15 active torsions:
REMARK  status: ('A' for Active; 'I' for Inactive)
REMARK    1  A    between atoms: C4_4  and  C13_8 
REMARK    2  A    between atoms: C5_5  and  C9_7 
REMARK    3  A    between atoms: C6_6  and  O60_33 
REMARK       I    between atoms: C13_8  and  N14_9 
REMARK    4  A    between atoms: N14_9  and  C15_10 
REMARK    5  A    between atoms: C15_10  and  C16_11 
REMARK    6  A    between atoms: C15_10  and  C17_12 
REMARK    7  A    between atoms: C16_11  and  C27_19 
REMARK    8  A    between atoms: C17_12  and  C19_13 
REMARK    9  A    between atoms: C17_12  and  O41_25 
REMARK       I    between atoms: C19_13  and  N20_14 
REMARK   10  A    between atoms: C21_15  and  C53_29 
REMARK   11  A    between atoms: C22_16  and  C45_27 
REMARK   12  A    between atoms: C22_16  and  C49_28 
REMARK       I    between atoms: C53_29  and  N55_30 
REMARK   13  A    between atoms: N55_30  and  C56_31 
REMARK   14  A    between atoms: C56_31  and  C63_35 
REMARK   15  A    between atoms: C70_40  and  C75_41 
ROOT
ATOM      1  C17 JE2 d   1      15.024  23.672  18.627  0.00  0.00     0.132 C 
ATOM      2  H11 JE2 d   1      15.034  23.091  19.561  0.00  0.00     0.101 H 
ENDROOT
BRANCH   1   3
ATOM      3  C15 JE2 d   1      14.813  22.705  17.449  0.00  0.00     0.049 C 
ATOM      4  H8  JE2 d   1      15.786  22.257  17.199  0.00  0.00     0.077 H 
BRANCH   3   5
ATOM      5  N14 JE2 d   1      13.902  21.662  17.896  0.00  0.00    -0.349 N 
ATOM      6  C13 JE2 d   1      14.314  20.426  18.325  0.00  0.00     0.252 C 
ATOM      7  O62 JE2 d   1      15.510  20.129  18.413  0.00  0.00    -0.268 OA
ATOM      8  H7  JE2 d   1      12.921  21.857  17.890  0.00  0.00     0.163 HD
BRANCH   6   9
ATOM      9  C4  JE2 d   1      13.225  19.484  18.669  0.00  0.00     0.040 A 
ATOM     10  C3  JE2 d   1      12.220  19.228  17.688  0.00  0.00    -0.067 A 
ATOM     11  C2  JE2 d   1      11.160  18.333  17.947  0.00  0.00    -0.079 A 
ATOM     12  H3  JE2 d   1      12.272  19.729  16.728  0.00  0.00     0.085 H 
ATOM     13  C1  JE2 d   1      11.087  17.681  19.187  0.00  0.00    -0.050 A 
ATOM     14  H2  JE2 d   1      10.405  18.150  17.191  0.00  0.00     0.083 H 
ATOM     15  C6  JE2 d   1      12.066  17.918  20.173  0.00  0.00     0.072 A 
ATOM     16  H1  JE2 d   1      10.274  16.992  19.388  0.00  0.00     0.087 H 
ATOM     17  C5  JE2 d   1      13.149  18.817  19.943  0.00  0.00    -0.013 A 
BRANCH  15  18
ATOM     18  O60 JE2 d   1      11.966  17.265  21.372  0.00  0.00    -0.360 OA
ATOM     19  H30 JE2 d   1      11.196  16.709  21.365  0.00  0.00     0.217 HD
ENDBRANCH  15  18
BRANCH  17  20
ATOM     20  C9  JE2 d   1      14.177  19.033  21.045  0.00  0.00    -0.048 C 
ATOM     21  H4  JE2 d   1      14.937  19.751  20.702  0.00  0.00     0.033 H 
ATOM     22  H5  JE2 d   1      14.661  18.076  21.288  0.00  0.00     0.033 H 
ATOM     23  H6  JE2 d   1      13.676  19.429  21.941  0.00  0.00     0.033 H 
ENDBRANCH  17  20
ENDBRANCH   6   9
ENDBRANCH   3   5
BRANCH   3  24
ATOM     24  C16 JE2 d   1      14.238  23.343  16.153  0.00  0.00    -0.019 C 
ATOM     25  H9  JE2 d   1      14.953  24.087  15.772  0.00  0.00     0.043 H 
ATOM     26  H10 JE2 d   1      13.285  23.838  16.390  0.00  0.00     0.043 H 
BRANCH  24  27
ATOM     27  C27 JE2 d   1      13.998  22.299  15.085  0.00  0.00    -0.056 A 
ATOM     28  C30 JE2 d   1      15.072  21.719  14.364  0.00  0.00    -0.077 A 
ATOM     29  C31 JE2 d   1      14.824  20.737  13.377  0.00  0.00    -0.082 A 
ATOM     30  H15 JE2 d   1      16.090  22.030  14.570  0.00  0.00     0.084 H 
ATOM     31  C32 JE2 d   1      13.493  20.324  13.103  0.00  0.00    -0.083 A 
ATOM     32  H16 JE2 d   1      15.650  20.299  12.829  0.00  0.00     0.083 H 
ATOM     33  C33 JE2 d   1      12.414  20.896  13.819  0.00  0.00    -0.082 A 
ATOM     34  H17 JE2 d   1      13.303  19.571  12.346  0.00  0.00     0.083 H 
ATOM     35  C34 JE2 d   1      12.668  21.880  14.806  0.00  0.00    -0.077 A 
ATOM     36  H18 JE2 d   1      11.397  20.582  13.613  0.00  0.00     0.083 H 
ATOM     37  H19 JE2 d   1      11.841  22.317  15.354  0.00  0.00     0.084 H 
ENDBRANCH  24  27
ENDBRANCH   3  24
ENDBRANCH   1   3
BRANCH   1  38
ATOM     38  C19 JE2 d   1      16.350  24.459  18.522  0.00  0.00     0.252 C 
ATOM     39  N20 JE2 d   1      17.505  23.809  18.883  0.00  0.00    -0.326 N 
ATOM     40  C21 JE2 d   1      18.782  24.577  18.868  0.00  0.00     0.108 C 
ATOM     41  C24 JE2 d   1      17.479  22.905  20.074  0.00  0.00     0.040 C 
ATOM     42  C22 JE2 d   1      19.669  24.144  20.095  0.00  0.00     0.032 C 
ATOM     43  H12 JE2 d   1      18.576  25.654  18.958  0.00  0.00     0.090 H 
ATOM     44  S23 JE2 d   1      19.184  22.450  20.360  0.00  0.00    -0.137 SA
ATOM     45  H13 JE2 d   1      16.872  22.012  19.866  0.00  0.00     0.081 H 
ATOM     46  H14 JE2 d   1      17.069  23.432  20.948  0.00  0.00     0.081 H 
ATOM     47  O44 JE2 d   1      16.311  25.633  18.147  0.00  0.00    -0.270 OA
BRANCH  40  48
ATOM     48  C53 JE2 d   1      19.405  24.299  17.480  0.00  0.00     0.242 C 
ATOM     49  N55 JE2 d   1      20.212  25.282  17.028  0.00  0.00    -0.355 N 
ATOM     50  H27 JE2 d   1      20.359  26.099  17.585  0.00  0.00     0.162 HD
ATOM     51  O57 JE2 d   1      19.154  23.259  16.878  0.00  0.00    -0.271 OA
BRANCH  49  52
ATOM     52  C56 JE2 d   1      20.869  25.162  15.738  0.00  0.00     0.019 C 
ATOM     53  H28 JE2 d   1      20.473  24.279  15.216  0.00  0.00     0.071 H 
ATOM     54  H29 JE2 d   1      21.951  25.040  15.898  0.00  0.00     0.071 H 
BRANCH  52  55
ATOM     55  C63 JE2 d   1      20.635  26.379  14.886  0.00  0.00    -0.035 A 
ATOM     56  C66 JE2 d   1      21.717  27.284  14.706  0.00  0.00    -0.075 A 
ATOM     57  C67 JE2 d   1      21.565  28.445  13.918  0.00  0.00    -0.082 A 
ATOM     58  H31 JE2 d   1      22.670  27.080  15.180  0.00  0.00     0.084 H 
ATOM     59  C68 JE2 d   1      20.325  28.715  13.301  0.00  0.00    -0.082 A 
ATOM     60  H32 JE2 d   1      22.398  29.127  13.787  0.00  0.00     0.083 H 
ATOM     61  C69 JE2 d   1      19.235  27.829  13.468  0.00  0.00    -0.077 A 
ATOM     62  H33 JE2 d   1      20.207  29.606  12.696  0.00  0.00     0.083 H 
ATOM     63  C70 JE2 d   1      19.368  26.657  14.257  0.00  0.00    -0.054 A 
ATOM     64  H34 JE2 d   1      18.288  28.048  12.988  0.00  0.00     0.084 H 
BRANCH  63  65
ATOM     65  C75 JE2 d   1      18.161  25.750  14.396  0.00  0.00    -0.051 C 
ATOM     66  H35 JE2 d   1      18.419  24.891  15.032  0.00  0.00     0.033 H 
ATOM     67  H36 JE2 d   1      17.855  25.391  13.402  0.00  0.00     0.033 H 
ATOM     68  H37 JE2 d   1      17.332  26.310  14.854  0.00  0.00     0.033 H 
ENDBRANCH  63  65
ENDBRANCH  52  55
ENDBRANCH  49  52
ENDBRANCH  40  48
BRANCH  42  69
ATOM     69  C45 JE2 d   1      19.377  24.963  21.374  0.00  0.00    -0.058 C 
ATOM     70  H21 JE2 d   1      20.026  24.613  22.190  0.00  0.00     0.029 H 
ATOM     71  H22 JE2 d   1      18.323  24.831  21.662  0.00  0.00     0.029 H 
ATOM     72  H23 JE2 d   1      19.573  26.028  21.180  0.00  0.00     0.029 H 
ENDBRANCH  42  69
BRANCH  42  73
ATOM     73  C49 JE2 d   1      21.189  24.168  19.794  0.00  0.00    -0.058 C 
ATOM     74  H24 JE2 d   1      21.745  23.856  20.690  0.00  0.00     0.029 H 
ATOM     75  H25 JE2 d   1      21.491  25.187  19.512  0.00  0.00     0.029 H 
ATOM     76  H26 JE2 d   1      21.410  23.478  18.967  0.00  0.00     0.029 H 
ENDBRANCH  42  73
ENDBRANCH   1  38
BRANCH   1  77
ATOM     77  O41 JE2 d   1      13.955  24.584  18.656  0.00  0.00    -0.384 OA
ATOM     78  H20 JE2 d   1      14.050  25.157  19.408  0.00  0.00     0.210 HD
ENDBRANCH   1  77
TORSDOF 15
