REMARK  15 active torsions:
REMARK  status: ('A' for Active; 'I' for Inactive)
REMARK    1  A    between atoms: C4_4  and  C13_8 
REMARK    2  A    between atoms: C5_5  and  C9_7 
REMARK    3  A    between atoms: C6_6  and  O60_33 
REMARK       I    between atoms: C13_8  and  N14_9 
REMARK    4  A    between atoms: N14_9  and  C15_10 
REMARK    5  A    between atoms: C15_10  and  C16_11 
REMARK    6  A    between atoms: C15_10  and  C17_12 
REMARK    7  A    between atoms: C16_11  and  C27_19 
REMARK    8  A    between atoms: C17_12  and  C19_13 
REMARK    9  A    between atoms: C17_12  and  O41_25 
REMARK       I    between atoms: C19_13  and  N20_14 
REMARK   10  A    between atoms: C21_15  and  C53_29 
REMARK   11  A    between atoms: C22_16  and  C45_27 
REMARK   12  A    between atoms: C22_16  and  C49_28 
REMARK       I    between atoms: C53_29  and  N55_30 
REMARK   13  A    between atoms: N55_30  and  C56_31 
REMARK   14  A    between atoms: C56_31  and  C63_35 
REMARK   15  A    between atoms: C70_40  and  C75_41 
ROOT
ATOM      1  C17 JE2 d   1      14.529  23.793  18.296  0.00  0.00     0.132 C 
ATOM      2  H11 JE2 d   1      14.453  23.174  19.202  0.00  0.00     0.101 H 
ENDROOT
BRANCH   1   3
ATOM      3  C15 JE2 d   1      14.387  22.885  17.058  0.00  0.00     0.049 C 
ATOM      4  H8  JE2 d   1      15.360  22.412  16.859  0.00  0.00     0.077 H 
BRANCH   3   5
ATOM      5  N14 JE2 d   1      13.400  21.868  17.445  0.00  0.00    -0.349 N 
ATOM      6  C13 JE2 d   1      13.739  20.584  17.766  0.00  0.00     0.252 C 
ATOM      7  O62 JE2 d   1      14.915  20.211  17.764  0.00  0.00    -0.268 OA
ATOM      8  H7  JE2 d   1      12.435  22.128  17.475  0.00  0.00     0.163 HD
BRANCH   6   9
ATOM      9  C4  JE2 d   1      12.594  19.694  18.106  0.00  0.00     0.040 A 
ATOM     10  C3  JE2 d   1      11.506  19.593  17.186  0.00  0.00    -0.067 A 
ATOM     11  C2  JE2 d   1      10.396  18.761  17.460  0.00  0.00    -0.079 A 
ATOM     12  H3  JE2 d   1      11.532  20.163  16.264  0.00  0.00     0.085 H 
ATOM     13  C1  JE2 d   1      10.350  18.031  18.663  0.00  0.00    -0.050 A 
ATOM     14  H2  JE2 d   1       9.584  18.686  16.747  0.00  0.00     0.083 H 
ATOM     15  C6  JE2 d   1      11.411  18.114  19.587  0.00  0.00     0.072 A 
ATOM     16  H1  JE2 d   1       9.494  17.402  18.880  0.00  0.00     0.087 H 
ATOM     17  C5  JE2 d   1      12.539  18.948  19.344  0.00  0.00    -0.013 A 
BRANCH  15  18
ATOM     18  O60 JE2 d   1      11.341  17.392  20.756  0.00  0.00    -0.360 OA
ATOM     19  H30 JE2 d   1      10.535  16.890  20.769  0.00  0.00     0.217 HD
ENDBRANCH  15  18
BRANCH  17  20
ATOM     20  C9  JE2 d   1      13.648  18.992  20.389  0.00  0.00    -0.048 C 
ATOM     21  H4  JE2 d   1      14.441  19.677  20.054  0.00  0.00     0.033 H 
ATOM     22  H5  JE2 d   1      14.067  17.984  20.522  0.00  0.00     0.033 H 
ATOM     23  H6  JE2 d   1      13.237  19.347  21.346  0.00  0.00     0.033 H 
ENDBRANCH  17  20
ENDBRANCH   6   9
ENDBRANCH   3   5
BRANCH   3  24
ATOM     24  C16 JE2 d   1      13.912  23.565  15.741  0.00  0.00    -0.019 C 
ATOM     25  H9  JE2 d   1      14.632  24.348  15.462  0.00  0.00     0.043 H 
ATOM     26  H10 JE2 d   1      12.924  24.018  15.908  0.00  0.00     0.043 H 
BRANCH  24  27
ATOM     27  C27 JE2 d   1      13.811  22.564  14.612  0.00  0.00    -0.056 A 
ATOM     28  C30 JE2 d   1      14.929  22.309  13.781  0.00  0.00    -0.077 A 
ATOM     29  C31 JE2 d   1      14.845  21.363  12.728  0.00  0.00    -0.082 A 
ATOM     30  H15 JE2 d   1      15.857  22.842  13.951  0.00  0.00     0.084 H 
ATOM     31  C32 JE2 d   1      13.637  20.665  12.502  0.00  0.00    -0.083 A 
ATOM     32  H16 JE2 d   1      15.706  21.175  12.097  0.00  0.00     0.083 H 
ATOM     33  C33 JE2 d   1      12.514  20.911  13.325  0.00  0.00    -0.082 A 
ATOM     34  H17 JE2 d   1      13.572  19.941  11.698  0.00  0.00     0.083 H 
ATOM     35  C34 JE2 d   1      12.601  21.856  14.372  0.00  0.00    -0.077 A 
ATOM     36  H18 JE2 d   1      11.587  20.375  13.153  0.00  0.00     0.083 H 
ATOM     37  H19 JE2 d   1      11.737  22.043  14.999  0.00  0.00     0.084 H 
ENDBRANCH  24  27
ENDBRANCH   3  24
ENDBRANCH   1   3
BRANCH   1  38
ATOM     38  C19 JE2 d   1      15.893  24.533  18.305  0.00  0.00     0.252 C 
ATOM     39  N20 JE2 d   1      17.017  23.799  18.589  0.00  0.00    -0.326 N 
ATOM     40  C21 JE2 d   1      18.308  24.533  18.619  0.00  0.00     0.108 C 
ATOM     41  C24 JE2 d   1      16.962  22.824  19.729  0.00  0.00     0.040 C 
ATOM     42  C22 JE2 d   1      19.157  24.032  19.840  0.00  0.00     0.032 C 
ATOM     43  H12 JE2 d   1      18.135  25.613  18.738  0.00  0.00     0.090 H 
ATOM     44  S23 JE2 d   1      18.654  22.326  19.995  0.00  0.00    -0.137 SA
ATOM     45  H13 JE2 d   1      16.341  21.956  19.465  0.00  0.00     0.081 H 
ATOM     46  H14 JE2 d   1      16.555  23.306  20.630  0.00  0.00     0.081 H 
ATOM     47  O44 JE2 d   1      15.916  25.736  18.055  0.00  0.00    -0.270 OA
BRANCH  40  48
ATOM     48  C53 JE2 d   1      18.929  24.267  17.226  0.00  0.00     0.242 C 
ATOM     49  N55 JE2 d   1      19.740  25.250  16.791  0.00  0.00    -0.355 N 
ATOM     50  H27 JE2 d   1      19.886  26.058  17.361  0.00  0.00     0.162 HD
ATOM     51  O57 JE2 d   1      18.674  23.228  16.614  0.00  0.00    -0.271 OA
BRANCH  49  52
ATOM     52  C56 JE2 d   1      20.407  25.151  15.502  0.00  0.00     0.019 C 
ATOM     53  H28 JE2 d   1      19.742  24.639  14.791  0.00  0.00     0.071 H 
ATOM     54  H29 JE2 d   1      21.334  24.570  15.620  0.00  0.00     0.071 H 
BRANCH  52  55
ATOM     55  C63 JE2 d   1      20.745  26.510  14.966  0.00  0.00    -0.035 A 
ATOM     56  C66 JE2 d   1      22.031  27.043  15.240  0.00  0.00    -0.075 A 
ATOM     57  C67 JE2 d   1      22.404  28.318  14.760  0.00  0.00    -0.082 A 
ATOM     58  H31 JE2 d   1      22.736  26.464  15.825  0.00  0.00     0.084 H 
ATOM     59  C68 JE2 d   1      21.483  29.085  14.018  0.00  0.00    -0.082 A 
ATOM     60  H32 JE2 d   1      23.396  28.706  14.962  0.00  0.00     0.083 H 
ATOM     61  C69 JE2 d   1      20.199  28.573  13.737  0.00  0.00    -0.077 A 
ATOM     62  H33 JE2 d   1      21.762  30.070  13.663  0.00  0.00     0.083 H 
ATOM     63  C70 JE2 d   1      19.805  27.292  14.215  0.00  0.00    -0.054 A 
ATOM     64  H34 JE2 d   1      19.504  29.163  13.150  0.00  0.00     0.084 H 
BRANCH  63  65
ATOM     65  C75 JE2 d   1      18.416  26.793  13.888  0.00  0.00    -0.051 C 
ATOM     66  H35 JE2 d   1      18.272  25.795  14.328  0.00  0.00     0.033 H 
ATOM     67  H36 JE2 d   1      18.295  26.733  12.796  0.00  0.00     0.033 H 
ATOM     68  H37 JE2 d   1      17.670  27.487  14.302  0.00  0.00     0.033 H 
ENDBRANCH  63  65
ENDBRANCH  52  55
ENDBRANCH  49  52
ENDBRANCH  40  48
BRANCH  42  69
ATOM     69  C45 JE2 d   1      18.818  24.788  21.148  0.00  0.00    -0.058 C 
ATOM     70  H21 JE2 d   1      19.439  24.399  21.968  0.00  0.00     0.029 H 
ATOM     71  H22 JE2 d   1      17.755  24.641  21.392  0.00  0.00     0.029 H 
ATOM     72  H23 JE2 d   1      19.019  25.861  21.014  0.00  0.00     0.029 H 
ENDBRANCH  42  69
BRANCH  42  73
ATOM     73  C49 JE2 d   1      20.680  24.082  19.600  0.00  0.00    -0.058 C 
ATOM     74  H24 JE2 d   1      21.204  23.717  20.495  0.00  0.00     0.029 H 
ATOM     75  H25 JE2 d   1      20.985  25.119  19.393  0.00  0.00     0.029 H 
ATOM     76  H26 JE2 d   1      20.937  23.446  18.740  0.00  0.00     0.029 H 
ENDBRANCH  42  73
ENDBRANCH   1  38
BRANCH   1  77
ATOM     77  O41 JE2 d   1      13.491  24.744  18.291  0.00  0.00    -0.384 OA
ATOM     78  H20 JE2 d   1      13.556  25.287  19.068  0.00  0.00     0.210 HD
ENDBRANCH   1  77
TORSDOF 15
