REMARK  17 active torsions:
REMARK  status: ('A' for Active; 'I' for Inactive)
REMARK    1  A    between atoms: C_2  and  O2_3 
REMARK       I    between atoms: N_9  and  C_2 
REMARK    2  A    between atoms: O2_3  and  CT_4 
REMARK    3  A    between atoms: CT_4  and  C3_7 
REMARK    4  A    between atoms: CT_4  and  C2_6 
REMARK    5  A    between atoms: CT_4  and  C1_5 
REMARK    6  A    between atoms: C_18  and  CM_8 
REMARK    7  A    between atoms: CM_8  and  N_20 
REMARK    8  A    between atoms: N_9  and  CA_10 
REMARK    9  A    between atoms: CA_10  and  C_18 
REMARK   10  A    between atoms: CA_10  and  CB_11 
REMARK   11  A    between atoms: CB_11  and  CG_12 
REMARK   12  A    between atoms: C_18  and  O_19 
REMARK   13  A    between atoms: N_20  and  CA_21 
REMARK   14  A    between atoms: CA_33  and  CB_36 
REMARK   15  A    between atoms: CB_36  and  CG1_37 
REMARK   16  A    between atoms: CB_36  and  CG2_38 
REMARK   17  A    between atoms: CG1_37  and  CD1_39 
ROOT
ATOM      1  CA  PI6 d   1       4.733  -2.185  16.866  0.00  0.00     0.181 C 
ATOM      2  C   PI6 d   1       5.727  -3.184  16.261  0.00  0.00     0.249 C 
ATOM      3  O   PI6 d   1       5.938  -3.213  15.043  0.00  0.00    -0.271 OA
ATOM      4  CB  PI6 d   1       3.307  -2.601  16.485  0.00  0.00    -0.006 C 
ATOM      5  CG  PI6 d   1       3.088  -4.088  16.588  0.00  0.00    -0.056 A 
ATOM      6  CD1 PI6 d   1       3.043  -4.729  17.840  0.00  0.00    -0.074 A 
ATOM      7  CD2 PI6 d   1       3.069  -4.882  15.437  0.00  0.00    -0.074 A 
ATOM      8  CE1 PI6 d   1       3.007  -6.103  17.928  0.00  0.00    -0.050 A 
ATOM      9  CE2 PI6 d   1       3.027  -6.265  15.516  0.00  0.00    -0.050 A 
ATOM     10  CZ  PI6 d   1       3.006  -6.870  16.757  0.00  0.00     0.068 A 
ATOM     11  OH  PI6 d   1       3.018  -8.249  16.778  0.00  0.00    -0.351 OA
ATOM     12  N   PI6 d   1       6.302  -4.005  17.141  0.00  0.00    -0.346 N 
ATOM     13  CA  PI6 d   1       7.239  -5.100  16.804  0.00  0.00     0.092 C 
ATOM     14  C   PI6 d   1       6.869  -6.158  17.847  0.00  0.00     0.240 C 
ATOM     15  O   PI6 d   1       6.850  -5.873  19.059  0.00  0.00    -0.271 OA
ATOM     16  N   PI6 d   1       6.543  -7.355  17.370  0.00  0.00    -0.359 N 
ATOM     17  CA  PI6 d   1       6.161  -8.448  18.247  0.00  0.00    -0.003 C 
ATOM     18  C   PI6 d   1       5.077  -9.284  17.577  0.00  0.00    -0.030 C 
ATOM     19  C   PI6 d   1       3.687  -8.760  17.916  0.00  0.00     0.028 C 
ATOM     20  H25 PI6 d   1       4.821  -2.283  17.958  0.00  0.00     0.100 H 
ATOM     21  H26 PI6 d   1       3.114  -2.288  15.448  0.00  0.00     0.043 H 
ATOM     22  H27 PI6 d   1       2.601  -2.094  17.159  0.00  0.00     0.043 H 
ATOM     23  H28 PI6 d   1       3.037  -4.134  18.746  0.00  0.00     0.084 H 
ATOM     24  H29 PI6 d   1       3.087  -4.406  14.463  0.00  0.00     0.084 H 
ATOM     25  H30 PI6 d   1       2.980  -6.587  18.898  0.00  0.00     0.087 H 
ATOM     26  H31 PI6 d   1       3.011  -6.865  14.614  0.00  0.00     0.087 H 
ATOM     27  H32 PI6 d   1       6.082  -3.870  18.107  0.00  0.00     0.163 HD
ATOM     28  H33 PI6 d   1       7.084  -5.446  15.771  0.00  0.00     0.088 H 
ATOM     29  H43 PI6 d   1       6.561  -7.507  16.382  0.00  0.00     0.162 HD
ATOM     30  H44 PI6 d   1       7.039  -9.080  18.449  0.00  0.00     0.064 H 
ATOM     31  H45 PI6 d   1       5.777  -8.041  19.194  0.00  0.00     0.064 H 
ATOM     32  H46 PI6 d   1       5.162 -10.325  17.923  0.00  0.00     0.038 H 
ATOM     33  H47 PI6 d   1       5.218  -9.247  16.487  0.00  0.00     0.038 H 
ATOM     34  H48 PI6 d   1       3.091  -9.583  18.338  0.00  0.00     0.075 H 
ATOM     35  H49 PI6 d   1       3.783  -7.957  18.661  0.00  0.00     0.075 H 
ENDROOT
BRANCH   1  36
ATOM     36  N   PI6 d   1       4.980  -0.749  16.565  0.00  0.00    -0.060 N 
ATOM     37  H23 PI6 d   1       5.924  -0.533  16.845  0.00  0.00     0.278 HD
ATOM     38  H24 PI6 d   1       4.334  -0.203  17.113  0.00  0.00     0.278 HD
BRANCH  36  39
ATOM     39  CM  PI6 d   1       4.826  -0.350  15.162  0.00  0.00     0.108 C 
ATOM     40  H10 PI6 d   1       4.831  -1.234  14.507  0.00  0.00     0.079 H 
ATOM     41  H11 PI6 d   1       3.888   0.207  15.020  0.00  0.00     0.079 H 
BRANCH  39  42
ATOM     42  C   PI6 d   1       6.025   0.540  14.867  0.00  0.00     0.078 C 
ATOM     43  H21 PI6 d   1       5.949   1.461  15.463  0.00  0.00     0.088 H 
BRANCH  42  44
ATOM     44  O   PI6 d   1       7.214  -0.158  15.210  0.00  0.00    -0.392 OA
ATOM     45  H22 PI6 d   1       7.196  -0.377  16.134  0.00  0.00     0.210 HD
ENDBRANCH  42  44
BRANCH  42  46
ATOM     46  CA  PI6 d   1       6.086   0.898  13.394  0.00  0.00     0.044 C 
ATOM     47  H13 PI6 d   1       6.146  -0.026  12.801  0.00  0.00     0.077 H 
BRANCH  46  48
ATOM     48  CB  PI6 d   1       7.325   1.731  13.147  0.00  0.00    -0.020 C 
ATOM     49  H14 PI6 d   1       8.202   1.161  13.487  0.00  0.00     0.043 H 
ATOM     50  H15 PI6 d   1       7.243   2.660  13.730  0.00  0.00     0.043 H 
BRANCH  48  51
ATOM     51  CG  PI6 d   1       7.517   2.083  11.738  0.00  0.00    -0.056 A 
ATOM     52  CD2 PI6 d   1       7.277   3.381  11.300  0.00  0.00    -0.077 A 
ATOM     53  CE2 PI6 d   1       7.359   3.695   9.959  0.00  0.00    -0.082 A 
ATOM     54  H17 PI6 d   1       7.023   4.152  12.018  0.00  0.00     0.084 H 
ATOM     55  CZ  PI6 d   1       7.686   2.701   9.042  0.00  0.00    -0.083 A 
ATOM     56  H19 PI6 d   1       7.170   4.708   9.623  0.00  0.00     0.083 H 
ATOM     57  CE1 PI6 d   1       7.934   1.407   9.477  0.00  0.00    -0.082 A 
ATOM     58  H20 PI6 d   1       7.747   2.938   7.986  0.00  0.00     0.083 H 
ATOM     59  CD1 PI6 d   1       7.852   1.103  10.818  0.00  0.00    -0.077 A 
ATOM     60  H18 PI6 d   1       8.192   0.635   8.761  0.00  0.00     0.083 H 
ATOM     61  H16 PI6 d   1       8.051   0.092  11.155  0.00  0.00     0.084 H 
ENDBRANCH  48  51
ENDBRANCH  46  48
BRANCH  46  62
ATOM     62  N   PI6 d   1       4.892   1.641  12.992  0.00  0.00    -0.329 N 
ATOM     63  C   PI6 d   1       3.839   1.070  12.419  0.00  0.00     0.361 C 
ATOM     64  O1  PI6 d   1       3.812  -0.151  12.128  0.00  0.00    -0.238 OA
ATOM     65  H12 PI6 d   1       4.867   2.627  13.157  0.00  0.00     0.165 HD
BRANCH  63  66
ATOM     66  O2  PI6 d   1       2.846   1.907  12.139  0.00  0.00    -0.294 OA
BRANCH  66  67
ATOM     67  CT  PI6 d   1       1.609   1.362  11.669  0.00  0.00     0.061 C 
BRANCH  67  68
ATOM     68  C3  PI6 d   1       1.815   0.746  10.269  0.00  0.00    -0.048 C 
ATOM     69  H7  PI6 d   1       0.864   0.328   9.909  0.00  0.00     0.031 H 
ATOM     70  H8  PI6 d   1       2.568  -0.053  10.327  0.00  0.00     0.031 H 
ATOM     71  H9  PI6 d   1       2.160   1.525   9.573  0.00  0.00     0.031 H 
ENDBRANCH  67  68
BRANCH  67  72
ATOM     72  C2  PI6 d   1       0.650   2.515  11.579  0.00  0.00    -0.048 C 
ATOM     73  H4  PI6 d   1      -0.325   2.154  11.220  0.00  0.00     0.031 H 
ATOM     74  H5  PI6 d   1       1.044   3.265  10.877  0.00  0.00     0.031 H 
ATOM     75  H6  PI6 d   1       0.529   2.970  12.573  0.00  0.00     0.031 H 
ENDBRANCH  67  72
BRANCH  67  76
ATOM     76  C1  PI6 d   1       1.066   0.359  12.657  0.00  0.00    -0.048 C 
ATOM     77  H1  PI6 d   1       0.117  -0.049  12.281  0.00  0.00     0.031 H 
ATOM     78  H2  PI6 d   1       0.895   0.853  13.625  0.00  0.00     0.031 H 
ATOM     79  H3  PI6 d   1       1.791  -0.458  12.786  0.00  0.00     0.031 H 
ENDBRANCH  67  76
ENDBRANCH  66  67
ENDBRANCH  63  66
ENDBRANCH  46  62
ENDBRANCH  42  46
ENDBRANCH  39  42
ENDBRANCH  36  39
ENDBRANCH   1  36
BRANCH  13  80
ATOM     80  CB  PI6 d   1       8.739  -4.777  17.039  0.00  0.00    -0.030 C 
ATOM     81  H34 PI6 d   1       8.868  -4.485  18.091  0.00  0.00     0.043 H 
BRANCH  80  82
ATOM     82  CG1 PI6 d   1       9.222  -3.621  16.161  0.00  0.00    -0.063 C 
ATOM     83  H35 PI6 d   1      10.044  -3.107  16.680  0.00  0.00     0.033 H 
ATOM     84  H36 PI6 d   1       8.387  -2.921  16.014  0.00  0.00     0.033 H 
BRANCH  82  85
ATOM     85  CD1 PI6 d   1       9.703  -4.059  14.843  0.00  0.00    -0.076 C 
ATOM     86  H40 PI6 d   1      10.034  -3.184  14.264  0.00  0.00     0.027 H 
ATOM     87  H41 PI6 d   1       8.889  -4.567  14.306  0.00  0.00     0.027 H 
ATOM     88  H42 PI6 d   1      10.546  -4.753  14.973  0.00  0.00     0.027 H 
ENDBRANCH  82  85
ENDBRANCH  80  82
BRANCH  80  89
ATOM     89  CG2 PI6 d   1       9.576  -6.027  16.773  0.00  0.00    -0.071 C 
ATOM     90  H37 PI6 d   1       9.219  -6.850  17.410  0.00  0.00     0.028 H 
ATOM     91  H38 PI6 d   1      10.631  -5.817  17.002  0.00  0.00     0.028 H 
ATOM     92  H39 PI6 d   1       9.481  -6.314  15.715  0.00  0.00     0.028 H 
ENDBRANCH  80  89
ENDBRANCH  13  80
TORSDOF 17
