REMARK  9 active torsions:
REMARK  status: ('A' for Active; 'I' for Inactive)
REMARK    1  A    between atoms: C2_2  and  C11_7 
REMARK    2  A    between atoms: C11_7  and  C12_8 
REMARK    3  A    between atoms: C12_8  and  N18_11 
REMARK    4  A    between atoms: N18_11  and  C21_12 
REMARK    5  A    between atoms: N23_14  and  C33_20 
REMARK    6  A    between atoms: C24_15  and  C29_19 
REMARK    7  A    between atoms: C33_20  and  C34_21 
REMARK       I    between atoms: C34_21  and  N37_22 
REMARK    8  A    between atoms: N37_22  and  C39_24 
REMARK    9  A    between atoms: C39_24  and  C40_25 
ROOT
ATOM      1  C21 CDA d   1      18.088 -15.325  22.876  0.00  0.00     0.193 A 
ATOM      2  C22 CDA d   1      17.450 -14.043  22.465  0.00  0.00     0.294 A 
ATOM      3  N23 CDA d   1      18.098 -13.344  21.469  0.00  0.00    -0.305 N 
ATOM      4  C24 CDA d   1      19.318 -13.833  20.874  0.00  0.00     0.029 A 
ATOM      5  C25 CDA d   1      19.871 -15.040  21.337  0.00  0.00     0.026 A 
ATOM      6  N26 CDA d   1      19.251 -15.730  22.294  0.00  0.00    -0.237 NA
ATOM      7  O28 CDA d   1      16.412 -13.617  22.968  0.00  0.00    -0.264 OA
ATOM      8  H8  CDA d   1      20.804 -15.410  20.915  0.00  0.00     0.117 H 
ENDROOT
BRANCH   3   9
ATOM      9  C33 CDA d   1      17.494 -12.081  21.003  0.00  0.00     0.076 C 
ATOM     10  H12 CDA d   1      18.088 -11.686  20.166  0.00  0.00     0.079 H 
ATOM     11  H13 CDA d   1      17.497 -11.355  21.829  0.00  0.00     0.079 H 
BRANCH   9  12
ATOM     12  C34 CDA d   1      16.064 -12.297  20.538  0.00  0.00     0.236 C 
ATOM     13  N37 CDA d   1      15.199 -11.333  20.940  0.00  0.00    -0.354 N 
ATOM     14  H14 CDA d   1      15.523 -10.591  21.527  0.00  0.00     0.162 HD
ATOM     15  O38 CDA d   1      15.776 -13.264  19.835  0.00  0.00    -0.272 OA
BRANCH  13  16
ATOM     16  C39 CDA d   1      13.793 -11.368  20.523  0.00  0.00     0.038 C 
ATOM     17  H15 CDA d   1      13.617 -12.287  19.945  0.00  0.00     0.073 H 
ATOM     18  H16 CDA d   1      13.589 -10.492  19.890  0.00  0.00     0.073 H 
BRANCH  16  19
ATOM     19  C40 CDA d   1      12.849 -11.347  21.703  0.00  0.00     0.090 A 
ATOM     20  C43 CDA d   1      11.864 -12.376  21.829  0.00  0.00     0.142 A 
ATOM     21  C44 CDA d   1      10.973 -12.396  22.957  0.00  0.00    -0.042 A 
ATOM     22  F47 CDA d   1      11.827 -13.273  20.844  0.00  0.00    -0.204 F 
ATOM     23  C45 CDA d   1      11.096 -11.352  23.943  0.00  0.00    -0.063 A 
ATOM     24  H17 CDA d   1      10.228 -13.176  23.063  0.00  0.00     0.088 H 
ATOM     25  C50 CDA d   1      12.107 -10.331  23.758  0.00  0.00     0.003 A 
ATOM     26  H18 CDA d   1      10.443 -11.331  24.808  0.00  0.00     0.085 H 
ATOM     27  N46 CDA d   1      12.951 -10.350  22.658  0.00  0.00    -0.261 NA
ATOM     28  H19 CDA d   1      12.205  -9.539  24.492  0.00  0.00     0.114 H 
ENDBRANCH  16  19
ENDBRANCH  13  16
ENDBRANCH   9  12
ENDBRANCH   3   9
BRANCH   4  29
ATOM     29  C29 CDA d   1      20.027 -13.117  19.793  0.00  0.00    -0.036 C 
ATOM     30  H9  CDA d   1      20.925 -13.683  19.506  0.00  0.00     0.035 H 
ATOM     31  H10 CDA d   1      20.321 -12.117  20.146  0.00  0.00     0.035 H 
ATOM     32  H11 CDA d   1      19.363 -13.018  18.922  0.00  0.00     0.035 H 
ENDBRANCH   4  29
BRANCH   1  33
ATOM     33  N18 CDA d   1      17.476 -16.045  23.873  0.00  0.00    -0.364 N 
ATOM     34  H7  CDA d   1      16.519 -15.772  24.137  0.00  0.00     0.161 HD
BRANCH  33  35
ATOM     35  C12 CDA d   1      18.083 -17.176  24.592  0.00  0.00     0.061 C 
ATOM     36  H5  CDA d   1      17.319 -17.953  24.746  0.00  0.00     0.073 H 
ATOM     37  H6  CDA d   1      18.905 -17.585  23.986  0.00  0.00     0.073 H 
BRANCH  35  38
ATOM     38  C11 CDA d   1      18.631 -16.748  25.942  0.00  0.00     0.303 C 
ATOM     39  F13 CDA d   1      17.628 -16.114  26.588  0.00  0.00    -0.197 F 
ATOM     40  F1  CDA d   1      18.932 -17.875  26.602  0.00  0.00    -0.197 F 
BRANCH  38  41
ATOM     41  C2  CDA d   1      19.915 -15.927  25.832  0.00  0.00     0.107 A 
ATOM     42  N1  CDA d   1      21.003 -16.529  25.166  0.00  0.00    -0.259 NA
ATOM     43  C6  CDA d   1      22.210 -15.904  24.907  0.00  0.00     0.003 A 
ATOM     44  C5  CDA d   1      22.342 -14.541  25.372  0.00  0.00    -0.066 A 
ATOM     45  H4  CDA d   1      23.014 -16.409  24.384  0.00  0.00     0.114 H 
ATOM     46  C4  CDA d   1      21.253 -13.883  26.079  0.00  0.00    -0.080 A 
ATOM     47  H3  CDA d   1      23.265 -14.002  25.192  0.00  0.00     0.085 H 
ATOM     48  C3  CDA d   1      20.002 -14.559  26.324  0.00  0.00    -0.053 A 
ATOM     49  H2  CDA d   1      21.384 -12.865  26.428  0.00  0.00     0.083 H 
ATOM     50  H1  CDA d   1      19.179 -14.079  26.841  0.00  0.00     0.086 H 
ENDBRANCH  38  41
ENDBRANCH  35  38
ENDBRANCH  33  35
ENDBRANCH   1  33
TORSDOF 9
