REMARK  10 active torsions:
REMARK  status: ('A' for Active; 'I' for Inactive)
REMARK    1  A    between atoms: C2_2  and  C11_7 
REMARK    2  A    between atoms: C11_7  and  C12_8 
REMARK    3  A    between atoms: C12_8  and  N18_11 
REMARK    4  A    between atoms: N18_11  and  C21_12 
REMARK    5  A    between atoms: N23_14  and  C33_20 
REMARK    6  A    between atoms: C24_15  and  C29_19 
REMARK    7  A    between atoms: C33_20  and  C34_21 
REMARK       I    between atoms: C34_21  and  N37_22 
REMARK    8  A    between atoms: N37_22  and  C39_24 
REMARK    9  A    between atoms: C39_24  and  C40_25 
REMARK   10  A    between atoms: C44_27  and  C1_32 
ROOT
ATOM      1  C21 CDB d   1      18.146 -15.360  22.972  0.00  0.00     0.193 A 
ATOM      2  C22 CDB d   1      17.454 -14.125  22.483  0.00  0.00     0.294 A 
ATOM      3  N23 CDB d   1      18.105 -13.412  21.482  0.00  0.00    -0.305 N 
ATOM      4  C24 CDB d   1      19.351 -13.885  20.922  0.00  0.00     0.029 A 
ATOM      5  C25 CDB d   1      19.930 -15.065  21.433  0.00  0.00     0.026 A 
ATOM      6  N26 CDB d   1      19.336 -15.733  22.427  0.00  0.00    -0.237 NA
ATOM      7  O28 CDB d   1      16.369 -13.749  22.931  0.00  0.00    -0.264 OA
ATOM      8  H8  CDB d   1      20.866 -15.434  21.016  0.00  0.00     0.117 H 
ENDROOT
BRANCH   3   9
ATOM      9  C33 CDB d   1      17.460 -12.178  20.970  0.00  0.00     0.076 C 
ATOM     10  H12 CDB d   1      18.032 -11.796  20.111  0.00  0.00     0.079 H 
ATOM     11  H13 CDB d   1      17.442 -11.418  21.765  0.00  0.00     0.079 H 
BRANCH   9  12
ATOM     12  C34 CDB d   1      16.035 -12.486  20.532  0.00  0.00     0.236 C 
ATOM     13  N37 CDB d   1      15.091 -11.573  20.901  0.00  0.00    -0.354 N 
ATOM     14  H14 CDB d   1      15.367 -10.746  21.391  0.00  0.00     0.162 HD
ATOM     15  O38 CDB d   1      15.795 -13.493  19.876  0.00  0.00    -0.272 OA
BRANCH  13  16
ATOM     16  C39 CDB d   1      13.663 -11.794  20.584  0.00  0.00     0.038 C 
ATOM     17  H15 CDB d   1      13.555 -12.801  20.155  0.00  0.00     0.073 H 
ATOM     18  H16 CDB d   1      13.352 -11.044  19.842  0.00  0.00     0.073 H 
BRANCH  16  19
ATOM     19  C40 CDB d   1      12.738 -11.684  21.798  0.00  0.00     0.090 A 
ATOM     20  C43 CDB d   1      12.836 -10.567  22.669  0.00  0.00     0.148 A 
ATOM     21  C44 CDB d   1      11.987 -10.483  23.827  0.00  0.00    -0.020 A 
ATOM     22  F47 CDB d   1      13.730  -9.611  22.384  0.00  0.00    -0.203 F 
ATOM     23  C45 CDB d   1      11.036 -11.528  24.113  0.00  0.00    -0.057 A 
ATOM     24  C50 CDB d   1      10.961 -12.635  23.199  0.00  0.00     0.003 A 
ATOM     25  H17 CDB d   1      10.399 -11.481  24.988  0.00  0.00     0.086 H 
ATOM     26  N46 CDB d   1      11.802 -12.663  22.097  0.00  0.00    -0.261 NA
ATOM     27  H18 CDB d   1      10.255 -13.439  23.369  0.00  0.00     0.114 H 
BRANCH  21  28
ATOM     28  C1  CDB d   1      12.066  -9.314  24.745  0.00  0.00    -0.048 C 
ATOM     29  H19 CDB d   1      12.836  -8.616  24.384  0.00  0.00     0.033 H 
ATOM     30  H20 CDB d   1      12.328  -9.659  25.756  0.00  0.00     0.033 H 
ATOM     31  H21 CDB d   1      11.092  -8.803  24.773  0.00  0.00     0.033 H 
ENDBRANCH  21  28
ENDBRANCH  16  19
ENDBRANCH  13  16
ENDBRANCH   9  12
ENDBRANCH   3   9
BRANCH   4  32
ATOM     32  C29 CDB d   1      20.065 -13.180  19.833  0.00  0.00    -0.036 C 
ATOM     33  H9  CDB d   1      20.983 -13.731  19.580  0.00  0.00     0.035 H 
ATOM     34  H10 CDB d   1      20.326 -12.164  20.164  0.00  0.00     0.035 H 
ATOM     35  H11 CDB d   1      19.416 -13.122  18.947  0.00  0.00     0.035 H 
ENDBRANCH   4  32
BRANCH   1  36
ATOM     36  N18 CDB d   1      17.553 -16.068  23.996  0.00  0.00    -0.364 N 
ATOM     37  H7  CDB d   1      16.619 -15.764  24.306  0.00  0.00     0.161 HD
BRANCH  36  38
ATOM     38  C12 CDB d   1      18.155 -17.228  24.682  0.00  0.00     0.061 C 
ATOM     39  H5  CDB d   1      17.377 -17.993  24.825  0.00  0.00     0.073 H 
ATOM     40  H6  CDB d   1      18.956 -17.634  24.047  0.00  0.00     0.073 H 
BRANCH  38  41
ATOM     41  C11 CDB d   1      18.747 -16.875  26.044  0.00  0.00     0.303 C 
ATOM     42  F13 CDB d   1      17.780 -16.290  26.795  0.00  0.00    -0.197 F 
ATOM     43  F1  CDB d   1      19.061 -18.050  26.611  0.00  0.00    -0.197 F 
BRANCH  41  44
ATOM     44  C2  CDB d   1      20.033 -16.052  25.922  0.00  0.00     0.107 A 
ATOM     45  N1  CDB d   1      21.178 -16.701  25.407  0.00  0.00    -0.259 NA
ATOM     46  C6  CDB d   1      22.379 -16.076  25.112  0.00  0.00     0.003 A 
ATOM     47  C5  CDB d   1      22.453 -14.653  25.387  0.00  0.00    -0.066 A 
ATOM     48  H4  CDB d   1      23.219 -16.621  24.698  0.00  0.00     0.114 H 
ATOM     49  C4  CDB d   1      21.315 -13.943  25.957  0.00  0.00    -0.080 A 
ATOM     50  H3  CDB d   1      23.366 -14.112  25.166  0.00  0.00     0.085 H 
ATOM     51  C3  CDB d   1      20.065 -14.626  26.228  0.00  0.00    -0.053 A 
ATOM     52  H2  CDB d   1      21.405 -12.886  26.182  0.00  0.00     0.083 H 
ATOM     53  H1  CDB d   1      19.204 -14.107  26.634  0.00  0.00     0.086 H 
ENDBRANCH  41  44
ENDBRANCH  38  41
ENDBRANCH  36  38
ENDBRANCH   1  36
TORSDOF 10
