REMARK  8 active torsions:
REMARK  status: ('A' for Active; 'I' for Inactive)
REMARK    1  A    between atoms: C3_3  and  C11_7 
REMARK    2  A    between atoms: C11_7  and  C12_8 
REMARK    3  A    between atoms: C12_8  and  N15_11 
REMARK    4  A    between atoms: N15_11  and  C18_12 
REMARK    5  A    between atoms: N20_14  and  C24_18 
REMARK    6  A    between atoms: C24_18  and  C25_19 
REMARK       I    between atoms: C25_19  and  N28_20 
REMARK    7  A    between atoms: N28_20  and  C29_21 
REMARK    8  A    between atoms: C29_21  and  C30_22 
ROOT
ATOM      1  C18 CDD d   1      17.918 -15.254  23.178  0.00  0.00     0.193 A 
ATOM      2  C19 CDD d   1      17.274 -14.032  22.494  0.00  0.00     0.295 A 
ATOM      3  N20 CDD d   1      18.009 -13.445  21.516  0.00  0.00    -0.291 N 
ATOM      4  C21 CDD d   1      19.355 -13.947  21.172  0.00  0.00     0.126 A 
ATOM      5  C22 CDD d   1      19.930 -15.038  21.938  0.00  0.00     0.042 A 
ATOM      6  N23 CDD d   1      19.198 -15.619  22.910  0.00  0.00    -0.235 NA
ATOM      7  O42 CDD d   1      16.142 -13.664  22.826  0.00  0.00    -0.264 OA
ATOM      8 CL43 CDD d   1      20.242 -13.237  19.893  0.00  0.00    -0.063 Cl
ATOM      9  H8  CDD d   1      20.942 -15.383  21.730  0.00  0.00     0.119 H 
ENDROOT
BRANCH   3  10
ATOM     10  C24 CDD d   1      17.546 -12.261  20.778  0.00  0.00     0.077 C 
ATOM     11  H9  CDD d   1      18.134 -12.172  19.853  0.00  0.00     0.079 H 
ATOM     12  H10 CDD d   1      17.710 -11.371  21.404  0.00  0.00     0.079 H 
BRANCH  10  13
ATOM     13  C25 CDD d   1      16.067 -12.331  20.410  0.00  0.00     0.236 C 
ATOM     14  N28 CDD d   1      15.287 -11.484  21.127  0.00  0.00    -0.355 N 
ATOM     15  H11 CDD d   1      15.665 -10.932  21.870  0.00  0.00     0.162 HD
ATOM     16  O44 CDD d   1      15.657 -13.109  19.542  0.00  0.00    -0.272 OA
BRANCH  14  17
ATOM     17  C29 CDD d   1      13.869 -11.411  20.768  0.00  0.00     0.022 C 
ATOM     18  H12 CDD d   1      13.631 -12.273  20.127  0.00  0.00     0.071 H 
ATOM     19  H13 CDD d   1      13.704 -10.480  20.206  0.00  0.00     0.071 H 
BRANCH  17  20
ATOM     20  C30 CDD d   1      12.915 -11.425  21.962  0.00  0.00    -0.002 A 
ATOM     21  C33 CDD d   1      12.900 -10.375  22.895  0.00  0.00    -0.072 A 
ATOM     22  C34 CDD d   1      12.019 -10.435  24.000  0.00  0.00    -0.082 A 
ATOM     23  H14 CDD d   1      13.559  -9.524  22.769  0.00  0.00     0.084 H 
ATOM     24  C35 CDD d   1      11.112 -11.493  24.137  0.00  0.00    -0.080 A 
ATOM     25  H15 CDD d   1      12.046  -9.653  24.750  0.00  0.00     0.083 H 
ATOM     26  C2  CDD d   1      11.125 -12.532  23.210  0.00  0.00    -0.045 A 
ATOM     27  H16 CDD d   1      10.405 -11.503  24.959  0.00  0.00     0.083 H 
ATOM     28  C37 CDD d   1      12.037 -12.494  22.142  0.00  0.00     0.124 A 
ATOM     29  H17 CDD d   1      10.437 -13.364  23.312  0.00  0.00     0.088 H 
ATOM     30  F1  CDD d   1      12.189 -13.520  21.288  0.00  0.00    -0.205 F 
ENDBRANCH  17  20
ENDBRANCH  14  17
ENDBRANCH  10  13
ENDBRANCH   3  10
BRANCH   1  31
ATOM     31  N15 CDD d   1      17.158 -15.935  24.136  0.00  0.00    -0.364 N 
ATOM     32  H7  CDD d   1      16.205 -15.675  24.428  0.00  0.00     0.161 HD
BRANCH  31  33
ATOM     33  C12 CDD d   1      17.918 -17.072  24.662  0.00  0.00     0.061 C 
ATOM     34  H5  CDD d   1      17.231 -17.911  24.845  0.00  0.00     0.073 H 
ATOM     35  H6  CDD d   1      18.675 -17.373  23.923  0.00  0.00     0.073 H 
BRANCH  33  36
ATOM     36  C11 CDD d   1      18.603 -16.706  25.948  0.00  0.00     0.303 C 
ATOM     37  F13 CDD d   1      18.966 -17.824  26.599  0.00  0.00    -0.197 F 
ATOM     38  F14 CDD d   1      17.736 -16.005  26.728  0.00  0.00    -0.197 F 
BRANCH  36  39
ATOM     39  C3  CDD d   1      19.851 -15.889  25.725  0.00  0.00     0.115 A 
ATOM     40  N2  CDD d   1      20.953 -16.453  25.205  0.00  0.00    -0.198 N 
ATOM     41  C1  CDD d   1      22.080 -15.758  25.090  0.00  0.00     0.011 A 
ATOM     42  O1  CDD d   1      20.952 -17.770  24.807  0.00  0.00    -0.081 OA
ATOM     43  C6  CDD d   1      22.123 -14.426  25.480  0.00  0.00    -0.065 A 
ATOM     44  H1  CDD d   1      22.969 -16.233  24.690  0.00  0.00     0.115 H 
ATOM     45  C5  CDD d   1      20.971 -13.818  25.977  0.00  0.00    -0.080 A 
ATOM     46  H4  CDD d   1      23.046 -13.863  25.399  0.00  0.00     0.085 H 
ATOM     47  C4  CDD d   1      19.836 -14.563  26.121  0.00  0.00    -0.052 A 
ATOM     48  H3  CDD d   1      20.976 -12.768  26.245  0.00  0.00     0.083 H 
ATOM     49  H2  CDD d   1      18.938 -14.123  26.539  0.00  0.00     0.086 H 
ENDBRANCH  36  39
ENDBRANCH  33  36
ENDBRANCH  31  33
ENDBRANCH   1  31
TORSDOF 8
