REMARK  4 active torsions:
REMARK  status: ('A' for Active; 'I' for Inactive)
REMARK    1  A    between atoms: N1_1  and  C7_10 
REMARK    2  A    between atoms: C7_10  and  C8_11 
REMARK    3  A    between atoms: C8_11  and  N8_12 
REMARK    4  A    between atoms: C8_11  and  C9_13 
ROOT
ATOM      1  C7  IWD d   1      77.715  27.008  43.923  0.00  0.00     0.040 C 
ATOM      2  H3  IWD d   1      77.804  28.067  44.207  0.00  0.00     0.069 H 
ATOM      3  H4  IWD d   1      78.545  26.439  44.366  0.00  0.00     0.069 H 
ENDROOT
BRANCH   1   4
ATOM      4  N1  IWD d   1      77.780  26.897  42.486  0.00  0.00    -0.306 N 
ATOM      5  C2  IWD d   1      77.893  25.633  41.902  0.00  0.00     0.329 A 
ATOM      6  O2  IWD d   1      77.975  24.618  42.533  0.00  0.00    -0.246 OA
ATOM      7  N3  IWD d   1      77.864  25.652  40.492  0.00  0.00    -0.274 N 
ATOM      8  C4  IWD d   1      77.761  26.758  39.676  0.00  0.00     0.267 A 
ATOM      9  H1  IWD d   1      77.925  24.765  40.034  0.00  0.00     0.173 HD
ATOM     10  O4  IWD d   1      77.762  26.672  38.471  0.00  0.00    -0.267 OA
ATOM     11  C5  IWD d   1      77.626  28.079  40.441  0.00  0.00     0.090 A 
ATOM     12  I5  IWD d   1      77.339  29.964  39.464  0.00  0.00    -0.037 I 
ATOM     13  C6  IWD d   1      77.627  28.022  41.773  0.00  0.00     0.006 A 
ATOM     14  H2  IWD d   1      77.494  28.954  42.320  0.00  0.00     0.114 H 
ENDBRANCH   1   4
BRANCH   1  15
ATOM     15  C8  IWD d   1      76.417  26.468  44.443  0.00  0.00     0.198 C 
ATOM     16  H5  IWD d   1      76.200  25.541  43.893  0.00  0.00     0.103 H 
BRANCH  15  17
ATOM     17  N8  IWD d   1      75.311  27.461  44.164  0.00  0.00    -0.064 N 
ATOM     18  H6  IWD d   1      74.438  27.098  44.514  0.00  0.00     0.275 HD
ATOM     19  H7  IWD d   1      75.238  27.612  43.170  0.00  0.00     0.275 HD
ATOM     20  H8  IWD d   1      75.520  28.334  44.623  0.00  0.00     0.275 HD
ENDBRANCH  15  17
BRANCH  15  21
ATOM     21  C9  IWD d   1      76.430  26.131  45.915  0.00  0.00     0.206 C 
ATOM     22  O91 IWD d   1      75.596  26.648  46.609  0.00  0.00    -0.646 OA
ATOM     23  O92 IWD d   1      77.386  25.347  46.281  0.00  0.00    -0.646 OA
ENDBRANCH  15  21
ENDBRANCH   1  15
TORSDOF 4
