REMARK  3 active torsions:
REMARK  status: ('A' for Active; 'I' for Inactive)
REMARK    1  A    between atoms: C6_8  and  O3_9 
REMARK    2  A    between atoms: C10_13  and  C14_17 
REMARK    3  A    between atoms: C19_22  and  C20_23 
ROOT
ATOM      1  C1  FLU d   1       6.595  75.023  53.201  0.00  0.00     0.174 A 
ATOM      2  O1  FLU d   1       6.258  74.237  54.123  0.00  0.00    -0.288 OA
ATOM      3  C2  FLU d   1       6.423  74.623  51.873  0.00  0.00    -0.001 A 
ATOM      4  C3  FLU d   1       6.773  75.475  50.873  0.00  0.00     0.091 A 
ATOM      5  O2  FLU d   1       6.559  74.987  49.589  0.00  0.00    -0.309 OA
ATOM      6  C4  FLU d   1       6.801  75.785  48.505  0.00  0.00     0.089 A 
ATOM      7  C5  FLU d   1       6.547  75.199  47.280  0.00  0.00    -0.018 A 
ATOM      8  C6  FLU d   1       6.750  75.942  46.121  0.00  0.00     0.068 A 
ATOM      9  C7  FLU d   1       7.250  77.267  46.269  0.00  0.00    -0.050 A 
ATOM     10  C8  FLU d   1       7.487  77.842  47.502  0.00  0.00    -0.067 A 
ATOM     11  C9  FLU d   1       7.263  77.101  48.697  0.00  0.00     0.010 A 
ATOM     12  C10 FLU d   1       7.540  77.586  50.016  0.00  0.00     0.001 A 
ATOM     13  C11 FLU d   1       7.248  76.781  51.099  0.00  0.00     0.010 A 
ATOM     14  C12 FLU d   1       7.419  77.174  52.481  0.00  0.00    -0.066 A 
ATOM     15  C13 FLU d   1       7.081  76.345  53.488  0.00  0.00    -0.034 A 
ATOM     16  H1  FLU d   1       6.014  73.641  51.642  0.00  0.00     0.094 H 
ATOM     17  H2  FLU d   1       6.195  74.175  47.222  0.00  0.00     0.092 H 
ATOM     18  H4  FLU d   1       7.453  77.848  45.377  0.00  0.00     0.087 H 
ATOM     19  H5  FLU d   1       7.846  78.863  47.560  0.00  0.00     0.085 H 
ATOM     20  H6  FLU d   1       7.828  78.157  52.711  0.00  0.00     0.085 H 
ATOM     21  H7  FLU d   1       7.176  76.677  54.521  0.00  0.00     0.089 H 
ENDROOT
BRANCH  12  22
ATOM     22  C14 FLU d   1       7.955  79.025  50.183  0.00  0.00    -0.007 A 
ATOM     23  C15 FLU d   1       6.980  79.918  50.588  0.00  0.00    -0.071 A 
ATOM     24  C16 FLU d   1       7.278  81.262  50.738  0.00  0.00    -0.082 A 
ATOM     25  H8  FLU d   1       5.976  79.564  50.789  0.00  0.00     0.084 H 
ATOM     26  C17 FLU d   1       8.512  81.769  50.413  0.00  0.00    -0.082 A 
ATOM     27  H9  FLU d   1       6.517  81.931  51.122  0.00  0.00     0.083 H 
ATOM     28  C18 FLU d   1       9.479  80.885  49.972  0.00  0.00    -0.066 A 
ATOM     29  H10 FLU d   1       8.721  82.829  50.499  0.00  0.00     0.083 H 
ATOM     30  C19 FLU d   1       9.209  79.526  49.847  0.00  0.00     0.051 A 
ATOM     31  H11 FLU d   1      10.465  81.257  49.719  0.00  0.00     0.085 H 
BRANCH  30  32
ATOM     32  C20 FLU d   1      10.271  78.614  49.353  0.00  0.00     0.210 C 
ATOM     33  O4  FLU d   1      11.003  79.042  48.468  0.00  0.00    -0.644 OA
ATOM     34  O5  FLU d   1      10.322  77.487  49.849  0.00  0.00    -0.644 OA
ENDBRANCH  30  32
ENDBRANCH  12  22
BRANCH   8  35
ATOM     35  O3  FLU d   1       6.500  75.400  44.942  0.00  0.00    -0.361 OA
ATOM     36  H3  FLU d   1       5.585  75.147  44.898  0.00  0.00     0.217 HD
ENDBRANCH   8  35
TORSDOF 3
