REMARK  5 active torsions:
REMARK  status: ('A' for Active; 'I' for Inactive)
REMARK    1  A    between atoms: O5'_1  and  C5'_2 
REMARK    2  A    between atoms: C5'_2  and  C4'_3 
REMARK    3  A    between atoms: C3'_5  and  O3'_6 
REMARK    4  A    between atoms: N1'_8  and  C10_9 
REMARK    5  A    between atoms: C10_9  and  C9_10 
ROOT
ATOM      1  C4' DIH d   1      56.246  15.618  44.734  0.00  0.00     0.016 C 
ATOM      2  C6' DIH d   1      57.046  15.634  43.503  0.00  0.00     0.091 C 
ATOM      3  C3' DIH d   1      56.071  17.032  45.172  0.00  0.00     0.066 C 
ATOM      4  C2' DIH d   1      56.212  17.632  43.827  0.00  0.00     0.108 C 
ATOM      5  N1' DIH d   1      57.355  17.020  43.210  0.00  0.00    -0.064 N 
ATOM      6  H4  DIH d   1      56.788  15.070  45.519  0.00  0.00     0.049 H 
ATOM      7  H5  DIH d   1      56.472  15.193  42.675  0.00  0.00     0.076 H 
ATOM      8  H6  DIH d   1      57.975  15.064  43.650  0.00  0.00     0.076 H 
ATOM      9  H7  DIH d   1      55.043  17.189  45.530  0.00  0.00     0.086 H 
ATOM     10  H9  DIH d   1      56.365  18.718  43.912  0.00  0.00     0.080 H 
ATOM     11  H10 DIH d   1      55.310  17.435  43.229  0.00  0.00     0.080 H 
ATOM     12  H11 DIH d   1      58.203  17.317  43.666  0.00  0.00     0.280 HD
ENDROOT
BRANCH   5  13
ATOM     13  C10 DIH d   1      57.511  17.229  41.789  0.00  0.00     0.111 C 
ATOM     14  H12 DIH d   1      58.491  16.787  41.557  0.00  0.00     0.083 H 
ATOM     15  H13 DIH d   1      57.567  18.322  41.682  0.00  0.00     0.083 H 
BRANCH  13  16
ATOM     16  C9  DIH d   1      56.642  16.797  40.666  0.00  0.00     0.014 A 
ATOM     17  C8  DIH d   1      56.744  15.687  39.837  0.00  0.00    -0.012 A 
ATOM     18  N7  DIH d   1      55.807  15.580  38.925  0.00  0.00    -0.359 N 
ATOM     19  H14 DIH d   1      57.546  14.957  39.937  0.00  0.00     0.112 H 
ATOM     20  C5  DIH d   1      54.998  16.689  39.129  0.00  0.00     0.130 A 
ATOM     21  H15 DIH d   1      55.697  14.840  38.217  0.00  0.00     0.165 HD
ATOM     22  C6  DIH d   1      53.786  17.131  38.430  0.00  0.00     0.275 A 
ATOM     23  C4  DIH d   1      55.490  17.466  40.207  0.00  0.00     0.099 A 
ATOM     24  O6  DIH d   1      53.238  16.570  37.484  0.00  0.00    -0.266 OA
ATOM     25  N1  DIH d   1      53.217  18.351  38.936  0.00  0.00    -0.316 N 
ATOM     26  C2  DIH d   1      53.753  19.104  40.030  0.00  0.00     0.067 A 
ATOM     27  H16 DIH d   1      52.390  18.698  38.493  0.00  0.00     0.170 HD
ATOM     28  N3  DIH d   1      54.902  18.686  40.695  0.00  0.00    -0.241 NA
ATOM     29  H17 DIH d   1      53.254  20.018  40.347  0.00  0.00     0.143 H 
ENDBRANCH  13  16
ENDBRANCH   5  13
BRANCH   1  30
ATOM     30  C5' DIH d   1      54.963  14.914  44.471  0.00  0.00     0.024 C 
ATOM     31  H2  DIH d   1      54.410  14.974  45.420  0.00  0.00     0.074 H 
ATOM     32  H3  DIH d   1      54.456  15.528  43.712  0.00  0.00     0.074 H 
BRANCH  30  33
ATOM     33  O5' DIH d   1      54.786  13.576  44.032  0.00  0.00    -0.400 OA
ATOM     34  H1  DIH d   1      53.858  13.392  43.947  0.00  0.00     0.209 HD
ENDBRANCH  30  33
ENDBRANCH   1  30
BRANCH   3  35
ATOM     35  O3' DIH d   1      56.905  17.466  46.228  0.00  0.00    -0.393 OA
ATOM     36  H8  DIH d   1      56.745  16.931  46.997  0.00  0.00     0.210 HD
ENDBRANCH   3  35
TORSDOF 5
