REMARK  9 active torsions:
REMARK  status: ('A' for Active; 'I' for Inactive)
REMARK    1  A    between atoms: N5_6  and  C4_9 
REMARK    2  A    between atoms: C6_11  and  C7_12 
REMARK    3  A    between atoms: C2_14  and  C19_15 
REMARK    4  A    between atoms: C1_16  and  O20_17 
REMARK    5  A    between atoms: O20_17  and  C21_18 
REMARK    6  A    between atoms: C24_21  and  C25_22 
REMARK    7  A    between atoms: C25_22  and  C8_23 
REMARK    8  A    between atoms: C25_22  and  C9_24 
REMARK    9  A    between atoms: C26_25  and  O27_27 
ROOT
ATOM      1  C4  PFA d   1      19.299   5.407   4.443  0.00  0.00     0.064 A 
ATOM      2  C5  PFA d   1      20.493   6.176   4.753  0.00  0.00    -0.046 A 
ATOM      3  C6  PFA d   1      20.859   7.233   3.877  0.00  0.00    -0.025 A 
ATOM      4  C3  PFA d   1      18.553   5.719   3.321  0.00  0.00    -0.046 A 
ATOM      5  C2  PFA d   1      18.956   6.702   2.397  0.00  0.00    -0.025 A 
ATOM      6  C1  PFA d   1      20.103   7.482   2.696  0.00  0.00     0.088 A 
ATOM      7  H3  PFA d   1      21.089   5.949   5.630  0.00  0.00     0.088 H 
ATOM      8  H7  PFA d   1      17.624   5.188   3.147  0.00  0.00     0.088 H 
ENDROOT
BRANCH   6   9
ATOM      9  O20 PFA d   1      20.380   8.504   1.813  0.00  0.00    -0.310 OA
BRANCH   9  10
ATOM     10  C21 PFA d   1      21.419   8.339   0.910  0.00  0.00     0.076 A 
ATOM     11  C31 PFA d   1      21.680   7.075   0.261  0.00  0.00    -0.048 A 
ATOM     12  C29 PFA d   1      22.756   7.045  -0.637  0.00  0.00    -0.048 A 
ATOM     13  H11 PFA d   1      21.076   6.197   0.458  0.00  0.00     0.087 H 
ATOM     14  C26 PFA d   1      23.583   8.175  -0.855  0.00  0.00     0.072 A 
ATOM     15  H20 PFA d   1      22.962   6.130  -1.181  0.00  0.00     0.087 H 
ATOM     16  C24 PFA d   1      23.295   9.425  -0.257  0.00  0.00    -0.019 A 
ATOM     17  C22 PFA d   1      22.220   9.512   0.664  0.00  0.00    -0.041 A 
ATOM     18  H12 PFA d   1      22.005  10.444   1.174  0.00  0.00     0.088 H 
BRANCH  14  19
ATOM     19  O27 PFA d   1      24.637   8.036  -1.731  0.00  0.00    -0.360 OA
ATOM     20  H21 PFA d   1      24.305   7.799  -2.589  0.00  0.00     0.217 HD
ENDBRANCH  14  19
BRANCH  16  21
ATOM     21  C25 PFA d   1      24.211  10.646  -0.504  0.00  0.00    -0.033 C 
ATOM     22  H13 PFA d   1      24.841  10.493  -1.392  0.00  0.00     0.046 H 
BRANCH  21  23
ATOM     23  C8  PFA d   1      23.293  11.889  -0.716  0.00  0.00    -0.069 C 
ATOM     24  H14 PFA d   1      23.915  12.778  -0.895  0.00  0.00     0.028 H 
ATOM     25  H15 PFA d   1      22.677  12.047   0.181  0.00  0.00     0.028 H 
ATOM     26  H16 PFA d   1      22.639  11.718  -1.584  0.00  0.00     0.028 H 
ENDBRANCH  21  23
BRANCH  21  27
ATOM     27  C9  PFA d   1      25.097  10.780   0.760  0.00  0.00    -0.069 C 
ATOM     28  H17 PFA d   1      25.724   9.882   0.865  0.00  0.00     0.028 H 
ATOM     29  H18 PFA d   1      24.456  10.886   1.648  0.00  0.00     0.028 H 
ATOM     30  H19 PFA d   1      25.741  11.667   0.664  0.00  0.00     0.028 H 
ENDBRANCH  21  27
ENDBRANCH  16  21
ENDBRANCH   9  10
ENDBRANCH   6   9
BRANCH   3  31
ATOM     31  C7  PFA d   1      22.040   8.059   4.115  0.00  0.00    -0.049 C 
ATOM     32  H4  PFA d   1      22.517   7.753   5.058  0.00  0.00     0.033 H 
ATOM     33  H5  PFA d   1      21.741   9.116   4.181  0.00  0.00     0.033 H 
ATOM     34  H6  PFA d   1      22.751   7.930   3.285  0.00  0.00     0.033 H 
ENDBRANCH   3  31
BRANCH   5  35
ATOM     35  C19 PFA d   1      18.088   7.020   1.162  0.00  0.00    -0.049 C 
ATOM     36  H8  PFA d   1      17.253   6.306   1.107  0.00  0.00     0.033 H 
ATOM     37  H9  PFA d   1      18.701   6.938   0.252  0.00  0.00     0.033 H 
ATOM     38  H10 PFA d   1      17.691   8.042   1.246  0.00  0.00     0.033 H 
ENDBRANCH   5  35
BRANCH   1  39
ATOM     39  N5  PFA d   1      19.023   4.410   5.400  0.00  0.00    -0.183 N 
ATOM     40  C14 PFA d   1      18.023   4.377   6.268  0.00  0.00     0.350 A 
ATOM     41  O9  PFA d   1      17.223   5.255   6.139  0.00  0.00    -0.244 OA
ATOM     42  N6  PFA d   1      17.977   3.356   7.189  0.00  0.00    -0.273 N 
ATOM     43  C10 PFA d   1      18.947   2.397   7.246  0.00  0.00     0.268 A 
ATOM     44  H1  PFA d   1      17.213   3.315   7.833  0.00  0.00     0.173 HD
ATOM     45  O8  PFA d   1      18.955   1.489   8.047  0.00  0.00    -0.266 OA
ATOM     46  C17 PFA d   1      20.019   2.446   6.252  0.00  0.00     0.088 A 
ATOM     47  N3  PFA d   1      20.032   3.413   5.406  0.00  0.00    -0.170 NA
ATOM     48  H2  PFA d   1      20.791   1.678   6.229  0.00  0.00     0.126 H 
ENDBRANCH   1  39
TORSDOF 9
