REMARK  10 active torsions:
REMARK  status: ('A' for Active; 'I' for Inactive)
REMARK    1  A    between atoms: C1_1  and  C16_16 
REMARK    2  A    between atoms: C1_1  and  C17_17 
REMARK    3  A    between atoms: C5_5  and  C18_18 
REMARK    4  A    between atoms: C6_6  and  C7_7 
REMARK    5  A    between atoms: C8_8  and  C9_9 
REMARK    6  A    between atoms: C9_9  and  C19_19 
REMARK    7  A    between atoms: C10_10  and  C11_11 
REMARK    8  A    between atoms: C12_12  and  C13_13 
REMARK    9  A    between atoms: C13_13  and  C20_20 
REMARK   10  A    between atoms: C14_14  and  C15_15 
ROOT
ATOM      1  C7  REA d   1      24.919  31.045   7.334  0.00  0.00    -0.075 C 
ATOM      2  C8  REA d   1      25.046  29.710   7.573  0.00  0.00    -0.077 C 
ATOM      3  H7  REA d   1      25.740  31.646   7.722  0.00  0.00     0.084 H 
ATOM      4  H8  REA d   1      24.315  29.048   7.111  0.00  0.00     0.084 H 
ENDROOT
BRANCH   1   5
ATOM      5  C6  REA d   1      23.862  31.835   6.638  0.00  0.00    -0.048 C 
ATOM      6  C1  REA d   1      22.676  32.386   7.585  0.00  0.00    -0.020 C 
ATOM      7  C2  REA d   1      21.906  33.574   6.875  0.00  0.00    -0.054 C 
ATOM      8  C3  REA d   1      21.637  33.455   5.374  0.00  0.00    -0.061 C 
ATOM      9  H1  REA d   1      22.498  34.488   7.030  0.00  0.00     0.034 H 
ATOM     10  H2  REA d   1      20.932  33.679   7.375  0.00  0.00     0.034 H 
ATOM     11  C4  REA d   1      22.790  32.926   4.506  0.00  0.00    -0.044 C 
ATOM     12  H3  REA d   1      21.372  34.456   5.002  0.00  0.00     0.033 H 
ATOM     13  H4  REA d   1      20.782  32.776   5.241  0.00  0.00     0.033 H 
ATOM     14  C5  REA d   1      23.891  32.096   5.255  0.00  0.00    -0.077 C 
ATOM     15  H5  REA d   1      23.282  33.791   4.037  0.00  0.00     0.039 H 
ATOM     16  H6  REA d   1      22.356  32.283   3.726  0.00  0.00     0.039 H 
BRANCH   6  17
ATOM     17  C16 REA d   1      21.650  31.254   7.888  0.00  0.00    -0.065 C 
ATOM     18  H13 REA d   1      22.164  30.416   8.382  0.00  0.00     0.028 H 
ATOM     19  H14 REA d   1      21.201  30.904   6.947  0.00  0.00     0.028 H 
ATOM     20  H15 REA d   1      20.861  31.642   8.549  0.00  0.00     0.028 H 
ENDBRANCH   6  17
BRANCH   6  21
ATOM     21  C17 REA d   1      23.235  32.990   8.910  0.00  0.00    -0.065 C 
ATOM     22  H16 REA d   1      23.956  33.786   8.674  0.00  0.00     0.028 H 
ATOM     23  H17 REA d   1      23.736  32.201   9.490  0.00  0.00     0.028 H 
ATOM     24  H18 REA d   1      22.407  33.409   9.500  0.00  0.00     0.028 H 
ENDBRANCH   6  21
BRANCH  14  25
ATOM     25  C18 REA d   1      24.948  31.651   4.234  0.00  0.00    -0.054 C 
ATOM     26  H19 REA d   1      25.728  31.067   4.745  0.00  0.00     0.033 H 
ATOM     27  H20 REA d   1      25.401  32.537   3.765  0.00  0.00     0.033 H 
ATOM     28  H21 REA d   1      24.472  31.030   3.461  0.00  0.00     0.033 H 
ENDBRANCH  14  25
ENDBRANCH   1   5
BRANCH   2  29
ATOM     29  C9  REA d   1      26.080  29.094   8.397  0.00  0.00    -0.062 C 
ATOM     30  C10 REA d   1      26.066  27.725   8.531  0.00  0.00    -0.077 C 
ATOM     31  H9  REA d   1      25.291  27.153   8.022  0.00  0.00     0.084 H 
BRANCH  30  32
ATOM     32  C11 REA d   1      27.051  27.018   9.329  0.00  0.00    -0.082 C 
ATOM     33  C12 REA d   1      27.070  25.694   9.440  0.00  0.00    -0.077 C 
ATOM     34  H11 REA d   1      26.315  25.117   8.908  0.00  0.00     0.084 H 
ATOM     35  H10 REA d   1      27.806  27.597   9.859  0.00  0.00     0.083 H 
BRANCH  33  36
ATOM     36  C13 REA d   1      28.057  24.977  10.242  0.00  0.00    -0.056 C 
ATOM     37  C14 REA d   1      27.951  23.626  10.224  0.00  0.00    -0.004 C 
ATOM     38  H12 REA d   1      27.136  23.262   9.599  0.00  0.00     0.094 H 
BRANCH  37  39
ATOM     39  C15 REA d   1      28.705  22.564  10.870  0.00  0.00     0.199 C 
ATOM     40  O1  REA d   1      28.377  21.424  10.626  0.00  0.00    -0.644 OA
ATOM     41  O2  REA d   1      29.641  22.779  11.628  0.00  0.00    -0.644 OA
ENDBRANCH  37  39
BRANCH  36  42
ATOM     42  C20 REA d   1      29.159  25.776  11.043  0.00  0.00    -0.051 C 
ATOM     43  H25 REA d   1      29.017  26.855  10.885  0.00  0.00     0.033 H 
ATOM     44  H26 REA d   1      30.157  25.482  10.687  0.00  0.00     0.033 H 
ATOM     45  H27 REA d   1      29.070  25.548  12.115  0.00  0.00     0.033 H 
ENDBRANCH  36  42
ENDBRANCH  33  36
ENDBRANCH  30  32
BRANCH  29  46
ATOM     46  C19 REA d   1      27.157  29.991   9.084  0.00  0.00    -0.051 C 
ATOM     47  H22 REA d   1      26.968  31.046   8.836  0.00  0.00     0.033 H 
ATOM     48  H23 REA d   1      28.157  29.703   8.726  0.00  0.00     0.033 H 
ATOM     49  H24 REA d   1      27.105  29.856  10.174  0.00  0.00     0.033 H 
ENDBRANCH  29  46
ENDBRANCH   2  29
TORSDOF 10
