REMARK  9 active torsions:
REMARK  status: ('A' for Active; 'I' for Inactive)
REMARK    1  A    between atoms: C1_1  and  O1_7 
REMARK    2  A    between atoms: C2_2  and  O2_8 
REMARK    3  A    between atoms: C3_3  and  O3_9 
REMARK    4  A    between atoms: C4_4  and  O4_10 
REMARK    5  A    between atoms: C5_5  and  O5_11 
REMARK    6  A    between atoms: C6_6  and  O6_12 
REMARK    7  A    between atoms: O1_7  and  P1_13 
REMARK    8  A    between atoms: O4_10  and  P4_17 
REMARK    9  A    between atoms: O5_11  and  P5_21 
ROOT
ATOM      1  C1  I3P d   1      23.163  -2.110  10.263  0.00  0.00     0.106 C 
ATOM      2  C2  I3P d   1      22.571  -3.490  10.680  0.00  0.00     0.090 C 
ATOM      3  C3  I3P d   1      22.943  -3.802  12.131  0.00  0.00     0.091 C 
ATOM      4  C4  I3P d   1      22.386  -2.694  13.050  0.00  0.00     0.106 C 
ATOM      5  C5  I3P d   1      22.967  -1.328  12.637  0.00  0.00     0.106 C 
ATOM      6  C6  I3P d   1      22.604  -0.995  11.175  0.00  0.00     0.091 C 
ATOM      7  H1  I3P d   1      24.258  -2.159  10.358  0.00  0.00     0.092 H 
ATOM      8  H2  I3P d   1      22.990  -4.269  10.026  0.00  0.00     0.091 H 
ATOM      9  H3  I3P d   1      24.038  -3.845  12.229  0.00  0.00     0.091 H 
ATOM     10  H4  I3P d   1      21.290  -2.659  12.959  0.00  0.00     0.092 H 
ATOM     11  H5  I3P d   1      24.062  -1.351  12.743  0.00  0.00     0.092 H 
ATOM     12  H6  I3P d   1      21.510  -0.951  11.073  0.00  0.00     0.091 H 
ENDROOT
BRANCH   1  13
ATOM     13  O1  I3P d   1      22.810  -1.708   8.880  0.00  0.00    -0.272 OA
BRANCH  13  14
ATOM     14  P1  I3P d   1      23.682  -2.058   7.594  0.00  0.00     0.422 P 
ATOM     15  O13 I3P d   1      24.966  -1.470   7.969  0.00  0.00    -0.617 OA
ATOM     16  O12 I3P d   1      23.709  -3.543   7.568  0.00  0.00    -0.617 OA
ATOM     17  O11 I3P d   1      22.953  -1.434   6.457  0.00  0.00    -0.617 OA
ENDBRANCH  13  14
ENDBRANCH   1  13
BRANCH   6  18
ATOM     18  O6  I3P d   1      23.159   0.259  10.789  0.00  0.00    -0.390 OA
ATOM     19  H9  I3P d   1      22.924   0.444   9.887  0.00  0.00     0.210 HD
ENDBRANCH   6  18
BRANCH   2  20
ATOM     20  O2  I3P d   1      21.144  -3.487  10.545  0.00  0.00    -0.390 OA
ATOM     21  H7  I3P d   1      20.801  -4.334  10.803  0.00  0.00     0.210 HD
ENDBRANCH   2  20
BRANCH   5  22
ATOM     22  O5  I3P d   1      22.404  -0.286  13.519  0.00  0.00    -0.272 OA
BRANCH  22  23
ATOM     23  P5  I3P d   1      23.158   0.946  14.204  0.00  0.00     0.422 P 
ATOM     24  O53 I3P d   1      23.635   1.689  13.043  0.00  0.00    -0.617 OA
ATOM     25  O52 I3P d   1      24.219   0.310  15.037  0.00  0.00    -0.617 OA
ATOM     26  O51 I3P d   1      22.026   1.567  14.939  0.00  0.00    -0.617 OA
ENDBRANCH  22  23
ENDBRANCH   5  22
BRANCH   3  27
ATOM     27  O3  I3P d   1      22.388  -5.046  12.499  0.00  0.00    -0.390 OA
ATOM     28  H8  I3P d   1      22.730  -5.725  11.930  0.00  0.00     0.210 HD
ENDBRANCH   3  27
BRANCH   4  29
ATOM     29  O4  I3P d   1      22.750  -3.022  14.448  0.00  0.00    -0.272 OA
BRANCH  29  30
ATOM     30  P4  I3P d   1      21.774  -3.570  15.587  0.00  0.00     0.422 P 
ATOM     31  O43 I3P d   1      22.557  -3.684  16.844  0.00  0.00    -0.617 OA
ATOM     32  O42 I3P d   1      21.336  -4.862  15.064  0.00  0.00    -0.617 OA
ATOM     33  O41 I3P d   1      20.722  -2.520  15.547  0.00  0.00    -0.617 OA
ENDBRANCH  29  30
ENDBRANCH   4  29
TORSDOF 9
