REMARK  11 active torsions:
REMARK  status: ('A' for Active; 'I' for Inactive)
REMARK    1  A    between atoms: C1_2  and  O1_1 
REMARK    2  A    between atoms: C1_2  and  C_10 
REMARK    3  A    between atoms: CA_13  and  C1_2 
REMARK    4  A    between atoms: CB_3  and  CG_4 
REMARK    5  A    between atoms: CA_13  and  CB_3 
REMARK       I    between atoms: C_10  and  N1_14 
REMARK    6  A    between atoms: CA_13  and  N_12 
REMARK    7  A    between atoms: CA1_15  and  C2_16 
REMARK       I    between atoms: C2_16  and  N2_21 
REMARK    8  A    between atoms: CA2_22  and  C3_23 
REMARK       I    between atoms: C3_23  and  N3_28 
REMARK    9  A    between atoms: N3_28  and  CA3_29 
REMARK   10  A    between atoms: CA3_29  and  C4_30 
REMARK   11  A    between atoms: CA3_29  and  CB3_32 
REMARK       I    between atoms: C4_30  and  N4_33 
ROOT
ATOM      1  C   01B d   1      28.564  57.396  43.080  0.00  0.00     0.251 C 
ATOM      2  O   01B d   1      28.383  58.506  43.583  0.00  0.00    -0.270 OA
ATOM      3  N1  PRO d   1      28.293  57.137  41.790  0.00  0.00    -0.336 N 
ATOM      4  CA1 PRO d   1      27.768  58.128  40.852  0.00  0.00     0.092 C 
ATOM      5  CB1 PRO d   1      27.169  57.263  39.759  0.00  0.00    -0.036 C 
ATOM      6  CG1 PRO d   1      28.168  56.152  39.679  0.00  0.00    -0.048 C 
ATOM      7  CD  PRO d   1      28.383  55.813  41.143  0.00  0.00    -0.001 C 
ATOM      8  H14 PRO d   1      28.602  58.715  40.442  0.00  0.00     0.087 H 
ATOM      9  H15 PRO d   1      27.098  57.809  38.807  0.00  0.00     0.036 H 
ATOM     10  H16 PRO d   1      26.174  56.889  40.042  0.00  0.00     0.036 H 
ATOM     11  H17 PRO d   1      29.102  56.488  39.206  0.00  0.00     0.035 H 
ATOM     12  H18 PRO d   1      27.765  55.291  39.125  0.00  0.00     0.035 H 
ATOM     13  H19 PRO d   1      27.601  55.135  41.514  0.00  0.00     0.064 H 
ATOM     14  H20 PRO d   1      29.371  55.357  41.305  0.00  0.00     0.064 H 
ENDROOT
BRANCH   4  15
ATOM     15  C2  PRO d   1      26.775  59.114  41.447  0.00  0.00     0.243 C 
ATOM     16  O2  PRO d   1      25.658  58.753  41.812  0.00  0.00    -0.271 OA
ATOM     17  N2  PRO d   1      27.177  60.390  41.529  0.00  0.00    -0.337 N 
ATOM     18  CA2 PRO d   1      26.395  61.503  42.065  0.00  0.00     0.091 C 
ATOM     19  CD3 PRO d   1      28.378  60.901  40.843  0.00  0.00    -0.001 C 
ATOM     20  CB2 PRO d   1      27.015  62.705  41.367  0.00  0.00    -0.036 C 
ATOM     21  H21 PRO d   1      26.544  61.576  43.152  0.00  0.00     0.087 H 
ATOM     22  CG2 PRO d   1      28.448  62.332  41.311  0.00  0.00    -0.048 C 
ATOM     23  H22 PRO d   1      26.865  63.626  41.950  0.00  0.00     0.036 H 
ATOM     24  H23 PRO d   1      26.598  62.839  40.358  0.00  0.00     0.036 H 
ATOM     25  H24 PRO d   1      28.920  62.406  42.302  0.00  0.00     0.035 H 
ATOM     26  H25 PRO d   1      28.997  62.961  40.595  0.00  0.00     0.035 H 
ATOM     27  H26 PRO d   1      28.263  60.847  39.750  0.00  0.00     0.064 H 
ATOM     28  H27 PRO d   1      29.275  60.341  41.145  0.00  0.00     0.064 H 
BRANCH  18  29
ATOM     29  C3  PRO d   1      24.892  61.388  41.801  0.00  0.00     0.241 C 
ATOM     30  O3  PRO d   1      24.448  61.441  40.659  0.00  0.00    -0.271 OA
ATOM     31  N3  ALA d   1      24.119  61.230  42.870  0.00  0.00    -0.346 N 
ATOM     32  H28 ALA d   1      24.545  61.187  43.774  0.00  0.00     0.163 HD
BRANCH  31  33
ATOM     33  CA3 ALA d   1      22.671  61.117  42.767  0.00  0.00     0.086 C 
ATOM     34  H29 ALA d   1      22.402  60.915  41.720  0.00  0.00     0.086 H 
BRANCH  33  35
ATOM     35  C4  ALA d   1      22.022  62.433  43.201  0.00  0.00     0.237 C 
ATOM     36  O4  ALA d   1      21.763  63.319  42.376  0.00  0.00    -0.271 OA
ATOM     37  N4  NH2 d   1      21.769  62.585  44.494  0.00  0.00    -0.368 N 
ATOM     38  H33 NH2 d   1      21.346  63.428  44.825  0.00  0.00     0.159 HD
ATOM     39  H34 NH2 d   1      22.002  61.856  45.138  0.00  0.00     0.159 HD
ENDBRANCH  33  35
BRANCH  33  40
ATOM     40  CB3 ALA d   1      22.173  59.977  43.627  0.00  0.00    -0.049 C 
ATOM     41  H30 ALA d   1      21.079  59.903  43.540  0.00  0.00     0.030 H 
ATOM     42  H31 ALA d   1      22.446  60.163  44.676  0.00  0.00     0.030 H 
ATOM     43  H32 ALA d   1      22.632  59.036  43.290  0.00  0.00     0.030 H 
ENDBRANCH  33  40
ENDBRANCH  31  33
ENDBRANCH  18  29
ENDBRANCH   4  15
BRANCH   1  44
ATOM     44  C1  01B d   1      29.114  56.244  43.906  0.00  0.00     0.139 C 
ATOM     45  H2  01B d   1      29.013  55.315  43.326  0.00  0.00     0.101 H 
BRANCH  44  46
ATOM     46  O1  01B d   1      30.507  56.466  44.181  0.00  0.00    -0.384 OA
ATOM     47  H1  01B d   1      30.985  56.523  43.362  0.00  0.00     0.210 HD
ENDBRANCH  44  46
BRANCH  44  48
ATOM     48  CA  01B d   1      28.320  56.092  45.216  0.00  0.00     0.136 C 
ATOM     49  H13 01B d   1      28.282  57.067  45.724  0.00  0.00     0.089 H 
BRANCH  48  50
ATOM     50  CB  01B d   1      26.882  55.635  44.910  0.00  0.00    -0.012 C 
ATOM     51  H3  01B d   1      26.555  56.128  43.983  0.00  0.00     0.043 H 
ATOM     52  H4  01B d   1      26.892  54.545  44.762  0.00  0.00     0.043 H 
BRANCH  50  53
ATOM     53  CG  01B d   1      25.875  55.958  46.001  0.00  0.00    -0.056 A 
ATOM     54  CD1 01B d   1      25.872  57.204  46.632  0.00  0.00    -0.077 A 
ATOM     55  CE1 01B d   1      24.892  57.530  47.578  0.00  0.00    -0.082 A 
ATOM     56  H5  01B d   1      26.639  57.929  46.386  0.00  0.00     0.084 H 
ATOM     57  CZ  01B d   1      23.904  56.607  47.903  0.00  0.00    -0.083 A 
ATOM     58  H7  01B d   1      24.904  58.502  48.057  0.00  0.00     0.083 H 
ATOM     59  CE2 01B d   1      23.897  55.357  47.285  0.00  0.00    -0.082 A 
ATOM     60  H9  01B d   1      23.143  56.858  48.633  0.00  0.00     0.083 H 
ATOM     61  CD2 01B d   1      24.882  55.041  46.341  0.00  0.00    -0.077 A 
ATOM     62  H8  01B d   1      23.131  54.632  47.535  0.00  0.00     0.083 H 
ATOM     63  H6  01B d   1      24.872  54.066  45.867  0.00  0.00     0.084 H 
ENDBRANCH  50  53
ENDBRANCH  48  50
BRANCH  48  64
ATOM     64  N   01B d   1      28.993  55.105  46.117  0.00  0.00    -0.072 N 
ATOM     65  H10 01B d   1      29.933  55.413  46.311  0.00  0.00     0.274 HD
ATOM     66  H11 01B d   1      29.021  54.204  45.666  0.00  0.00     0.274 HD
ATOM     67  H12 01B d   1      28.478  55.033  46.981  0.00  0.00     0.274 HD
ENDBRANCH  48  64
ENDBRANCH  44  48
ENDBRANCH   1  44
TORSDOF 11
