REMARK  12 active torsions:
REMARK  status: ('A' for Active; 'I' for Inactive)
REMARK    1  A    between atoms: C20_5  and  N36_21 
REMARK    2  A    between atoms: C22_7  and  C30_15 
REMARK    3  A    between atoms: N23_8  and  C41_23 
REMARK    4  A    between atoms: C27_12  and  N37_22 
REMARK    5  A    between atoms: C41_23  and  C42_24 
REMARK    6  A    between atoms: C42_24  and  C43_25 
REMARK    7  A    between atoms: C43_25  and  N44_26 
REMARK    8  A    between atoms: N44_26  and  C44_27 
REMARK    9  A    between atoms: N44_26  and  C46_29 
REMARK   10  A    between atoms: N44_26  and  C47_30 
REMARK   11  A    between atoms: C44_27  and  C45_28 
REMARK   12  A    between atoms: C47_30  and  C48_31 
ROOT
ATOM      1  C16 PRM d   1      37.727  25.772   9.693  0.00  0.00    -0.069 A 
ATOM      2  C17 PRM d   1      38.507  25.953   8.522  0.00  0.00    -0.011 A 
ATOM      3  C18 PRM d   1      37.999  25.313   7.297  0.00  0.00     0.005 A 
ATOM      4  C19 PRM d   1      36.783  24.536   7.416  0.00  0.00    -0.045 A 
ATOM      5  C20 PRM d   1      36.052  24.380   8.628  0.00  0.00     0.026 A 
ATOM      6  C21 PRM d   1      36.528  25.008   9.776  0.00  0.00    -0.057 A 
ATOM      7  C22 PRM d   1      38.771  25.439   6.078  0.00  0.00     0.056 C 
ATOM      8  N23 PRM d   1      40.089  26.024   6.038  0.00  0.00    -0.345 N 
ATOM      9  C24 PRM d   1      40.613  26.485   7.264  0.00  0.00     0.048 A 
ATOM     10  C25 PRM d   1      39.828  26.493   8.518  0.00  0.00     0.002 A 
ATOM     11  C26 PRM d   1      41.971  26.953   7.372  0.00  0.00    -0.031 A 
ATOM     12  C27 PRM d   1      42.588  27.395   8.561  0.00  0.00     0.027 A 
ATOM     13  C28 PRM d   1      41.838  27.391   9.750  0.00  0.00    -0.057 A 
ATOM     14  C29 PRM d   1      40.481  26.942   9.696  0.00  0.00    -0.068 A 
ATOM     15  H1  PRM d   1      38.072  26.255  10.600  0.00  0.00     0.085 H 
ATOM     16  H2  PRM d   1      36.406  24.043   6.528  0.00  0.00     0.088 H 
ATOM     17  H3  PRM d   1      35.996  24.917  10.716  0.00  0.00     0.086 H 
ATOM     18  H4  PRM d   1      42.567  26.967   6.467  0.00  0.00     0.090 H 
ATOM     19  H5  PRM d   1      42.277  27.720  10.685  0.00  0.00     0.086 H 
ATOM     20  H6  PRM d   1      39.912  26.945  10.618  0.00  0.00     0.085 H 
ENDROOT
BRANCH   8  21
ATOM     21  C41 PRM d   1      40.894  26.187   4.741  0.00  0.00     0.002 C 
ATOM     22  H16 PRM d   1      41.505  27.095   4.851  0.00  0.00     0.065 H 
ATOM     23  H17 PRM d   1      40.169  26.329   3.926  0.00  0.00     0.065 H 
BRANCH  21  24
ATOM     24  C42 PRM d   1      41.834  25.063   4.316  0.00  0.00    -0.027 C 
ATOM     25  H18 PRM d   1      41.345  24.100   4.523  0.00  0.00     0.037 H 
ATOM     26  H19 PRM d   1      42.760  25.138   4.905  0.00  0.00     0.037 H 
BRANCH  24  27
ATOM     27  C43 PRM d   1      42.194  25.118   2.832  0.00  0.00     0.086 C 
ATOM     28  H20 PRM d   1      42.100  26.175   2.542  0.00  0.00     0.076 H 
ATOM     29  H21 PRM d   1      41.423  24.526   2.317  0.00  0.00     0.076 H 
BRANCH  27  30
ATOM     30  N44 PRM d   1      43.542  24.644   2.250  0.00  0.00    -0.071 N 
BRANCH  30  31
ATOM     31  C44 PRM d   1      43.598  23.120   2.272  0.00  0.00     0.082 C 
ATOM     32  H22 PRM d   1      43.821  22.849   3.314  0.00  0.00     0.075 H 
ATOM     33  H23 PRM d   1      44.450  22.848   1.632  0.00  0.00     0.075 H 
BRANCH  31  34
ATOM     34  C45 PRM d   1      42.454  22.193   1.845  0.00  0.00    -0.053 C 
ATOM     35  H24 PRM d   1      42.768  21.145   1.963  0.00  0.00     0.029 H 
ATOM     36  H25 PRM d   1      42.201  22.384   0.791  0.00  0.00     0.029 H 
ATOM     37  H26 PRM d   1      41.572  22.385   2.474  0.00  0.00     0.029 H 
ENDBRANCH  31  34
ENDBRANCH  30  31
BRANCH  30  38
ATOM     38  C46 PRM d   1      44.699  25.150   3.076  0.00  0.00     0.068 C 
ATOM     39  H27 PRM d   1      44.691  26.250   3.083  0.00  0.00     0.068 H 
ATOM     40  H28 PRM d   1      45.644  24.793   2.641  0.00  0.00     0.068 H 
ATOM     41  H29 PRM d   1      44.605  24.776   4.106  0.00  0.00     0.068 H 
ENDBRANCH  30  38
BRANCH  30  42
ATOM     42  C47 PRM d   1      43.690  25.122   0.810  0.00  0.00     0.082 C 
ATOM     43  H30 PRM d   1      43.421  26.188   0.830  0.00  0.00     0.075 H 
ATOM     44  H31 PRM d   1      42.933  24.563   0.241  0.00  0.00     0.075 H 
BRANCH  42  45
ATOM     45  C48 PRM d   1      44.967  25.045  -0.035  0.00  0.00    -0.053 C 
ATOM     46  H32 PRM d   1      44.772  25.465  -1.033  0.00  0.00     0.029 H 
ATOM     47  H33 PRM d   1      45.278  23.995  -0.134  0.00  0.00     0.029 H 
ATOM     48  H34 PRM d   1      45.767  25.620   0.456  0.00  0.00     0.029 H 
ENDBRANCH  42  45
ENDBRANCH  30  42
ENDBRANCH  27  30
ENDBRANCH  24  27
ENDBRANCH  21  24
ENDBRANCH   8  21
BRANCH   7  49
ATOM     49  C30 PRM d   1      38.172  24.963   4.786  0.00  0.00    -0.008 A 
ATOM     50  C31 PRM d   1      37.470  25.903   3.952  0.00  0.00    -0.071 A 
ATOM     51  C32 PRM d   1      36.930  25.479   2.701  0.00  0.00    -0.082 A 
ATOM     52  H7  PRM d   1      37.352  26.931   4.274  0.00  0.00     0.084 H 
ATOM     53  C33 PRM d   1      37.082  24.135   2.283  0.00  0.00    -0.083 A 
ATOM     54  H8  PRM d   1      36.403  26.186   2.071  0.00  0.00     0.083 H 
ATOM     55  C34 PRM d   1      37.774  23.209   3.114  0.00  0.00    -0.082 A 
ATOM     56  H9  PRM d   1      36.673  23.812   1.333  0.00  0.00     0.083 H 
ATOM     57  C35 PRM d   1      38.317  23.622   4.363  0.00  0.00    -0.071 A 
ATOM     58  H10 PRM d   1      37.888  22.180   2.792  0.00  0.00     0.083 H 
ATOM     59  H11 PRM d   1      38.841  22.909   4.989  0.00  0.00     0.084 H 
ENDBRANCH   7  49
BRANCH  12  60
ATOM     60  N37 PRM d   1      43.915  27.845   8.585  0.00  0.00    -0.399 N 
ATOM     61  H14 PRM d   1      44.472  27.852   7.719  0.00  0.00     0.156 HD
ATOM     62  H15 PRM d   1      44.333  28.169   9.469  0.00  0.00     0.156 HD
ENDBRANCH  12  60
BRANCH   5  63
ATOM     63  N36 PRM d   1      34.871  23.610   8.704  0.00  0.00    -0.399 N 
ATOM     64  H12 PRM d   1      34.508  23.140   7.863  0.00  0.00     0.156 HD
ATOM     65  H13 PRM d   1      34.373  23.518   9.601  0.00  0.00     0.156 HD
ENDBRANCH   5  63
TORSDOF 12
