REMARK  7 active torsions:
REMARK  status: ('A' for Active; 'I' for Inactive)
REMARK    1  A    between atoms: S5'_2  and  CS_1 
REMARK    2  A    between atoms: C5'_3  and  S5'_2 
REMARK    3  A    between atoms: C4'_4  and  C5'_3 
REMARK    4  A    between atoms: C2'_6  and  O2'_7 
REMARK    5  A    between atoms: C3'_8  and  O3'_9 
REMARK    6  A    between atoms: C1'_10  and  N9_11 
REMARK    7  A    between atoms: C6_15  and  N6_16 
ROOT
ATOM      1  C4' MTH d   1      57.624  71.662  21.993  0.00  0.00     0.076 C 
ATOM      2  O4' MTH d   1      58.186  72.179  20.746  0.00  0.00    -0.355 OA
ATOM      3  C2' MTH d   1      57.637  74.050  22.074  0.00  0.00     0.105 C 
ATOM      4  C3' MTH d   1      57.849  72.763  23.005  0.00  0.00     0.090 C 
ATOM      5  C1' MTH d   1      57.932  73.616  20.586  0.00  0.00     0.138 C 
ATOM      6  H6  MTH d   1      58.178  70.766  22.312  0.00  0.00     0.088 H 
ATOM      7  H7  MTH d   1      56.583  74.357  22.146  0.00  0.00     0.093 H 
ATOM      8  H9  MTH d   1      57.142  72.732  23.847  0.00  0.00     0.091 H 
ATOM      9  H11 MTH d   1      58.815  74.154  20.210  0.00  0.00     0.122 H 
ENDROOT
BRANCH   5  10
ATOM     10  N9  MTH d   1      56.756  73.755  19.522  0.00  0.00    -0.311 N 
ATOM     11  C8  MTH d   1      56.885  73.457  18.167  0.00  0.00    -0.015 A 
ATOM     12  C7  MTH d   1      55.774  73.630  17.472  0.00  0.00    -0.051 A 
ATOM     13  H12 MTH d   1      57.817  73.113  17.721  0.00  0.00     0.111 H 
ATOM     14  C5  MTH d   1      54.854  74.065  18.410  0.00  0.00     0.057 A 
ATOM     15  H13 MTH d   1      55.618  73.468  16.407  0.00  0.00     0.087 H 
ATOM     16  C6  MTH d   1      53.472  74.426  18.349  0.00  0.00     0.136 A 
ATOM     17  C4  MTH d   1      55.444  74.153  19.671  0.00  0.00     0.147 A 
ATOM     18  N1  MTH d   1      52.865  74.821  19.529  0.00  0.00    -0.224 NA
ATOM     19  C2  MTH d   1      53.565  74.859  20.674  0.00  0.00     0.091 A 
ATOM     20  N3  MTH d   1      54.866  74.541  20.843  0.00  0.00    -0.223 NA
ATOM     21  H16 MTH d   1      53.027  75.180  21.559  0.00  0.00     0.146 H 
BRANCH  16  22
ATOM     22  N6  MTH d   1      52.767  74.389  17.212  0.00  0.00    -0.383 N 
ATOM     23  H14 MTH d   1      51.773  74.658  17.214  0.00  0.00     0.157 HD
ATOM     24  H15 MTH d   1      53.219  74.092  16.335  0.00  0.00     0.157 HD
ENDBRANCH  16  22
ENDBRANCH   5  10
BRANCH   3  25
ATOM     25  O2' MTH d   1      58.456  75.195  22.479  0.00  0.00    -0.388 OA
ATOM     26  H8  MTH d   1      59.375  74.957  22.436  0.00  0.00     0.210 HD
ENDBRANCH   3  25
BRANCH   1  27
ATOM     27  C5' MTH d   1      56.164  71.262  21.783  0.00  0.00     0.003 C 
ATOM     28  H4  MTH d   1      55.556  72.177  21.719  0.00  0.00     0.052 H 
ATOM     29  H5  MTH d   1      56.087  70.704  20.838  0.00  0.00     0.052 H 
BRANCH  27  30
ATOM     30  S5' MTH d   1      55.506  70.222  23.127  0.00  0.00    -0.171 SA
BRANCH  30  31
ATOM     31  CS  MTH d   1      56.122  68.580  22.581  0.00  0.00    -0.035 C 
ATOM     32  H1  MTH d   1      55.805  67.811  23.301  0.00  0.00     0.041 H 
ATOM     33  H2  MTH d   1      57.220  68.600  22.526  0.00  0.00     0.041 H 
ATOM     34  H3  MTH d   1      55.709  68.345  21.589  0.00  0.00     0.041 H 
ENDBRANCH  30  31
ENDBRANCH  27  30
ENDBRANCH   1  27
BRANCH   4  35
ATOM     35  O3' MTH d   1      59.247  72.659  23.481  0.00  0.00    -0.390 OA
ATOM     36  H10 MTH d   1      59.467  73.434  23.985  0.00  0.00     0.210 HD
ENDBRANCH   4  35
TORSDOF 7
