REMARK  5 active torsions:
REMARK  status: ('A' for Active; 'I' for Inactive)
REMARK    1  A    between atoms: C9_10  and  C1'_11 
REMARK    2  A    between atoms: C2'_12  and  O2'_13 
REMARK    3  A    between atoms: C3'_14  and  O3'_15 
REMARK    4  A    between atoms: C4'_16  and  C5'_18 
REMARK    5  A    between atoms: C5'_18  and  O5'_19 
ROOT
ATOM      1  C1' FMC d   1      57.547  39.316  20.657  0.00  0.00     0.112 C 
ATOM      2  C2' FMC d   1      57.480  39.880  22.108  0.00  0.00     0.093 C 
ATOM      3  C3' FMC d   1      57.684  38.688  23.024  0.00  0.00     0.090 C 
ATOM      4  C4' FMC d   1      57.434  37.385  22.204  0.00  0.00     0.087 C 
ATOM      5  O4' FMC d   1      57.780  37.887  20.839  0.00  0.00    -0.367 OA
ATOM      6  H5  FMC d   1      58.425  39.778  20.181  0.00  0.00     0.097 H 
ATOM      7  H6  FMC d   1      56.465  40.275  22.262  0.00  0.00     0.091 H 
ATOM      8  H8  FMC d   1      56.982  38.721  23.870  0.00  0.00     0.091 H 
ATOM      9  H10 FMC d   1      58.106  36.580  22.535  0.00  0.00     0.090 H 
ENDROOT
BRANCH   1  10
ATOM     10  C9  FMC d   1      56.366  39.470  19.630  0.00  0.00     0.117 A 
ATOM     11  C4  FMC d   1      55.013  39.913  19.895  0.00  0.00     0.119 A 
ATOM     12  N3  FMC d   1      54.379  40.334  21.123  0.00  0.00    -0.237 NA
ATOM     13  C5  FMC d   1      54.340  39.857  18.658  0.00  0.00     0.126 A 
ATOM     14  C2  FMC d   1      53.072  40.673  20.986  0.00  0.00     0.089 A 
ATOM     15  N1  FMC d   1      52.374  40.634  19.822  0.00  0.00    -0.222 NA
ATOM     16  H1  FMC d   1      52.544  41.000  21.875  0.00  0.00     0.146 H 
ATOM     17  C6  FMC d   1      52.936  40.241  18.632  0.00  0.00     0.153 A 
ATOM     18  N6  FMC d   1      52.201  40.219  17.517  0.00  0.00    -0.382 N 
ATOM     19  H2  FMC d   1      52.625  39.924  16.626  0.00  0.00     0.157 HD
ATOM     20  H3  FMC d   1      51.210  40.497  17.548  0.00  0.00     0.157 HD
ATOM     21  N7  FMC d   1      55.230  39.420  17.715  0.00  0.00    -0.272 N 
ATOM     22  N8  FMC d   1      56.473  39.184  18.313  0.00  0.00    -0.174 NA
ATOM     23  H4  FMC d   1      55.017  39.285  16.716  0.00  0.00     0.189 HD
ENDBRANCH   1  10
BRANCH   2  24
ATOM     24  O2' FMC d   1      58.359  40.912  22.435  0.00  0.00    -0.390 OA
ATOM     25  H7  FMC d   1      59.253  40.613  22.321  0.00  0.00     0.210 HD
ENDBRANCH   2  24
BRANCH   3  26
ATOM     26  O3' FMC d   1      59.047  38.815  23.510  0.00  0.00    -0.390 OA
ATOM     27  H9  FMC d   1      59.140  39.637  23.978  0.00  0.00     0.210 HD
ENDBRANCH   3  26
BRANCH   4  28
ATOM     28  C5' FMC d   1      55.950  36.844  22.200  0.00  0.00     0.043 C 
ATOM     29  H11 FMC d   1      55.895  36.028  21.465  0.00  0.00     0.078 H 
ATOM     30  H12 FMC d   1      55.296  37.669  21.881  0.00  0.00     0.078 H 
BRANCH  28  31
ATOM     31  O5' FMC d   1      55.446  36.346  23.437  0.00  0.00    -0.398 OA
ATOM     32  H13 FMC d   1      55.467  37.038  24.088  0.00  0.00     0.209 HD
ENDBRANCH  28  31
ENDBRANCH   4  28
TORSDOF 5
