REMARK  4 active torsions:
REMARK  status: ('A' for Active; 'I' for Inactive)
REMARK    1  A    between atoms: C5_5  and  N10_10 
REMARK    2  A    between atoms: N10_10  and  C11_11 
REMARK    3  A    between atoms: C11_11  and  C12_12 
REMARK    4  A    between atoms: C21_19  and  N26_22 
REMARK       I    between atoms: N26_22  and  C27_23 
REMARK       I    between atoms: C27_23  and  N28_24 
ROOT
ATOM      1  C12 FR0 d   1      48.946  50.997  17.003  0.00  0.00     0.002 A 
ATOM      2  S15 FR0 d   1      49.611  51.809  18.363  0.00  0.00    -0.091 SA
ATOM      3  C16 FR0 d   1      48.725  53.335  17.966  0.00  0.00     0.034 A 
ATOM      4  C17 FR0 d   1      47.858  53.127  16.811  0.00  0.00    -0.063 A 
ATOM      5  C18 FR0 d   1      47.994  51.791  16.272  0.00  0.00    -0.067 A 
ATOM      6  C19 FR0 d   1      48.683  54.553  18.567  0.00  0.00     0.083 C 
ATOM      7  N20 FR0 d   1      49.755  54.492  19.608  0.00  0.00    -0.222 NA
ATOM      8  C21 FR0 d   1      50.118  55.599  20.306  0.00  0.00     0.185 C 
ATOM      9  S22 FR0 d   1      48.936  56.807  19.870  0.00  0.00    -0.061 SA
ATOM     10  C23 FR0 d   1      48.194  55.773  18.761  0.00  0.00    -0.012 C 
ATOM     11  H9  FR0 d   1      47.190  53.885  16.404  0.00  0.00     0.085 H 
ATOM     12  H10 FR0 d   1      47.438  51.427  15.409  0.00  0.00     0.085 H 
ATOM     13  H11 FR0 d   1      47.318  56.105  18.206  0.00  0.00     0.098 H 
ENDROOT
BRANCH   1  14
ATOM     14  C11 FR0 d   1      49.273  49.630  16.556  0.00  0.00     0.039 C 
ATOM     15  H7  FR0 d   1      49.929  49.668  15.674  0.00  0.00     0.072 H 
ATOM     16  H8  FR0 d   1      49.777  49.079  17.364  0.00  0.00     0.072 H 
BRANCH  14  17
ATOM     17  N10 FR0 d   1      48.012  48.980  16.216  0.00  0.00    -0.220 N 
ATOM     18  H6  FR0 d   1      47.802  48.786  15.226  0.00  0.00     0.178 HD
BRANCH  17  19
ATOM     19  C5  FR0 d   1      47.023  48.589  17.249  0.00  0.00     0.701 A 
ATOM     20  N1  FR0 d   1      45.891  47.912  17.022  0.00  0.00    -0.188 N 
ATOM     21  C2  FR0 d   1      45.354  47.562  18.242  0.00  0.00     0.078 A 
ATOM     22  H1  FR0 d   1      45.492  47.691  16.099  0.00  0.00     0.184 HD
ATOM     23  C3  FR0 d   1      46.241  48.093  19.224  0.00  0.00     0.103 A 
ATOM     24  C6  FR0 d   1      44.228  46.817  18.634  0.00  0.00    -0.054 A 
ATOM     25  N4  FR0 d   1      47.249  48.736  18.533  0.00  0.00    -0.063 NA
ATOM     26  C9  FR0 d   1      46.022  47.896  20.604  0.00  0.00    -0.052 A 
ATOM     27  C8  FR0 d   1      44.907  47.163  21.003  0.00  0.00    -0.081 A 
ATOM     28  H5  FR0 d   1      46.707  48.306  21.337  0.00  0.00     0.087 H 
ATOM     29  C7  FR0 d   1      44.015  46.637  20.025  0.00  0.00    -0.081 A 
ATOM     30  H4  FR0 d   1      44.718  46.993  22.057  0.00  0.00     0.083 H 
ATOM     31  H3  FR0 d   1      43.145  46.081  20.354  0.00  0.00     0.083 H 
ATOM     32  H2  FR0 d   1      43.549  46.396  17.901  0.00  0.00     0.087 H 
ENDBRANCH  17  19
ENDBRANCH  14  17
ENDBRANCH   1  14
BRANCH   8  33
ATOM     33  N26 FR0 d   1      50.940  55.715  21.394  0.00  0.00    -0.169 N 
ATOM     34  C27 FR0 d   1      51.102  54.729  22.320  0.00  0.00     0.671 C 
ATOM     35  N28 FR0 d   1      51.116  53.480  21.947  0.00  0.00    -0.235 N 
ATOM     36  N29 FR0 d   1      51.204  54.961  23.626  0.00  0.00    -0.235 N 
ATOM     37  H13 FR0 d   1      51.239  52.735  22.647  0.00  0.00     0.174 HD
ATOM     38  H14 FR0 d   1      51.005  53.238  20.952  0.00  0.00     0.174 HD
ATOM     39  H15 FR0 d   1      51.199  55.929  23.979  0.00  0.00     0.174 HD
ATOM     40  H16 FR0 d   1      51.288  54.173  24.284  0.00  0.00     0.174 HD
ATOM     41  H12 FR0 d   1      51.463  56.593  21.519  0.00  0.00     0.186 HD
ENDBRANCH   8  33
TORSDOF 4
