REMARK  7 active torsions:
REMARK  status: ('A' for Active; 'I' for Inactive)
REMARK    1  A    between atoms: N2_2  and  C13_9 
REMARK    2  A    between atoms: C5_5  and  C8_6 
REMARK       I    between atoms: C8_6  and  N10_8 
REMARK    3  A    between atoms: C13_9  and  C14_10 
REMARK    4  A    between atoms: C13_9  and  C18_12 
REMARK    5  A    between atoms: C14_10  and  O15_11 
REMARK    6  A    between atoms: C18_12  and  C19_13 
REMARK    7  A    between atoms: C19_13  and  C22_14 
ROOT
ATOM      1  C13 FR2 d   1      50.566  56.543  21.829  0.00  0.00     0.037 C 
ATOM      2  H5  FR2 d   1      50.294  56.978  22.802  0.00  0.00     0.076 H 
ENDROOT
BRANCH   1   3
ATOM      3  N2  FR2 d   1      50.603  55.079  22.027  0.00  0.00    -0.342 N 
ATOM      4  C1  FR2 d   1      50.434  54.083  20.994  0.00  0.00     0.014 A 
ATOM      5  C5  FR2 d   1      50.337  52.929  21.647  0.00  0.00     0.141 A 
ATOM      6  H1  FR2 d   1      50.395  54.242  19.918  0.00  0.00     0.115 H 
ATOM      7  N4  FR2 d   1      50.469  53.194  23.056  0.00  0.00    -0.237 NA
ATOM      8  C3  FR2 d   1      50.622  54.461  23.189  0.00  0.00     0.067 A 
ATOM      9  H2  FR2 d   1      50.752  54.964  24.146  0.00  0.00     0.143 H 
BRANCH   5  10
ATOM     10  C8  FR2 d   1      50.210  51.616  21.013  0.00  0.00     0.269 C 
ATOM     11  O9  FR2 d   1      50.087  51.486  19.781  0.00  0.00    -0.266 OA
ATOM     12  N10 FR2 d   1      50.123  50.541  21.781  0.00  0.00    -0.365 N 
ATOM     13  H3  FR2 d   1      50.036  49.636  21.366  0.00  0.00     0.159 HD
ATOM     14  H4  FR2 d   1      50.145  50.635  22.776  0.00  0.00     0.159 HD
ENDBRANCH   5  10
ENDBRANCH   1   3
BRANCH   1  15
ATOM     15  C14 FR2 d   1      51.981  57.074  21.457  0.00  0.00     0.036 C 
ATOM     16  H6  FR2 d   1      52.041  58.171  21.520  0.00  0.00     0.077 H 
ATOM     17  H7  FR2 d   1      52.295  56.746  20.455  0.00  0.00     0.077 H 
BRANCH  15  18
ATOM     18  O15 FR2 d   1      52.753  56.419  22.518  0.00  0.00    -0.399 OA
ATOM     19  H8  FR2 d   1      52.654  55.477  22.445  0.00  0.00     0.209 HD
ENDBRANCH  15  18
ENDBRANCH   1  15
BRANCH   1  20
ATOM     20  C18 FR2 d   1      49.541  57.063  20.824  0.00  0.00    -0.040 C 
ATOM     21  H9  FR2 d   1      49.838  56.745  19.814  0.00  0.00     0.036 H 
ATOM     22  H10 FR2 d   1      49.521  58.162  20.871  0.00  0.00     0.036 H 
BRANCH  20  23
ATOM     23  C19 FR2 d   1      48.112  56.517  21.127  0.00  0.00    -0.039 C 
ATOM     24  H11 FR2 d   1      47.884  56.709  22.186  0.00  0.00     0.040 H 
ATOM     25  H12 FR2 d   1      48.108  55.433  20.942  0.00  0.00     0.040 H 
BRANCH  23  26
ATOM     26  C22 FR2 d   1      47.020  57.154  20.277  0.00  0.00    -0.058 A 
ATOM     27  C25 FR2 d   1      45.719  56.714  20.433  0.00  0.00    -0.077 A 
ATOM     28  C26 FR2 d   1      44.677  57.258  19.693  0.00  0.00    -0.082 A 
ATOM     29  H13 FR2 d   1      45.507  55.927  21.148  0.00  0.00     0.084 H 
ATOM     30  C27 FR2 d   1      44.951  58.231  18.720  0.00  0.00    -0.083 A 
ATOM     31  H14 FR2 d   1      43.658  56.933  19.866  0.00  0.00     0.083 H 
ATOM     32  C28 FR2 d   1      46.264  58.689  18.516  0.00  0.00    -0.082 A 
ATOM     33  H15 FR2 d   1      44.143  58.633  18.120  0.00  0.00     0.083 H 
ATOM     34  C29 FR2 d   1      47.269  58.139  19.339  0.00  0.00    -0.077 A 
ATOM     35  H16 FR2 d   1      46.494  59.431  17.760  0.00  0.00     0.083 H 
ATOM     36  H17 FR2 d   1      48.283  58.505  19.231  0.00  0.00     0.084 H 
ENDBRANCH  23  26
ENDBRANCH  20  23
ENDBRANCH   1  20
TORSDOF 7
