REMARK  7 active torsions:
REMARK  status: ('A' for Active; 'I' for Inactive)
REMARK    1  A    between atoms: N2_2  and  C13_9 
REMARK    2  A    between atoms: C5_5  and  C8_6 
REMARK       I    between atoms: C8_6  and  N10_8 
REMARK    3  A    between atoms: C13_9  and  C14_10 
REMARK    4  A    between atoms: C13_9  and  C18_12 
REMARK    5  A    between atoms: C14_10  and  O15_11 
REMARK    6  A    between atoms: C18_12  and  C19_13 
REMARK    7  A    between atoms: C19_13  and  C22_14 
ROOT
ATOM      1  C18 FR3 d   1      50.256  56.879  20.372  0.00  0.00    -0.040 C 
ATOM      2  H9  FR3 d   1      50.692  56.329  19.525  0.00  0.00     0.036 H 
ATOM      3  H10 FR3 d   1      50.375  57.960  20.207  0.00  0.00     0.036 H 
ENDROOT
BRANCH   1   4
ATOM      4  C13 FR3 d   1      50.944  56.470  21.669  0.00  0.00     0.037 C 
ATOM      5  H5  FR3 d   1      50.389  56.870  22.530  0.00  0.00     0.076 H 
BRANCH   4   6
ATOM      6  N2  FR3 d   1      51.031  54.948  21.797  0.00  0.00    -0.342 N 
ATOM      7  C1  FR3 d   1      50.953  53.959  20.788  0.00  0.00     0.014 A 
ATOM      8  C5  FR3 d   1      50.732  52.788  21.358  0.00  0.00     0.141 A 
ATOM      9  H1  FR3 d   1      51.058  54.134  19.718  0.00  0.00     0.115 H 
ATOM     10  N4  FR3 d   1      50.681  52.928  22.743  0.00  0.00    -0.237 NA
ATOM     11  C3  FR3 d   1      50.875  54.258  22.938  0.00  0.00     0.067 A 
ATOM     12  H2  FR3 d   1      50.901  54.720  23.924  0.00  0.00     0.143 H 
BRANCH   8  13
ATOM     13  C8  FR3 d   1      50.596  51.443  20.783  0.00  0.00     0.269 C 
ATOM     14  O9  FR3 d   1      50.355  51.363  19.604  0.00  0.00    -0.266 OA
ATOM     15  N10 FR3 d   1      50.560  50.307  21.521  0.00  0.00    -0.365 N 
ATOM     16  H3  FR3 d   1      50.466  49.420  21.069  0.00  0.00     0.159 HD
ATOM     17  H4  FR3 d   1      50.628  50.356  22.517  0.00  0.00     0.159 HD
ENDBRANCH   8  13
ENDBRANCH   4   6
BRANCH   4  18
ATOM     18  C14 FR3 d   1      52.447  57.135  21.608  0.00  0.00     0.036 C 
ATOM     19  H6  FR3 d   1      52.371  58.212  21.817  0.00  0.00     0.077 H 
ATOM     20  H7  FR3 d   1      52.865  56.985  20.602  0.00  0.00     0.077 H 
BRANCH  18  21
ATOM     21  O15 FR3 d   1      53.360  56.506  22.614  0.00  0.00    -0.399 OA
ATOM     22  H8  FR3 d   1      53.006  56.636  23.486  0.00  0.00     0.209 HD
ENDBRANCH  18  21
ENDBRANCH   4  18
ENDBRANCH   1   4
BRANCH   1  23
ATOM     23  C19 FR3 d   1      48.715  56.517  20.521  0.00  0.00    -0.038 C 
ATOM     24  H11 FR3 d   1      48.280  57.123  21.330  0.00  0.00     0.040 H 
ATOM     25  H12 FR3 d   1      48.619  55.450  20.770  0.00  0.00     0.040 H 
BRANCH  23  26
ATOM     26  C22 FR3 d   1      47.956  56.798  19.223  0.00  0.00    -0.047 C 
ATOM     27  C25 FR3 d   1      47.576  58.096  18.884  0.00  0.00    -0.076 C 
ATOM     28  C26 FR3 d   1      46.922  58.373  17.649  0.00  0.00    -0.082 C 
ATOM     29  H13 FR3 d   1      47.782  58.908  19.572  0.00  0.00     0.084 H 
ATOM     30  C27 FR3 d   1      46.724  57.303  16.726  0.00  0.00    -0.072 C 
ATOM     31  H14 FR3 d   1      46.582  59.376  17.415  0.00  0.00     0.083 H 
ATOM     32  C28 FR3 d   1      47.098  55.995  17.076  0.00  0.00    -0.025 C 
ATOM     33  H15 FR3 d   1      46.285  57.499  15.755  0.00  0.00     0.084 H 
ATOM     34  C29 FR3 d   1      47.798  55.742  18.274  0.00  0.00    -0.020 C 
ATOM     35  C2  FR3 d   1      46.952  54.946  16.117  0.00  0.00    -0.072 C 
ATOM     36  C4  FR3 d   1      48.179  54.426  18.617  0.00  0.00    -0.072 C 
ATOM     37  C7  FR3 d   1      48.011  53.396  17.709  0.00  0.00    -0.082 C 
ATOM     38  H17 FR3 d   1      48.604  54.223  19.593  0.00  0.00     0.084 H 
ATOM     39  C6  FR3 d   1      47.356  53.624  16.448  0.00  0.00    -0.082 C 
ATOM     40  H19 FR3 d   1      48.377  52.405  17.950  0.00  0.00     0.083 H 
ATOM     41  H18 FR3 d   1      47.174  52.803  15.764  0.00  0.00     0.083 H 
ATOM     42  H16 FR3 d   1      46.534  55.158  15.139  0.00  0.00     0.084 H 
ENDBRANCH  23  26
ENDBRANCH   1  23
TORSDOF 7
