REMARK  12 active torsions:
REMARK  status: ('A' for Active; 'I' for Inactive)
REMARK    1  A    between atoms: C13_9  and  N2_2 
REMARK    2  A    between atoms: C5_5  and  C8_6 
REMARK       I    between atoms: C8_6  and  N10_8 
REMARK    3  A    between atoms: C13_9  and  C14_10 
REMARK    4  A    between atoms: C18_12  and  C13_9 
REMARK    5  A    between atoms: C14_10  and  O15_11 
REMARK    6  A    between atoms: C19_13  and  C18_12 
REMARK    7  A    between atoms: N22_14  and  C19_13 
REMARK    8  A    between atoms: N1_23  and  C33_21 
REMARK       I    between atoms: C2_24  and  N1_23 
REMARK    9  A    between atoms: C4_26  and  C2_24 
REMARK   10  A    between atoms: C6_27  and  C4_26 
REMARK   11  A    between atoms: C12_35  and  C6_27 
REMARK   12  A    between atoms: N13_36  and  C7_37 
ROOT
ATOM      1  N22 FR5 d   1      48.232  56.768  19.201  0.00  0.00    -0.356 N 
ATOM      2  C27 FR5 d   1      47.764  57.934  18.695  0.00  0.00    -0.019 A 
ATOM      3  C28 FR5 d   1      47.213  57.692  17.517  0.00  0.00    -0.056 A 
ATOM      4  C29 FR5 d   1      47.337  56.252  17.328  0.00  0.00    -0.008 A 
ATOM      5  C30 FR5 d   1      48.067  55.738  18.378  0.00  0.00     0.046 A 
ATOM      6  C31 FR5 d   1      47.121  55.474  16.261  0.00  0.00    -0.069 C 
ATOM      7  C32 FR5 d   1      47.463  54.210  16.308  0.00  0.00    -0.056 C 
ATOM      8  C33 FR5 d   1      48.120  53.712  17.391  0.00  0.00     0.036 C 
ATOM      9  C34 FR5 d   1      48.374  54.478  18.459  0.00  0.00    -0.030 C 
ATOM     10  H13 FR5 d   1      47.830  58.908  19.177  0.00  0.00     0.111 H 
ATOM     11  H14 FR5 d   1      46.764  58.413  16.836  0.00  0.00     0.086 H 
ATOM     12  H15 FR5 d   1      46.667  55.885  15.367  0.00  0.00     0.085 H 
ATOM     13  H16 FR5 d   1      47.221  53.556  15.478  0.00  0.00     0.086 H 
ATOM     14  H17 FR5 d   1      48.819  54.063  19.357  0.00  0.00     0.090 H 
ENDROOT
BRANCH   8  15
ATOM     15  N1  FR5 d   1      48.440  52.484  17.557  0.00  0.00    -0.327 N 
ATOM     16  C2  FR5 d   1      48.295  51.518  16.783  0.00  0.00     0.222 C 
ATOM     17  O1  FR5 d   1      47.607  51.515  15.784  0.00  0.00    -0.273 OA
ATOM     18  H18 FR5 d   1      48.868  52.268  18.435  0.00  0.00     0.169 HD
BRANCH  16  19
ATOM     19  C4  FR5 d   1      49.144  50.282  17.124  0.00  0.00     0.016 C 
ATOM     20  H19 FR5 d   1      49.277  50.263  18.216  0.00  0.00     0.047 H 
ATOM     21  H20 FR5 d   1      50.123  50.408  16.637  0.00  0.00     0.047 H 
BRANCH  19  22
ATOM     22  C6  FR5 d   1      48.586  48.902  16.698  0.00  0.00    -0.002 C 
ATOM     23  H21 FR5 d   1      49.368  48.134  16.789  0.00  0.00     0.045 H 
ATOM     24  H22 FR5 d   1      48.231  48.943  15.658  0.00  0.00     0.045 H 
BRANCH  22  25
ATOM     25  C12 FR5 d   1      47.417  48.580  17.642  0.00  0.00     0.107 A 
ATOM     26  N11 FR5 d   1      47.405  48.885  18.948  0.00  0.00    -0.233 NA
ATOM     27  C10 FR5 d   1      46.266  48.327  19.489  0.00  0.00     0.085 A 
ATOM     28  C15 FR5 d   1      45.828  48.211  20.793  0.00  0.00    -0.053 C 
ATOM     29  C16 FR5 d   1      45.627  47.631  18.438  0.00  0.00     0.064 A 
ATOM     30  C9  FR5 d   1      44.601  47.619  21.132  0.00  0.00    -0.081 C 
ATOM     31  H24 FR5 d   1      46.458  48.593  21.588  0.00  0.00     0.087 H 
ATOM     32  C17 FR5 d   1      43.935  46.996  20.078  0.00  0.00    -0.081 C 
ATOM     33  H23 FR5 d   1      44.201  47.645  22.139  0.00  0.00     0.083 H 
ATOM     34  C11 FR5 d   1      44.409  47.058  18.717  0.00  0.00    -0.055 C 
ATOM     35  H26 FR5 d   1      43.026  46.444  20.289  0.00  0.00     0.083 H 
ATOM     36  H25 FR5 d   1      43.804  46.653  17.914  0.00  0.00     0.087 H 
ATOM     37  N13 FR5 d   1      46.346  47.893  17.260  0.00  0.00    -0.338 N 
BRANCH  37  38
ATOM     38  C7  FR5 d   1      46.004  47.439  15.925  0.00  0.00    -0.012 C 
ATOM     39  H27 FR5 d   1      46.756  47.803  15.210  0.00  0.00     0.057 H 
ATOM     40  H28 FR5 d   1      45.014  47.830  15.647  0.00  0.00     0.057 H 
ATOM     41  H29 FR5 d   1      45.982  46.339  15.906  0.00  0.00     0.057 H 
ENDBRANCH  37  38
ENDBRANCH  22  25
ENDBRANCH  19  22
ENDBRANCH  16  19
ENDBRANCH   8  15
BRANCH   1  42
ATOM     42  C19 FR5 d   1      48.892  56.616  20.612  0.00  0.00     0.002 C 
ATOM     43  H11 FR5 d   1      48.286  57.162  21.350  0.00  0.00     0.065 H 
ATOM     44  H12 FR5 d   1      48.922  55.549  20.879  0.00  0.00     0.065 H 
BRANCH  42  45
ATOM     45  C18 FR5 d   1      50.371  57.194  20.629  0.00  0.00    -0.029 C 
ATOM     46  H9  FR5 d   1      50.910  56.807  19.752  0.00  0.00     0.038 H 
ATOM     47  H10 FR5 d   1      50.321  58.291  20.574  0.00  0.00     0.038 H 
BRANCH  45  48
ATOM     48  C13 FR5 d   1      51.141  56.802  21.888  0.00  0.00     0.039 C 
ATOM     49  H5  FR5 d   1      50.593  57.183  22.762  0.00  0.00     0.076 H 
BRANCH  48  50
ATOM     50  N2  FR5 d   1      51.238  55.323  22.073  0.00  0.00    -0.342 N 
ATOM     51  C1  FR5 d   1      51.262  54.394  21.046  0.00  0.00     0.014 C 
ATOM     52  C5  FR5 d   1      51.019  53.233  21.600  0.00  0.00     0.141 C 
ATOM     53  H1  FR5 d   1      51.446  54.590  19.991  0.00  0.00     0.115 H 
ATOM     54  N4  FR5 d   1      51.026  53.356  23.016  0.00  0.00    -0.237 NA
ATOM     55  C3  FR5 d   1      51.155  54.596  23.229  0.00  0.00     0.067 C 
ATOM     56  H2  FR5 d   1      51.196  55.037  24.224  0.00  0.00     0.143 H 
BRANCH  52  57
ATOM     57  C8  FR5 d   1      50.831  51.983  20.866  0.00  0.00     0.269 C 
ATOM     58  O9  FR5 d   1      50.577  51.951  19.632  0.00  0.00    -0.266 OA
ATOM     59  N10 FR5 d   1      50.847  50.909  21.641  0.00  0.00    -0.365 N 
ATOM     60  H3  FR5 d   1      50.727  50.001  21.240  0.00  0.00     0.159 HD
ATOM     61  H4  FR5 d   1      50.979  51.006  22.628  0.00  0.00     0.159 HD
ENDBRANCH  52  57
ENDBRANCH  48  50
BRANCH  48  62
ATOM     62  C14 FR5 d   1      52.518  57.604  21.793  0.00  0.00     0.036 C 
ATOM     63  H6  FR5 d   1      52.271  58.667  21.927  0.00  0.00     0.077 H 
ATOM     64  H7  FR5 d   1      52.904  57.443  20.776  0.00  0.00     0.077 H 
BRANCH  62  65
ATOM     65  O15 FR5 d   1      53.600  57.321  22.690  0.00  0.00    -0.399 OA
ATOM     66  H8  FR5 d   1      53.316  57.472  23.584  0.00  0.00     0.209 HD
ENDBRANCH  62  65
ENDBRANCH  48  62
ENDBRANCH  45  48
ENDBRANCH  42  45
ENDBRANCH   1  42
TORSDOF 12
