REMARK  5 active torsions:
REMARK  status: ('A' for Active; 'I' for Inactive)
REMARK    1  A    between atoms: C1_1  and  C_8 
REMARK    2  A    between atoms: C2_2  and  O3_3 
REMARK    3  A    between atoms: O3'_15  and  C3_4 
REMARK    4  A    between atoms: C2'_14  and  C1'_11 
REMARK    5  A    between atoms: O3'_15  and  C2'_14 
ROOT
ATOM      1  C1  ISC d   1       6.043  20.858  75.237  0.00  0.00     0.050 C 
ATOM      2  C2  ISC d   1       5.860  21.463  73.841  0.00  0.00     0.096 C 
ATOM      3  C3  ISC d   1       6.282  20.747  72.780  0.00  0.00     0.091 C 
ATOM      4  C4  ISC d   1       6.120  19.283  72.892  0.00  0.00    -0.072 C 
ATOM      5  C5  ISC d   1       6.098  18.659  74.137  0.00  0.00    -0.083 C 
ATOM      6  C6  ISC d   1       6.128  19.394  75.337  0.00  0.00    -0.068 C 
ATOM      7  H1  ISC d   1       6.589  22.287  73.835  0.00  0.00     0.095 H 
ATOM      8  H3  ISC d   1       5.710  21.093  71.906  0.00  0.00     0.095 H 
ATOM      9  H4  ISC d   1       6.016  18.683  71.989  0.00  0.00     0.081 H 
ATOM     10  H5  ISC d   1       6.056  17.572  74.183  0.00  0.00     0.083 H 
ATOM     11  H6  ISC d   1       6.211  18.897  76.302  0.00  0.00     0.084 H 
ENDROOT
BRANCH   3  12
ATOM     12  O3' ISC d   1       7.669  20.951  72.544  0.00  0.00    -0.333 OA
BRANCH  12  13
ATOM     13  C2' ISC d   1       8.364  20.410  71.499  0.00  0.00     0.136 C 
ATOM     14  C3' ISC d   1       9.713  19.949  71.655  0.00  0.00    -0.084 C 
ATOM     15  H7  ISC d   1      10.200  20.011  72.627  0.00  0.00     0.071 H 
ATOM     16  H8  ISC d   1      10.250  19.538  70.802  0.00  0.00     0.071 H 
BRANCH  13  17
ATOM     17  C1' ISC d   1       7.789  20.294  70.178  0.00  0.00     0.233 C 
ATOM     18  O1' ISC d   1       7.958  19.246  69.505  0.00  0.00    -0.642 OA
ATOM     19  O2' ISC d   1       6.945  21.168  69.890  0.00  0.00    -0.642 OA
ENDBRANCH  13  17
ENDBRANCH  12  13
ENDBRANCH   3  12
BRANCH   2  20
ATOM     20  O3  ISC d   1       4.673  22.125  73.789  0.00  0.00    -0.388 OA
ATOM     21  H2  ISC d   1       4.669  22.818  74.439  0.00  0.00     0.210 HD
ENDBRANCH   2  20
BRANCH   1  22
ATOM     22  C   ISC d   1       6.048  21.667  76.519  0.00  0.00     0.207 C 
ATOM     23  O2  ISC d   1       5.848  22.886  76.317  0.00  0.00    -0.644 OA
ATOM     24  O1  ISC d   1       6.247  21.214  77.655  0.00  0.00    -0.644 OA
ENDBRANCH   1  22
TORSDOF 5
