REMARK  5 active torsions:
REMARK  status: ('A' for Active; 'I' for Inactive)
REMARK    1  A    between atoms: C11_9  and  C13_10 
REMARK    2  A    between atoms: C13_10  and  N14_11 
REMARK    3  A    between atoms: N19_15  and  S28_18 
REMARK    4  A    between atoms: S28_18  and  C29_21 
REMARK    5  A    between atoms: C30_22  and  C31_23 
ROOT
ATOM      1  N14 RRR d   1       5.316   4.827  21.473  0.00  0.00    -0.344 N 
ATOM      2  C17 RRR d   1       4.970   5.020  22.795  0.00  0.00     0.234 C 
ATOM      3  O44 RRR d   1       4.415   4.169  23.486  0.00  0.00    -0.272 OA
ATOM      4  C18 RRR d   1       5.310   6.401  23.389  0.00  0.00     0.067 C 
ATOM      5  N19 RRR d   1       5.910   7.413  22.390  0.00  0.00    -0.197 NA
ATOM      6  C20 RRR d   1       6.676   6.935  21.442  0.00  0.00     0.009 C 
ATOM      7  C21 RRR d   1       5.984   5.836  20.615  0.00  0.00     0.010 C 
ATOM      8  H8  RRR d   1       6.036   6.253  24.202  0.00  0.00     0.071 H 
ATOM      9  H9  RRR d   1       4.385   6.833  23.798  0.00  0.00     0.071 H 
ATOM     10  H10 RRR d   1       7.582   6.512  21.901  0.00  0.00     0.059 H 
ATOM     11  H11 RRR d   1       6.957   7.758  20.768  0.00  0.00     0.059 H 
ATOM     12  H12 RRR d   1       5.230   6.304  19.965  0.00  0.00     0.066 H 
ATOM     13  H13 RRR d   1       6.739   5.330  19.995  0.00  0.00     0.066 H 
ENDROOT
BRANCH   1  14
ATOM     14  C13 RRR d   1       4.998   3.539  20.834  0.00  0.00     0.035 C 
ATOM     15  H6  RRR d   1       4.634   2.870  21.628  0.00  0.00     0.073 H 
ATOM     16  H7  RRR d   1       4.187   3.730  20.116  0.00  0.00     0.073 H 
BRANCH  14  17
ATOM     17  C11 RRR d   1       6.084   2.784  20.083  0.00  0.00     0.028 A 
ATOM     18  N10 RRR d   1       5.840   2.297  18.842  0.00  0.00    -0.357 N 
ATOM     19  C4  RRR d   1       6.969   1.644  18.392  0.00  0.00     0.045 A 
ATOM     20  H1  RRR d   1       4.957   2.398  18.321  0.00  0.00     0.166 HD
ATOM     21  C5  RRR d   1       7.962   1.750  19.442  0.00  0.00     0.010 A 
ATOM     22  C3  RRR d   1       7.260   0.956  17.176  0.00  0.00    -0.040 A 
ATOM     23  C6  RRR d   1       9.232   1.140  19.215  0.00  0.00     0.014 A 
ATOM     24  C12 RRR d   1       7.395   2.473  20.511  0.00  0.00    -0.046 A 
ATOM     25  N1  RRR d   1       9.468   0.491  18.040  0.00  0.00    -0.272 NA
ATOM     26  H2  RRR d   1      10.005   1.193  19.973  0.00  0.00     0.116 H 
ATOM     27  C2  RRR d   1       8.558   0.377  17.037  0.00  0.00     0.004 A 
ATOM     28  H3  RRR d   1       8.818  -0.155  16.129  0.00  0.00     0.114 H 
ATOM     29  H5  RRR d   1       7.864   2.735  21.459  0.00  0.00     0.088 H 
ATOM     30  H4  RRR d   1       6.522   0.876  16.386  0.00  0.00     0.089 H 
ENDBRANCH  14  17
ENDBRANCH   1  14
BRANCH   5  31
ATOM     31  S28 RRR d   1       6.631   8.791  23.390  0.00  0.00     0.234 S 
ATOM     32  O37 RRR d   1       5.696   8.938  24.477  0.00  0.00    -0.207 OA
ATOM     33  O45 RRR d   1       6.596   9.664  22.259  0.00  0.00    -0.207 OA
BRANCH  31  34
ATOM     34  C29 RRR d   1       8.255   8.688  23.988  0.00  0.00     0.024 C 
ATOM     35  C30 RRR d   1       8.457   7.960  25.092  0.00  0.00    -0.055 C 
ATOM     36  H15 RRR d   1       7.580   7.531  25.574  0.00  0.00     0.086 H 
ATOM     37  H14 RRR d   1       9.077   9.195  23.485  0.00  0.00     0.103 H 
BRANCH  35  38
ATOM     38  C31 RRR d   1       9.759   7.691  25.707  0.00  0.00     0.007 A 
ATOM     39  C35 RRR d   1       9.848   6.900  26.916  0.00  0.00    -0.064 A 
ATOM     40  C34 RRR d   1      11.198   6.725  27.346  0.00  0.00    -0.054 A 
ATOM     41  H16 RRR d   1       8.986   6.487  27.437  0.00  0.00     0.085 H 
ATOM     42  C33 RRR d   1      12.122   7.387  26.453  0.00  0.00     0.075 A 
ATOM     43  H17 RRR d   1      11.493   6.165  28.232  0.00  0.00     0.086 H 
ATOM     44 CL36 RRR d   1      13.830   7.337  26.685  0.00  0.00    -0.076 Cl
ATOM     45  S32 RRR d   1      11.315   8.193  25.154  0.00  0.00    -0.078 SA
ENDBRANCH  35  38
ENDBRANCH  31  34
ENDBRANCH   5  31
TORSDOF 5
