REMARK  7 active torsions:
REMARK  status: ('A' for Active; 'I' for Inactive)
REMARK    1  A    between atoms: O15_1  and  C10_2 
REMARK    2  A    between atoms: C10_2  and  C6_3 
REMARK    3  A    between atoms: C6_3  and  N2_4 
REMARK    4  A    between atoms: C1_12  and  C4_13 
REMARK    5  A    between atoms: C4_13  and  N8_14 
REMARK    6  A    between atoms: N20_18  and  S21_21 
REMARK    7  A    between atoms: S21_21  and  C22_24 
ROOT
ATOM      1  N8  RDR d   1       5.481   5.059  21.600  0.00  0.00    -0.344 N 
ATOM      2  C12 RDR d   1       5.059   5.249  22.914  0.00  0.00     0.234 C 
ATOM      3  O18 RDR d   1       4.326   4.471  23.509  0.00  0.00    -0.272 OA
ATOM      4  C17 RDR d   1       5.569   6.522  23.635  0.00  0.00     0.067 C 
ATOM      5  N20 RDR d   1       6.049   7.617  22.762  0.00  0.00    -0.196 NA
ATOM      6  C19 RDR d   1       7.031   7.080  21.790  0.00  0.00     0.009 C 
ATOM      7  C13 RDR d   1       6.375   6.022  20.881  0.00  0.00     0.010 C 
ATOM      8  H12 RDR d   1       6.401   6.226  24.291  0.00  0.00     0.071 H 
ATOM      9  H13 RDR d   1       4.743   6.916  24.245  0.00  0.00     0.071 H 
ATOM     10  H14 RDR d   1       7.866   6.618  22.338  0.00  0.00     0.059 H 
ATOM     11  H15 RDR d   1       7.412   7.904  21.169  0.00  0.00     0.059 H 
ATOM     12  H16 RDR d   1       5.777   6.545  20.120  0.00  0.00     0.066 H 
ATOM     13  H17 RDR d   1       7.174   5.448  20.389  0.00  0.00     0.066 H 
ENDROOT
BRANCH   1  14
ATOM     14  C4  RDR d   1       5.025   3.854  20.860  0.00  0.00     0.036 C 
ATOM     15  H10 RDR d   1       4.479   3.221  21.575  0.00  0.00     0.073 H 
ATOM     16  H11 RDR d   1       4.336   4.197  20.074  0.00  0.00     0.073 H 
BRANCH  14  17
ATOM     17  C1  RDR d   1       6.085   2.962  20.179  0.00  0.00     0.031 A 
ATOM     18  N2  RDR d   1       5.863   2.363  18.959  0.00  0.00    -0.346 N 
ATOM     19  C5  RDR d   1       6.998   1.617  18.591  0.00  0.00     0.048 A 
ATOM     20  C7  RDR d   1       7.962   1.765  19.638  0.00  0.00     0.010 A 
ATOM     21  C9  RDR d   1       7.311   0.830  17.471  0.00  0.00    -0.039 A 
ATOM     22  C11 RDR d   1       9.191   1.115  19.513  0.00  0.00     0.014 A 
ATOM     23  C3  RDR d   1       7.374   2.618  20.643  0.00  0.00    -0.046 A 
ATOM     24  N16 RDR d   1       9.495   0.345  18.415  0.00  0.00    -0.272 NA
ATOM     25  H6  RDR d   1       9.926   1.220  20.303  0.00  0.00     0.116 H 
ATOM     26  C14 RDR d   1       8.577   0.206  17.416  0.00  0.00     0.004 A 
ATOM     27  H7  RDR d   1       8.826  -0.402  16.554  0.00  0.00     0.114 H 
ATOM     28  H9  RDR d   1       7.835   2.935  21.578  0.00  0.00     0.088 H 
ATOM     29  H8  RDR d   1       6.596   0.704  16.666  0.00  0.00     0.089 H 
BRANCH  18  30
ATOM     30  C6  RDR d   1       4.649   2.426  18.079  0.00  0.00     0.020 C 
ATOM     31  H4  RDR d   1       4.145   3.388  18.254  0.00  0.00     0.068 H 
ATOM     32  H5  RDR d   1       4.978   2.370  17.031  0.00  0.00     0.068 H 
BRANCH  30  33
ATOM     33  C10 RDR d   1       3.629   1.289  18.330  0.00  0.00     0.032 C 
ATOM     34  H2  RDR d   1       2.858   1.302  17.546  0.00  0.00     0.076 H 
ATOM     35  H3  RDR d   1       4.146   0.318  18.320  0.00  0.00     0.076 H 
BRANCH  33  36
ATOM     36  O15 RDR d   1       3.024   1.497  19.601  0.00  0.00    -0.399 OA
ATOM     37  H1  RDR d   1       3.694   1.487  20.275  0.00  0.00     0.209 HD
ENDBRANCH  33  36
ENDBRANCH  30  33
ENDBRANCH  18  30
ENDBRANCH  14  17
ENDBRANCH   1  14
BRANCH   5  38
ATOM     38  S21 RDR d   1       6.624   9.039  23.660  0.00  0.00     0.250 S 
ATOM     39  O23 RDR d   1       5.618   9.281  24.661  0.00  0.00    -0.205 OA
ATOM     40  O24 RDR d   1       6.839  10.016  22.625  0.00  0.00    -0.205 OA
BRANCH  38  41
ATOM     41  C22 RDR d   1       8.126   8.683  24.420  0.00  0.00     0.116 A 
ATOM     42  C25 RDR d   1       8.159   8.081  25.690  0.00  0.00    -0.043 A 
ATOM     43  C27 RDR d   1       9.523   7.841  26.141  0.00  0.00    -0.017 A 
ATOM     44  H18 RDR d   1       7.272   7.825  26.267  0.00  0.00     0.088 H 
ATOM     45  C28 RDR d   1      10.470   8.297  25.141  0.00  0.00     0.018 A 
ATOM     46  C29 RDR d   1       9.981   7.257  27.323  0.00  0.00    -0.070 A 
ATOM     47  S26 RDR d   1       9.678   8.963  23.790  0.00  0.00    -0.076 SA
ATOM     48  C30 RDR d   1      11.834   8.145  25.374  0.00  0.00    -0.045 A 
ATOM     49  C32 RDR d   1      12.278   7.545  26.574  0.00  0.00     0.035 A 
ATOM     50  H19 RDR d   1      12.553   8.486  24.638  0.00  0.00     0.088 H 
ATOM     51 CL33 RDR d   1      13.965   7.345  26.831  0.00  0.00    -0.084 Cl
ATOM     52  C31 RDR d   1      11.368   7.101  27.562  0.00  0.00    -0.061 A 
ATOM     53  H20 RDR d   1      11.725   6.651  28.482  0.00  0.00     0.086 H 
ATOM     54  H21 RDR d   1       9.268   6.919  28.066  0.00  0.00     0.084 H 
ENDBRANCH  38  41
ENDBRANCH   5  38
TORSDOF 7
