REMARK  23 active torsions:
REMARK  status: ('A' for Active; 'I' for Inactive)
REMARK    1  A    between atoms: O1_1  and  C8_8 
REMARK    2  A    between atoms: C19_19  and  O1_1 
REMARK    3  A    between atoms: C5_5  and  C19_19 
REMARK       I    between atoms: C8_8  and  N10_10 
REMARK    4  A    between atoms: N10_10  and  C11_11 
REMARK    5  A    between atoms: C11_11  and  C12_12 
REMARK    6  A    between atoms: C11_11  and  C21_20 
REMARK    7  A    between atoms: C12_12  and  C13_13 
REMARK    8  A    between atoms: C21_20  and  O22_21 
REMARK    9  A    between atoms: C21_20  and  C_22 
REMARK       I    between atoms: C_22  and  N_24 
REMARK   10  A    between atoms: N_24  and  CA_25 
REMARK   11  A    between atoms: CA_25  and  C_26 
REMARK   12  A    between atoms: CA_25  and  CB_28 
REMARK       I    between atoms: C_26  and  N_35 
REMARK   13  A    between atoms: CB_28  and  CG_29 
REMARK   14  A    between atoms: N_35  and  CA_36 
REMARK   15  A    between atoms: CA_36  and  C_37 
REMARK   16  A    between atoms: CA_36  and  CB_39 
REMARK       I    between atoms: C_37  and  N_44 
REMARK   17  A    between atoms: CB_39  and  CG_40 
REMARK   18  A    between atoms: CG_40  and  CD_41 
REMARK   19  A    between atoms: N_44  and  CA_45 
REMARK   20  A    between atoms: CA_45  and  C_46 
REMARK   21  A    between atoms: CA_45  and  CB_48 
REMARK       I    between atoms: C_46  and  N_53 
REMARK   22  A    between atoms: CB_48  and  CG_49 
REMARK   23  A    between atoms: CG_49  and  CD_50 
ROOT
ATOM      1  CA  PHE d   1      18.134   7.312  84.620  0.00  0.00     0.093 C 
ATOM      2  H20 PHE d   1      18.513   6.304  84.844  0.00  0.00     0.088 H 
ENDROOT
BRANCH   1   3
ATOM      3  N   PHE d   1      16.863   7.191  83.951  0.00  0.00    -0.345 N 
ATOM      4  C   KI2 d   1      15.890   6.477  84.493  0.00  0.00     0.249 C 
ATOM      5  O   KI2 d   1      15.906   6.099  85.698  0.00  0.00    -0.271 OA
ATOM      6  H19 PHE d   1      16.716   7.648  83.074  0.00  0.00     0.163 HD
BRANCH   4   7
ATOM      7  C21 KI2 d   1      14.719   6.269  83.586  0.00  0.00     0.132 C 
ATOM      8  H17 KI2 d   1      14.310   5.267  83.784  0.00  0.00     0.101 H 
BRANCH   7   9
ATOM      9  C11 KI2 d   1      13.583   7.308  83.831  0.00  0.00     0.051 C 
ATOM     10  H7  KI2 d   1      14.046   8.202  84.275  0.00  0.00     0.077 H 
BRANCH   9  11
ATOM     11  N10 KI2 d   1      12.971   7.705  82.570  0.00  0.00    -0.329 N 
ATOM     12  C8  KI2 d   1      13.599   8.660  81.781  0.00  0.00     0.361 C 
ATOM     13  O9  KI2 d   1      14.373   9.530  82.222  0.00  0.00    -0.238 OA
ATOM     14  H6  KI2 d   1      12.108   7.294  82.276  0.00  0.00     0.165 HD
BRANCH  12  15
ATOM     15  O1  KI2 d   1      13.088   8.704  80.517  0.00  0.00    -0.299 OA
BRANCH  15  16
ATOM     16  C19 KI2 d   1      13.656   9.734  79.707  0.00  0.00     0.054 C 
ATOM     17  H15 KI2 d   1      14.750   9.629  79.661  0.00  0.00     0.082 H 
ATOM     18  H16 KI2 d   1      13.400  10.725  80.109  0.00  0.00     0.082 H 
BRANCH  16  19
ATOM     19  C5  KI2 d   1      13.042   9.544  78.322  0.00  0.00    -0.034 A 
ATOM     20  C4  KI2 d   1      13.740   8.930  77.324  0.00  0.00    -0.075 A 
ATOM     21  C3  KI2 d   1      13.210   8.757  76.040  0.00  0.00    -0.082 A 
ATOM     22  H3  KI2 d   1      14.739   8.564  77.532  0.00  0.00     0.084 H 
ATOM     23  C2  KI2 d   1      11.908   9.209  75.816  0.00  0.00    -0.083 A 
ATOM     24  H2  KI2 d   1      13.788   8.290  75.250  0.00  0.00     0.083 H 
ATOM     25  C7  KI2 d   1      11.151   9.834  76.803  0.00  0.00    -0.082 A 
ATOM     26  H1  KI2 d   1      11.469   9.068  74.835  0.00  0.00     0.083 H 
ATOM     27  C6  KI2 d   1      11.739  10.003  78.082  0.00  0.00    -0.075 A 
ATOM     28  H5  KI2 d   1      10.144  10.180  76.600  0.00  0.00     0.083 H 
ATOM     29  H4  KI2 d   1      11.181  10.487  78.875  0.00  0.00     0.084 H 
ENDBRANCH  16  19
ENDBRANCH  15  16
ENDBRANCH  12  15
ENDBRANCH   9  11
BRANCH   9  30
ATOM     30  C12 KI2 d   1      12.541   6.813  84.801  0.00  0.00    -0.019 C 
ATOM     31  H8  KI2 d   1      13.007   6.578  85.769  0.00  0.00     0.043 H 
ATOM     32  H9  KI2 d   1      12.050   5.913  84.402  0.00  0.00     0.043 H 
BRANCH  30  33
ATOM     33  C13 KI2 d   1      11.535   7.920  84.966  0.00  0.00    -0.056 A 
ATOM     34  C14 KI2 d   1      11.706   8.910  85.924  0.00  0.00    -0.077 A 
ATOM     35  C15 KI2 d   1      10.779   9.953  86.097  0.00  0.00    -0.082 A 
ATOM     36  H10 KI2 d   1      12.583   8.878  86.560  0.00  0.00     0.084 H 
ATOM     37  C16 KI2 d   1       9.659   9.986  85.269  0.00  0.00    -0.083 A 
ATOM     38  H11 KI2 d   1      10.932  10.712  86.855  0.00  0.00     0.083 H 
ATOM     39  C17 KI2 d   1       9.488   9.021  84.284  0.00  0.00    -0.082 A 
ATOM     40  H12 KI2 d   1       8.918  10.768  85.394  0.00  0.00     0.083 H 
ATOM     41  C18 KI2 d   1      10.381   7.957  84.170  0.00  0.00    -0.077 A 
ATOM     42  H13 KI2 d   1       8.652   9.096  83.598  0.00  0.00     0.083 H 
ATOM     43  H14 KI2 d   1      10.183   7.157  83.465  0.00  0.00     0.084 H 
ENDBRANCH  30  33
ENDBRANCH   9  30
ENDBRANCH   7   9
BRANCH   7  44
ATOM     44  O22 KI2 d   1      15.138   6.321  82.244  0.00  0.00    -0.384 OA
ATOM     45  H18 KI2 d   1      15.830   5.685  82.105  0.00  0.00     0.210 HD
ENDBRANCH   7  44
ENDBRANCH   4   7
ENDBRANCH   1   3
BRANCH   1  46
ATOM     46  C   PHE d   1      17.998   8.090  85.924  0.00  0.00     0.241 C 
ATOM     47  O   PHE d   1      17.336   9.134  85.979  0.00  0.00    -0.271 OA
ATOM     48  N   GLU d   1      18.661   7.599  86.959  0.00  0.00    -0.346 N 
ATOM     49  H28 GLU d   1      19.148   6.731  86.864  0.00  0.00     0.163 HD
BRANCH  48  50
ATOM     50  CA  GLU d   1      18.693   8.303  88.235  0.00  0.00     0.090 C 
ATOM     51  H29 GLU d   1      18.669   9.387  88.050  0.00  0.00     0.087 H 
BRANCH  50  52
ATOM     52  C   GLU d   1      20.031   7.940  88.908  0.00  0.00     0.241 C 
ATOM     53  O   GLU d   1      20.484   6.774  88.894  0.00  0.00    -0.271 OA
ATOM     54  N   GLU d   1      20.551   8.915  89.661  0.00  0.00    -0.346 N 
ATOM     55  H34 GLU d   1      20.109   9.812  89.648  0.00  0.00     0.163 HD
BRANCH  54  56
ATOM     56  CA  GLU d   1      21.727   8.736  90.497  0.00  0.00     0.089 C 
ATOM     57  H35 GLU d   1      21.689   7.734  90.949  0.00  0.00     0.087 H 
BRANCH  56  58
ATOM     58  C   GLU d   1      21.742   9.779  91.605  0.00  0.00     0.238 C 
ATOM     59  O   GLU d   1      21.170  10.850  91.433  0.00  0.00    -0.271 OA
ATOM     60  N   NH2 d   1      22.423   9.488  92.671  0.00  0.00    -0.368 N 
ATOM     61  H40 NH2 d   1      22.466  10.138  93.430  0.00  0.00     0.159 HD
ATOM     62  H41 NH2 d   1      22.904   8.614  92.734  0.00  0.00     0.159 HD
ENDBRANCH  56  58
BRANCH  56  63
ATOM     63  CB  GLU d   1      23.014   8.858  89.668  0.00  0.00    -0.029 C 
ATOM     64  H36 GLU d   1      22.969   8.139  88.837  0.00  0.00     0.037 H 
ATOM     65  H37 GLU d   1      23.874   8.620  90.312  0.00  0.00     0.037 H 
BRANCH  63  66
ATOM     66  CG  GLU d   1      23.202  10.255  89.097  0.00  0.00     0.018 C 
ATOM     67  H38 GLU d   1      23.287  10.958  89.939  0.00  0.00     0.049 H 
ATOM     68  H39 GLU d   1      22.310  10.502  88.502  0.00  0.00     0.049 H 
BRANCH  66  69
ATOM     69  CD  GLU d   1      24.419  10.434  88.213  0.00  0.00     0.172 C 
ATOM     70  OE1 GLU d   1      24.440  11.461  87.452  0.00  0.00    -0.648 OA
ATOM     71  OE2 GLU d   1      25.321   9.524  88.200  0.00  0.00    -0.648 OA
ENDBRANCH  66  69
ENDBRANCH  63  66
ENDBRANCH  56  63
ENDBRANCH  54  56
ENDBRANCH  50  52
BRANCH  50  72
ATOM     72  CB  GLU d   1      17.490   7.945  89.096  0.00  0.00    -0.029 C 
ATOM     73  H30 GLU d   1      17.466   6.851  89.211  0.00  0.00     0.037 H 
ATOM     74  H31 GLU d   1      16.583   8.278  88.571  0.00  0.00     0.037 H 
BRANCH  72  75
ATOM     75  CG  GLU d   1      17.486   8.557  90.465  0.00  0.00     0.018 C 
ATOM     76  H32 GLU d   1      16.442   8.628  90.804  0.00  0.00     0.049 H 
ATOM     77  H33 GLU d   1      17.917   9.566  90.389  0.00  0.00     0.049 H 
BRANCH  75  78
ATOM     78  CD  GLU d   1      18.267   7.791  91.508  0.00  0.00     0.172 C 
ATOM     79  OE1 GLU d   1      18.696   8.433  92.525  0.00  0.00    -0.648 OA
ATOM     80  OE2 GLU d   1      18.613   6.615  91.274  0.00  0.00    -0.648 OA
ENDBRANCH  75  78
ENDBRANCH  72  75
ENDBRANCH  50  72
ENDBRANCH  48  50
ENDBRANCH   1  46
BRANCH   1  81
ATOM     81  CB  PHE d   1      19.151   8.048  83.695  0.00  0.00    -0.014 C 
ATOM     82  H21 PHE d   1      18.733   9.028  83.420  0.00  0.00     0.043 H 
ATOM     83  H22 PHE d   1      19.302   7.446  82.787  0.00  0.00     0.043 H 
BRANCH  81  84
ATOM     84  CG  PHE d   1      20.478   8.260  84.357  0.00  0.00    -0.056 A 
ATOM     85  CD1 PHE d   1      20.933   9.523  84.739  0.00  0.00    -0.077 A 
ATOM     86  CE1 PHE d   1      22.136   9.669  85.339  0.00  0.00    -0.082 A 
ATOM     87  H23 PHE d   1      20.316  10.395  84.553  0.00  0.00     0.084 H 
ATOM     88  CZ  PHE d   1      22.972   8.584  85.607  0.00  0.00    -0.083 A 
ATOM     89  H25 PHE d   1      22.462  10.663  85.622  0.00  0.00     0.083 H 
ATOM     90  CE2 PHE d   1      22.534   7.340  85.233  0.00  0.00    -0.082 A 
ATOM     91  H27 PHE d   1      23.932   8.720  86.093  0.00  0.00     0.083 H 
ATOM     92  CD2 PHE d   1      21.301   7.203  84.617  0.00  0.00    -0.077 A 
ATOM     93  H26 PHE d   1      23.150   6.467  85.418  0.00  0.00     0.083 H 
ATOM     94  H24 PHE d   1      20.975   6.210  84.328  0.00  0.00     0.084 H 
ENDBRANCH  81  84
ENDBRANCH   1  81
TORSDOF 23
