REMARK  8 active torsions:
REMARK  status: ('A' for Active; 'I' for Inactive)
REMARK    1  A    between atoms: N1_1  and  C2_2 
REMARK       I    between atoms: N1_1  and  C6_6 
REMARK    2  A    between atoms: N1_1  and  C23_23 
REMARK    3  A    between atoms: C2_2  and  C3_3 
REMARK    4  A    between atoms: C2_2  and  C16_16 
REMARK    5  A    between atoms: C6_6  and  C8_8 
REMARK    6  A    between atoms: C16_16  and  C17_17 
REMARK    7  A    between atoms: C23_23  and  C24_24 
REMARK    8  A    between atoms: C28_28  and  C30_30 
ROOT
ATOM      1  N1  153 d   1       7.318  33.260  77.860  0.00  0.00    -0.329 N 
ATOM      2  C6  153 d   1       7.250  34.630  78.246  0.00  0.00     0.256 C 
ATOM      3  O7  153 d   1       6.881  34.981  79.355  0.00  0.00    -0.267 OA
ENDROOT
BRANCH   1   4
ATOM      4  C2  153 d   1       7.146  32.821  76.393  0.00  0.00     0.103 C 
ATOM      5  H1  153 d   1       7.779  33.500  75.803  0.00  0.00     0.090 H 
BRANCH   4   6
ATOM      6  C3  153 d   1       5.681  32.986  75.833  0.00  0.00     0.197 C 
ATOM      7  O4  153 d   1       5.403  32.525  74.695  0.00  0.00    -0.646 OA
ATOM      8  O5  153 d   1       4.839  33.588  76.527  0.00  0.00    -0.646 OA
ENDBRANCH   4   6
BRANCH   4   9
ATOM      9  C16 153 d   1       7.679  31.364  76.120  0.00  0.00    -0.013 C 
ATOM     10  H5  153 d   1       7.245  31.029  75.167  0.00  0.00     0.043 H 
ATOM     11  H6  153 d   1       7.313  30.723  76.935  0.00  0.00     0.043 H 
BRANCH   9  12
ATOM     12  C17 153 d   1       9.188  31.164  76.027  0.00  0.00    -0.056 A 
ATOM     13  C18 153 d   1       9.715  29.836  75.846  0.00  0.00    -0.077 A 
ATOM     14  C19 153 d   1      11.114  29.604  75.762  0.00  0.00    -0.082 A 
ATOM     15  H7  153 d   1       9.031  28.998  75.772  0.00  0.00     0.084 H 
ATOM     16  C20 153 d   1      12.013  30.704  75.861  0.00  0.00    -0.083 A 
ATOM     17  H8  153 d   1      11.494  28.598  75.624  0.00  0.00     0.083 H 
ATOM     18  C21 153 d   1      11.510  32.026  76.040  0.00  0.00    -0.082 A 
ATOM     19  H9  153 d   1      13.082  30.536  75.800  0.00  0.00     0.083 H 
ATOM     20  C22 153 d   1      10.110  32.252  76.121  0.00  0.00    -0.077 A 
ATOM     21  H10 153 d   1      12.198  32.861  76.115  0.00  0.00     0.083 H 
ATOM     22  H11 153 d   1       9.737  33.261  76.256  0.00  0.00     0.084 H 
ENDBRANCH   9  12
ENDBRANCH   4   9
ENDBRANCH   1   4
BRANCH   1  23
ATOM     23  C23 153 d   1       7.549  32.175  78.924  0.00  0.00     0.023 C 
ATOM     24  H12 153 d   1       7.478  31.199  78.421  0.00  0.00     0.071 H 
ATOM     25  H13 153 d   1       6.743  32.264  79.667  0.00  0.00     0.071 H 
BRANCH  23  26
ATOM     26  C24 153 d   1       8.906  32.207  79.698  0.00  0.00    -0.039 A 
ATOM     27  C25 153 d   1       9.306  33.347  80.475  0.00  0.00    -0.075 A 
ATOM     28  C26 153 d   1      10.541  33.388  81.182  0.00  0.00    -0.082 A 
ATOM     29  H14 153 d   1       8.645  34.205  80.525  0.00  0.00     0.084 H 
ATOM     30  C27 153 d   1      11.439  32.302  81.155  0.00  0.00    -0.068 A 
ATOM     31  H15 153 d   1      10.796  34.273  81.753  0.00  0.00     0.083 H 
ATOM     32  C28 153 d   1      11.068  31.156  80.400  0.00  0.00     0.048 A 
ATOM     33  H16 153 d   1      12.380  32.339  81.692  0.00  0.00     0.084 H 
ATOM     34  C29 153 d   1       9.816  31.102  79.676  0.00  0.00    -0.061 A 
ATOM     35  H17 153 d   1       9.564  30.213  79.109  0.00  0.00     0.085 H 
BRANCH  32  36
ATOM     36  C30 153 d   1      11.998  29.928  80.329  0.00  0.00     0.417 C 
ATOM     37  F31 153 d   1      12.964  30.132  79.420  0.00  0.00    -0.166 F 
ATOM     38  F32 153 d   1      11.323  28.813  79.977  0.00  0.00    -0.166 F 
ATOM     39  F33 153 d   1      12.580  29.693  81.515  0.00  0.00    -0.166 F 
ENDBRANCH  32  36
ENDBRANCH  23  26
ENDBRANCH   1  23
BRANCH   2  40
ATOM     40  C8  153 d   1       7.666  35.754  77.302  0.00  0.00     0.054 A 
ATOM     41  C9  153 d   1       6.633  36.472  76.638  0.00  0.00    -0.064 A 
ATOM     42  C10 153 d   1       6.964  37.531  75.761  0.00  0.00    -0.061 A 
ATOM     43  H2  153 d   1       5.595  36.208  76.804  0.00  0.00     0.085 H 
ATOM     44  C11 153 d   1       8.329  37.870  75.548  0.00  0.00     0.035 A 
ATOM     45  H3  153 d   1       6.181  38.082  75.253  0.00  0.00     0.086 H 
ATOM     46  C12 153 d   1       9.360  37.156  76.212  0.00  0.00    -0.040 A 
ATOM     47 CL14 153 d   1       8.734  39.151  74.480  0.00  0.00    -0.084 Cl
ATOM     48  C13 153 d   1       9.040  36.100  77.089  0.00  0.00     0.051 A 
ATOM     49  H4  153 d   1      10.397  37.424  76.044  0.00  0.00     0.088 H 
ATOM     50 CL15 153 d   1      10.332  35.267  77.884  0.00  0.00    -0.083 Cl
ENDBRANCH   2  40
TORSDOF 8
