REMARK  9 active torsions:
REMARK  status: ('A' for Active; 'I' for Inactive)
REMARK    1  A    between atoms: C14_10  and  C18_11 
REMARK    2  A    between atoms: C24_14  and  N27_15 
REMARK    3  A    between atoms: N27_15  and  C29_16 
REMARK    4  A    between atoms: N27_15  and  C28_17 
REMARK    5  A    between atoms: C12_21  and  C19_22 
REMARK    6  A    between atoms: C17_23  and  C31_24 
REMARK    7  A    between atoms: C17_23  and  O3_27 
REMARK    8  A    between atoms: C31_24  and  C30_25 
REMARK    9  A    between atoms: C30_25  and  C32_26 
ROOT
ATOM      1  O30 486 d   1      -4.583  18.217   3.520  0.00  0.00    -0.293 OA
ATOM      2  C2  486 d   1      -3.993  17.199   3.713  0.00  0.00     0.150 C 
ATOM      3  C1  486 d   1      -4.701  15.838   4.087  0.00  0.00    -0.002 C 
ATOM      4  C3  486 d   1      -2.502  17.082   3.534  0.00  0.00    -0.032 C 
ATOM      5  C4  486 d   1      -1.997  15.856   3.229  0.00  0.00    -0.048 C 
ATOM      6  C7  486 d   1      -0.439  15.746   3.105  0.00  0.00    -0.040 C 
ATOM      7  C5  486 d   1      -2.936  14.701   3.175  0.00  0.00    -0.048 C 
ATOM      8  C6  486 d   1      -4.475  15.066   2.840  0.00  0.00    -0.034 C 
ATOM      9  C10 486 d   1      -2.412  13.438   3.488  0.00  0.00    -0.060 C 
ATOM     10  C14 486 d   1      -3.239  12.007   3.531  0.00  0.00    -0.005 C 
ATOM     11  C13 486 d   1      -2.646  11.054   4.596  0.00  0.00    -0.044 C 
ATOM     12  C12 486 d   1      -1.136  11.038   5.007  0.00  0.00    -0.003 C 
ATOM     13  C17 486 d   1      -0.853  10.348   6.380  0.00  0.00     0.094 C 
ATOM     14  C16 486 d   1       0.623  10.861   6.467  0.00  0.00    -0.031 C 
ATOM     15  C15 486 d   1       0.684  12.259   5.776  0.00  0.00    -0.057 C 
ATOM     16  C11 486 d   1      -0.762  12.555   5.197  0.00  0.00    -0.037 C 
ATOM     17  C9  486 d   1      -0.819  13.359   3.895  0.00  0.00    -0.026 C 
ATOM     18  C8  486 d   1      -0.045  14.723   4.134  0.00  0.00    -0.054 C 
ATOM     19  H1  486 d   1      -5.773  15.980   4.289  0.00  0.00     0.045 H 
ATOM     20  H2  486 d   1      -4.225  15.357   4.954  0.00  0.00     0.045 H 
ATOM     21  H3  486 d   1      -1.851  17.948   3.645  0.00  0.00     0.089 H 
ATOM     22  H4  486 d   1       0.036  16.715   3.319  0.00  0.00     0.040 H 
ATOM     23  H5  486 d   1      -0.153  15.412   2.097  0.00  0.00     0.040 H 
ATOM     24  H6  486 d   1      -4.583  15.677   1.932  0.00  0.00     0.040 H 
ATOM     25  H7  486 d   1      -5.119  14.178   2.763  0.00  0.00     0.040 H 
ATOM     26  H8  486 d   1      -4.288  12.204   3.799  0.00  0.00     0.054 H 
ATOM     27  H19 486 d   1      -2.871  10.036   4.245  0.00  0.00     0.035 H 
ATOM     28  H20 486 d   1      -3.206  11.255   5.521  0.00  0.00     0.035 H 
ATOM     29  H28 486 d   1       1.294  10.159   5.951  0.00  0.00     0.037 H 
ATOM     30  H29 486 d   1       0.926  10.951   7.521  0.00  0.00     0.037 H 
ATOM     31  H30 486 d   1       1.422  12.245   4.960  0.00  0.00     0.033 H 
ATOM     32  H31 486 d   1       0.962  13.031   6.509  0.00  0.00     0.033 H 
ATOM     33  H32 486 d   1      -1.403  13.055   5.938  0.00  0.00     0.042 H 
ATOM     34  H33 486 d   1      -0.293  12.816   3.096  0.00  0.00     0.047 H 
ATOM     35  H34 486 d   1      -0.289  15.106   5.136  0.00  0.00     0.034 H 
ATOM     36  H35 486 d   1       1.038  14.540   4.065  0.00  0.00     0.034 H 
ENDROOT
BRANCH  10  37
ATOM     37  C18 486 d   1      -3.191  11.406   2.071  0.00  0.00    -0.050 A 
ATOM     38  C22 486 d   1      -2.334  12.025   1.058  0.00  0.00    -0.074 A 
ATOM     39  C23 486 d   1      -2.173  11.511  -0.211  0.00  0.00    -0.057 A 
ATOM     40  H9  486 d   1      -1.800  12.932   1.319  0.00  0.00     0.084 H 
ATOM     41  C24 486 d   1      -2.835  10.288  -0.595  0.00  0.00     0.029 A 
ATOM     42  H10 486 d   1      -1.544  12.030  -0.926  0.00  0.00     0.086 H 
ATOM     43  C25 486 d   1      -3.712   9.657   0.418  0.00  0.00    -0.057 A 
ATOM     44  C26 486 d   1      -3.862  10.189   1.721  0.00  0.00    -0.074 A 
ATOM     45  H17 486 d   1      -4.257   8.758   0.153  0.00  0.00     0.086 H 
ATOM     46  H18 486 d   1      -4.481   9.679   2.450  0.00  0.00     0.084 H 
BRANCH  41  47
ATOM     47  N27 486 d   1      -2.779   9.715  -1.926  0.00  0.00    -0.390 N 
BRANCH  47  48
ATOM     48  C29 486 d   1      -3.542   8.490  -2.177  0.00  0.00    -0.019 C 
ATOM     49  H11 486 d   1      -3.402   8.179  -3.223  0.00  0.00     0.056 H 
ATOM     50  H12 486 d   1      -4.610   8.678  -1.990  0.00  0.00     0.056 H 
ATOM     51  H13 486 d   1      -3.187   7.693  -1.506  0.00  0.00     0.056 H 
ENDBRANCH  47  48
BRANCH  47  52
ATOM     52  C28 486 d   1      -2.371  10.510  -3.114  0.00  0.00    -0.019 C 
ATOM     53  H14 486 d   1      -1.809  11.397  -2.786  0.00  0.00     0.056 H 
ATOM     54  H15 486 d   1      -3.267  10.828  -3.668  0.00  0.00     0.056 H 
ATOM     55  H16 486 d   1      -1.735   9.894  -3.767  0.00  0.00     0.056 H 
ENDBRANCH  47  52
ENDBRANCH  41  47
ENDBRANCH  10  37
BRANCH  12  56
ATOM     56  C19 486 d   1      -0.417  10.110   3.858  0.00  0.00    -0.066 C 
ATOM     57  H21 486 d   1      -0.588  10.556   2.867  0.00  0.00     0.028 H 
ATOM     58  H22 486 d   1      -0.846   9.097   3.884  0.00  0.00     0.028 H 
ATOM     59  H23 486 d   1       0.664  10.056   4.054  0.00  0.00     0.028 H 
ENDBRANCH  12  56
BRANCH  13  60
ATOM     60  C31 486 d   1      -1.587  10.882   7.598  0.00  0.00    -0.007 C 
BRANCH  60  61
ATOM     61  C30 486 d   1      -2.485  11.042   8.391  0.00  0.00    -0.045 C 
BRANCH  61  62
ATOM     62  C32 486 d   1      -3.164  11.448   9.656  0.00  0.00    -0.050 C 
ATOM     63  H24 486 d   1      -4.235  11.206   9.591  0.00  0.00     0.033 H 
ATOM     64  H25 486 d   1      -3.041  12.531   9.807  0.00  0.00     0.033 H 
ATOM     65  H26 486 d   1      -2.716  10.907  10.502  0.00  0.00     0.033 H 
ENDBRANCH  61  62
ENDBRANCH  60  61
ENDBRANCH  13  60
BRANCH  13  66
ATOM     66  O3  486 d   1      -0.920   8.898   6.308  0.00  0.00    -0.384 OA
ATOM     67  H27 486 d   1      -1.829   8.626   6.254  0.00  0.00     0.211 HD
ENDBRANCH  13  66
TORSDOF 9
