REMARK  6 active torsions:
REMARK  status: ('A' for Active; 'I' for Inactive)
REMARK    1  A    between atoms: N1_1  and  C1'_9 
REMARK    2  A    between atoms: C4_4  and  N4_8 
REMARK    3  A    between atoms: C3'_11  and  O3'_14 
REMARK    4  A    between atoms: C4'_12  and  C5'_15 
REMARK    5  A    between atoms: C5'_15  and  O5'_16 
REMARK    6  A    between atoms: O5'_16  and  P_17 
ROOT
ATOM      1  C1' DCM d   1      15.721  46.337 -52.935  0.00  0.00     0.116 C 
ATOM      2  C2' DCM d   1      15.044  46.105 -54.288  0.00  0.00     0.002 C 
ATOM      3  C3' DCM d   1      16.232  46.225 -55.234  0.00  0.00     0.066 C 
ATOM      4  C4' DCM d   1      16.986  47.480 -54.813  0.00  0.00     0.087 C 
ATOM      5  O4' DCM d   1      16.624  47.473 -53.339  0.00  0.00    -0.356 OA
ATOM      6  H5  DCM d   1      16.362  45.466 -52.735  0.00  0.00     0.118 H 
ATOM      7  H6  DCM d   1      14.284  46.872 -54.496  0.00  0.00     0.043 H 
ATOM      8  H7  DCM d   1      14.583  45.108 -54.343  0.00  0.00     0.043 H 
ATOM      9  H8  DCM d   1      15.933  46.234 -56.293  0.00  0.00     0.087 H 
ATOM     10  H9  DCM d   1      18.070  47.410 -54.989  0.00  0.00     0.090 H 
ENDROOT
BRANCH   1  11
ATOM     11  N1  DCM d   1      14.902  46.438 -51.719  0.00  0.00    -0.281 N 
ATOM     12  C6  DCM d   1      15.111  47.524 -51.002  0.00  0.00    -0.010 A 
ATOM     13  C5  DCM d   1      14.664  47.615 -49.675  0.00  0.00    -0.024 A 
ATOM     14  H2  DCM d   1      15.640  48.365 -51.447  0.00  0.00     0.112 H 
ATOM     15  C4  DCM d   1      13.952  46.479 -49.126  0.00  0.00     0.128 A 
ATOM     16  H1  DCM d   1      14.846  48.508 -49.079  0.00  0.00     0.091 H 
ATOM     17  N3  DCM d   1      13.711  45.409 -49.924  0.00  0.00    -0.177 NA
ATOM     18  C2  DCM d   1      14.185  45.358 -51.225  0.00  0.00     0.352 A 
ATOM     19  O2  DCM d   1      13.943  44.346 -51.867  0.00  0.00    -0.244 OA
BRANCH  15  20
ATOM     20  N4  DCM d   1      13.675  46.408 -47.821  0.00  0.00    -0.384 N 
ATOM     21  H3  DCM d   1      13.856  47.218 -47.211  0.00  0.00     0.157 HD
ATOM     22  H4  DCM d   1      13.280  45.543 -47.425  0.00  0.00     0.157 HD
ENDBRANCH  15  20
ENDBRANCH   1  11
BRANCH   4  23
ATOM     23  C5' DCM d   1      16.408  48.712 -55.510  0.00  0.00     0.059 C 
ATOM     24  H11 DCM d   1      16.773  49.623 -55.014  0.00  0.00     0.079 H 
ATOM     25  H12 DCM d   1      15.309  48.683 -55.462  0.00  0.00     0.079 H 
BRANCH  23  26
ATOM     26  O5' DCM d   1      16.840  48.706 -56.907  0.00  0.00    -0.280 OA
BRANCH  26  27
ATOM     27  P   DCM d   1      15.963  49.419 -58.000  0.00  0.00     0.422 P 
ATOM     28  O3P DCM d   1      15.433  50.722 -57.586  0.00  0.00    -0.617 OA
ATOM     29  O2P DCM d   1      14.904  48.406 -58.076  0.00  0.00    -0.617 OA
ATOM     30  O1P DCM d   1      16.641  49.605 -59.308  0.00  0.00    -0.617 OA
ENDBRANCH  26  27
ENDBRANCH  23  26
ENDBRANCH   4  23
BRANCH   3  31
ATOM     31  O3' DCM d   1      17.124  45.152 -54.910  0.00  0.00    -0.393 OA
ATOM     32  H10 DCM d   1      16.677  44.323 -55.031  0.00  0.00     0.210 HD
ENDBRANCH   3  31
TORSDOF 6
