REMARK  5 active torsions:
REMARK  status: ('A' for Active; 'I' for Inactive)
REMARK    1  A    between atoms: N1_1  and  C1_9 
REMARK    2  A    between atoms: C3_11  and  O3_13 
REMARK    3  A    between atoms: C4_12  and  C5_15 
REMARK    4  A    between atoms: C5_15  and  O5_16 
REMARK    5  A    between atoms: O5_16  and  P_17 
ROOT
ATOM      1  C1  UMP d   1      15.286  48.857 -54.872  0.00  0.00     0.116 C 
ATOM      2  C2  UMP d   1      14.909  48.341 -56.253  0.00  0.00     0.002 C 
ATOM      3  C3  UMP d   1      16.243  48.461 -56.973  0.00  0.00     0.066 C 
ATOM      4  C4  UMP d   1      16.801  49.843 -56.617  0.00  0.00     0.087 C 
ATOM      5  O4  UMP d   1      16.278  49.955 -55.196  0.00  0.00    -0.356 OA
ATOM      6  H4  UMP d   1      15.937  48.057 -54.489  0.00  0.00     0.118 H 
ATOM      7  H5  UMP d   1      14.137  48.968 -56.723  0.00  0.00     0.043 H 
ATOM      8  H6  UMP d   1      14.561  47.298 -56.215  0.00  0.00     0.043 H 
ATOM      9  H7  UMP d   1      16.138  48.346 -58.062  0.00  0.00     0.087 H 
ATOM     10  H8  UMP d   1      17.898  49.895 -56.686  0.00  0.00     0.090 H 
ENDROOT
BRANCH   1  11
ATOM     11  N1  UMP d   1      14.337  48.922 -53.751  0.00  0.00    -0.282 N 
ATOM     12  C2  UMP d   1      13.721  47.748 -53.295  0.00  0.00     0.331 A 
ATOM     13  N3  UMP d   1      13.187  47.790 -52.045  0.00  0.00    -0.275 N 
ATOM     14  O2  UMP d   1      13.556  46.716 -53.922  0.00  0.00    -0.246 OA
ATOM     15  C4  UMP d   1      13.195  48.884 -51.207  0.00  0.00     0.250 A 
ATOM     16  H1  UMP d   1      12.752  46.956 -51.705  0.00  0.00     0.173 HD
ATOM     17  C5  UMP d   1      13.827  50.085 -51.773  0.00  0.00    -0.002 A 
ATOM     18  O4  UMP d   1      12.737  48.760 -50.071  0.00  0.00    -0.268 OA
ATOM     19  C6  UMP d   1      14.380  50.049 -53.058  0.00  0.00    -0.008 A 
ATOM     20  H2  UMP d   1      13.865  51.005 -51.191  0.00  0.00     0.094 H 
ATOM     21  H3  UMP d   1      14.841  50.939 -53.483  0.00  0.00     0.112 H 
ENDBRANCH   1  11
BRANCH   3  22
ATOM     22  O3  UMP d   1      17.072  47.419 -56.413  0.00  0.00    -0.393 OA
ATOM     23  H9  UMP d   1      16.712  46.571 -56.644  0.00  0.00     0.210 HD
ENDBRANCH   3  22
BRANCH   4  24
ATOM     24  C5  UMP d   1      16.142  50.935 -57.467  0.00  0.00     0.059 C 
ATOM     25  H10 UMP d   1      16.447  51.916 -57.074  0.00  0.00     0.079 H 
ATOM     26  H11 UMP d   1      15.050  50.830 -57.386  0.00  0.00     0.079 H 
BRANCH  24  27
ATOM     27  O5  UMP d   1      16.515  50.864 -58.888  0.00  0.00    -0.280 OA
BRANCH  27  28
ATOM     28  P   UMP d   1      15.787  51.827 -59.923  0.00  0.00     0.422 P 
ATOM     29  O1P UMP d   1      14.710  51.006 -60.467  0.00  0.00    -0.617 OA
ATOM     30  O2P UMP d   1      15.184  53.058 -59.417  0.00  0.00    -0.617 OA
ATOM     31  O3P UMP d   1      16.739  52.175 -60.998  0.00  0.00    -0.617 OA
ENDBRANCH  27  28
ENDBRANCH  24  27
ENDBRANCH   4  24
TORSDOF 5
