REMARK  6 active torsions:
REMARK  status: ('A' for Active; 'I' for Inactive)
REMARK    1  A    between atoms: N1_1  and  C1'_9 
REMARK    2  A    between atoms: C4_4  and  N4_8 
REMARK    3  A    between atoms: C3'_11  and  O3'_14 
REMARK    4  A    between atoms: C4'_12  and  C5'_15 
REMARK    5  A    between atoms: C5'_15  and  O5'_16 
REMARK    6  A    between atoms: O5'_16  and  P_17 
ROOT
ATOM      1  C1' DCM d   1      15.771  48.716 -54.895  0.00  0.00     0.116 C 
ATOM      2  C2' DCM d   1      15.294  48.003 -56.165  0.00  0.00     0.002 C 
ATOM      3  C3' DCM d   1      16.237  48.567 -57.215  0.00  0.00     0.066 C 
ATOM      4  C4' DCM d   1      16.267  50.092 -56.973  0.00  0.00     0.087 C 
ATOM      5  O4' DCM d   1      16.057  50.085 -55.472  0.00  0.00    -0.356 OA
ATOM      6  H5  DCM d   1      16.737  48.269 -54.618  0.00  0.00     0.118 H 
ATOM      7  H6  DCM d   1      14.247  48.251 -56.394  0.00  0.00     0.043 H 
ATOM      8  H7  DCM d   1      15.402  46.912 -56.076  0.00  0.00     0.043 H 
ATOM      9  H8  DCM d   1      15.903  48.340 -58.238  0.00  0.00     0.087 H 
ATOM     10  H9  DCM d   1      17.199  50.570 -57.309  0.00  0.00     0.090 H 
ENDROOT
BRANCH   1  11
ATOM     11  N1  DCM d   1      14.972  48.621 -53.641  0.00  0.00    -0.281 N 
ATOM     12  C6  DCM d   1      15.414  49.506 -52.744  0.00  0.00    -0.010 A 
ATOM     13  C5  DCM d   1      14.930  49.544 -51.440  0.00  0.00    -0.024 A 
ATOM     14  H2  DCM d   1      16.178  50.222 -53.043  0.00  0.00     0.112 H 
ATOM     15  C4  DCM d   1      13.899  48.583 -51.103  0.00  0.00     0.128 A 
ATOM     16  H1  DCM d   1      15.307  50.259 -50.710  0.00  0.00     0.091 H 
ATOM     17  N3  DCM d   1      13.453  47.698 -52.038  0.00  0.00    -0.177 NA
ATOM     18  C2  DCM d   1      13.958  47.662 -53.339  0.00  0.00     0.352 A 
ATOM     19  O2  DCM d   1      13.474  46.802 -54.079  0.00  0.00    -0.244 OA
BRANCH  15  20
ATOM     20  N4  DCM d   1      13.335  48.574 -49.893  0.00  0.00    -0.384 N 
ATOM     21  H3  DCM d   1      13.656  49.234 -49.170  0.00  0.00     0.157 HD
ATOM     22  H4  DCM d   1      12.579  47.907 -49.682  0.00  0.00     0.157 HD
ENDBRANCH  15  20
ENDBRANCH   1  11
BRANCH   4  23
ATOM     23  C5' DCM d   1      15.023  50.786 -57.542  0.00  0.00     0.059 C 
ATOM     24  H11 DCM d   1      15.004  51.813 -57.149  0.00  0.00     0.079 H 
ATOM     25  H12 DCM d   1      14.140  50.238 -57.181  0.00  0.00     0.079 H 
BRANCH  23  26
ATOM     26  O5' DCM d   1      14.931  50.866 -58.992  0.00  0.00    -0.280 OA
BRANCH  26  27
ATOM     27  P   DCM d   1      15.665  52.000 -59.820  0.00  0.00     0.422 P 
ATOM     28  O3P DCM d   1      15.291  53.280 -59.248  0.00  0.00    -0.617 OA
ATOM     29  O2P DCM d   1      15.247  51.846 -61.214  0.00  0.00    -0.617 OA
ATOM     30  O1P DCM d   1      17.098  51.761 -59.795  0.00  0.00    -0.617 OA
ENDBRANCH  26  27
ENDBRANCH  23  26
ENDBRANCH   4  23
BRANCH   3  31
ATOM     31  O3' DCM d   1      17.542  47.939 -56.936  0.00  0.00    -0.393 OA
ATOM     32  H10 DCM d   1      17.460  46.995 -57.009  0.00  0.00     0.210 HD
ENDBRANCH   3  31
TORSDOF 6
