REMARK  17 active torsions:
REMARK  status: ('A' for Active; 'I' for Inactive)
REMARK    1  A    between atoms: C21_2  and  C20_4 
REMARK    2  A    between atoms: C20_4  and  C19_5 
REMARK    3  A    between atoms: C19_5  and  C17_6 
REMARK    4  A    between atoms: C17_6  and  N_7 
REMARK    5  A    between atoms: C17_6  and  C18_36 
REMARK       I    between atoms: N_7  and  C_8 
REMARK    6  A    between atoms: C_8  and  C14_10 
REMARK    7  A    between atoms: C11_13  and  C10_16 
REMARK    8  A    between atoms: C10_16  and  C1_17 
REMARK    9  A    between atoms: C10_16  and  C5_29 
REMARK   10  A    between atoms: C1_17  and  C2_18 
REMARK   11  A    between atoms: C2_18  and  C3_19 
REMARK   12  A    between atoms: C3_19  and  C4_20 
REMARK   13  A    between atoms: C8_24  and  N2_25 
REMARK   14  A    between atoms: C7_27  and  N8_28 
REMARK   15  A    between atoms: C5_29  and  OA2_30 
REMARK   16  A    between atoms: C5_29  and  OA1_31 
REMARK   17  A    between atoms: C5_29  and  C6_32 
ROOT
ATOM      1  C10 KEU d   1      72.364  22.916  29.274  0.00  0.00     0.034 C 
ATOM      2  H11 KEU d   1      72.330  23.973  28.970  0.00  0.00     0.056 H 
ENDROOT
BRANCH   1   3
ATOM      3  C11 KEU d   1      72.864  22.976  30.820  0.00  0.00    -0.048 A 
ATOM      4  C12 KEU d   1      72.506  24.094  31.819  0.00  0.00    -0.075 A 
ATOM      5  C13 KEU d   1      73.094  24.028  33.132  0.00  0.00    -0.067 A 
ATOM      6  H8  KEU d   1      71.836  24.900  31.543  0.00  0.00     0.084 H 
ATOM      7  C14 KEU d   1      74.025  22.910  33.476  0.00  0.00     0.032 A 
ATOM      8  H7  KEU d   1      72.862  24.788  33.870  0.00  0.00     0.085 H 
ATOM      9  C15 KEU d   1      74.346  21.827  32.503  0.00  0.00    -0.067 A 
ATOM     10  C16 KEU d   1      73.762  21.877  31.214  0.00  0.00    -0.075 A 
ATOM     11  H10 KEU d   1      75.013  21.018  32.777  0.00  0.00     0.085 H 
ATOM     12  H9  KEU d   1      73.981  21.090  30.502  0.00  0.00     0.084 H 
BRANCH   7  13
ATOM     13  C   KEU d   1      74.615  22.967  34.790  0.00  0.00     0.252 C 
ATOM     14  N   KEU d   1      75.558  22.007  35.120  0.00  0.00    -0.342 N 
ATOM     15  H6  KEU d   1      75.766  21.281  34.465  0.00  0.00     0.163 HD
ATOM     16  O   KEU d   1      74.311  23.853  35.557  0.00  0.00    -0.268 OA
BRANCH  14  17
ATOM     17  C17 KEU d   1      76.279  22.033  36.447  0.00  0.00     0.097 C 
ATOM     18  H5  KEU d   1      75.854  22.818  37.090  0.00  0.00     0.089 H 
BRANCH  17  19
ATOM     19  C19 KEU d   1      75.956  20.703  37.035  0.00  0.00    -0.028 C 
ATOM     20  H3  KEU d   1      76.332  19.922  36.357  0.00  0.00     0.037 H 
ATOM     21  H4  KEU d   1      76.464  20.620  38.007  0.00  0.00     0.037 H 
BRANCH  19  22
ATOM     22  C20 KEU d   1      74.461  20.478  37.250  0.00  0.00     0.018 C 
ATOM     23  H1  KEU d   1      74.085  21.259  37.928  0.00  0.00     0.049 H 
ATOM     24  H2  KEU d   1      73.953  20.561  36.278  0.00  0.00     0.049 H 
BRANCH  22  25
ATOM     25  C21 KEU d   1      74.142  19.161  37.833  0.00  0.00     0.172 C 
ATOM     26  O4  KEU d   1      72.840  19.045  38.006  0.00  0.00    -0.648 OA
ATOM     27  O5  KEU d   1      74.997  18.317  38.113  0.00  0.00    -0.648 OA
ENDBRANCH  22  25
ENDBRANCH  19  22
ENDBRANCH  17  19
BRANCH  17  28
ATOM     28  C18 KEU d   1      77.824  22.367  36.249  0.00  0.00     0.196 C 
ATOM     29  O3  KEU d   1      78.454  22.790  37.205  0.00  0.00    -0.646 OA
ATOM     30  O2  KEU d   1      78.442  22.183  35.030  0.00  0.00    -0.646 OA
ENDBRANCH  17  28
ENDBRANCH  14  17
ENDBRANCH   7  13
ENDBRANCH   1   3
BRANCH   1  31
ATOM     31  C1  KEU d   1      73.431  22.236  28.398  0.00  0.00    -0.052 C 
ATOM     32  H12 KEU d   1      73.001  21.847  27.463  0.00  0.00     0.034 H 
ATOM     33  H13 KEU d   1      73.938  21.421  28.936  0.00  0.00     0.034 H 
BRANCH  31  34
ATOM     34  C2  KEU d   1      74.479  23.545  28.109  0.00  0.00    -0.060 C 
ATOM     35  H14 KEU d   1      75.225  23.561  28.917  0.00  0.00     0.033 H 
ATOM     36  H15 KEU d   1      73.880  24.467  28.144  0.00  0.00     0.033 H 
BRANCH  34  37
ATOM     37  C3  KEU d   1      75.256  23.531  26.741  0.00  0.00    -0.033 C 
ATOM     38  H16 KEU d   1      74.730  24.102  25.962  0.00  0.00     0.040 H 
ATOM     39  H17 KEU d   1      75.443  22.508  26.383  0.00  0.00     0.040 H 
BRANCH  37  40
ATOM     40  C4  KEU d   1      76.515  24.210  27.183  0.00  0.00     0.042 A 
ATOM     41  C9  KEU d   1      76.407  25.512  26.878  0.00  0.00     0.203 A 
ATOM     42  O1  KEU d   1      75.406  26.283  26.270  0.00  0.00    -0.171 OA
ATOM     43  N3  KEU d   1      77.519  26.643  27.167  0.00  0.00    -0.166 N 
ATOM     44  C8  KEU d   1      78.653  26.213  27.769  0.00  0.00     0.702 A 
ATOM     45  H18 KEU d   1      77.380  27.601  26.918  0.00  0.00     0.186 HD
ATOM     46  N1  KEU d   1      78.796  24.990  28.038  0.00  0.00    -0.047 NA
ATOM     47  C7  KEU d   1      77.809  23.914  27.821  0.00  0.00     0.151 A 
BRANCH  44  48
ATOM     48  N2  KEU d   1      79.646  27.065  28.061  0.00  0.00    -0.233 N 
ATOM     49  H19 KEU d   1      80.502  26.721  28.519  0.00  0.00     0.174 HD
ATOM     50  H20 KEU d   1      79.553  28.064  27.827  0.00  0.00     0.174 HD
ENDBRANCH  44  48
BRANCH  47  51
ATOM     51  N8  KEU d   1      78.134  22.633  28.205  0.00  0.00    -0.383 N 
ATOM     52  H21 KEU d   1      79.043  22.444  28.650  0.00  0.00     0.157 HD
ATOM     53  H22 KEU d   1      77.468  21.863  28.047  0.00  0.00     0.157 HD
ENDBRANCH  47  51
ENDBRANCH  37  40
ENDBRANCH  34  37
ENDBRANCH  31  34
ENDBRANCH   1  31
BRANCH   1  54
ATOM     54  C5  KEU d   1      70.959  22.346  28.843  0.00  0.00     0.268 C 
BRANCH  54  55
ATOM     55  OA2 KEU d   1      70.495  22.747  27.853  0.00  0.00    -0.358 OA
ATOM     56  H23 KEU d   1      70.599  23.691  27.815  0.00  0.00     0.213 HD
ENDBRANCH  54  55
BRANCH  54  57
ATOM     57  OA1 KEU d   1      70.073  23.139  29.911  0.00  0.00    -0.358 OA
ATOM     58  H24 KEU d   1      70.186  24.073  29.783  0.00  0.00     0.213 HD
ENDBRANCH  54  57
BRANCH  54  59
ATOM     59  C6  KEU d   1      70.564  20.933  29.329  0.00  0.00     0.445 C 
ATOM     60  F2  KEU d   1      70.665  20.605  30.673  0.00  0.00    -0.166 F 
ATOM     61  F1  KEU d   1      71.515  20.214  28.743  0.00  0.00    -0.166 F 
ATOM     62  F   KEU d   1      69.333  20.634  28.881  0.00  0.00    -0.166 F 
ENDBRANCH  54  59
ENDBRANCH   1  54
TORSDOF 17
