REMARK  14 active torsions:
REMARK  status: ('A' for Active; 'I' for Inactive)
REMARK    1  A    between atoms: C21_2  and  C18_4 
REMARK       I    between atoms: C18_4  and  N17_6 
REMARK    2  A    between atoms: N17_6  and  C19_7 
REMARK    3  A    between atoms: N17_6  and  C10_16 
REMARK    4  A    between atoms: C24_12  and  C33_13 
REMARK    5  A    between atoms: C7_19  and  C36_26 
REMARK    6  A    between atoms: C36_26  and  C37_27 
REMARK    7  A    between atoms: C37_27  and  N41_28 
REMARK    8  A    between atoms: C37_27  and  C40_32 
REMARK       I    between atoms: N41_28  and  C61_29 
REMARK    9  A    between atoms: C61_29  and  C62_31 
REMARK       I    between atoms: C40_32  and  N44_34 
REMARK   10  A    between atoms: N44_34  and  C45_35 
REMARK   11  A    between atoms: C45_35  and  C46_36 
REMARK   12  A    between atoms: C46_36  and  C49_37 
REMARK   13  A    between atoms: C49_37  and  C52_38 
REMARK   14  A    between atoms: C52_38  and  C55_39 
ROOT
ATOM      1  C10 989 d   1      34.692  28.032  21.705  0.00  0.00     0.054 A 
ATOM      2  C9  989 d   1      33.382  28.581  21.958  0.00  0.00    -0.055 A 
ATOM      3  C8  989 d   1      32.850  29.621  21.182  0.00  0.00    -0.074 A 
ATOM      4  C7  989 d   1      33.580  30.189  20.099  0.00  0.00    -0.044 A 
ATOM      5  C3  989 d   1      34.918  29.672  19.798  0.00  0.00    -0.017 A 
ATOM      6  C4  989 d   1      35.472  28.589  20.609  0.00  0.00     0.002 A 
ATOM      7  C5  989 d   1      36.787  28.084  20.305  0.00  0.00    -0.070 A 
ATOM      8  C6  989 d   1      37.546  28.628  19.233  0.00  0.00    -0.082 A 
ATOM      9  C1  989 d   1      37.015  29.683  18.440  0.00  0.00    -0.082 A 
ATOM     10  C2  989 d   1      35.722  30.198  18.714  0.00  0.00    -0.072 A 
ATOM     11  H5  989 d   1      32.791  28.177  22.772  0.00  0.00     0.087 H 
ATOM     12  H6  989 d   1      31.861  30.001  21.412  0.00  0.00     0.084 H 
ATOM     13  H7  989 d   1      37.203  27.279  20.901  0.00  0.00     0.084 H 
ATOM     14  H8  989 d   1      38.534  28.237  19.019  0.00  0.00     0.083 H 
ATOM     15  H9  989 d   1      37.599  30.094  17.625  0.00  0.00     0.083 H 
ATOM     16  H10 989 d   1      35.328  31.000  18.101  0.00  0.00     0.084 H 
ENDROOT
BRANCH   4  17
ATOM     17  C36 989 d   1      32.912  31.308  19.306  0.00  0.00    -0.013 C 
ATOM     18  H11 989 d   1      33.660  32.084  19.087  0.00  0.00     0.043 H 
ATOM     19  H12 989 d   1      32.102  31.740  19.913  0.00  0.00     0.043 H 
BRANCH  17  20
ATOM     20  C37 989 d   1      32.312  30.790  17.958  0.00  0.00     0.093 C 
ATOM     21  H13 989 d   1      33.143  30.407  17.347  0.00  0.00     0.088 H 
BRANCH  20  22
ATOM     22  N41 989 d   1      31.707  31.926  17.252  0.00  0.00    -0.348 N 
ATOM     23  C61 989 d   1      32.219  32.374  16.086  0.00  0.00     0.214 C 
ATOM     24  O66 989 d   1      33.196  31.901  15.514  0.00  0.00    -0.274 OA
ATOM     25  H14 989 d   1      30.903  32.375  17.641  0.00  0.00     0.163 HD
BRANCH  23  26
ATOM     26  C62 989 d   1      31.468  33.561  15.505  0.00  0.00    -0.003 C 
ATOM     27  H15 989 d   1      31.941  33.868  14.561  0.00  0.00     0.040 H 
ATOM     28  H16 989 d   1      31.497  34.398  16.218  0.00  0.00     0.040 H 
ATOM     29  H17 989 d   1      30.422  33.276  15.316  0.00  0.00     0.040 H 
ENDBRANCH  23  26
ENDBRANCH  20  22
BRANCH  20  30
ATOM     30  C40 989 d   1      31.295  29.630  18.128  0.00  0.00     0.240 C 
ATOM     31  O43 989 d   1      31.731  28.481  18.191  0.00  0.00    -0.271 OA
ATOM     32  N44 989 d   1      29.966  29.905  18.208  0.00  0.00    -0.359 N 
ATOM     33  H18 989 d   1      29.697  30.866  18.147  0.00  0.00     0.162 HD
BRANCH  32  34
ATOM     34  C45 989 d   1      28.892  28.925  18.375  0.00  0.00    -0.005 C 
ATOM     35  H19 989 d   1      29.284  28.064  18.937  0.00  0.00     0.064 H 
ATOM     36  H20 989 d   1      28.559  28.593  17.380  0.00  0.00     0.064 H 
BRANCH  34  37
ATOM     37  C46 989 d   1      27.683  29.500  19.133  0.00  0.00    -0.050 C 
ATOM     38  H21 989 d   1      26.815  28.846  18.961  0.00  0.00     0.035 H 
ATOM     39  H22 989 d   1      27.467  30.506  18.743  0.00  0.00     0.035 H 
BRANCH  37  40
ATOM     40  C49 989 d   1      27.933  29.602  20.651  0.00  0.00    -0.064 C 
ATOM     41  H23 989 d   1      28.796  30.262  20.825  0.00  0.00     0.033 H 
ATOM     42  H24 989 d   1      28.154  28.598  21.042  0.00  0.00     0.033 H 
BRANCH  40  43
ATOM     43  C52 989 d   1      26.715  30.170  21.402  0.00  0.00    -0.068 C 
ATOM     44  H25 989 d   1      26.012  29.348  21.604  0.00  0.00     0.032 H 
ATOM     45  H26 989 d   1      26.227  30.921  20.763  0.00  0.00     0.032 H 
BRANCH  43  46
ATOM     46  C55 989 d   1      27.089  30.830  22.732  0.00  0.00    -0.077 C 
ATOM     47  H27 989 d   1      26.181  31.214  23.219  0.00  0.00     0.027 H 
ATOM     48  H28 989 d   1      27.785  31.661  22.546  0.00  0.00     0.027 H 
ATOM     49  H29 989 d   1      27.570  30.088  23.387  0.00  0.00     0.027 H 
ENDBRANCH  43  46
ENDBRANCH  40  43
ENDBRANCH  37  40
ENDBRANCH  34  37
ENDBRANCH  32  34
ENDBRANCH  20  30
ENDBRANCH  17  20
ENDBRANCH   4  17
BRANCH   1  50
ATOM     50  N17 989 d   1      35.125  26.977  22.552  0.00  0.00    -0.272 N 
ATOM     51  C18 989 d   1      35.543  27.277  23.880  0.00  0.00     0.329 C 
ATOM     52  O20 989 d   1      35.878  26.406  24.677  0.00  0.00    -0.260 OA
BRANCH  51  53
ATOM     53  C21 989 d   1      35.608  28.740  24.413  0.00  0.00     0.270 C 
ATOM     54  O22 989 d   1      36.658  29.500  24.019  0.00  0.00    -0.640 OA
ATOM     55  O23 989 d   1      34.747  29.172  25.121  0.00  0.00    -0.640 OA
ENDBRANCH  51  53
BRANCH  50  56
ATOM     56  C19 989 d   1      35.077  25.609  22.050  0.00  0.00     0.060 A 
ATOM     57  C28 989 d   1      33.832  25.179  21.458  0.00  0.00    -0.056 A 
ATOM     58  C27 989 d   1      33.647  23.888  20.927  0.00  0.00    -0.081 A 
ATOM     59  H1  989 d   1      33.005  25.879  21.421  0.00  0.00     0.087 H 
ATOM     60  C26 989 d   1      34.692  22.958  20.956  0.00  0.00    -0.082 A 
ATOM     61  H2  989 d   1      32.692  23.614  20.494  0.00  0.00     0.083 H 
ATOM     62  C25 989 d   1      35.926  23.319  21.520  0.00  0.00    -0.064 A 
ATOM     63  H3  989 d   1      34.550  21.965  20.546  0.00  0.00     0.083 H 
ATOM     64  C24 989 d   1      36.164  24.616  22.072  0.00  0.00     0.068 A 
ATOM     65  H4  989 d   1      36.727  22.588  21.538  0.00  0.00     0.085 H 
BRANCH  64  66
ATOM     66  C33 989 d   1      37.532  24.823  22.627  0.00  0.00     0.211 C 
ATOM     67  O34 989 d   1      38.151  25.828  22.480  0.00  0.00    -0.644 OA
ATOM     68  O35 989 d   1      38.045  23.790  23.331  0.00  0.00    -0.644 OA
ENDBRANCH  64  66
ENDBRANCH  50  56
ENDBRANCH   1  50
TORSDOF 14
