REMARK  2 active torsions:
REMARK  status: ('A' for Active; 'I' for Inactive)
REMARK    1  A    between atoms: C2_2  and  C11_7 
REMARK    2  A    between atoms: C11_7  and  C1_8 
ROOT
ATOM      1  C1  L86 d   1      18.119 -17.362  24.148  0.00  0.00     0.038 C 
ATOM      2  N18 L86 d   1      17.483 -16.159  23.554  0.00  0.00    -0.364 N 
ATOM      3  C21 L86 d   1      18.168 -15.422  22.550  0.00  0.00     0.193 A 
ATOM      4  C22 L86 d   1      17.655 -14.129  22.072  0.00  0.00     0.295 A 
ATOM      5  N23 L86 d   1      18.401 -13.404  21.144  0.00  0.00    -0.291 N 
ATOM      6  C24 L86 d   1      19.703 -13.784  20.615  0.00  0.00     0.126 A 
ATOM      7  C25 L86 d   1      20.155 -15.015  21.118  0.00  0.00     0.042 A 
ATOM      8  N3  L86 d   1      19.431 -15.784  22.022  0.00  0.00    -0.235 NA
ATOM      9  O28 L86 d   1      16.582 -13.711  22.508  0.00  0.00    -0.264 OA
ATOM     10 CL2  L86 d   1      20.549 -12.938  19.421  0.00  0.00    -0.063 Cl
ATOM     11  C33 L86 d   1      17.822 -12.154  20.619  0.00  0.00     0.077 C 
ATOM     12  C34 L86 d   1      16.400 -12.388  20.136  0.00  0.00     0.236 C 
ATOM     13  N37 L86 d   1      15.560 -11.367  20.384  0.00  0.00    -0.355 N 
ATOM     14  O38 L86 d   1      16.101 -13.425  19.543  0.00  0.00    -0.272 OA
ATOM     15  C39 L86 d   1      14.119 -11.508  20.073  0.00  0.00     0.019 C 
ATOM     16  C40 L86 d   1      13.222 -11.490  21.309  0.00  0.00    -0.034 A 
ATOM     17  C43 L86 d   1      12.398 -12.636  21.643  0.00  0.00    -0.049 A 
ATOM     18  C44 L86 d   1      11.526 -12.624  22.798  0.00  0.00    -0.076 A 
ATOM     19  C45 L86 d   1      11.483 -11.419  23.605  0.00  0.00    -0.082 A 
ATOM     20  C15 L86 d   1      13.186 -10.286  22.130  0.00  0.00    -0.075 A 
ATOM     21  C9  L86 d   1      12.410 -13.893  20.773  0.00  0.00    -0.018 C 
ATOM     22  C50 L86 d   1      12.302 -10.267  23.276  0.00  0.00    -0.082 A 
ATOM     23  C3  L86 d   1      13.632 -14.758  21.130  0.00  0.00     0.085 C 
ATOM     24  C7  L86 d   1      17.041 -18.452  24.215  0.00  0.00     0.100 C 
ATOM     25  N2  L86 d   1      16.659 -19.013  22.887  0.00  0.00    -0.073 N 
ATOM     26  N5  L86 d   1      13.657 -15.931  20.238  0.00  0.00    -0.075 N 
ATOM     27  C12 L86 d   1      14.943 -16.686  20.279  0.00  0.00     0.083 C 
ATOM     28  C13 L86 d   1      15.115 -17.459  21.601  0.00  0.00    -0.020 C 
ATOM     29  C14 L86 d   1      16.431 -18.296  21.603  0.00  0.00     0.083 C 
ATOM     30  H8  L86 d   1      18.950 -17.700  23.512  0.00  0.00     0.075 H 
ATOM     31  H9  L86 d   1      16.549 -15.860  23.868  0.00  0.00     0.161 HD
ATOM     32  H10 L86 d   1      21.122 -15.386  20.783  0.00  0.00     0.119 H 
ATOM     33  H11 L86 d   1      18.435 -11.796  19.779  0.00  0.00     0.079 H 
ATOM     34  H12 L86 d   1      17.813 -11.396  21.416  0.00  0.00     0.079 H 
ATOM     35  H13 L86 d   1      15.907 -10.516  20.777  0.00  0.00     0.162 HD
ATOM     36  H14 L86 d   1      13.968 -12.463  19.548  0.00  0.00     0.071 H 
ATOM     37  H15 L86 d   1      13.822 -10.677  19.416  0.00  0.00     0.071 H 
ATOM     38  H16 L86 d   1      10.924 -13.489  23.052  0.00  0.00     0.084 H 
ATOM     39  H17 L86 d   1      10.828 -11.379  24.468  0.00  0.00     0.083 H 
ATOM     40  H18 L86 d   1      13.804  -9.429  21.889  0.00  0.00     0.084 H 
ATOM     41  H19 L86 d   1      12.464 -13.604  19.713  0.00  0.00     0.042 H 
ATOM     42  H20 L86 d   1      11.490 -14.469  20.950  0.00  0.00     0.042 H 
ATOM     43  H21 L86 d   1      12.251  -9.380  23.897  0.00  0.00     0.083 H 
ATOM     44  H22 L86 d   1      13.558 -15.090  22.176  0.00  0.00     0.076 H 
ATOM     45  H23 L86 d   1      14.553 -14.171  20.996  0.00  0.00     0.076 H 
ATOM     46  H24 L86 d   1      16.142 -18.021  24.679  0.00  0.00     0.078 H 
ATOM     47  H25 L86 d   1      17.419 -19.274  24.841  0.00  0.00     0.078 H 
ATOM     48  H26 L86 d   1      15.794 -19.501  23.059  0.00  0.00     0.277 HD
ATOM     49  H27 L86 d   1      17.385 -19.680  22.677  0.00  0.00     0.277 HD
ATOM     50  H28 L86 d   1      13.503 -15.616  19.293  0.00  0.00     0.277 HD
ATOM     51  H29 L86 d   1      12.913 -16.554  20.510  0.00  0.00     0.277 HD
ATOM     52  H30 L86 d   1      15.776 -15.976  20.172  0.00  0.00     0.075 H 
ATOM     53  H31 L86 d   1      14.962 -17.402  19.444  0.00  0.00     0.075 H 
ATOM     54  H32 L86 d   1      14.259 -18.137  21.733  0.00  0.00     0.037 H 
ATOM     55  H33 L86 d   1      15.146 -16.741  22.434  0.00  0.00     0.037 H 
ATOM     56  H34 L86 d   1      16.377 -19.037  20.792  0.00  0.00     0.075 H 
ATOM     57  H35 L86 d   1      17.279 -17.618  21.424  0.00  0.00     0.075 H 
ENDROOT
BRANCH   1  58
ATOM     58  C11 L86 d   1      18.666 -17.028  25.572  0.00  0.00    -0.021 C 
ATOM     59  H6  L86 d   1      17.876 -16.536  26.158  0.00  0.00     0.043 H 
ATOM     60  H7  L86 d   1      18.968 -17.960  26.073  0.00  0.00     0.043 H 
BRANCH  58  61
ATOM     61  C2  L86 d   1      19.872 -16.097  25.469  0.00  0.00    -0.056 A 
ATOM     62  C8  L86 d   1      19.750 -14.690  25.843  0.00  0.00    -0.077 A 
ATOM     63  C6  L86 d   1      20.864 -13.786  25.575  0.00  0.00    -0.082 A 
ATOM     64  H1  L86 d   1      18.845 -14.323  26.313  0.00  0.00     0.084 H 
ATOM     65  C5  L86 d   1      22.073 -14.328  24.953  0.00  0.00    -0.083 A 
ATOM     66  H5  L86 d   1      20.797 -12.735  25.831  0.00  0.00     0.083 H 
ATOM     67  C4  L86 d   1      22.215 -15.745  24.616  0.00  0.00    -0.082 A 
ATOM     68  H4  L86 d   1      22.894 -13.655  24.734  0.00  0.00     0.083 H 
ATOM     69  C10 L86 d   1      21.104 -16.645  24.897  0.00  0.00    -0.077 A 
ATOM     70  H3  L86 d   1      23.128 -16.118  24.166  0.00  0.00     0.083 H 
ATOM     71  H2  L86 d   1      21.188 -17.705  24.686  0.00  0.00     0.084 H 
ENDBRANCH  58  61
ENDBRANCH   1  58
TORSDOF 2
