REMARK  17 active torsions:
REMARK  status: ('A' for Active; 'I' for Inactive)
REMARK    1  A    between atoms: C2_2  and  N4_7 
REMARK    2  A    between atoms: C7_22  and  C5_5 
REMARK       I    between atoms: N4_7  and  C8_20 
REMARK    3  A    between atoms: N4_7  and  C26_27 
REMARK    4  A    between atoms: C9_8  and  N1_9 
REMARK    5  A    between atoms: C11_11  and  C9_8 
REMARK    6  A    between atoms: C9_8  and  C7_22 
REMARK       I    between atoms: N1_9  and  C10_10 
REMARK    7  A    between atoms: C10_10  and  C23_19 
REMARK       I    between atoms: N2_12  and  C11_11 
REMARK    8  A    between atoms: C12_13  and  N2_12 
REMARK    9  A    between atoms: C13_14  and  C12_13 
REMARK   10  A    between atoms: C15_16  and  C13_14 
REMARK   11  A    between atoms: C14_15  and  C20_48 
REMARK   12  A    between atoms: C14_15  and  O1_17 
REMARK   13  A    between atoms: C20_48  and  C15_16 
REMARK   14  A    between atoms: O1_17  and  C32_35 
REMARK   15  A    between atoms: C8_20  and  C24_24 
REMARK   16  A    between atoms: C25_26  and  C31_34 
REMARK   17  A    between atoms: C37_40  and  C38_41 
ROOT
ATOM      1  C9  515 d   1      32.604  30.850  17.968  0.00  0.00     0.093 C 
ATOM      2  H3  515 d   1      33.438  30.478  17.355  0.00  0.00     0.088 H 
ENDROOT
BRANCH   1   3
ATOM      3  N1  515 d   1      31.984  31.972  17.252  0.00  0.00    -0.348 N 
ATOM      4  C10 515 d   1      32.463  32.361  16.038  0.00  0.00     0.214 C 
ATOM      5  O4  515 d   1      33.411  31.846  15.445  0.00  0.00    -0.274 OA
ATOM      6  H4  515 d   1      31.206  32.453  17.658  0.00  0.00     0.163 HD
BRANCH   4   7
ATOM      7  C23 515 d   1      31.704  33.541  15.433  0.00  0.00    -0.003 C 
ATOM      8  H14 515 d   1      32.144  33.799  14.458  0.00  0.00     0.040 H 
ATOM      9  H15 515 d   1      31.774  34.407  16.108  0.00  0.00     0.040 H 
ATOM     10  H16 515 d   1      30.647  33.267  15.297  0.00  0.00     0.040 H 
ENDBRANCH   4   7
ENDBRANCH   1   3
BRANCH   1  11
ATOM     11  C11 515 d   1      31.627  29.660  18.190  0.00  0.00     0.240 C 
ATOM     12  N2  515 d   1      30.301  29.970  18.322  0.00  0.00    -0.359 N 
ATOM     13  H5  515 d   1      30.015  30.926  18.263  0.00  0.00     0.162 HD
ATOM     14  O8  515 d   1      32.077  28.520  18.247  0.00  0.00    -0.271 OA
BRANCH  12  15
ATOM     15  C12 515 d   1      29.282  28.925  18.549  0.00  0.00    -0.005 C 
ATOM     16  H6  515 d   1      29.802  28.019  18.894  0.00  0.00     0.064 H 
ATOM     17  H7  515 d   1      28.790  28.721  17.587  0.00  0.00     0.064 H 
BRANCH  15  18
ATOM     18  C13 515 d   1      28.165  29.263  19.595  0.00  0.00    -0.050 C 
ATOM     19  H8  515 d   1      27.418  28.456  19.553  0.00  0.00     0.035 H 
ATOM     20  H9  515 d   1      27.699  30.210  19.286  0.00  0.00     0.035 H 
BRANCH  18  21
ATOM     21  C15 515 d   1      28.596  29.418  21.068  0.00  0.00    -0.062 C 
ATOM     22  H12 515 d   1      29.695  29.465  21.073  0.00  0.00     0.033 H 
ATOM     23  H13 515 d   1      28.266  28.509  21.592  0.00  0.00     0.033 H 
BRANCH  21  24
ATOM     24  C20 515 d   1      28.087  30.639  21.918  0.00  0.00    -0.045 C 
ATOM     25  H29 515 d   1      28.097  31.502  21.236  0.00  0.00     0.036 H 
ATOM     26  H30 515 d   1      28.838  30.787  22.708  0.00  0.00     0.036 H 
BRANCH  24  27
ATOM     27  C14 515 d   1      26.708  30.683  22.634  0.00  0.00     0.026 C 
ATOM     28  H10 515 d   1      26.068  31.399  22.098  0.00  0.00     0.075 H 
ATOM     29  H11 515 d   1      26.869  31.035  23.664  0.00  0.00     0.075 H 
BRANCH  27  30
ATOM     30  O1  515 d   1      26.010  29.417  22.697  0.00  0.00    -0.350 OA
BRANCH  30  31
ATOM     31  C32 515 d   1      24.676  29.359  23.236  0.00  0.00     0.086 A 
ATOM     32  C33 515 d   1      23.937  30.547  23.591  0.00  0.00    -0.039 A 
ATOM     33  C34 515 d   1      22.621  30.479  24.122  0.00  0.00    -0.023 A 
ATOM     34  H23 515 d   1      24.399  31.517  23.449  0.00  0.00     0.089 H 
ATOM     35  C35 515 d   1      21.976  29.195  24.321  0.00  0.00    -0.025 A 
ATOM     36  C41 515 d   1      21.942  31.694  24.462  0.00  0.00    -0.072 A 
ATOM     37  C36 515 d   1      22.686  28.002  23.978  0.00  0.00    -0.053 A 
ATOM     38  C44 515 d   1      20.638  29.155  24.862  0.00  0.00    -0.072 A 
ATOM     39  C37 515 d   1      24.017  28.080  23.446  0.00  0.00     0.074 A 
ATOM     40  H24 515 d   1      22.217  27.035  24.120  0.00  0.00     0.086 H 
ATOM     41  C43 515 d   1      19.974  30.379  25.197  0.00  0.00    -0.082 A 
ATOM     42  H34 515 d   1      20.139  28.205  25.014  0.00  0.00     0.084 H 
ATOM     43  C42 515 d   1      20.621  31.638  25.000  0.00  0.00    -0.082 A 
ATOM     44  H33 515 d   1      18.970  30.350  25.604  0.00  0.00     0.083 H 
ATOM     45  H32 515 d   1      20.106  32.555  25.261  0.00  0.00     0.083 H 
ATOM     46  H31 515 d   1      22.429  32.651  24.311  0.00  0.00     0.084 H 
BRANCH  39  47
ATOM     47  C38 515 d   1      24.681  26.824  23.126  0.00  0.00     0.212 C 
ATOM     48  O11 515 d   1      25.008  26.051  24.166  0.00  0.00    -0.644 OA
ATOM     49  O12 515 d   1      24.917  26.502  22.000  0.00  0.00    -0.644 OA
ENDBRANCH  39  47
ENDBRANCH  30  31
ENDBRANCH  27  30
ENDBRANCH  24  27
ENDBRANCH  21  24
ENDBRANCH  18  21
ENDBRANCH  15  18
ENDBRANCH  12  15
ENDBRANCH   1  11
BRANCH   1  50
ATOM     50  C7  515 d   1      33.195  31.381  19.322  0.00  0.00    -0.013 C 
ATOM     51  H17 515 d   1      33.925  32.174  19.102  0.00  0.00     0.043 H 
ATOM     52  H18 515 d   1      32.375  31.795  19.927  0.00  0.00     0.043 H 
BRANCH  50  53
ATOM     53  C5  515 d   1      33.894  30.279  20.129  0.00  0.00    -0.044 A 
ATOM     54  C4  515 d   1      33.189  29.716  21.228  0.00  0.00    -0.074 A 
ATOM     55  C3  515 d   1      33.756  28.692  21.998  0.00  0.00    -0.055 A 
ATOM     56  H2  515 d   1      32.199  30.084  21.473  0.00  0.00     0.084 H 
ATOM     57  C2  515 d   1      35.078  28.154  21.725  0.00  0.00     0.054 A 
ATOM     58  H1  515 d   1      33.188  28.286  22.827  0.00  0.00     0.087 H 
ATOM     59  C1  515 d   1      35.829  28.706  20.617  0.00  0.00     0.002 A 
ATOM     60  C6  515 d   1      35.242  29.773  19.810  0.00  0.00    -0.017 A 
ATOM     61  C16 515 d   1      37.145  28.211  20.298  0.00  0.00    -0.070 A 
ATOM     62  C19 515 d   1      36.011  30.301  18.710  0.00  0.00    -0.072 A 
ATOM     63  C18 515 d   1      37.313  29.799  18.412  0.00  0.00    -0.082 A 
ATOM     64  H28 515 d   1      35.593  31.093  18.099  0.00  0.00     0.084 H 
ATOM     65  C17 515 d   1      37.878  28.759  19.203  0.00  0.00    -0.082 A 
ATOM     66  H27 515 d   1      37.874  30.211  17.581  0.00  0.00     0.083 H 
ATOM     67  H26 515 d   1      38.868  28.382  18.973  0.00  0.00     0.083 H 
ATOM     68  H25 515 d   1      37.581  27.417  20.894  0.00  0.00     0.084 H 
BRANCH  57  69
ATOM     69  N4  515 d   1      35.523  27.115  22.575  0.00  0.00    -0.272 N 
ATOM     70  C8  515 d   1      35.923  27.428  23.913  0.00  0.00     0.329 C 
ATOM     71  O5  515 d   1      36.207  26.576  24.749  0.00  0.00    -0.260 OA
BRANCH  70  72
ATOM     72  C24 515 d   1      36.034  28.880  24.411  0.00  0.00     0.270 C 
ATOM     73  O6  515 d   1      36.947  29.607  24.107  0.00  0.00    -0.640 OA
ATOM     74  O2  515 d   1      35.025  29.282  25.202  0.00  0.00    -0.640 OA
ENDBRANCH  70  72
BRANCH  69  75
ATOM     75  C26 515 d   1      35.446  25.748  22.088  0.00  0.00     0.060 A 
ATOM     76  C27 515 d   1      34.204  25.337  21.486  0.00  0.00    -0.056 A 
ATOM     77  C28 515 d   1      33.986  24.054  20.971  0.00  0.00    -0.081 A 
ATOM     78  H19 515 d   1      33.397  26.058  21.429  0.00  0.00     0.087 H 
ATOM     79  C29 515 d   1      35.001  23.097  21.022  0.00  0.00    -0.082 A 
ATOM     80  H20 515 d   1      33.027  23.803  20.532  0.00  0.00     0.083 H 
ATOM     81  C30 515 d   1      36.231  23.430  21.594  0.00  0.00    -0.064 A 
ATOM     82  H21 515 d   1      34.836  22.104  20.621  0.00  0.00     0.083 H 
ATOM     83  C25 515 d   1      36.496  24.723  22.133  0.00  0.00     0.068 A 
ATOM     84  H22 515 d   1      37.012  22.679  21.629  0.00  0.00     0.085 H 
BRANCH  83  85
ATOM     85  C31 515 d   1      37.869  24.859  22.696  0.00  0.00     0.211 C 
ATOM     86  O9  515 d   1      38.395  23.917  23.222  0.00  0.00    -0.644 OA
ATOM     87  O10 515 d   1      38.509  26.042  22.625  0.00  0.00    -0.644 OA
ENDBRANCH  83  85
ENDBRANCH  69  75
ENDBRANCH  57  69
ENDBRANCH  50  53
ENDBRANCH   1  50
TORSDOF 17
