REMARK  4 active torsions:
REMARK  status: ('A' for Active; 'I' for Inactive)
REMARK    1  A    between atoms: C30_2  and  C19_4 
REMARK       I    between atoms: C19_4  and  N18_6 
REMARK    2  A    between atoms: N18_6  and  C20_7 
REMARK    3  A    between atoms: N18_6  and  C11_16 
REMARK    4  A    between atoms: C25_12  and  C31_13 
ROOT
ATOM      1  C19 794 d   1      34.943  27.662  23.143  0.00  0.00     0.329 C 
ATOM      2  O34 794 d   1      34.868  26.739  23.979  0.00  0.00    -0.260 OA
ATOM      3  N18 794 d   1      34.901  27.466  21.672  0.00  0.00    -0.272 N 
ENDROOT
BRANCH   3   4
ATOM      4  C20 794 d   1      34.748  26.133  21.145  0.00  0.00     0.060 A 
ATOM      5  C21 794 d   1      33.511  25.834  20.436  0.00  0.00    -0.056 A 
ATOM      6  C22 794 d   1      33.255  24.536  19.884  0.00  0.00    -0.081 A 
ATOM      7  H1  794 d   1      32.765  26.613  20.323  0.00  0.00     0.087 H 
ATOM      8  C23 794 d   1      34.208  23.502  20.024  0.00  0.00    -0.082 A 
ATOM      9  H2  794 d   1      32.327  24.347  19.357  0.00  0.00     0.083 H 
ATOM     10  C24 794 d   1      35.429  23.730  20.711  0.00  0.00    -0.064 A 
ATOM     11  H3  794 d   1      34.004  22.524  19.602  0.00  0.00     0.083 H 
ATOM     12  C25 794 d   1      35.752  25.025  21.287  0.00  0.00     0.068 A 
ATOM     13  H4  794 d   1      36.139  22.917  20.809  0.00  0.00     0.085 H 
BRANCH  12  14
ATOM     14  C31 794 d   1      37.073  25.161  21.986  0.00  0.00     0.211 C 
ATOM     15  O32 794 d   1      37.834  24.185  22.088  0.00  0.00    -0.644 OA
ATOM     16  O33 794 d   1      37.377  26.228  22.440  0.00  0.00    -0.644 OA
ENDBRANCH  12  14
ENDBRANCH   3   4
BRANCH   3  17
ATOM     17  C11 794 d   1      34.998  28.563  20.785  0.00  0.00     0.054 A 
ATOM     18  C12 794 d   1      36.249  28.781  20.109  0.00  0.00    -0.056 A 
ATOM     19  C13 794 d   1      36.427  29.869  19.193  0.00  0.00    -0.080 A 
ATOM     20  H5  794 d   1      37.077  28.107  20.297  0.00  0.00     0.087 H 
ATOM     21  C14 794 d   1      35.350  30.762  18.938  0.00  0.00    -0.072 A 
ATOM     22  H6  794 d   1      37.380  30.011  18.696  0.00  0.00     0.083 H 
ATOM     23  C2  794 d   1      34.083  30.589  19.590  0.00  0.00    -0.024 A 
ATOM     24  H7  794 d   1      35.487  31.583  18.243  0.00  0.00     0.084 H 
ATOM     25  C1  794 d   1      33.885  29.478  20.530  0.00  0.00     0.001 A 
ATOM     26  C3  794 d   1      33.021  31.494  19.324  0.00  0.00    -0.072 A 
ATOM     27  C6  794 d   1      32.594  29.326  21.172  0.00  0.00    -0.070 A 
ATOM     28  C5  794 d   1      31.553  30.251  20.883  0.00  0.00    -0.082 A 
ATOM     29  H8  794 d   1      32.423  28.512  21.868  0.00  0.00     0.084 H 
ATOM     30  C4  794 d   1      31.766  31.336  19.957  0.00  0.00    -0.082 A 
ATOM     31  H9  794 d   1      30.588  30.139  21.364  0.00  0.00     0.083 H 
ATOM     32  H10 794 d   1      30.962  32.032  19.746  0.00  0.00     0.083 H 
ATOM     33  H11 794 d   1      33.174  32.313  18.630  0.00  0.00     0.084 H 
ENDBRANCH   3  17
BRANCH   1  34
ATOM     34  C30 794 d   1      35.069  29.048  23.796  0.00  0.00     0.270 C 
ATOM     35  O35 794 d   1      36.061  29.830  23.553  0.00  0.00    -0.640 OA
ATOM     36  O36 794 d   1      34.127  29.405  24.536  0.00  0.00    -0.640 OA
ENDBRANCH   1  34
TORSDOF 4
