REMARK  5 active torsions:
REMARK  status: ('A' for Active; 'I' for Inactive)
REMARK    1  A    between atoms: C3_3  and  O3_11 
REMARK    2  A    between atoms: C4_4  and  O4_12 
REMARK    3  A    between atoms: C5_5  and  C6_6 
REMARK    4  A    between atoms: C6_6  and  O6_14 
REMARK    5  A    between atoms: C7_7  and  C8_8 
ROOT
ATOM      1  C1  NGT d   1       5.124  22.047  34.826  0.00  0.00     0.112 C 
ATOM      2  C2  NGT d   1       5.161  23.316  35.729  0.00  0.00     0.094 C 
ATOM      3  C3  NGT d   1       6.642  23.646  36.217  0.00  0.00     0.087 C 
ATOM      4  C4  NGT d   1       7.449  22.406  36.525  0.00  0.00     0.089 C 
ATOM      5  C5  NGT d   1       7.406  21.448  35.348  0.00  0.00     0.087 C 
ATOM      6  C7  NGT d   1       4.775  24.260  33.704  0.00  0.00     0.064 C 
ATOM      7  N2  NGT d   1       4.661  24.417  34.951  0.00  0.00    -0.276 NA
ATOM      8  S1  NGT d   1       5.427  22.712  33.154  0.00  0.00    -0.081 SA
ATOM      9  O5  NGT d   1       6.050  21.035  35.095  0.00  0.00    -0.363 OA
ATOM     10  H1  NGT d   1       4.120  21.602  34.885  0.00  0.00     0.104 H 
ATOM     11  H2  NGT d   1       4.520  23.158  36.608  0.00  0.00     0.085 H 
ATOM     12  H3  NGT d   1       7.152  24.183  35.404  0.00  0.00     0.090 H 
ATOM     13  H4  NGT d   1       7.023  21.907  37.408  0.00  0.00     0.091 H 
ATOM     14  H5  NGT d   1       7.790  21.981  34.466  0.00  0.00     0.090 H 
ENDROOT
BRANCH   5  15
ATOM     15  C6  NGT d   1       8.239  20.190  35.546  0.00  0.00     0.043 C 
ATOM     16  H6  NGT d   1       7.973  19.729  36.509  0.00  0.00     0.078 H 
ATOM     17  H7  NGT d   1       9.305  20.461  35.551  0.00  0.00     0.078 H 
BRANCH  15  18
ATOM     18  O6  NGT d   1       8.000  19.256  34.501  0.00  0.00    -0.398 OA
ATOM     19  H13 NGT d   1       8.529  18.480  34.644  0.00  0.00     0.209 HD
ENDBRANCH  15  18
ENDBRANCH   5  15
BRANCH   4  20
ATOM     20  O4  NGT d   1       8.784  22.780  36.801  0.00  0.00    -0.390 OA
ATOM     21  H12 NGT d   1       9.292  22.005  37.011  0.00  0.00     0.210 HD
ENDBRANCH   4  20
BRANCH   3  22
ATOM     22  O3  NGT d   1       6.593  24.498  37.351  0.00  0.00    -0.391 OA
ATOM     23  H11 NGT d   1       6.083  25.272  37.142  0.00  0.00     0.210 HD
ENDBRANCH   3  22
BRANCH   6  24
ATOM     24  C8  NGT d   1       4.341  25.233  32.648  0.00  0.00    -0.030 C 
ATOM     25  H8  NGT d   1       3.959  26.147  33.126  0.00  0.00     0.036 H 
ATOM     26  H9  NGT d   1       3.547  24.780  32.036  0.00  0.00     0.036 H 
ATOM     27  H10 NGT d   1       5.199  25.486  32.008  0.00  0.00     0.036 H 
ENDBRANCH   6  24
TORSDOF 5
