REMARK  14 active torsions:
REMARK  status: ('A' for Active; 'I' for Inactive)
REMARK    1  A    between atoms: C9_2  and  C16_1 
REMARK    2  A    between atoms: C9_2  and  C13_3 
REMARK    3  A    between atoms: C8_4  and  C44_5 
REMARK    4  A    between atoms: C42_6  and  C7_7 
REMARK    5  A    between atoms: C42_6  and  C3_8 
REMARK    6  A    between atoms: C5_10  and  C23_18 
REMARK    7  A    between atoms: C1_12  and  C10_14 
REMARK    8  A    between atoms: C10_14  and  C11_15 
REMARK    9  A    between atoms: C10_14  and  C15_16 
REMARK   10  A    between atoms: C10_14  and  C19_17 
REMARK   11  A    between atoms: C23_18  and  C24_19 
REMARK   12  A    between atoms: C23_18  and  C28_20 
REMARK   13  A    between atoms: C23_18  and  C32_21 
REMARK   14  A    between atoms: C14_22  and  C12_23 
ROOT
ATOM      1  C3  ARL d   1      24.764  29.865   7.591  0.00  0.00    -0.029 A 
ATOM      2  C4  ARL d   1      23.443  29.241   7.655  0.00  0.00    -0.066 A 
ATOM      3  C5  ARL d   1      22.203  29.897   7.185  0.00  0.00    -0.049 A 
ATOM      4  C6  ARL d   1      22.361  31.237   6.627  0.00  0.00    -0.069 A 
ATOM      5  C1  ARL d   1      23.641  31.939   6.523  0.00  0.00    -0.049 A 
ATOM      6  C2  ARL d   1      24.818  31.211   7.016  0.00  0.00    -0.066 A 
ATOM      7  H10 ARL d   1      23.368  28.242   8.070  0.00  0.00     0.085 H 
ATOM      8  H11 ARL d   1      21.473  31.744   6.267  0.00  0.00     0.085 H 
ATOM      9  H12 ARL d   1      25.784  31.699   6.950  0.00  0.00     0.085 H 
ENDROOT
BRANCH   1  10
ATOM     10  C42 ARL d   1      26.039  29.163   8.103  0.00  0.00    -0.052 C 
ATOM     11  C44 ARL d   1      25.972  27.948   8.779  0.00  0.00    -0.076 C 
ATOM     12  H6  ARL d   1      24.974  27.529   8.897  0.00  0.00     0.084 H 
BRANCH  11  13
ATOM     13  C8  ARL d   1      27.065  27.157   9.353  0.00  0.00    -0.082 C 
ATOM     14  C13 ARL d   1      27.101  25.830   9.547  0.00  0.00    -0.077 C 
ATOM     15  H4  ARL d   1      26.220  25.273   9.232  0.00  0.00     0.084 H 
ATOM     16  H5  ARL d   1      27.951  27.712   9.658  0.00  0.00     0.083 H 
BRANCH  14  17
ATOM     17  C9  ARL d   1      28.212  25.027  10.146  0.00  0.00    -0.056 C 
ATOM     18  C14 ARL d   1      28.032  23.671  10.248  0.00  0.00    -0.004 C 
ATOM     19  H31 ARL d   1      27.078  23.306   9.870  0.00  0.00     0.094 H 
BRANCH  17  20
ATOM     20  C16 ARL d   1      29.473  25.820  10.596  0.00  0.00    -0.051 C 
ATOM     21  H1  ARL d   1      29.326  26.890  10.388  0.00  0.00     0.033 H 
ATOM     22  H2  ARL d   1      30.352  25.456  10.043  0.00  0.00     0.033 H 
ATOM     23  H3  ARL d   1      29.632  25.674  11.675  0.00  0.00     0.033 H 
ENDBRANCH  17  20
BRANCH  18  24
ATOM     24  C12 ARL d   1      28.943  22.607  10.800  0.00  0.00     0.199 C 
ATOM     25  O2  ARL d   1      30.023  22.810  11.263  0.00  0.00    -0.644 OA
ATOM     26  O3  ARL d   1      28.535  21.467  10.754  0.00  0.00    -0.644 OA
ENDBRANCH  18  24
ENDBRANCH  14  17
ENDBRANCH  11  13
BRANCH  10  27
ATOM     27  C7  ARL d   1      27.413  29.868   7.865  0.00  0.00    -0.050 C 
ATOM     28  H7  ARL d   1      28.220  29.249   8.284  0.00  0.00     0.033 H 
ATOM     29  H8  ARL d   1      27.411  30.851   8.359  0.00  0.00     0.033 H 
ATOM     30  H9  ARL d   1      27.575  30.000   6.785  0.00  0.00     0.033 H 
ENDBRANCH  10  27
ENDBRANCH   1  10
BRANCH   3  31
ATOM     31  C23 ARL d   1      20.787  29.180   7.277  0.00  0.00    -0.024 C 
BRANCH  31  32
ATOM     32  C24 ARL d   1      20.037  29.021   5.938  0.00  0.00    -0.066 C 
ATOM     33  H22 ARL d   1      19.076  28.516   6.114  0.00  0.00     0.028 H 
ATOM     34  H23 ARL d   1      20.645  28.420   5.246  0.00  0.00     0.028 H 
ATOM     35  H24 ARL d   1      19.855  30.013   5.500  0.00  0.00     0.028 H 
ENDBRANCH  31  32
BRANCH  31  36
ATOM     36  C28 ARL d   1      19.836  29.969   8.191  0.00  0.00    -0.066 C 
ATOM     37  H25 ARL d   1      20.311  30.120   9.172  0.00  0.00     0.028 H 
ATOM     38  H26 ARL d   1      18.900  29.406   8.320  0.00  0.00     0.028 H 
ATOM     39  H27 ARL d   1      19.616  30.946   7.736  0.00  0.00     0.028 H 
ENDBRANCH  31  36
BRANCH  31  40
ATOM     40  C32 ARL d   1      20.907  27.790   7.886  0.00  0.00    -0.066 C 
ATOM     41  H28 ARL d   1      21.581  27.177   7.269  0.00  0.00     0.028 H 
ATOM     42  H29 ARL d   1      19.914  27.319   7.924  0.00  0.00     0.028 H 
ATOM     43  H30 ARL d   1      21.314  27.870   8.905  0.00  0.00     0.028 H 
ENDBRANCH  31  40
ENDBRANCH   3  31
BRANCH   5  44
ATOM     44  C10 ARL d   1      23.789  33.401   5.915  0.00  0.00    -0.024 C 
BRANCH  44  45
ATOM     45  C11 ARL d   1      22.454  34.123   5.553  0.00  0.00    -0.066 C 
ATOM     46  H13 ARL d   1      22.675  35.120   5.144  0.00  0.00     0.028 H 
ATOM     47  H14 ARL d   1      21.836  34.227   6.457  0.00  0.00     0.028 H 
ATOM     48  H15 ARL d   1      21.909  33.532   4.803  0.00  0.00     0.028 H 
ENDBRANCH  44  45
BRANCH  44  49
ATOM     49  C15 ARL d   1      24.625  33.362   4.630  0.00  0.00    -0.066 C 
ATOM     50  H16 ARL d   1      25.583  32.860   4.831  0.00  0.00     0.028 H 
ATOM     51  H17 ARL d   1      24.815  34.389   4.285  0.00  0.00     0.028 H 
ATOM     52  H18 ARL d   1      24.077  32.809   3.853  0.00  0.00     0.028 H 
ENDBRANCH  44  49
BRANCH  44  53
ATOM     53  C19 ARL d   1      24.479  34.334   6.943  0.00  0.00    -0.066 C 
ATOM     54  H19 ARL d   1      23.883  34.366   7.867  0.00  0.00     0.028 H 
ATOM     55  H20 ARL d   1      24.558  35.347   6.523  0.00  0.00     0.028 H 
ATOM     56  H21 ARL d   1      25.485  33.951   7.168  0.00  0.00     0.028 H 
ENDBRANCH  44  53
ENDBRANCH   5  44
TORSDOF 14
