REMARK  1 active torsions:
REMARK  status: ('A' for Active; 'I' for Inactive)
REMARK    1  A    between atoms: C30_18  and  C45_29 
ROOT
ATOM      1  C1  T76 d   1      13.305 -11.346  21.939  0.00  0.00    -0.005 A 
ATOM      2  C2  T76 d   1      12.610 -12.475  22.329  0.00  0.00     0.077 A 
ATOM      3  C3  T76 d   1      11.661 -12.416  23.387  0.00  0.00    -0.049 A 
ATOM      4  C4  T76 d   1      11.490 -11.230  24.102  0.00  0.00    -0.059 A 
ATOM      5  C5  T76 d   1      12.281 -10.120  23.782  0.00  0.00     0.034 A 
ATOM      6  C6  T76 d   1      13.173 -10.161  22.680  0.00  0.00    -0.052 A 
ATOM      7  C7  T76 d   1      14.144 -11.385  20.684  0.00  0.00     0.022 C 
ATOM      8  N8  T76 d   1      15.583 -11.523  20.948  0.00  0.00    -0.355 N 
ATOM      9  C9  T76 d   1      16.192 -12.705  20.664  0.00  0.00     0.240 C 
ATOM     10  C10 T76 d   1      17.688 -12.724  20.898  0.00  0.00     0.091 C 
ATOM     11  O11 T76 d   1      15.620 -13.745  20.322  0.00  0.00    -0.271 OA
ATOM     12  O12 T76 d   1      12.914 -13.687  21.705  0.00  0.00    -0.342 OA
ATOM     13  C18 T76 d   1      18.440 -12.877  19.563  0.00  0.00    -0.036 C 
ATOM     14  C19 T76 d   1      19.764 -13.555  19.939  0.00  0.00    -0.048 C 
ATOM     15  C20 T76 d   1      19.263 -14.592  20.951  0.00  0.00    -0.001 C 
ATOM     16  N21 T76 d   1      18.111 -13.959  21.571  0.00  0.00    -0.337 N 
ATOM     17  C29 T76 d   1      17.445 -14.392  22.669  0.00  0.00     0.243 C 
ATOM     18  C30 T76 d   1      17.941 -15.711  23.237  0.00  0.00     0.093 C 
ATOM     19  N31 T76 d   1      16.825 -16.657  23.288  0.00  0.00    -0.347 N 
ATOM     20  C32 T76 d   1      16.622 -17.381  22.157  0.00  0.00     0.219 C 
ATOM     21  O33 T76 d   1      17.444 -17.482  21.225  0.00  0.00    -0.274 OA
ATOM     22  C34 T76 d   1      15.233 -17.995  22.063  0.00  0.00     0.024 C 
ATOM     23  C35 T76 d   1      14.469 -17.311  20.913  0.00  0.00     0.003 C 
ATOM     24  N38 T76 d   1      13.929 -15.992  21.310  0.00  0.00    -0.359 N 
ATOM     25  C41 T76 d   1      12.700 -16.043  21.869  0.00  0.00     0.241 C 
ATOM     26  O42 T76 d   1      12.052 -17.077  22.030  0.00  0.00    -0.271 OA
ATOM     27  C43 T76 d   1      12.163 -14.715  22.309  0.00  0.00     0.099 C 
ATOM     28  O44 T76 d   1      16.431 -13.852  23.132  0.00  0.00    -0.271 OA
ATOM     29 CL68 T76 d   1      12.186  -8.705  24.785  0.00  0.00    -0.084 Cl
ATOM     30  H1  T76 d   1      11.072 -13.291  23.637  0.00  0.00     0.087 H 
ATOM     31  H2  T76 d   1      10.754 -11.169  24.895  0.00  0.00     0.086 H 
ATOM     32  H3  T76 d   1      13.749  -9.283  22.412  0.00  0.00     0.087 H 
ATOM     33  H4  T76 d   1      13.980 -10.451  20.126  0.00  0.00     0.071 H 
ATOM     34  H5  T76 d   1      13.818 -12.240  20.073  0.00  0.00     0.071 H 
ATOM     35  H6  T76 d   1      16.105 -10.761  21.330  0.00  0.00     0.162 HD
ATOM     36  H7  T76 d   1      17.995 -11.824  21.451  0.00  0.00     0.087 H 
ATOM     37  H8  T76 d   1      18.624 -11.893  19.106  0.00  0.00     0.036 H 
ATOM     38  H9  T76 d   1      17.867 -13.505  18.864  0.00  0.00     0.036 H 
ATOM     39  H10 T76 d   1      20.468 -12.846  20.398  0.00  0.00     0.035 H 
ATOM     40  H11 T76 d   1      20.239 -14.032  19.069  0.00  0.00     0.035 H 
ATOM     41  H12 T76 d   1      20.038 -14.811  21.701  0.00  0.00     0.064 H 
ATOM     42  H13 T76 d   1      18.970 -15.523  20.443  0.00  0.00     0.064 H 
ATOM     43  H14 T76 d   1      18.728 -16.120  22.587  0.00  0.00     0.088 H 
ATOM     44  H15 T76 d   1      16.251 -16.763  24.100  0.00  0.00     0.163 HD
ATOM     45  H16 T76 d   1      14.694 -17.840  23.009  0.00  0.00     0.049 H 
ATOM     46  H17 T76 d   1      15.317 -19.073  21.862  0.00  0.00     0.049 H 
ATOM     47  H18 T76 d   1      13.634 -17.959  20.607  0.00  0.00     0.064 H 
ATOM     48  H19 T76 d   1      15.155 -17.172  20.064  0.00  0.00     0.064 H 
ATOM     49  H20 T76 d   1      14.430 -15.137  21.176  0.00  0.00     0.162 HD
ATOM     50  H21 T76 d   1      11.109 -14.626  22.007  0.00  0.00     0.089 H 
ATOM     51  H22 T76 d   1      12.239 -14.632  23.403  0.00  0.00     0.089 H 
ENDROOT
BRANCH  18  52
ATOM     52  C45 T76 d   1      18.529 -15.453  24.639  0.00  0.00    -0.026 C 
ATOM     53  C47 T76 d   1      18.796 -16.753  25.406  0.00  0.00    -0.059 C 
ATOM     54  C48 T76 d   1      19.401 -16.453  26.788  0.00  0.00    -0.065 C 
ATOM     55  H24 T76 d   1      19.499 -17.374  24.831  0.00  0.00     0.033 H 
ATOM     56  H25 T76 d   1      17.849 -17.297  25.537  0.00  0.00     0.033 H 
ATOM     57  C49 T76 d   1      20.698 -15.642  26.628  0.00  0.00    -0.065 C 
ATOM     58  H26 T76 d   1      19.624 -17.400  27.302  0.00  0.00     0.033 H 
ATOM     59  H27 T76 d   1      18.680 -15.874  27.384  0.00  0.00     0.033 H 
ATOM     60  C50 T76 d   1      20.421 -14.330  25.883  0.00  0.00    -0.065 C 
ATOM     61  H28 T76 d   1      21.428 -16.235  26.058  0.00  0.00     0.033 H 
ATOM     62  H29 T76 d   1      21.108 -15.414  27.623  0.00  0.00     0.033 H 
ATOM     63  C51 T76 d   1      19.808 -14.621  24.514  0.00  0.00    -0.059 C 
ATOM     64  H30 T76 d   1      21.365 -13.781  25.749  0.00  0.00     0.033 H 
ATOM     65  H31 T76 d   1      19.722 -13.718  26.472  0.00  0.00     0.033 H 
ATOM     66  H32 T76 d   1      19.568 -13.668  24.020  0.00  0.00     0.033 H 
ATOM     67  H33 T76 d   1      20.538 -15.176  23.906  0.00  0.00     0.033 H 
ATOM     68  H23 T76 d   1      17.794 -14.870  25.213  0.00  0.00     0.043 H 
ENDBRANCH  18  52
TORSDOF 1
