REMARK  7 active torsions:
REMARK  status: ('A' for Active; 'I' for Inactive)
REMARK    1  A    between atoms: C25_2  and  N3_31 
REMARK    2  A    between atoms: C23_4  and  N4_34 
REMARK    3  A    between atoms: C22_5  and  O6_32 
REMARK    4  A    between atoms: C21_6  and  C26_7 
REMARK    5  A    between atoms: C21_6  and  N2_8 
REMARK    6  A    between atoms: O6_32  and  C27_33 
REMARK    7  A    between atoms: N4_34  and  C28_35 
ROOT
ATOM      1  O4  STU d   1       4.109   3.842  16.898  0.00  0.00    -0.333 OA
ATOM      2  C25 STU d   1       2.878   4.468  17.089  0.00  0.00     0.115 C 
ATOM      3  C24 STU d   1       2.134   4.560  15.711  0.00  0.00     0.005 C 
ATOM      4  C23 STU d   1       2.971   3.924  14.562  0.00  0.00     0.134 C 
ATOM      5  C22 STU d   1       4.391   4.550  14.510  0.00  0.00     0.113 C 
ATOM      6  C21 STU d   1       5.046   4.068  15.863  0.00  0.00     0.168 C 
ATOM      7  H1  STU d   1       2.273   3.894  17.807  0.00  0.00     0.118 H 
ATOM      8  H2  STU d   1       1.950   5.619  15.475  0.00  0.00     0.042 H 
ATOM      9  H3  STU d   1       1.173   4.030  15.788  0.00  0.00     0.042 H 
ATOM     10  H4  STU d   1       3.071   2.843  14.739  0.00  0.00     0.088 H 
ATOM     11  H5  STU d   1       4.970   4.232  13.630  0.00  0.00     0.094 H 
ENDROOT
BRANCH   4  12
ATOM     12  N4  STU d   1       2.176   4.159  13.207  0.00  0.00    -0.072 N 
ATOM     13  H23 STU d   1       2.093   5.148  13.033  0.00  0.00     0.277 HD
ATOM     14  H24 STU d   1       1.257   3.752  13.281  0.00  0.00     0.277 HD
BRANCH  12  15
ATOM     15  C28 STU d   1       2.926   3.508  12.071  0.00  0.00     0.065 C 
ATOM     16  H25 STU d   1       2.378   3.668  11.130  0.00  0.00     0.067 H 
ATOM     17  H26 STU d   1       3.017   2.429  12.263  0.00  0.00     0.067 H 
ATOM     18  H27 STU d   1       3.929   3.952  11.992  0.00  0.00     0.067 H 
ENDBRANCH  12  15
ENDBRANCH   4  12
BRANCH   5  19
ATOM     19  O6  STU d   1       4.202   5.996  14.536  0.00  0.00    -0.384 OA
BRANCH  19  20
ATOM     20  C27 STU d   1       5.175   6.663  13.751  0.00  0.00     0.005 C 
ATOM     21  H20 STU d   1       5.000   7.748  13.795  0.00  0.00     0.066 H 
ATOM     22  H21 STU d   1       5.101   6.322  12.708  0.00  0.00     0.066 H 
ATOM     23  H22 STU d   1       6.178   6.437  14.141  0.00  0.00     0.066 H 
ENDBRANCH  19  20
ENDBRANCH   5  19
BRANCH   2  24
ATOM     24  N3  STU d   1       3.104   5.848  17.602  0.00  0.00    -0.316 N 
ATOM     25  C19 STU d   1       4.344   6.492  17.688  0.00  0.00     0.077 A 
ATOM     26  C18 STU d   1       5.562   6.203  17.142  0.00  0.00     0.077 A 
ATOM     27  C6  STU d   1       4.115   7.668  18.511  0.00  0.00     0.022 A 
ATOM     28  N2  STU d   1       6.037   5.132  16.296  0.00  0.00    -0.308 N 
ATOM     29  C11 STU d   1       6.709   7.061  17.351  0.00  0.00     0.015 A 
ATOM     30  C17 STU d   1       7.400   5.315  15.984  0.00  0.00     0.049 A 
ATOM     31  C12 STU d   1       7.809   6.530  16.645  0.00  0.00     0.004 A 
ATOM     32  C16 STU d   1       8.335   4.605  15.201  0.00  0.00    -0.056 A 
ATOM     33  C13 STU d   1       9.129   6.990  16.493  0.00  0.00    -0.070 A 
ATOM     34  C14 STU d   1      10.092   6.295  15.699  0.00  0.00    -0.082 A 
ATOM     35  H12 STU d   1       9.426   7.903  16.996  0.00  0.00     0.084 H 
ATOM     36  C15 STU d   1       9.644   5.067  15.054  0.00  0.00    -0.081 A 
ATOM     37  H11 STU d   1      11.105   6.662  15.582  0.00  0.00     0.083 H 
ATOM     38  H10 STU d   1      10.342   4.501  14.448  0.00  0.00     0.083 H 
ATOM     39  H9  STU d   1       8.033   3.689  14.707  0.00  0.00     0.087 H 
ATOM     40  C10 STU d   1       6.495   8.225  18.165  0.00  0.00    -0.010 A 
ATOM     41  C7  STU d   1       5.302   8.512  18.706  0.00  0.00     0.054 A 
ATOM     42  C9  STU d   1       7.509   9.289  18.516  0.00  0.00     0.021 A 
ATOM     43  C8  STU d   1       5.380   9.783  19.478  0.00  0.00     0.253 A 
ATOM     44  N1  STU d   1       6.646  10.151  19.315  0.00  0.00    -0.353 N 
ATOM     45  O5  STU d   1       4.495  10.356  20.105  0.00  0.00    -0.268 OA
ATOM     46  H15 STU d   1       6.996  10.992  19.727  0.00  0.00     0.163 HD
ATOM     47  H13 STU d   1       7.897   9.803  17.624  0.00  0.00     0.071 H 
ATOM     48  H14 STU d   1       8.348   8.885  19.101  0.00  0.00     0.071 H 
ATOM     49  C5  STU d   1       2.784   7.692  18.893  0.00  0.00     0.004 A 
ATOM     50  C20 STU d   1       2.173   6.529  18.294  0.00  0.00     0.048 A 
ATOM     51  C4  STU d   1       1.971   8.551  19.673  0.00  0.00    -0.070 A 
ATOM     52  C1  STU d   1       0.788   6.228  18.464  0.00  0.00    -0.056 A 
ATOM     53  C2  STU d   1       0.018   7.108  19.252  0.00  0.00    -0.081 A 
ATOM     54  H16 STU d   1       0.344   5.353  18.003  0.00  0.00     0.087 H 
ATOM     55  C3  STU d   1       0.616   8.276  19.856  0.00  0.00    -0.082 A 
ATOM     56  H17 STU d   1      -1.036   6.905  19.406  0.00  0.00     0.083 H 
ATOM     57  H18 STU d   1       0.007   8.943  20.456  0.00  0.00     0.083 H 
ATOM     58  H19 STU d   1       2.407   9.431  20.132  0.00  0.00     0.084 H 
ENDBRANCH   2  24
BRANCH   6  59
ATOM     59  C26 STU d   1       5.676   2.684  15.624  0.00  0.00    -0.028 C 
ATOM     60  H6  STU d   1       6.429   2.757  14.825  0.00  0.00     0.034 H 
ATOM     61  H7  STU d   1       4.893   1.971  15.326  0.00  0.00     0.034 H 
ATOM     62  H8  STU d   1       6.157   2.335  16.550  0.00  0.00     0.034 H 
ENDBRANCH   6  59
TORSDOF 7
