REMARK  2 active torsions:
REMARK  status: ('A' for Active; 'I' for Inactive)
REMARK    1  A    between atoms: N17_12  and  C02_28 
REMARK    2  A    between atoms: N06_15  and  C05_26 
ROOT
ATOM      1  C05 UCM d   1       4.959   3.974  15.906  0.00  0.00     0.113 C 
ATOM      2  O01 UCM d   1       3.999   3.600  16.907  0.00  0.00    -0.342 OA
ATOM      3  C02 UCM d   1       2.814   4.402  16.753  0.00  0.00     0.113 C 
ATOM      4  C03 UCM d   1       2.722   4.673  15.246  0.00  0.00    -0.020 C 
ATOM      5  C04 UCM d   1       4.119   4.391  14.692  0.00  0.00    -0.020 C 
ATOM      6  H10 UCM d   1       5.604   3.120  15.653  0.00  0.00     0.118 H 
ATOM      7  H11 UCM d   1       1.928   3.849  17.099  0.00  0.00     0.118 H 
ATOM      8  H12 UCM d   1       2.439   5.720  15.060  0.00  0.00     0.039 H 
ATOM      9  H13 UCM d   1       1.982   4.005  14.780  0.00  0.00     0.039 H 
ATOM     10  H14 UCM d   1       4.083   3.579  13.951  0.00  0.00     0.039 H 
ATOM     11  H15 UCM d   1       4.538   5.295  14.226  0.00  0.00     0.039 H 
ENDROOT
BRANCH   3  12
ATOM     12  N17 UCM d   1       2.928   5.675  17.519  0.00  0.00    -0.316 N 
ATOM     13  C16 UCM d   1       1.874   6.292  18.193  0.00  0.00     0.048 A 
ATOM     14  C15 UCM d   1       2.387   7.476  18.799  0.00  0.00     0.004 A 
ATOM     15  C34 UCM d   1       0.490   5.922  18.335  0.00  0.00    -0.056 A 
ATOM     16  C09 UCM d   1       3.783   7.553  18.464  0.00  0.00     0.022 A 
ATOM     17  C31 UCM d   1       1.460   8.287  19.560  0.00  0.00    -0.070 A 
ATOM     18  C10 UCM d   1       4.880   8.445  18.722  0.00  0.00     0.062 A 
ATOM     19  C08 UCM d   1       4.093   6.417  17.669  0.00  0.00     0.077 A 
ATOM     20  C29 UCM d   1       4.927   9.693  19.487  0.00  0.00     0.260 A 
ATOM     21  C11 UCM d   1       6.208   8.180  18.189  0.00  0.00     0.062 A 
ATOM     22  N18 UCM d   1       6.337  10.263  19.453  0.00  0.00    -0.289 N 
ATOM     23  O30 UCM d   1       3.987  10.213  20.068  0.00  0.00    -0.267 OA
ATOM     24  C27 UCM d   1       7.098   9.256  18.615  0.00  0.00     0.260 A 
ATOM     25  H1  UCM d   1       6.679  11.100  19.880  0.00  0.00     0.172 HD
ATOM     26  O28 UCM d   1       8.280   9.347  18.344  0.00  0.00    -0.267 OA
ATOM     27  C12 UCM d   1       6.474   7.015  17.386  0.00  0.00     0.022 A 
ATOM     28  C07 UCM d   1       5.364   6.165  17.160  0.00  0.00     0.077 A 
ATOM     29  C13 UCM d   1       7.602   6.439  16.708  0.00  0.00     0.004 A 
ATOM     30  N06 UCM d   1       5.800   5.103  16.376  0.00  0.00    -0.316 N 
ATOM     31  C14 UCM d   1       7.148   5.239  16.086  0.00  0.00     0.048 A 
ATOM     32  C19 UCM d   1       8.042   4.413  15.319  0.00  0.00    -0.056 A 
ATOM     33  C20 UCM d   1       9.412   4.783  15.167  0.00  0.00    -0.081 A 
ATOM     34  H9  UCM d   1       7.673   3.506  14.854  0.00  0.00     0.087 H 
ATOM     35  C21 UCM d   1       9.890   5.978  15.776  0.00  0.00    -0.082 A 
ATOM     36  H8  UCM d   1      10.085   4.158  14.591  0.00  0.00     0.083 H 
ATOM     37  C22 UCM d   1       8.995   6.787  16.534  0.00  0.00    -0.070 A 
ATOM     38  H7  UCM d   1      10.928   6.270  15.664  0.00  0.00     0.083 H 
ATOM     39  H6  UCM d   1       9.370   7.693  16.995  0.00  0.00     0.084 H 
ATOM     40  C32 UCM d   1       0.085   7.928  19.709  0.00  0.00    -0.082 A 
ATOM     41  H5  UCM d   1       1.820   9.194  20.031  0.00  0.00     0.084 H 
ATOM     42  C33 UCM d   1      -0.405   6.739  19.091  0.00  0.00    -0.081 A 
ATOM     43  H4  UCM d   1      -0.582   8.556  20.288  0.00  0.00     0.083 H 
ATOM     44  H3  UCM d   1      -1.447   6.458  19.194  0.00  0.00     0.083 H 
ATOM     45  H2  UCM d   1       0.124   5.016  17.865  0.00  0.00     0.087 H 
ENDBRANCH   3  12
TORSDOF 2
