REMARK  5 active torsions:
REMARK  status: ('A' for Active; 'I' for Inactive)
REMARK    1  A    between atoms: O1_1  and  C2_2 
REMARK    2  A    between atoms: C2_2  and  C3_3 
REMARK    3  A    between atoms: C5_5  and  O6_6 
REMARK    4  A    between atoms: C7_7  and  O8_8 
REMARK    5  A    between atoms: C9_9  and  C9_10 
ROOT
ATOM      1  C3  IMH d   1       8.386   1.353  92.509  0.00  0.00     0.149 C 
ATOM      2  N4  IMH d   1       7.444   2.356  92.140  0.00  0.00    -0.055 N 
ATOM      3  C5  IMH d   1       9.640   1.600  91.726  0.00  0.00     0.092 C 
ATOM      4  C7  IMH d   1       9.516   3.041  91.348  0.00  0.00     0.094 C 
ATOM      5  C9  IMH d   1       8.036   3.455  91.463  0.00  0.00     0.158 C 
ATOM      6  H4  IMH d   1       7.983   0.365  92.240  0.00  0.00     0.091 H 
ATOM      7  H5  IMH d   1       6.996   2.698  92.976  0.00  0.00     0.278 HD
ATOM      8  H6  IMH d   1       6.754   1.940  91.534  0.00  0.00     0.278 HD
ATOM      9  H7  IMH d   1      10.552   1.420  92.314  0.00  0.00     0.090 H 
ATOM     10  H9  IMH d   1      10.115   3.649  92.042  0.00  0.00     0.090 H 
ATOM     11  H11 IMH d   1       7.594   3.626  90.470  0.00  0.00     0.096 H 
ENDROOT
BRANCH   5  12
ATOM     12  C9  IMH d   1       7.823   4.684  92.366  0.00  0.00     0.022 A 
ATOM     13  C8  IMH d   1       6.578   5.194  92.727  0.00  0.00    -0.012 A 
ATOM     14  N7  IMH d   1       6.612   6.250  93.505  0.00  0.00    -0.359 N 
ATOM     15  H12 IMH d   1       5.644   4.748  92.388  0.00  0.00     0.112 H 
ATOM     16  C5  IMH d   1       7.965   6.499  93.709  0.00  0.00     0.130 A 
ATOM     17  H13 IMH d   1       5.812   6.779  93.882  0.00  0.00     0.165 HD
ATOM     18  C6  IMH d   1       8.601   7.539  94.479  0.00  0.00     0.275 A 
ATOM     19  C4  IMH d   1       8.746   5.557  93.025  0.00  0.00     0.100 A 
ATOM     20  O6  IMH d   1       8.043   8.432  95.127  0.00  0.00    -0.266 OA
ATOM     21  N1  IMH d   1      10.011   7.473  94.452  0.00  0.00    -0.316 N 
ATOM     22  C2  IMH d   1      10.744   6.504  93.753  0.00  0.00     0.067 A 
ATOM     23  H14 IMH d   1      10.521   8.163  94.966  0.00  0.00     0.170 HD
ATOM     24  N3  IMH d   1      10.143   5.514  93.018  0.00  0.00    -0.241 NA
ATOM     25  H15 IMH d   1      11.832   6.538  93.795  0.00  0.00     0.143 H 
ENDBRANCH   5  12
BRANCH   4  26
ATOM     26  O8  IMH d   1       9.998   3.254  90.016  0.00  0.00    -0.390 OA
ATOM     27  H10 IMH d   1       9.489   2.730  89.409  0.00  0.00     0.210 HD
ENDBRANCH   4  26
BRANCH   1  28
ATOM     28  C2  IMH d   1       8.652   1.367  93.970  0.00  0.00     0.046 C 
ATOM     29  H2  IMH d   1       9.360   0.565  94.227  0.00  0.00     0.077 H 
ATOM     30  H3  IMH d   1       9.077   2.339  94.262  0.00  0.00     0.077 H 
BRANCH  28  31
ATOM     31  O1  IMH d   1       7.418   1.157  94.648  0.00  0.00    -0.399 OA
ATOM     32  H1  IMH d   1       7.568   1.163  95.586  0.00  0.00     0.209 HD
ENDBRANCH  28  31
ENDBRANCH   1  28
BRANCH   3  33
ATOM     33  O6  IMH d   1       9.581   0.713  90.602  0.00  0.00    -0.391 OA
ATOM     34  H8  IMH d   1      10.358   0.829  90.068  0.00  0.00     0.210 HD
ENDBRANCH   3  33
TORSDOF 5
