REMARK  12 active torsions:
REMARK  status: ('A' for Active; 'I' for Inactive)
REMARK    1  A    between atoms: N_1  and  CA_2 
REMARK    2  A    between atoms: CA_2  and  C_3 
REMARK    3  A    between atoms: CA_2  and  CB_6 
REMARK    4  A    between atoms: CB_6  and  CG_7 
REMARK    5  A    between atoms: CG_7  and  SD_8 
REMARK    6  A    between atoms: SD_8  and  CE_9 
REMARK    7  A    between atoms: SD_8  and  C5'_10 
REMARK    8  A    between atoms: C5'_10  and  C4'_11 
REMARK    9  A    between atoms: C3'_13  and  O3'_14 
REMARK   10  A    between atoms: C2'_15  and  O2'_16 
REMARK   11  A    between atoms: C1'_17  and  N9_18 
REMARK   12  A    between atoms: C6_22  and  N6_23 
ROOT
ATOM      1  C4' SAM d   1      28.121  22.241  -3.380  0.00  0.00     0.076 C 
ATOM      2  O4' SAM d   1      27.767  23.609  -3.356  0.00  0.00    -0.355 OA
ATOM      3  C3' SAM d   1      28.741  21.974  -4.767  0.00  0.00     0.090 C 
ATOM      4  C2' SAM d   1      28.820  23.361  -5.401  0.00  0.00     0.105 C 
ATOM      5  C1' SAM d   1      27.707  24.113  -4.667  0.00  0.00     0.139 C 
ATOM      6  H14 SAM d   1      27.204  21.638  -3.301  0.00  0.00     0.088 H 
ATOM      7  H15 SAM d   1      29.771  21.614  -4.629  0.00  0.00     0.091 H 
ATOM      8  H17 SAM d   1      29.812  23.817  -5.266  0.00  0.00     0.093 H 
ATOM      9  H19 SAM d   1      26.740  23.898  -5.145  0.00  0.00     0.122 H 
ENDROOT
BRANCH   1  10
ATOM     10  C5' SAM d   1      29.000  21.875  -2.174  0.00  0.00    -0.005 C 
ATOM     11  H12 SAM d   1      29.923  22.470  -2.230  0.00  0.00     0.051 H 
ATOM     12  H13 SAM d   1      28.450  22.136  -1.258  0.00  0.00     0.051 H 
BRANCH  10  13
ATOM     13  SD  SAM d   1      29.459  20.132  -2.078  0.00  0.00    -0.221 SA
BRANCH  13  14
ATOM     14  CG  SAM d   1      27.920  19.249  -1.594  0.00  0.00    -0.029 C 
ATOM     15  H7  SAM d   1      27.698  19.496  -0.545  0.00  0.00     0.047 H 
ATOM     16  H8  SAM d   1      27.102  19.608  -2.236  0.00  0.00     0.047 H 
BRANCH  14  17
ATOM     17  CB  SAM d   1      27.994  17.699  -1.722  0.00  0.00    -0.022 C 
ATOM     18  H5  SAM d   1      28.192  17.445  -2.774  0.00  0.00     0.037 H 
ATOM     19  H6  SAM d   1      28.822  17.336  -1.095  0.00  0.00     0.037 H 
BRANCH  17  20
ATOM     20  CA  SAM d   1      26.691  16.982  -1.279  0.00  0.00     0.183 C 
ATOM     21  H4  SAM d   1      25.830  17.535  -1.683  0.00  0.00     0.101 H 
BRANCH  20  22
ATOM     22  N   SAM d   1      26.553  16.951   0.182  0.00  0.00    -0.065 N 
ATOM     23  H1  SAM d   1      26.548  17.894   0.539  0.00  0.00     0.275 HD
ATOM     24  H2  SAM d   1      27.327  16.444   0.582  0.00  0.00     0.275 HD
ATOM     25  H3  SAM d   1      25.689  16.494   0.428  0.00  0.00     0.275 HD
ENDBRANCH  20  22
BRANCH  20  26
ATOM     26  C   SAM d   1      26.707  15.578  -1.906  0.00  0.00     0.204 C 
ATOM     27  O   SAM d   1      26.853  15.479  -3.128  0.00  0.00    -0.646 OA
ATOM     28  OXT SAM d   1      26.561  14.614  -1.146  0.00  0.00    -0.646 OA
ENDBRANCH  20  26
ENDBRANCH  17  20
ENDBRANCH  14  17
ENDBRANCH  13  14
BRANCH  13  29
ATOM     29  CE  SAM d   1      30.555  19.941  -0.636  0.00  0.00    -0.042 C 
ATOM     30  H9  SAM d   1      31.513  20.444  -0.835  0.00  0.00     0.040 H 
ATOM     31  H10 SAM d   1      30.733  18.872  -0.450  0.00  0.00     0.040 H 
ATOM     32  H11 SAM d   1      30.080  20.392   0.248  0.00  0.00     0.040 H 
ENDBRANCH  13  29
ENDBRANCH  10  13
ENDBRANCH   1  10
BRANCH   3  33
ATOM     33  O3' SAM d   1      28.063  20.947  -5.480  0.00  0.00    -0.390 OA
ATOM     34  H16 SAM d   1      27.156  21.198  -5.609  0.00  0.00     0.210 HD
ENDBRANCH   3  33
BRANCH   5  35
ATOM     35  N9  SAM d   1      27.870  25.572  -4.535  0.00  0.00    -0.294 N 
ATOM     36  C8  SAM d   1      28.955  26.366  -4.377  0.00  0.00     0.071 A 
ATOM     37  N7  SAM d   1      28.656  27.668  -4.281  0.00  0.00    -0.236 NA
ATOM     38  H20 SAM d   1      29.973  25.983  -4.332  0.00  0.00     0.144 H 
ATOM     39  C5  SAM d   1      27.264  27.747  -4.381  0.00  0.00     0.149 A 
ATOM     40  C6  SAM d   1      26.280  28.729  -4.359  0.00  0.00     0.155 A 
ATOM     41  C4  SAM d   1      26.789  26.431  -4.544  0.00  0.00     0.167 A 
ATOM     42  N1  SAM d   1      24.947  28.403  -4.492  0.00  0.00    -0.222 NA
ATOM     43  C2  SAM d   1      24.589  27.109  -4.649  0.00  0.00     0.091 A 
ATOM     44  N3  SAM d   1      25.479  26.098  -4.680  0.00  0.00    -0.222 NA
ATOM     45  H23 SAM d   1      23.536  26.874  -4.755  0.00  0.00     0.146 H 
BRANCH  40  46
ATOM     46  N6  SAM d   1      26.587  30.044  -4.204  0.00  0.00    -0.382 N 
ATOM     47  H21 SAM d   1      25.837  30.750  -4.191  0.00  0.00     0.157 HD
ATOM     48  H22 SAM d   1      27.570  30.335  -4.099  0.00  0.00     0.157 HD
ENDBRANCH  40  46
ENDBRANCH   5  35
BRANCH   4  49
ATOM     49  O2' SAM d   1      28.444  23.348  -6.779  0.00  0.00    -0.388 OA
ATOM     50  H18 SAM d   1      27.550  23.037  -6.859  0.00  0.00     0.210 HD
ENDBRANCH   4  49
TORSDOF 12
