REMARK  11 active torsions:
REMARK  status: ('A' for Active; 'I' for Inactive)
REMARK    1  A    between atoms: N_1  and  CA_2 
REMARK    2  A    between atoms: CA_2  and  CB_3 
REMARK    3  A    between atoms: CA_2  and  C_6 
REMARK    4  A    between atoms: CB_3  and  CG_4 
REMARK    5  A    between atoms: CG_4  and  SD_5 
REMARK    6  A    between atoms: SD_5  and  C5'_9 
REMARK    7  A    between atoms: C5'_9  and  C4'_10 
REMARK    8  A    between atoms: C3'_12  and  O3'_13 
REMARK    9  A    between atoms: C2'_14  and  O2'_15 
REMARK   10  A    between atoms: C1'_16  and  N9_17 
REMARK   11  A    between atoms: C6_21  and  N6_22 
ROOT
ATOM      1  C4' SAH d   1      28.779  22.553  -3.324  0.00  0.00     0.076 C 
ATOM      2  O4' SAH d   1      28.178  23.875  -3.270  0.00  0.00    -0.355 OA
ATOM      3  C3' SAH d   1      29.282  22.355  -4.760  0.00  0.00     0.090 C 
ATOM      4  C2' SAH d   1      29.171  23.727  -5.402  0.00  0.00     0.105 C 
ATOM      5  C1' SAH d   1      28.044  24.386  -4.622  0.00  0.00     0.139 C 
ATOM      6  H11 SAH d   1      28.031  21.782  -3.086  0.00  0.00     0.088 H 
ATOM      7  H12 SAH d   1      30.322  21.997  -4.772  0.00  0.00     0.091 H 
ATOM      8  H14 SAH d   1      30.111  24.292  -5.327  0.00  0.00     0.093 H 
ATOM      9  H16 SAH d   1      27.080  24.073  -5.048  0.00  0.00     0.122 H 
ENDROOT
BRANCH   1  10
ATOM     10  C5' SAH d   1      29.913  22.491  -2.294  0.00  0.00     0.003 C 
ATOM     11  H9  SAH d   1      30.714  23.173  -2.615  0.00  0.00     0.052 H 
ATOM     12  H10 SAH d   1      29.520  22.819  -1.321  0.00  0.00     0.052 H 
BRANCH  10  13
ATOM     13  SD  SAH d   1      30.618  20.815  -2.101  0.00  0.00    -0.166 SA
BRANCH  13  14
ATOM     14  CG  SAH d   1      31.650  21.098  -0.609  0.00  0.00    -0.021 C 
ATOM     15  H7  SAH d   1      32.602  21.552  -0.924  0.00  0.00     0.049 H 
ATOM     16  H8  SAH d   1      31.116  21.791   0.058  0.00  0.00     0.049 H 
BRANCH  14  17
ATOM     17  CB  SAH d   1      31.958  19.810   0.171  0.00  0.00    -0.021 C 
ATOM     18  H5  SAH d   1      31.008  19.336   0.458  0.00  0.00     0.037 H 
ATOM     19  H6  SAH d   1      32.525  19.130  -0.482  0.00  0.00     0.037 H 
BRANCH  17  20
ATOM     20  CA  SAH d   1      32.785  20.074   1.448  0.00  0.00     0.183 C 
ATOM     21  H4  SAH d   1      32.867  19.136   2.016  0.00  0.00     0.101 H 
BRANCH  20  22
ATOM     22  N   SAH d   1      32.105  21.083   2.281  0.00  0.00    -0.065 N 
ATOM     23  H1  SAH d   1      31.178  20.760   2.510  0.00  0.00     0.275 HD
ATOM     24  H2  SAH d   1      32.042  21.951   1.773  0.00  0.00     0.275 HD
ATOM     25  H3  SAH d   1      32.630  21.227   3.130  0.00  0.00     0.275 HD
ENDBRANCH  20  22
BRANCH  20  26
ATOM     26  C   SAH d   1      34.200  20.566   1.098  0.00  0.00     0.204 C 
ATOM     27  O   SAH d   1      34.494  21.735   1.427  0.00  0.00    -0.646 OA
ATOM     28  OXT SAH d   1      34.956  19.757   0.516  0.00  0.00    -0.646 OA
ENDBRANCH  20  26
ENDBRANCH  17  20
ENDBRANCH  14  17
ENDBRANCH  13  14
ENDBRANCH  10  13
ENDBRANCH   1  10
BRANCH   3  29
ATOM     29  O3' SAH d   1      28.432  21.419  -5.434  0.00  0.00    -0.390 OA
ATOM     30  H13 SAH d   1      27.544  21.755  -5.451  0.00  0.00     0.210 HD
ENDBRANCH   3  29
BRANCH   5  31
ATOM     31  N9  SAH d   1      28.085  25.885  -4.617  0.00  0.00    -0.294 N 
ATOM     32  C8  SAH d   1      29.184  26.659  -4.541  0.00  0.00     0.071 A 
ATOM     33  N7  SAH d   1      28.816  27.942  -4.465  0.00  0.00    -0.236 NA
ATOM     34  H17 SAH d   1      30.211  26.297  -4.541  0.00  0.00     0.144 H 
ATOM     35  C5  SAH d   1      27.486  27.984  -4.498  0.00  0.00     0.149 A 
ATOM     36  C6  SAH d   1      26.548  29.020  -4.449  0.00  0.00     0.155 A 
ATOM     37  C4  SAH d   1      27.023  26.682  -4.599  0.00  0.00     0.167 A 
ATOM     38  N1  SAH d   1      25.224  28.719  -4.501  0.00  0.00    -0.222 NA
ATOM     39  C2  SAH d   1      24.808  27.447  -4.601  0.00  0.00     0.091 A 
ATOM     40  N3  SAH d   1      25.689  26.441  -4.650  0.00  0.00    -0.222 NA
ATOM     41  H20 SAH d   1      23.746  27.232  -4.643  0.00  0.00     0.146 H 
BRANCH  36  42
ATOM     42  N6  SAH d   1      26.947  30.294  -4.368  0.00  0.00    -0.382 N 
ATOM     43  H18 SAH d   1      26.249  31.051  -4.332  0.00  0.00     0.157 HD
ATOM     44  H19 SAH d   1      27.952  30.518  -4.341  0.00  0.00     0.157 HD
ENDBRANCH  36  42
ENDBRANCH   5  31
BRANCH   4  45
ATOM     45  O2' SAH d   1      28.769  23.590  -6.771  0.00  0.00    -0.388 OA
ATOM     46  H15 SAH d   1      27.925  23.155  -6.810  0.00  0.00     0.210 HD
ENDBRANCH   4  45
TORSDOF 11
