REMARK  12 active torsions:
REMARK  status: ('A' for Active; 'I' for Inactive)
REMARK    1  A    between atoms: C2_3  and  C1_2 
REMARK       I    between atoms: N4_4  and  C2_3 
REMARK    2  A    between atoms: C5_29  and  N4_4 
REMARK    3  A    between atoms: C24_8  and  C29_6 
REMARK    4  A    between atoms: C21_14  and  C22_13 
REMARK       I    between atoms: N20_16  and  C21_14 
REMARK    5  A    between atoms: C17_17  and  N20_16 
REMARK    6  A    between atoms: C12_23  and  C13_22 
REMARK       I    between atoms: N11_25  and  C12_23 
REMARK    7  A    between atoms: C10_26  and  N11_25 
REMARK    8  A    between atoms: C9_27  and  C10_26 
REMARK    9  A    between atoms: S8_31  and  C9_27 
REMARK   10  A    between atoms: C6_30  and  S7_28 
REMARK   11  A    between atoms: S7_28  and  S8_31 
REMARK   12  A    between atoms: C5_29  and  C6_30 
ROOT
ATOM      1  C17 964 d   1      54.365  34.179  38.029  0.00  0.00     0.012 C 
ATOM      2  C18 964 d   1      55.112  35.400  37.479  0.00  0.00    -0.045 C 
ATOM      3  C19 964 d   1      54.914  35.623  35.977  0.00  0.00    -0.052 C 
ATOM      4  C16 964 d   1      54.607  32.936  37.167  0.00  0.00    -0.045 C 
ATOM      5  C15 964 d   1      54.409  33.184  35.669  0.00  0.00    -0.052 C 
ATOM      6  C13 964 d   1      55.233  34.369  35.161  0.00  0.00     0.024 C 
ATOM      7  H8  964 d   1      54.675  33.983  39.066  0.00  0.00     0.072 H 
ATOM      8  H9  964 d   1      56.187  35.264  37.670  0.00  0.00     0.036 H 
ATOM      9  H10 964 d   1      54.755  36.294  38.012  0.00  0.00     0.036 H 
ATOM     10  H11 964 d   1      55.577  36.437  35.649  0.00  0.00     0.034 H 
ATOM     11  H12 964 d   1      53.867  35.907  35.796  0.00  0.00     0.034 H 
ATOM     12  H13 964 d   1      53.907  32.150  37.485  0.00  0.00     0.036 H 
ATOM     13  H14 964 d   1      55.640  32.595  37.330  0.00  0.00     0.036 H 
ATOM     14  H15 964 d   1      53.344  33.388  35.482  0.00  0.00     0.034 H 
ATOM     15  H16 964 d   1      54.712  32.281  35.118  0.00  0.00     0.034 H 
ATOM     16  H17 964 d   1      56.301  34.132  35.278  0.00  0.00     0.054 H 
ENDROOT
BRANCH   6  17
ATOM     17  C12 964 d   1      54.947  34.626  33.683  0.00  0.00     0.221 C 
ATOM     18  O14 964 d   1      53.803  34.650  33.250  0.00  0.00    -0.273 OA
ATOM     19  N11 964 d   1      56.104  34.842  32.838  0.00  0.00    -0.360 N 
ATOM     20  H18 964 d   1      56.635  35.683  32.940  0.00  0.00     0.162 HD
BRANCH  19  21
ATOM     21  C10 964 d   1      56.506  33.863  31.848  0.00  0.00     0.004 C 
ATOM     22  H19 964 d   1      56.824  34.379  30.930  0.00  0.00     0.065 H 
ATOM     23  H20 964 d   1      55.657  33.201  31.621  0.00  0.00     0.065 H 
BRANCH  21  24
ATOM     24  C9  964 d   1      57.663  33.037  32.393  0.00  0.00     0.001 C 
ATOM     25  H21 964 d   1      57.510  31.990  32.092  0.00  0.00     0.052 H 
ATOM     26  H22 964 d   1      57.650  33.108  33.491  0.00  0.00     0.052 H 
BRANCH  24  27
ATOM     27  S8  964 d   1      59.163  33.519  31.858  0.00  0.00    -0.096 SA
BRANCH  27  28
ATOM     28  S7  964 d   1      60.583  32.437  32.756  0.00  0.00    -0.096 SA
BRANCH  28  29
ATOM     29  C6  964 d   1      60.407  30.729  32.356  0.00  0.00     0.001 C 
ATOM     30  H25 964 d   1      59.650  30.616  31.566  0.00  0.00     0.052 H 
ATOM     31  H26 964 d   1      60.088  30.176  33.252  0.00  0.00     0.052 H 
BRANCH  29  32
ATOM     32  C5  964 d   1      61.738  30.168  31.864  0.00  0.00     0.004 C 
ATOM     33  H23 964 d   1      62.023  30.683  30.935  0.00  0.00     0.065 H 
ATOM     34  H24 964 d   1      61.623  29.092  31.667  0.00  0.00     0.065 H 
BRANCH  32  35
ATOM     35  N4  964 d   1      62.784  30.360  32.853  0.00  0.00    -0.361 N 
ATOM     36  C2  964 d   1      64.076  30.234  32.547  0.00  0.00     0.213 C 
ATOM     37  O3  964 d   1      64.792  29.417  33.102  0.00  0.00    -0.274 OA
ATOM     38  H4  964 d   1      62.528  30.594  33.791  0.00  0.00     0.162 HD
BRANCH  36  39
ATOM     39  C1  964 d   1      64.683  31.140  31.481  0.00  0.00    -0.003 C 
ATOM     40  H1  964 d   1      65.749  30.899  31.359  0.00  0.00     0.040 H 
ATOM     41  H2  964 d   1      64.577  32.191  31.789  0.00  0.00     0.040 H 
ATOM     42  H3  964 d   1      64.160  30.984  30.526  0.00  0.00     0.040 H 
ENDBRANCH  36  39
ENDBRANCH  32  35
ENDBRANCH  29  32
ENDBRANCH  28  29
ENDBRANCH  27  28
ENDBRANCH  24  27
ENDBRANCH  21  24
ENDBRANCH  19  21
ENDBRANCH   6  17
BRANCH   1  43
ATOM     43  N20 964 d   1      52.939  34.484  37.961  0.00  0.00    -0.351 N 
ATOM     44  C21 964 d   1      51.983  33.861  38.856  0.00  0.00     0.273 C 
ATOM     45  O23 964 d   1      52.161  33.864  40.063  0.00  0.00    -0.266 OA
ATOM     46  H7  964 d   1      52.613  35.139  37.280  0.00  0.00     0.163 HD
BRANCH  44  47
ATOM     47  C22 964 d   1      50.894  32.971  38.253  0.00  0.00     0.159 A 
ATOM     48  C24 964 d   1      49.687  32.742  38.911  0.00  0.00     0.167 A 
ATOM     49  N25 964 d   1      48.809  31.835  38.419  0.00  0.00    -0.250 NA
ATOM     50  C26 964 d   1      49.088  31.152  37.299  0.00  0.00     0.020 A 
ATOM     51  C27 964 d   1      50.293  31.378  36.636  0.00  0.00     0.020 A 
ATOM     52  H5  964 d   1      48.380  30.428  36.911  0.00  0.00     0.117 H 
ATOM     53  N28 964 d   1      51.166  32.275  37.121  0.00  0.00    -0.251 NA
ATOM     54  H6  964 d   1      50.525  30.830  35.730  0.00  0.00     0.117 H 
BRANCH  48  55
ATOM     55  C29 964 d   1      49.335  33.482  40.165  0.00  0.00     0.231 C 
ATOM     56  O31 964 d   1      49.063  34.697  40.085  0.00  0.00    -0.643 OA
ATOM     57  O30 964 d   1      49.592  32.938  41.257  0.00  0.00    -0.643 OA
ENDBRANCH  48  55
ENDBRANCH  44  47
ENDBRANCH   1  43
TORSDOF 12
