REMARK  22 active torsions:
REMARK  status: ('A' for Active; 'I' for Inactive)
REMARK    1  A    between atoms: C24_2  and  C8_4 
REMARK       I    between atoms: C8_4  and  N4_6 
REMARK    2  A    between atoms: N4_6  and  C26_7 
REMARK    3  A    between atoms: N4_6  and  C2_16 
REMARK    4  A    between atoms: C25_12  and  C31_13 
REMARK    5  A    between atoms: C5_19  and  C7_24 
REMARK    6  A    between atoms: C1_21  and  C32_22 
REMARK    7  A    between atoms: C32_22  and  C33_23 
REMARK    8  A    between atoms: C7_24  and  C9_25 
REMARK    9  A    between atoms: C9_25  and  N1_26 
REMARK   10  A    between atoms: C9_25  and  C11_30 
REMARK   11  A    between atoms: C10_27  and  C23_29 
REMARK       I    between atoms: C11_30  and  N2_32 
REMARK   12  A    between atoms: N2_32  and  C12_33 
REMARK   13  A    between atoms: C12_33  and  C13_34 
REMARK   14  A    between atoms: C13_34  and  C15_35 
REMARK   15  A    between atoms: C15_35  and  C14_36 
REMARK   16  A    between atoms: C14_36  and  C16_37 
REMARK       I    between atoms: C16_37  and  N3_39 
REMARK   17  A    between atoms: N3_39  and  C17_40 
REMARK   18  A    between atoms: C17_40  and  C22_41 
REMARK   19  A    between atoms: C17_40  and  C18_44 
REMARK   20  A    between atoms: C18_44  and  C34_45 
REMARK   21  A    between atoms: C34_45  and  S1_46 
REMARK   22  A    between atoms: S1_46  and  C35_47 
ROOT
ATOM      1  C9  901 d   1      31.195  31.467  17.648  0.00  0.00     0.092 C 
ATOM      2  H15 901 d   1      31.921  30.681  17.392  0.00  0.00     0.088 H 
ENDROOT
BRANCH   1   3
ATOM      3  C7  901 d   1      31.974  32.257  18.798  0.00  0.00    -0.014 C 
ATOM      4  H13 901 d   1      32.798  32.858  18.386  0.00  0.00     0.043 H 
ATOM      5  H14 901 d   1      31.296  32.908  19.369  0.00  0.00     0.043 H 
BRANCH   3   6
ATOM      6  C5  901 d   1      32.526  31.041  19.704  0.00  0.00    -0.055 A 
ATOM      7  C4  901 d   1      31.914  30.338  20.778  0.00  0.00    -0.075 A 
ATOM      8  C3  901 d   1      32.584  29.239  21.387  0.00  0.00    -0.056 A 
ATOM      9  H6  901 d   1      30.935  30.639  21.134  0.00  0.00     0.084 H 
ATOM     10  C2  901 d   1      33.878  28.727  20.992  0.00  0.00     0.049 A 
ATOM     11  H5  901 d   1      32.084  28.746  22.213  0.00  0.00     0.087 H 
ATOM     12  C1  901 d   1      34.570  29.373  19.908  0.00  0.00    -0.031 A 
ATOM     13  C6  901 d   1      33.878  30.499  19.301  0.00  0.00    -0.069 A 
ATOM     14  H7  901 d   1      34.380  30.998  18.480  0.00  0.00     0.085 H 
BRANCH  10  15
ATOM     15  N4  901 d   1      34.374  27.628  21.753  0.00  0.00    -0.272 N 
ATOM     16  C8  901 d   1      34.781  27.857  23.124  0.00  0.00     0.329 C 
ATOM     17  O5  901 d   1      35.095  26.938  23.900  0.00  0.00    -0.260 OA
BRANCH  16  18
ATOM     18  C24 901 d   1      34.856  29.295  23.727  0.00  0.00     0.270 C 
ATOM     19  O6  901 d   1      35.796  30.042  23.443  0.00  0.00    -0.640 OA
ATOM     20  O7  901 d   1      33.983  29.686  24.457  0.00  0.00    -0.640 OA
ENDBRANCH  16  18
BRANCH  15  21
ATOM     21  C26 901 d   1      34.352  26.320  21.199  0.00  0.00     0.060 A 
ATOM     22  C27 901 d   1      33.109  25.926  20.574  0.00  0.00    -0.056 A 
ATOM     23  C28 901 d   1      32.929  24.668  19.978  0.00  0.00    -0.081 A 
ATOM     24  H1  901 d   1      32.284  26.629  20.565  0.00  0.00     0.087 H 
ATOM     25  C29 901 d   1      33.969  23.724  19.981  0.00  0.00    -0.082 A 
ATOM     26  H2  901 d   1      31.981  24.423  19.512  0.00  0.00     0.083 H 
ATOM     27  C30 901 d   1      35.205  24.041  20.575  0.00  0.00    -0.064 A 
ATOM     28  H3  901 d   1      33.820  22.752  19.526  0.00  0.00     0.083 H 
ATOM     29  C25 901 d   1      35.448  25.315  21.204  0.00  0.00     0.068 A 
ATOM     30  H4  901 d   1      35.999  23.304  20.559  0.00  0.00     0.085 H 
BRANCH  29  31
ATOM     31  C31 901 d   1      36.844  25.458  21.770  0.00  0.00     0.211 C 
ATOM     32  O9  901 d   1      37.680  24.554  21.718  0.00  0.00    -0.644 OA
ATOM     33  O10 901 d   1      37.204  26.458  22.301  0.00  0.00    -0.644 OA
ENDBRANCH  29  31
ENDBRANCH  15  21
ENDBRANCH  10  15
BRANCH  12  34
ATOM     34  C32 901 d   1      35.942  28.875  19.446  0.00  0.00    -0.042 C 
ATOM     35  H8  901 d   1      35.826  28.441  18.442  0.00  0.00     0.039 H 
ATOM     36  H9  901 d   1      36.275  28.095  20.146  0.00  0.00     0.039 H 
BRANCH  34  37
ATOM     37  C33 901 d   1      37.040  29.952  19.376  0.00  0.00    -0.073 C 
ATOM     38  H10 901 d   1      37.981  29.495  19.036  0.00  0.00     0.028 H 
ATOM     39  H11 901 d   1      37.186  30.392  20.373  0.00  0.00     0.028 H 
ATOM     40  H12 901 d   1      36.738  30.738  18.669  0.00  0.00     0.028 H 
ENDBRANCH  34  37
ENDBRANCH  12  34
ENDBRANCH   3   6
ENDBRANCH   1   3
BRANCH   1  41
ATOM     41  N1  901 d   1      31.201  32.280  16.448  0.00  0.00    -0.359 N 
ATOM     42  C10 901 d   1      31.117  33.325  15.615  0.00  0.00     0.148 C 
ATOM     43  O4  901 d   1      31.557  32.962  14.423  0.00  0.00    -0.178 OA
ATOM     44  H16 901 d   1      31.418  31.568  15.780  0.00  0.00     0.162 HD
BRANCH  42  45
ATOM     45  C23 901 d   1      30.881  34.729  15.967  0.00  0.00    -0.015 C 
ATOM     46  H17 901 d   1      30.868  35.339  15.052  0.00  0.00     0.038 H 
ATOM     47  H18 901 d   1      31.685  35.081  16.631  0.00  0.00     0.038 H 
ATOM     48  H19 901 d   1      29.913  34.820  16.482  0.00  0.00     0.038 H 
ENDBRANCH  42  45
ENDBRANCH   1  41
BRANCH   1  49
ATOM     49  C11 901 d   1      29.978  30.591  17.960  0.00  0.00     0.240 C 
ATOM     50  O8  901 d   1      30.382  29.408  17.886  0.00  0.00    -0.271 OA
ATOM     51  N2  901 d   1      28.794  31.060  18.114  0.00  0.00    -0.359 N 
ATOM     52  H20 901 d   1      28.661  32.051  18.139  0.00  0.00     0.162 HD
BRANCH  51  53
ATOM     53  C12 901 d   1      27.664  30.203  18.251  0.00  0.00    -0.005 C 
ATOM     54  H21 901 d   1      28.002  29.188  18.508  0.00  0.00     0.064 H 
ATOM     55  H22 901 d   1      27.107  30.175  17.303  0.00  0.00     0.064 H 
BRANCH  53  56
ATOM     56  C13 901 d   1      26.754  30.736  19.363  0.00  0.00    -0.050 C 
ATOM     57  H23 901 d   1      25.835  30.131  19.381  0.00  0.00     0.035 H 
ATOM     58  H24 901 d   1      26.500  31.782  19.134  0.00  0.00     0.035 H 
BRANCH  56  59
ATOM     59  C15 901 d   1      27.404  30.685  20.775  0.00  0.00    -0.056 C 
ATOM     60  H25 901 d   1      28.320  31.294  20.755  0.00  0.00     0.033 H 
ATOM     61  H26 901 d   1      27.664  29.639  20.997  0.00  0.00     0.033 H 
BRANCH  59  62
ATOM     62  C14 901 d   1      26.499  31.210  21.914  0.00  0.00     0.009 C 
ATOM     63  H27 901 d   1      26.053  32.164  21.596  0.00  0.00     0.047 H 
ATOM     64  H28 901 d   1      27.120  31.375  22.807  0.00  0.00     0.047 H 
BRANCH  62  65
ATOM     65  C16 901 d   1      25.358  30.231  22.282  0.00  0.00     0.218 C 
ATOM     66  O1  901 d   1      25.327  29.048  22.616  0.00  0.00    -0.274 OA
ATOM     67  N3  901 d   1      24.271  31.036  22.128  0.00  0.00    -0.346 N 
ATOM     68  H29 901 d   1      24.413  32.003  21.914  0.00  0.00     0.163 HD
BRANCH  67  69
ATOM     69  C17 901 d   1      22.893  30.533  22.265  0.00  0.00     0.097 C 
ATOM     70  H30 901 d   1      22.762  30.105  23.270  0.00  0.00     0.089 H 
BRANCH  69  71
ATOM     71  C22 901 d   1      22.624  29.433  21.209  0.00  0.00     0.196 C 
ATOM     72  O2  901 d   1      22.105  28.374  21.552  0.00  0.00    -0.646 OA
ATOM     73  O3  901 d   1      22.942  29.608  20.056  0.00  0.00    -0.646 OA
ENDBRANCH  69  71
BRANCH  69  74
ATOM     74  C18 901 d   1      21.907  31.701  22.081  0.00  0.00    -0.029 C 
ATOM     75  H31 901 d   1      20.885  31.294  22.064  0.00  0.00     0.037 H 
ATOM     76  H32 901 d   1      22.123  32.190  21.120  0.00  0.00     0.037 H 
BRANCH  74  77
ATOM     77  C34 901 d   1      21.988  32.760  23.193  0.00  0.00    -0.021 C 
ATOM     78  H33 901 d   1      21.578  33.706  22.809  0.00  0.00     0.049 H 
ATOM     79  H34 901 d   1      23.044  32.903  23.467  0.00  0.00     0.049 H 
BRANCH  77  80
ATOM     80  S1  901 d   1      21.065  32.289  24.674  0.00  0.00    -0.173 SA
BRANCH  80  81
ATOM     81  C35 901 d   1      19.641  31.721  25.058  0.00  0.00    -0.035 C 
ATOM     82  H35 901 d   1      19.575  31.605  26.150  0.00  0.00     0.041 H 
ATOM     83  H36 901 d   1      19.494  30.743  24.576  0.00  0.00     0.041 H 
ATOM     84  H37 901 d   1      18.863  32.419  24.716  0.00  0.00     0.041 H 
ENDBRANCH  80  81
ENDBRANCH  77  80
ENDBRANCH  74  77
ENDBRANCH  69  74
ENDBRANCH  67  69
ENDBRANCH  62  65
ENDBRANCH  59  62
ENDBRANCH  56  59
ENDBRANCH  53  56
ENDBRANCH  51  53
ENDBRANCH   1  49
TORSDOF 22
