REMARK  8 active torsions:
REMARK  status: ('A' for Active; 'I' for Inactive)
REMARK    1  A    between atoms: O3_14  and  P1_1 
REMARK    2  A    between atoms: O5_9  and  P2_5 
REMARK    3  A    between atoms: C5_10  and  O5_9 
REMARK    4  A    between atoms: C4_11  and  C5_10 
REMARK    5  A    between atoms: C3_13  and  O3_14 
REMARK    6  A    between atoms: C2_15  and  O2_16 
REMARK    7  A    between atoms: C1_17  and  N9_18 
REMARK    8  A    between atoms: C6_22  and  N6_23 
ROOT
ATOM      1  C4  A3P d   1      37.914   5.723  15.804  0.00  0.00     0.090 C 
ATOM      2  O4  A3P d   1      37.458   5.538  17.174  0.00  0.00    -0.353 OA
ATOM      3  C3  A3P d   1      39.260   5.006  15.694  0.00  0.00     0.107 C 
ATOM      4  C2  A3P d   1      39.252   4.072  16.904  0.00  0.00     0.106 C 
ATOM      5  C1  A3P d   1      38.475   4.907  17.919  0.00  0.00     0.140 C 
ATOM      6  H3  A3P d   1      38.080   6.794  15.617  0.00  0.00     0.090 H 
ATOM      7  H4  A3P d   1      39.340   4.441  14.753  0.00  0.00     0.092 H 
ATOM      8  H5  A3P d   1      38.732   3.131  16.673  0.00  0.00     0.093 H 
ATOM      9  H7  A3P d   1      39.152   5.660  18.350  0.00  0.00     0.122 H 
ENDROOT
BRANCH   5  10
ATOM     10  N9  A3P d   1      37.865   4.161  19.023  0.00  0.00    -0.294 N 
ATOM     11  C8  A3P d   1      38.113   2.868  19.425  0.00  0.00     0.071 A 
ATOM     12  N7  A3P d   1      37.441   2.507  20.491  0.00  0.00    -0.236 NA
ATOM     13  H8  A3P d   1      38.804   2.206  18.905  0.00  0.00     0.144 H 
ATOM     14  C5  A3P d   1      36.690   3.632  20.808  0.00  0.00     0.149 A 
ATOM     15  C6  A3P d   1      35.780   3.901  21.848  0.00  0.00     0.155 A 
ATOM     16  C4  A3P d   1      36.929   4.651  19.902  0.00  0.00     0.167 A 
ATOM     17  N1  A3P d   1      35.202   5.124  21.876  0.00  0.00    -0.222 NA
ATOM     18  C2  A3P d   1      35.527   6.007  20.922  0.00  0.00     0.091 A 
ATOM     19  N3  A3P d   1      36.373   5.873  19.900  0.00  0.00    -0.222 NA
ATOM     20  H11 A3P d   1      35.031   6.968  20.991  0.00  0.00     0.146 H 
BRANCH  15  21
ATOM     21  N6  A3P d   1      35.463   3.022  22.805  0.00  0.00    -0.382 N 
ATOM     22  H9  A3P d   1      34.789   3.281  23.539  0.00  0.00     0.157 HD
ATOM     23  H10 A3P d   1      35.893   2.086  22.808  0.00  0.00     0.157 HD
ENDBRANCH  15  21
ENDBRANCH   5  10
BRANCH   4  24
ATOM     24  O2  A3P d   1      40.548   3.781  17.387  0.00  0.00    -0.388 OA
ATOM     25  H6  A3P d   1      41.053   3.361  16.701  0.00  0.00     0.210 HD
ENDBRANCH   4  24
BRANCH   1  26
ATOM     26  C5  A3P d   1      36.849   5.254  14.846  0.00  0.00     0.059 C 
ATOM     27  H1  A3P d   1      35.858   5.426  15.291  0.00  0.00     0.079 H 
ATOM     28  H2  A3P d   1      36.931   5.818  13.905  0.00  0.00     0.079 H 
BRANCH  26  29
ATOM     29  O5  A3P d   1      37.012   3.856  14.576  0.00  0.00    -0.280 OA
BRANCH  29  30
ATOM     30  P2  A3P d   1      36.399   3.192  13.222  0.00  0.00     0.422 P 
ATOM     31  O4P A3P d   1      34.904   3.425  13.317  0.00  0.00    -0.617 OA
ATOM     32  O5P A3P d   1      37.062   3.903  12.059  0.00  0.00    -0.617 OA
ATOM     33  O6P A3P d   1      36.782   1.725  13.321  0.00  0.00    -0.617 OA
ENDBRANCH  29  30
ENDBRANCH  26  29
ENDBRANCH   1  26
BRANCH   3  34
ATOM     34  O3  A3P d   1      40.325   5.948  15.787  0.00  0.00    -0.272 OA
BRANCH  34  35
ATOM     35  P1  A3P d   1      41.235   6.255  14.491  0.00  0.00     0.422 P 
ATOM     36  O1P A3P d   1      40.273   6.520  13.346  0.00  0.00    -0.617 OA
ATOM     37  O2P A3P d   1      42.087   5.015  14.271  0.00  0.00    -0.617 OA
ATOM     38  O3P A3P d   1      42.066   7.475  14.850  0.00  0.00    -0.617 OA
ENDBRANCH  34  35
ENDBRANCH   3  34
TORSDOF 8
