REMARK  9 active torsions:
REMARK  status: ('A' for Active; 'I' for Inactive)
REMARK    1  A    between atoms: O3A_8  and  PB_1 
REMARK    2  A    between atoms: PA_5  and  O3A_8 
REMARK    3  A    between atoms: PA_5  and  O5_9 
REMARK    4  A    between atoms: O5_9  and  C5_10 
REMARK    5  A    between atoms: C5_10  and  C4_11 
REMARK    6  A    between atoms: C3_13  and  O3_14 
REMARK    7  A    between atoms: C2_15  and  O2_16 
REMARK    8  A    between atoms: C1_17  and  N9_18 
REMARK    9  A    between atoms: C6_22  and  N6_23 
ROOT
ATOM      1  C4  ADP d   1      36.712   7.550  16.540  0.00  0.00     0.089 C 
ATOM      2  O4  ADP d   1      35.976   7.003  17.631  0.00  0.00    -0.353 OA
ATOM      3  C3  ADP d   1      37.999   8.095  17.161  0.00  0.00     0.091 C 
ATOM      4  C2  ADP d   1      38.098   7.402  18.504  0.00  0.00     0.105 C 
ATOM      5  C1  ADP d   1      36.621   7.353  18.841  0.00  0.00     0.139 C 
ATOM      6  H3  ADP d   1      36.164   8.388  16.085  0.00  0.00     0.090 H 
ATOM      7  H4  ADP d   1      38.876   7.880  16.533  0.00  0.00     0.091 H 
ATOM      8  H6  ADP d   1      38.508   6.388  18.383  0.00  0.00     0.093 H 
ATOM      9  H8  ADP d   1      36.291   8.348  19.174  0.00  0.00     0.122 H 
ENDROOT
BRANCH   5  10
ATOM     10  N9  ADP d   1      36.275   6.370  19.889  0.00  0.00    -0.294 N 
ATOM     11  C8  ADP d   1      35.419   6.670  20.900  0.00  0.00     0.071 A 
ATOM     12  N7  ADP d   1      35.213   5.631  21.747  0.00  0.00    -0.236 NA
ATOM     13  H9  ADP d   1      34.947   7.644  21.018  0.00  0.00     0.144 H 
ATOM     14  C5  ADP d   1      35.997   4.691  21.237  0.00  0.00     0.149 A 
ATOM     15  C6  ADP d   1      36.245   3.338  21.656  0.00  0.00     0.155 A 
ATOM     16  C4  ADP d   1      36.690   5.117  20.030  0.00  0.00     0.167 A 
ATOM     17  N1  ADP d   1      37.091   2.610  20.922  0.00  0.00    -0.222 NA
ATOM     18  C2  ADP d   1      37.680   3.103  19.820  0.00  0.00     0.091 A 
ATOM     19  N3  ADP d   1      37.512   4.340  19.341  0.00  0.00    -0.222 NA
ATOM     20  H12 ADP d   1      38.346   2.444  19.274  0.00  0.00     0.146 H 
BRANCH  15  21
ATOM     21  N6  ADP d   1      35.656   2.870  22.777  0.00  0.00    -0.382 N 
ATOM     22  H10 ADP d   1      35.829   1.902  23.084  0.00  0.00     0.157 HD
ATOM     23  H11 ADP d   1      35.034   3.481  23.326  0.00  0.00     0.157 HD
ENDBRANCH  15  21
ENDBRANCH   5  10
BRANCH   4  24
ATOM     24  O2  ADP d   1      38.877   8.066  19.491  0.00  0.00    -0.388 OA
ATOM     25  H7  ADP d   1      38.505   8.923  19.662  0.00  0.00     0.210 HD
ENDBRANCH   4  24
BRANCH   1  26
ATOM     26  C5  ADP d   1      36.840   6.450  15.499  0.00  0.00     0.058 C 
ATOM     27  H1  ADP d   1      37.568   5.696  15.832  0.00  0.00     0.079 H 
ATOM     28  H2  ADP d   1      35.864   5.970  15.333  0.00  0.00     0.079 H 
BRANCH  26  29
ATOM     29  O5  ADP d   1      37.293   7.074  14.297  0.00  0.00    -0.287 OA
BRANCH  29  30
ATOM     30  PA  ADP d   1      37.900   6.221  13.092  0.00  0.00     0.418 P 
ATOM     31  O1A ADP d   1      38.031   7.192  11.940  0.00  0.00    -0.624 OA
ATOM     32  O2A ADP d   1      39.152   5.499  13.504  0.00  0.00    -0.624 OA
BRANCH  30  33
ATOM     33  O3A ADP d   1      36.734   5.187  12.670  0.00  0.00    -0.173 OA
BRANCH  33  34
ATOM     34  PB  ADP d   1      36.396   3.677  13.087  0.00  0.00     0.431 P 
ATOM     35  O1B ADP d   1      34.892   3.693  13.238  0.00  0.00    -0.616 OA
ATOM     36  O2B ADP d   1      36.863   2.829  11.954  0.00  0.00    -0.616 OA
ATOM     37  O3B ADP d   1      37.096   3.421  14.401  0.00  0.00    -0.616 OA
ENDBRANCH  33  34
ENDBRANCH  30  33
ENDBRANCH  29  30
ENDBRANCH  26  29
ENDBRANCH   1  26
BRANCH   3  38
ATOM     38  O3  ADP d   1      37.850   9.495  17.349  0.00  0.00    -0.390 OA
ATOM     39  H5  ADP d   1      37.693   9.911  16.510  0.00  0.00     0.210 HD
ENDBRANCH   3  38
TORSDOF 9
