REMARK  6 active torsions:
REMARK  status: ('A' for Active; 'I' for Inactive)
REMARK    1  A    between atoms: C1'_21  and  N1_1 
REMARK    2  A    between atoms: O3'_18  and  P_9 
REMARK    3  A    between atoms: C5'_14  and  O5'_13 
REMARK    4  A    between atoms: C4'_15  and  C5'_14 
REMARK    5  A    between atoms: C3'_17  and  O3'_18 
REMARK    6  A    between atoms: C2'_19  and  O2'_20 
ROOT
ATOM      1  C4' U3P d   1      39.394  -0.217  12.460  0.00  0.00     0.089 C 
ATOM      2  O4' U3P d   1      38.595  -1.195  11.738  0.00  0.00    -0.353 OA
ATOM      3  C3' U3P d   1      38.409   0.744  13.123  0.00  0.00     0.107 C 
ATOM      4  C2' U3P d   1      37.114  -0.062  13.165  0.00  0.00     0.106 C 
ATOM      5  C1' U3P d   1      37.222  -0.895  11.890  0.00  0.00     0.141 C 
ATOM      6  H7  U3P d   1      40.007   0.356  11.748  0.00  0.00     0.090 H 
ATOM      7  H8  U3P d   1      38.742   1.017  14.135  0.00  0.00     0.092 H 
ATOM      8  H9  U3P d   1      37.077  -0.698  14.062  0.00  0.00     0.093 H 
ATOM      9  H11 U3P d   1      36.859  -0.309  11.033  0.00  0.00     0.123 H 
ENDROOT
BRANCH   5  10
ATOM     10  N1  U3P d   1      36.467  -2.158  11.965  0.00  0.00    -0.280 N 
ATOM     11  C2  U3P d   1      35.309  -2.272  11.203  0.00  0.00     0.331 A 
ATOM     12  N3  U3P d   1      34.643  -3.467  11.338  0.00  0.00    -0.275 N 
ATOM     13  O2  U3P d   1      34.897  -1.381  10.469  0.00  0.00    -0.246 OA
ATOM     14  C4  U3P d   1      35.002  -4.536  12.137  0.00  0.00     0.250 A 
ATOM     15  H1  U3P d   1      33.807  -3.575  10.799  0.00  0.00     0.173 HD
ATOM     16  C5  U3P d   1      36.208  -4.346  12.881  0.00  0.00    -0.002 A 
ATOM     17  O4  U3P d   1      34.285  -5.536  12.169  0.00  0.00    -0.268 OA
ATOM     18  C6  U3P d   1      36.885  -3.196  12.771  0.00  0.00    -0.008 A 
ATOM     19  H2  U3P d   1      36.575  -5.135  13.536  0.00  0.00     0.094 H 
ATOM     20  H3  U3P d   1      37.804  -3.075  13.342  0.00  0.00     0.112 H 
ENDBRANCH   5  10
BRANCH   4  21
ATOM     21  O2' U3P d   1      35.955   0.743  13.116  0.00  0.00    -0.388 OA
ATOM     22  H10 U3P d   1      35.184   0.189  13.145  0.00  0.00     0.210 HD
ENDBRANCH   4  21
BRANCH   1  23
ATOM     23  C5' U3P d   1      40.334  -0.942  13.398  0.00  0.00     0.043 C 
ATOM     24  H5  U3P d   1      40.977  -1.619  12.815  0.00  0.00     0.078 H 
ATOM     25  H6  U3P d   1      40.959  -0.206  13.925  0.00  0.00     0.078 H 
BRANCH  23  26
ATOM     26  O5' U3P d   1      39.589  -1.709  14.363  0.00  0.00    -0.398 OA
ATOM     27  H4  U3P d   1      39.050  -2.347  13.911  0.00  0.00     0.209 HD
ENDBRANCH  23  26
ENDBRANCH   1  23
BRANCH   3  28
ATOM     28  O3' U3P d   1      38.239   1.920  12.341  0.00  0.00    -0.272 OA
BRANCH  28  29
ATOM     29  P   U3P d   1      38.472   3.363  13.014  0.00  0.00     0.422 P 
ATOM     30  O1P U3P d   1      37.438   3.517  14.122  0.00  0.00    -0.617 OA
ATOM     31  O2P U3P d   1      38.321   4.383  11.899  0.00  0.00    -0.617 OA
ATOM     32  O3P U3P d   1      39.896   3.226  13.535  0.00  0.00    -0.617 OA
ENDBRANCH  28  29
ENDBRANCH   3  28
TORSDOF 6
