REMARK  16 active torsions:
REMARK  status: ('A' for Active; 'I' for Inactive)
REMARK    1  A    between atoms: C4_1  and  C1_2 
REMARK    2  A    between atoms: C1_2  and  C3_3 
REMARK    3  A    between atoms: C3_3  and  C5_4 
REMARK    4  A    between atoms: C5_4  and  C7_5 
REMARK    5  A    between atoms: C6_6  and  C8_7 
REMARK    6  A    between atoms: C6_6  and  C9_8 
REMARK    7  A    between atoms: C9_8  and  O8_9 
REMARK    8  A    between atoms: O8_9  and  C11_10 
REMARK    9  A    between atoms: C11_10  and  C17_11 
REMARK   10  A    between atoms: C14_15  and  C15_17 
REMARK   11  A    between atoms: C15_17  and  C19_19 
REMARK   12  A    between atoms: C2_25  and  C10_26 
REMARK   13  A    between atoms: C10_26  and  O3_27 
REMARK   14  A    between atoms: O3_27  and  P2_28 
REMARK   15  A    between atoms: P2_28  and  O2_31 
REMARK   16  A    between atoms: O2_31  and  P1_32 
ROOT
ATOM      1  C7  1NH d   1     189.786 121.316  31.551  0.00  0.00    -0.099 C 
ATOM      2  C6  1NH d   1     188.792 121.327  32.469  0.00  0.00    -0.064 C 
ATOM      3  H8  1NH d   1     189.679 120.679  30.674  0.00  0.00     0.077 H 
ENDROOT
BRANCH   2   4
ATOM      4  C8  1NH d   1     188.885 122.183  33.704  0.00  0.00    -0.053 C 
ATOM      5  H9  1NH d   1     187.980 122.046  34.314  0.00  0.00     0.033 H 
ATOM      6  H10 1NH d   1     188.974 123.240  33.412  0.00  0.00     0.033 H 
ATOM      7  H11 1NH d   1     189.769 121.888  34.289  0.00  0.00     0.033 H 
ENDBRANCH   2   4
BRANCH   2   8
ATOM      8  C9  1NH d   1     187.548 120.476  32.290  0.00  0.00     0.040 C 
ATOM      9  H12 1NH d   1     187.706 119.500  32.772  0.00  0.00     0.081 H 
ATOM     10  H13 1NH d   1     187.363 120.329  31.216  0.00  0.00     0.081 H 
BRANCH   8  11
ATOM     11  O8  1NH d   1     186.407 121.114  32.882  0.00  0.00    -0.383 OA
BRANCH  11  12
ATOM     12  C11 1NH d   1     185.159 120.465  32.534  0.00  0.00     0.043 C 
ATOM     13  H14 1NH d   1     184.489 120.473  33.406  0.00  0.00     0.081 H 
ATOM     14  H15 1NH d   1     185.360 119.426  32.235  0.00  0.00     0.081 H 
BRANCH  12  15
ATOM     15  C17 1NH d   1     184.497 121.198  31.386  0.00  0.00    -0.034 A 
ATOM     16  C18 1NH d   1     183.347 120.693  30.756  0.00  0.00    -0.075 A 
ATOM     17  C12 1NH d   1     182.781 121.417  29.693  0.00  0.00    -0.081 A 
ATOM     18  H16 1NH d   1     182.904 119.760  31.085  0.00  0.00     0.084 H 
ATOM     19  C13 1NH d   1     183.359 122.639  29.264  0.00  0.00    -0.069 A 
ATOM     20  H17 1NH d   1     181.895 121.038  29.197  0.00  0.00     0.083 H 
ATOM     21  C14 1NH d   1     184.510 123.141  29.903  0.00  0.00     0.015 A 
ATOM     22  H18 1NH d   1     182.914 123.188  28.442  0.00  0.00     0.085 H 
ATOM     23  C16 1NH d   1     185.054 122.407  30.959  0.00  0.00    -0.061 A 
ATOM     24  H19 1NH d   1     185.935 122.786  31.463  0.00  0.00     0.085 H 
BRANCH  21  25
ATOM     25  C15 1NH d   1     185.207 124.414  29.555  0.00  0.00     0.192 C 
ATOM     26  O9  1NH d   1     186.114 124.831  30.282  0.00  0.00    -0.287 OA
BRANCH  25  27
ATOM     27  C19 1NH d   1     184.834 125.175  28.345  0.00  0.00     0.015 A 
ATOM     28  C24 1NH d   1     184.036 124.638  27.323  0.00  0.00    -0.069 A 
ATOM     29  C23 1NH d   1     183.830 125.360  26.138  0.00  0.00    -0.082 A 
ATOM     30  H20 1NH d   1     183.578 123.664  27.450  0.00  0.00     0.085 H 
ATOM     31  C22 1NH d   1     184.405 126.627  25.973  0.00  0.00    -0.083 A 
ATOM     32  H21 1NH d   1     183.223 124.936  25.346  0.00  0.00     0.083 H 
ATOM     33  C21 1NH d   1     185.150 127.197  27.014  0.00  0.00    -0.082 A 
ATOM     34  H22 1NH d   1     184.274 127.165  25.041  0.00  0.00     0.083 H 
ATOM     35  C20 1NH d   1     185.356 126.475  28.197  0.00  0.00    -0.069 A 
ATOM     36  H23 1NH d   1     185.565 128.192  26.904  0.00  0.00     0.083 H 
ATOM     37  H24 1NH d   1     185.923 126.921  29.006  0.00  0.00     0.085 H 
ENDBRANCH  25  27
ENDBRANCH  21  25
ENDBRANCH  12  15
ENDBRANCH  11  12
ENDBRANCH   8  11
ENDBRANCH   2   8
BRANCH   1  38
ATOM     38  C5  1NH d   1     191.054 122.160  31.691  0.00  0.00    -0.046 C 
ATOM     39  H6  1NH d   1     190.781 123.201  31.917  0.00  0.00     0.039 H 
ATOM     40  H7  1NH d   1     191.676 121.759  32.505  0.00  0.00     0.039 H 
BRANCH  38  41
ATOM     41  C3  1NH d   1     191.845 122.107  30.357  0.00  0.00    -0.042 C 
ATOM     42  H4  1NH d   1     192.073 121.055  30.132  0.00  0.00     0.040 H 
ATOM     43  H5  1NH d   1     191.209 122.522  29.561  0.00  0.00     0.040 H 
BRANCH  41  44
ATOM     44  C1  1NH d   1     193.176 122.900  30.381  0.00  0.00    -0.085 C 
ATOM     45  C2  1NH d   1     193.918 123.078  31.504  0.00  0.00    -0.078 C 
ATOM     46  H25 1NH d   1     193.560 122.648  32.438  0.00  0.00     0.080 H 
BRANCH  44  47
ATOM     47  C4  1NH d   1     193.647 123.491  29.052  0.00  0.00    -0.055 C 
ATOM     48  H1  1NH d   1     192.921 123.244  28.263  0.00  0.00     0.033 H 
ATOM     49  H2  1NH d   1     194.629 123.070  28.791  0.00  0.00     0.033 H 
ATOM     50  H3  1NH d   1     193.730 124.584  29.145  0.00  0.00     0.033 H 
ENDBRANCH  44  47
BRANCH  45  51
ATOM     51  C10 1NH d   1     195.230 123.854  31.514  0.00  0.00     0.047 C 
ATOM     52  H26 1NH d   1     195.510 124.096  30.478  0.00  0.00     0.081 H 
ATOM     53  H27 1NH d   1     196.012 123.228  31.968  0.00  0.00     0.081 H 
BRANCH  51  54
ATOM     54  O3  1NH d   1     195.114 125.098  32.278  0.00  0.00    -0.286 OA
BRANCH  54  55
ATOM     55  P2  1NH d   1     196.348 125.595  33.119  0.00  0.00     0.418 P 
ATOM     56  O7  1NH d   1     196.104 127.100  33.353  0.00  0.00    -0.624 OA
ATOM     57  O1  1NH d   1     197.672 125.339  32.464  0.00  0.00    -0.624 OA
BRANCH  55  58
ATOM     58  O2  1NH d   1     196.241 124.947  34.531  0.00  0.00    -0.173 OA
BRANCH  58  59
ATOM     59  P1  1NH d   1     197.075 123.860  35.278  0.00  0.00     0.431 P 
ATOM     60  O4  1NH d   1     196.278 123.614  36.586  0.00  0.00    -0.616 OA
ATOM     61  O5  1NH d   1     196.984 122.604  34.384  0.00  0.00    -0.616 OA
ATOM     62  O6  1NH d   1     198.478 124.291  35.532  0.00  0.00    -0.616 OA
ENDBRANCH  58  59
ENDBRANCH  55  58
ENDBRANCH  54  55
ENDBRANCH  51  54
ENDBRANCH  45  51
ENDBRANCH  41  44
ENDBRANCH  38  41
ENDBRANCH   1  38
TORSDOF 16
