REMARK  6 active torsions:
REMARK  status: ('A' for Active; 'I' for Inactive)
REMARK    1  A    between atoms: C1_1  and  C7_7 
REMARK    2  A    between atoms: C7_7  and  N1_8 
REMARK    3  A    between atoms: C8_12  and  C1'_13 
REMARK    4  A    between atoms: C5'_17  and  O5'_18 
REMARK    5  A    between atoms: O5'_18  and  C2''_22 
REMARK    6  A    between atoms: C6'_19  and  O6'_20 
ROOT
ATOM      1  C1' CR3 d   1      43.273  -2.023  31.587  0.00  0.00     0.027 A 
ATOM      2  C2' CR3 d   1      42.938  -3.133  32.360  0.00  0.00    -0.068 A 
ATOM      3  C3' CR3 d   1      42.753  -3.009  33.734  0.00  0.00    -0.079 A 
ATOM      4  C4' CR3 d   1      42.901  -1.785  34.351  0.00  0.00    -0.048 A 
ATOM      5  C5' CR3 d   1      43.238  -0.665  33.603  0.00  0.00     0.103 A 
ATOM      6  C6' CR3 d   1      43.419  -0.777  32.233  0.00  0.00     0.111 A 
ATOM      7  H10 CR3 d   1      42.821  -4.101  31.887  0.00  0.00     0.085 H 
ATOM      8  H11 CR3 d   1      42.491  -3.881  34.323  0.00  0.00     0.083 H 
ATOM      9  H12 CR3 d   1      42.754  -1.697  35.421  0.00  0.00     0.087 H 
ENDROOT
BRANCH   1  10
ATOM     10  C8  CR3 d   1      43.497  -2.172  30.206  0.00  0.00     0.046 A 
ATOM     11  N3  CR3 d   1      43.931  -1.195  29.466  0.00  0.00    -0.355 N 
ATOM     12  C4  CR3 d   1      44.062  -1.644  28.270  0.00  0.00     0.043 A 
ATOM     13  H8  CR3 d   1      44.133  -0.236  29.782  0.00  0.00     0.166 HD
ATOM     14  C3  CR3 d   1      44.478  -1.023  27.131  0.00  0.00    -0.055 A 
ATOM     15  C5  CR3 d   1      43.694  -2.932  28.302  0.00  0.00    -0.006 A 
ATOM     16  C2  CR3 d   1      44.519  -1.755  25.965  0.00  0.00    -0.067 A 
ATOM     17  H2  CR3 d   1      44.769   0.021  27.142  0.00  0.00     0.087 H 
ATOM     18  C1  CR3 d   1      44.140  -3.104  25.944  0.00  0.00     0.008 A 
ATOM     19  H1  CR3 d   1      44.850  -1.280  25.049  0.00  0.00     0.085 H 
ATOM     20  C6  CR3 d   1      43.719  -3.710  27.147  0.00  0.00    -0.057 A 
ATOM     21  H3  CR3 d   1      43.423  -4.753  27.171  0.00  0.00     0.086 H 
ATOM     22  CN4 CR3 d   1      43.326  -3.299  29.510  0.00  0.00    -0.044 A 
ATOM     23  H9  CR3 d   1      42.973  -4.270  29.854  0.00  0.00     0.088 H 
BRANCH  18  24
ATOM     24  C7  CR3 d   1      44.187  -3.796  24.722  0.00  0.00     0.102 C 
ATOM     25  N2  CR3 d   1      44.652  -3.171  23.666  0.00  0.00    -0.385 N 
ATOM     26  H6  CR3 d   1      44.982  -2.199  23.747  0.00  0.00     0.157 HD
ATOM     27  H7  CR3 d   1      44.687  -3.653  22.756  0.00  0.00     0.157 HD
BRANCH  24  28
ATOM     28  N1  CR3 d   1      43.763  -5.034  24.637  0.00  0.00    -0.385 N 
ATOM     29  H4  CR3 d   1      43.802  -5.531  23.736  0.00  0.00     0.157 HD
ATOM     30  H5  CR3 d   1      43.391  -5.509  25.471  0.00  0.00     0.157 HD
ENDBRANCH  24  28
ENDBRANCH  18  24
ENDBRANCH   1  10
BRANCH   6  31
ATOM     31  O6' CR3 d   1      43.723   0.389  31.552  0.00  0.00    -0.357 OA
ATOM     32  H13 CR3 d   1      44.533   0.751  31.892  0.00  0.00     0.217 HD
ENDBRANCH   6  31
BRANCH   5  33
ATOM     33  O5' CR3 d   1      43.420   0.585  34.179  0.00  0.00    -0.343 OA
BRANCH  33  34
ATOM     34  C2' CR3 d   1      43.609   0.851  35.575  0.00  0.00     0.045 C 
ATOM     35  C3' CR3 d   1      45.125   0.710  35.868  0.00  0.00    -0.040 C 
ATOM     36  C4' CR3 d   1      45.592   2.056  36.438  0.00  0.00    -0.063 C 
ATOM     37  H17 CR3 d   1      45.671   0.481  34.941  0.00  0.00     0.036 H 
ATOM     38  H18 CR3 d   1      45.296  -0.092  36.601  0.00  0.00     0.036 H 
ATOM     39  C5' CR3 d   1      44.329   2.840  36.772  0.00  0.00    -0.063 C 
ATOM     40  H19 CR3 d   1      46.191   2.599  35.692  0.00  0.00     0.033 H 
ATOM     41  H20 CR3 d   1      46.193   1.897  37.346  0.00  0.00     0.033 H 
ATOM     42  C1' CR3 d   1      43.282   2.334  35.796  0.00  0.00    -0.040 C 
ATOM     43  H21 CR3 d   1      44.496   3.919  36.635  0.00  0.00     0.033 H 
ATOM     44  H22 CR3 d   1      44.017   2.646  37.809  0.00  0.00     0.033 H 
ATOM     45  H14 CR3 d   1      43.343   2.886  34.847  0.00  0.00     0.036 H 
ATOM     46  H15 CR3 d   1      42.274   2.446  36.222  0.00  0.00     0.036 H 
ATOM     47  H16 CR3 d   1      42.999   0.190  36.207  0.00  0.00     0.084 H 
ENDBRANCH  33  34
ENDBRANCH   5  33
TORSDOF 6
