REMARK  9 active torsions:
REMARK  status: ('A' for Active; 'I' for Inactive)
REMARK    1  A    between atoms: C1_1  and  C7_7 
REMARK    2  A    between atoms: C7_7  and  N1_8 
REMARK    3  A    between atoms: C8_12  and  C1'_13 
REMARK    4  A    between atoms: C5'_17  and  O5'_20 
REMARK    5  A    between atoms: C6'_18  and  O6'_19 
REMARK    6  A    between atoms: O5'_20  and  C10_21 
REMARK    7  A    between atoms: C10_21  and  C20_22 
REMARK    8  A    between atoms: C20_22  and  C30_23 
REMARK    9  A    between atoms: C20_22  and  C40_24 
ROOT
ATOM      1  C1' 656 d   1      43.617  -2.105  31.890  0.00  0.00     0.046 A 
ATOM      2  C2' 656 d   1      43.283  -3.226  32.644  0.00  0.00    -0.066 A 
ATOM      3  C3' 656 d   1      43.074  -3.119  34.015  0.00  0.00    -0.079 A 
ATOM      4  C4' 656 d   1      43.199  -1.898  34.638  0.00  0.00    -0.048 A 
ATOM      5  C5' 656 d   1      43.534  -0.769  33.901  0.00  0.00     0.102 A 
ATOM      6  C6' 656 d   1      43.739  -0.867  32.536  0.00  0.00     0.113 A 
ATOM      7  H9  656 d   1      43.185  -4.190  32.159  0.00  0.00     0.085 H 
ATOM      8  H10 656 d   1      42.812  -3.998  34.593  0.00  0.00     0.083 H 
ATOM      9  H11 656 d   1      43.036  -1.817  35.707  0.00  0.00     0.087 H 
ENDROOT
BRANCH   1  10
ATOM     10  C8  656 d   1      43.839  -2.226  30.516  0.00  0.00     0.142 A 
ATOM     11  N3  656 d   1      44.263  -1.231  29.809  0.00  0.00    -0.338 N 
ATOM     12  C4  656 d   1      44.390  -1.643  28.603  0.00  0.00     0.062 A 
ATOM     13  H8  656 d   1      44.462  -0.281  30.152  0.00  0.00     0.167 HD
ATOM     14  C3  656 d   1      44.803  -0.997  27.477  0.00  0.00    -0.054 A 
ATOM     15  C5  656 d   1      44.023  -2.929  28.619  0.00  0.00     0.086 A 
ATOM     16  C2  656 d   1      44.840  -1.726  26.288  0.00  0.00    -0.067 A 
ATOM     17  H2  656 d   1      45.093   0.047  27.504  0.00  0.00     0.087 H 
ATOM     18  C1  656 d   1      44.461  -3.087  26.246  0.00  0.00     0.009 A 
ATOM     19  H1  656 d   1      45.166  -1.238  25.377  0.00  0.00     0.085 H 
ATOM     20  C6  656 d   1      44.047  -3.695  27.448  0.00  0.00    -0.039 A 
ATOM     21  H3  656 d   1      43.752  -4.738  27.465  0.00  0.00     0.088 H 
ATOM     22  N4  656 d   1      43.665  -3.336  29.822  0.00  0.00    -0.228 NA
BRANCH  18  23
ATOM     23  C7  656 d   1      44.506  -3.793  25.018  0.00  0.00     0.102 C 
ATOM     24  N2  656 d   1      44.751  -3.116  23.913  0.00  0.00    -0.385 N 
ATOM     25  H6  656 d   1      44.916  -2.100  23.957  0.00  0.00     0.157 HD
ATOM     26  H7  656 d   1      44.778  -3.603  23.006  0.00  0.00     0.157 HD
BRANCH  23  27
ATOM     27  N1  656 d   1      44.294  -5.092  24.975  0.00  0.00    -0.385 N 
ATOM     28  H4  656 d   1      44.330  -5.590  24.074  0.00  0.00     0.157 HD
ATOM     29  H5  656 d   1      44.092  -5.610  25.842  0.00  0.00     0.157 HD
ENDBRANCH  23  27
ENDBRANCH  18  23
ENDBRANCH   1  10
BRANCH   6  30
ATOM     30  O6' 656 d   1      44.050   0.287  31.836  0.00  0.00    -0.357 OA
ATOM     31  H12 656 d   1      44.164   0.077  30.916  0.00  0.00     0.217 HD
ENDBRANCH   6  30
BRANCH   5  32
ATOM     32  O5' 656 d   1      43.698   0.470  34.490  0.00  0.00    -0.348 OA
BRANCH  32  33
ATOM     33  C10 656 d   1      43.550   0.779  35.862  0.00  0.00     0.029 C 
ATOM     34  H13 656 d   1      44.146   0.085  36.472  0.00  0.00     0.075 H 
ATOM     35  H14 656 d   1      42.492   0.708  36.154  0.00  0.00     0.075 H 
BRANCH  33  36
ATOM     36  C20 656 d   1      44.061   2.233  36.055  0.00  0.00    -0.040 C 
ATOM     37  H15 656 d   1      44.554   2.602  35.144  0.00  0.00     0.042 H 
BRANCH  36  38
ATOM     38  C30 656 d   1      42.871   3.085  36.427  0.00  0.00    -0.071 C 
ATOM     39  H16 656 d   1      43.196   4.126  36.572  0.00  0.00     0.028 H 
ATOM     40  H17 656 d   1      42.426   2.707  37.359  0.00  0.00     0.028 H 
ATOM     41  H18 656 d   1      42.124   3.043  35.621  0.00  0.00     0.028 H 
ENDBRANCH  36  38
BRANCH  36  42
ATOM     42  C40 656 d   1      45.020   2.275  37.268  0.00  0.00    -0.071 C 
ATOM     43  H19 656 d   1      45.911   1.667  37.052  0.00  0.00     0.028 H 
ATOM     44  H20 656 d   1      44.508   1.873  38.154  0.00  0.00     0.028 H 
ATOM     45  H21 656 d   1      45.323   3.315  37.460  0.00  0.00     0.028 H 
ENDBRANCH  36  42
ENDBRANCH  33  36
ENDBRANCH  32  33
ENDBRANCH   5  32
TORSDOF 9
