REMARK  5 active torsions:
REMARK  status: ('A' for Active; 'I' for Inactive)
REMARK    1  A    between atoms: C1_1  and  C7_8 
REMARK    2  A    between atoms: C7_8  and  N1_9 
REMARK    3  A    between atoms: C8_13  and  C1'_14 
REMARK    4  A    between atoms: C5'_18  and  C1''_21 
REMARK    5  A    between atoms: C6'_19  and  O6'_20 
ROOT
ATOM      1  C1' 762 d   1      43.574  -2.228  31.615  0.00  0.00     0.044 A 
ATOM      2  C2' 762 d   1      43.216  -3.360  32.369  0.00  0.00    -0.067 A 
ATOM      3  C3' 762 d   1      43.043  -3.269  33.754  0.00  0.00    -0.081 A 
ATOM      4  C4' 762 d   1      43.211  -2.059  34.397  0.00  0.00    -0.070 A 
ATOM      5  C5' 762 d   1      43.580  -0.928  33.670  0.00  0.00     0.008 A 
ATOM      6  C6' 762 d   1      43.754  -1.011  32.282  0.00  0.00     0.090 A 
ATOM      7  H8  762 d   1      43.073  -4.312  31.872  0.00  0.00     0.085 H 
ATOM      8  H9  762 d   1      42.776  -4.151  34.324  0.00  0.00     0.083 H 
ATOM      9  H10 762 d   1      43.056  -1.988  35.468  0.00  0.00     0.085 H 
ENDROOT
BRANCH   1  10
ATOM     10  C8  762 d   1      43.739  -2.291  30.213  0.00  0.00     0.142 A 
ATOM     11  N3  762 d   1      43.706  -1.231  29.437  0.00  0.00    -0.338 N 
ATOM     12  C4  762 d   1      43.806  -1.610  28.200  0.00  0.00     0.064 A 
ATOM     13  H7  762 d   1      43.615  -0.257  29.759  0.00  0.00     0.167 HD
ATOM     14  C3  762 d   1      43.826  -0.927  26.994  0.00  0.00    -0.033 A 
ATOM     15  C5  762 d   1      43.873  -2.943  28.268  0.00  0.00     0.086 A 
ATOM     16  C2  762 d   1      43.926  -1.658  25.788  0.00  0.00     0.050 A 
ATOM     17  H1  762 d   1      43.766   0.155  26.976  0.00  0.00     0.089 H 
ATOM     18  C1  762 d   1      44.005  -3.086  25.846  0.00  0.00     0.031 A 
ATOM     19 CL2  762 d   1      43.869  -0.697  24.275  0.00  0.00    -0.083 Cl
ATOM     20  C6  762 d   1      43.977  -3.718  27.102  0.00  0.00    -0.038 A 
ATOM     21  H2  762 d   1      44.035  -4.798  27.169  0.00  0.00     0.088 H 
ATOM     22  N4  762 d   1      43.816  -3.409  29.506  0.00  0.00    -0.228 NA
BRANCH  18  23
ATOM     23  C7  762 d   1      44.144  -3.873  24.674  0.00  0.00     0.104 C 
ATOM     24  N2  762 d   1      44.718  -3.288  23.655  0.00  0.00    -0.385 N 
ATOM     25  H5  762 d   1      45.025  -2.308  23.730  0.00  0.00     0.157 HD
ATOM     26  H6  762 d   1      44.863  -3.807  22.777  0.00  0.00     0.157 HD
BRANCH  23  27
ATOM     27  N1  762 d   1      43.744  -5.124  24.599  0.00  0.00    -0.385 N 
ATOM     28  H3  762 d   1      43.868  -5.653  23.724  0.00  0.00     0.157 HD
ATOM     29  H4  762 d   1      43.307  -5.575  25.416  0.00  0.00     0.157 HD
ENDBRANCH  23  27
ENDBRANCH  18  23
ENDBRANCH   1  10
BRANCH   6  30
ATOM     30  O6' 762 d   1      44.089   0.119  31.548  0.00  0.00    -0.359 OA
ATOM     31  H11 762 d   1      44.167  -0.113  30.630  0.00  0.00     0.217 HD
ENDBRANCH   6  30
BRANCH   5  32
ATOM     32  C1' 762 d   1      43.766   0.281  34.338  0.00  0.00    -0.023 A 
ATOM     33  C2' 762 d   1      44.795   0.387  35.274  0.00  0.00    -0.072 A 
ATOM     34  C3' 762 d   1      44.990   1.586  35.962  0.00  0.00    -0.082 A 
ATOM     35  H12 762 d   1      45.443  -0.461  35.467  0.00  0.00     0.084 H 
ATOM     36  C4' 762 d   1      44.176   2.677  35.712  0.00  0.00    -0.083 A 
ATOM     37  H13 762 d   1      45.784   1.663  36.696  0.00  0.00     0.083 H 
ATOM     38  C5' 762 d   1      43.174   2.578  34.775  0.00  0.00    -0.082 A 
ATOM     39  H14 762 d   1      44.327   3.605  36.252  0.00  0.00     0.083 H 
ATOM     40  C6' 762 d   1      42.959   1.383  34.090  0.00  0.00    -0.072 A 
ATOM     41  H15 762 d   1      42.546   3.437  34.567  0.00  0.00     0.083 H 
ATOM     42  H16 762 d   1      42.159   1.314  33.361  0.00  0.00     0.084 H 
ENDBRANCH   5  32
TORSDOF 5
