REMARK  9 active torsions:
REMARK  status: ('A' for Active; 'I' for Inactive)
REMARK    1  A    between atoms: C1_1  and  C7_8 
REMARK    2  A    between atoms: C7_8  and  N1_9 
REMARK    3  A    between atoms: C8_13  and  C1'_14 
REMARK    4  A    between atoms: C5'_18  and  O5'_21 
REMARK    5  A    between atoms: C6'_19  and  O6'_20 
REMARK    6  A    between atoms: O5'_21  and  C10_22 
REMARK    7  A    between atoms: C10_22  and  C20_23 
REMARK    8  A    between atoms: C20_23  and  C30_24 
REMARK    9  A    between atoms: C20_23  and  C40_25 
ROOT
ATOM      1  C1' 950 d   1      43.453  -2.195  31.269  0.00  0.00     0.046 A 
ATOM      2  C2' 950 d   1      43.280  -3.368  32.006  0.00  0.00    -0.066 A 
ATOM      3  C3' 950 d   1      43.079  -3.307  33.385  0.00  0.00    -0.079 A 
ATOM      4  C4' 950 d   1      43.050  -2.099  34.042  0.00  0.00    -0.048 A 
ATOM      5  C5' 950 d   1      43.220  -0.915  33.343  0.00  0.00     0.102 A 
ATOM      6  C6' 950 d   1      43.418  -0.957  31.957  0.00  0.00     0.113 A 
ATOM      7  H8  950 d   1      43.302  -4.329  31.505  0.00  0.00     0.085 H 
ATOM      8  H9  950 d   1      42.944  -4.224  33.947  0.00  0.00     0.083 H 
ATOM      9  H10 950 d   1      42.893  -2.073  35.114  0.00  0.00     0.087 H 
ENDROOT
BRANCH   1  10
ATOM     10  C8  950 d   1      43.654  -2.277  29.877  0.00  0.00     0.142 A 
ATOM     11  N3  950 d   1      43.759  -1.226  29.123  0.00  0.00    -0.338 N 
ATOM     12  C4  950 d   1      43.902  -1.637  27.917  0.00  0.00     0.066 A 
ATOM     13  H7  950 d   1      43.732  -0.245  29.435  0.00  0.00     0.167 HD
ATOM     14  C3  950 d   1      44.059  -0.957  26.743  0.00  0.00    -0.017 A 
ATOM     15  C5  950 d   1      43.881  -2.973  27.982  0.00  0.00     0.087 A 
ATOM     16  C2  950 d   1      44.201  -1.681  25.563  0.00  0.00     0.132 A 
ATOM     17  H1  950 d   1      44.073   0.127  26.731  0.00  0.00     0.091 H 
ATOM     18  C1  950 d   1      44.188  -3.102  25.585  0.00  0.00     0.048 A 
ATOM     19  F2  950 d   1      44.326  -0.935  24.375  0.00  0.00    -0.205 F 
ATOM     20  C6  950 d   1      44.020  -3.747  26.838  0.00  0.00    -0.036 A 
ATOM     21  H2  950 d   1      44.001  -4.829  26.901  0.00  0.00     0.088 H 
ATOM     22  N4  950 d   1      43.723  -3.417  29.205  0.00  0.00    -0.228 NA
BRANCH  18  23
ATOM     23  C7  950 d   1      44.340  -3.852  24.387  0.00  0.00     0.105 C 
ATOM     24  N2  950 d   1      44.906  -3.274  23.369  0.00  0.00    -0.385 N 
ATOM     25  H5  950 d   1      45.214  -2.294  23.439  0.00  0.00     0.157 HD
ATOM     26  H6  950 d   1      45.046  -3.796  22.492  0.00  0.00     0.157 HD
BRANCH  23  27
ATOM     27  N1  950 d   1      43.951  -5.106  24.282  0.00  0.00    -0.385 N 
ATOM     28  H3  950 d   1      44.080  -5.613  23.395  0.00  0.00     0.157 HD
ATOM     29  H4  950 d   1      43.518  -5.580  25.087  0.00  0.00     0.157 HD
ENDBRANCH  23  27
ENDBRANCH  18  23
ENDBRANCH   1  10
BRANCH   6  30
ATOM     30  O6' 950 d   1      43.546   0.241  31.289  0.00  0.00    -0.357 OA
ATOM     31  H11 950 d   1      44.294   0.716  31.633  0.00  0.00     0.217 HD
ENDBRANCH   6  30
BRANCH   5  32
ATOM     32  O5' 950 d   1      43.238   0.299  34.016  0.00  0.00    -0.348 OA
BRANCH  32  33
ATOM     33  C10 950 d   1      43.324   0.470  35.448  0.00  0.00     0.029 C 
ATOM     34  H12 950 d   1      44.069  -0.239  35.839  0.00  0.00     0.075 H 
ATOM     35  H13 950 d   1      42.340   0.246  35.885  0.00  0.00     0.075 H 
BRANCH  33  36
ATOM     36  C20 950 d   1      43.753   1.959  35.895  0.00  0.00    -0.040 C 
ATOM     37  H14 950 d   1      42.855   2.494  36.238  0.00  0.00     0.042 H 
BRANCH  36  38
ATOM     38  C30 950 d   1      44.792   1.884  37.050  0.00  0.00    -0.071 C 
ATOM     39  H15 950 d   1      45.081   2.902  37.350  0.00  0.00     0.028 H 
ATOM     40  H16 950 d   1      45.682   1.337  36.707  0.00  0.00     0.028 H 
ATOM     41  H17 950 d   1      44.348   1.360  37.909  0.00  0.00     0.028 H 
ENDBRANCH  36  38
BRANCH  36  42
ATOM     42  C40 950 d   1      44.399   2.744  34.773  0.00  0.00    -0.071 C 
ATOM     43  H18 950 d   1      43.697   2.823  33.930  0.00  0.00     0.028 H 
ATOM     44  H19 950 d   1      45.312   2.228  34.443  0.00  0.00     0.028 H 
ATOM     45  H20 950 d   1      44.657   3.752  35.131  0.00  0.00     0.028 H 
ENDBRANCH  36  42
ENDBRANCH  33  36
ENDBRANCH  32  33
ENDBRANCH   5  32
TORSDOF 9
