REMARK  6 active torsions:
REMARK  status: ('A' for Active; 'I' for Inactive)
REMARK    1  A    between atoms: C1_1  and  C7_8 
REMARK    2  A    between atoms: C7_8  and  N1_9 
REMARK    3  A    between atoms: C8_13  and  C1'_14 
REMARK    4  A    between atoms: C5'_18  and  O5'_19 
REMARK    5  A    between atoms: O5'_19  and  C2''_23 
REMARK    6  A    between atoms: C6'_20  and  O6'_21 
ROOT
ATOM      1  C1' 991 d   1      43.193  -1.876  31.281  0.00  0.00     0.027 A 
ATOM      2  C2' 991 d   1      43.012  -3.013  32.098  0.00  0.00    -0.068 A 
ATOM      3  C3' 991 d   1      42.835  -2.862  33.484  0.00  0.00    -0.079 A 
ATOM      4  C4' 991 d   1      42.839  -1.602  34.065  0.00  0.00    -0.048 A 
ATOM      5  C5' 991 d   1      43.017  -0.461  33.280  0.00  0.00     0.103 A 
ATOM      6  C6' 991 d   1      43.192  -0.589  31.884  0.00  0.00     0.111 A 
ATOM      7  H9  991 d   1      43.010  -4.003  31.656  0.00  0.00     0.085 H 
ATOM      8  H10 991 d   1      42.694  -3.739  34.105  0.00  0.00     0.083 H 
ATOM      9  H11 991 d   1      42.703  -1.503  35.136  0.00  0.00     0.087 H 
ENDROOT
BRANCH   1  10
ATOM     10  C8  991 d   1      43.379  -2.017  29.892  0.00  0.00     0.046 A 
ATOM     11  N3  991 d   1      43.354  -1.044  29.003  0.00  0.00    -0.355 N 
ATOM     12  C4  991 d   1      43.519  -1.540  27.805  0.00  0.00     0.044 A 
ATOM     13  H7  991 d   1      43.224  -0.045  29.219  0.00  0.00     0.166 HD
ATOM     14  C3  991 d   1      43.586  -0.895  26.591  0.00  0.00    -0.034 A 
ATOM     15  C5  991 d   1      43.703  -2.879  27.900  0.00  0.00    -0.006 A 
ATOM     16  C2  991 d   1      43.800  -1.663  25.431  0.00  0.00     0.050 A 
ATOM     17  H1  991 d   1      43.476   0.182  26.529  0.00  0.00     0.089 H 
ATOM     18  C1  991 d   1      43.964  -3.075  25.529  0.00  0.00     0.030 A 
ATOM     19 CL2  991 d   1      43.768  -0.659  23.952  0.00  0.00    -0.083 Cl
ATOM     20  C6  991 d   1      43.914  -3.688  26.789  0.00  0.00    -0.056 A 
ATOM     21  H2  991 d   1      44.036  -4.760  26.894  0.00  0.00     0.086 H 
ATOM     22  CN4 991 d   1      43.597  -3.206  29.218  0.00  0.00    -0.044 A 
ATOM     23  H8  991 d   1      43.669  -4.202  29.653  0.00  0.00     0.088 H 
BRANCH  18  24
ATOM     24  C7  991 d   1      44.215  -3.847  24.376  0.00  0.00     0.104 C 
ATOM     25  N2  991 d   1      44.963  -3.272  23.465  0.00  0.00    -0.385 N 
ATOM     26  H5  991 d   1      45.318  -2.317  23.618  0.00  0.00     0.157 HD
ATOM     27  H6  991 d   1      45.196  -3.775  22.597  0.00  0.00     0.157 HD
BRANCH  24  28
ATOM     28  N1  991 d   1      43.733  -5.068  24.234  0.00  0.00    -0.385 N 
ATOM     29  H3  991 d   1      43.935  -5.605  23.379  0.00  0.00     0.157 HD
ATOM     30  H4  991 d   1      43.155  -5.483  24.978  0.00  0.00     0.157 HD
ENDBRANCH  24  28
ENDBRANCH  18  24
ENDBRANCH   1  10
BRANCH   6  31
ATOM     31  O6' 991 d   1      43.353   0.556  31.118  0.00  0.00    -0.357 OA
ATOM     32  H12 991 d   1      42.587   1.109  31.213  0.00  0.00     0.217 HD
ENDBRANCH   6  31
BRANCH   5  33
ATOM     33  O5' 991 d   1      43.055   0.811  33.823  0.00  0.00    -0.343 OA
BRANCH  33  34
ATOM     34  C2' 991 d   1      43.128   1.088  35.221  0.00  0.00     0.045 C 
ATOM     35  C3' 991 d   1      44.585   1.181  35.684  0.00  0.00    -0.040 C 
ATOM     36  C4' 991 d   1      44.864   2.623  35.992  0.00  0.00    -0.063 C 
ATOM     37  H16 991 d   1      45.257   0.830  34.887  0.00  0.00     0.036 H 
ATOM     38  H17 991 d   1      44.733   0.568  36.585  0.00  0.00     0.036 H 
ATOM     39  C5' 991 d   1      43.538   3.319  36.027  0.00  0.00    -0.063 C 
ATOM     40  H18 991 d   1      45.502   3.061  35.210  0.00  0.00     0.033 H 
ATOM     41  H19 991 d   1      45.365   2.712  36.967  0.00  0.00     0.033 H 
ATOM     42  C1' 991 d   1      42.523   2.450  35.340  0.00  0.00    -0.040 C 
ATOM     43  H20 991 d   1      43.612   4.285  35.506  0.00  0.00     0.033 H 
ATOM     44  H21 991 d   1      43.235   3.488  37.071  0.00  0.00     0.033 H 
ATOM     45  H13 991 d   1      42.295   2.851  34.342  0.00  0.00     0.036 H 
ATOM     46  H14 991 d   1      41.600   2.403  35.936  0.00  0.00     0.036 H 
ATOM     47  H15 991 d   1      42.580   0.338  35.810  0.00  0.00     0.084 H 
ENDBRANCH  33  34
ENDBRANCH   5  33
TORSDOF 6
