REMARK  7 active torsions:
REMARK  status: ('A' for Active; 'I' for Inactive)
REMARK    1  A    between atoms: C1_1  and  C7_8 
REMARK    2  A    between atoms: C7_8  and  N1_9 
REMARK    3  A    between atoms: C1'_14  and  C8_13 
REMARK    4  A    between atoms: O5'_21  and  C5'_18 
REMARK    5  A    between atoms: C6'_19  and  O6'_20 
REMARK    6  A    between atoms: C6''_27  and  O5'_21 
REMARK    7  A    between atoms: C1''_22  and  C1A_28 
ROOT
ATOM      1  C1' CR9 d   1      43.042  -1.840  31.398  0.00  0.00     0.046 A 
ATOM      2  C2' CR9 d   1      42.888  -2.947  32.242  0.00  0.00    -0.066 A 
ATOM      3  C3' CR9 d   1      42.641  -2.779  33.607  0.00  0.00    -0.079 A 
ATOM      4  C4' CR9 d   1      42.549  -1.514  34.142  0.00  0.00    -0.048 A 
ATOM      5  C5' CR9 d   1      42.695  -0.375  33.348  0.00  0.00     0.103 A 
ATOM      6  C6' CR9 d   1      42.947  -0.540  31.959  0.00  0.00     0.113 A 
ATOM      7  H8  CR9 d   1      42.961  -3.947  31.831  0.00  0.00     0.085 H 
ATOM      8  H9  CR9 d   1      42.522  -3.647  34.246  0.00  0.00     0.083 H 
ATOM      9  H10 CR9 d   1      42.359  -1.400  35.203  0.00  0.00     0.087 H 
ENDROOT
BRANCH   5  10
ATOM     10  O5' CR9 d   1      42.577   0.877  33.960  0.00  0.00    -0.343 OA
BRANCH  10  11
ATOM     11  C6' CR9 d   1      43.161   1.236  35.230  0.00  0.00     0.048 C 
ATOM     12  C1' CR9 d   1      42.488   2.505  35.822  0.00  0.00    -0.032 C 
ATOM     13  C2' CR9 d   1      43.153   2.944  37.192  0.00  0.00    -0.060 C 
ATOM     14  H12 CR9 d   1      42.550   3.327  35.094  0.00  0.00     0.043 H 
ATOM     15  C3' CR9 d   1      44.658   3.124  37.036  0.00  0.00    -0.065 C 
ATOM     16  H13 CR9 d   1      42.960   2.170  37.950  0.00  0.00     0.033 H 
ATOM     17  H14 CR9 d   1      42.709   3.896  37.519  0.00  0.00     0.033 H 
ATOM     18  C4' CR9 d   1      45.258   1.844  36.380  0.00  0.00    -0.063 C 
ATOM     19  H15 CR9 d   1      45.115   3.280  38.024  0.00  0.00     0.033 H 
ATOM     20  H16 CR9 d   1      44.861   3.996  36.396  0.00  0.00     0.033 H 
ATOM     21  C5' CR9 d   1      44.632   1.595  34.973  0.00  0.00    -0.040 C 
ATOM     22  H17 CR9 d   1      45.051   0.978  37.025  0.00  0.00     0.033 H 
ATOM     23  H18 CR9 d   1      46.346   1.970  36.273  0.00  0.00     0.033 H 
ATOM     24  H19 CR9 d   1      45.146   0.765  34.466  0.00  0.00     0.036 H 
ATOM     25  H20 CR9 d   1      44.703   2.503  34.356  0.00  0.00     0.036 H 
ATOM     26  H21 CR9 d   1      43.077   0.396  35.936  0.00  0.00     0.084 H 
BRANCH  12  27
ATOM     27  C1A CR9 d   1      41.050   2.180  36.136  0.00  0.00    -0.070 C 
ATOM     28  H22 CR9 d   1      40.557   3.069  36.557  0.00  0.00     0.028 H 
ATOM     29  H23 CR9 d   1      41.011   1.358  36.866  0.00  0.00     0.028 H 
ATOM     30  H24 CR9 d   1      40.533   1.876  35.214  0.00  0.00     0.028 H 
ENDBRANCH  12  27
ENDBRANCH  10  11
ENDBRANCH   5  10
BRANCH   6  31
ATOM     31  O6' CR9 d   1      43.096   0.559  31.123  0.00  0.00    -0.357 OA
ATOM     32  H11 CR9 d   1      42.302   1.081  31.143  0.00  0.00     0.217 HD
ENDBRANCH   6  31
BRANCH   1  33
ATOM     33  C8  CR9 d   1      43.289  -2.036  30.017  0.00  0.00     0.142 A 
ATOM     34  N3  CR9 d   1      43.337  -1.043  29.181  0.00  0.00    -0.338 N 
ATOM     35  C4  CR9 d   1      43.514  -1.532  28.006  0.00  0.00     0.066 A 
ATOM     36  H7  CR9 d   1      43.249  -0.044  29.417  0.00  0.00     0.167 HD
ATOM     37  C3  CR9 d   1      43.649  -0.939  26.768  0.00  0.00    -0.017 A 
ATOM     38  C5  CR9 d   1      43.569  -2.863  28.186  0.00  0.00     0.087 A 
ATOM     39  C2  CR9 d   1      43.839  -1.762  25.662  0.00  0.00     0.132 A 
ATOM     40  H1  CR9 d   1      43.608   0.139  26.660  0.00  0.00     0.091 H 
ATOM     41  C1  CR9 d   1      43.903  -3.169  25.814  0.00  0.00     0.048 A 
ATOM     42  F2  CR9 d   1      43.935  -1.180  24.420  0.00  0.00    -0.205 F 
ATOM     43  C6  CR9 d   1      43.767  -3.718  27.095  0.00  0.00    -0.036 A 
ATOM     44  H2  CR9 d   1      43.814  -4.791  27.240  0.00  0.00     0.088 H 
ATOM     45  N4  CR9 d   1      43.428  -3.225  29.450  0.00  0.00    -0.228 NA
BRANCH  41  46
ATOM     46  C7  CR9 d   1      44.107  -4.007  24.708  0.00  0.00     0.105 C 
ATOM     47  N2  CR9 d   1      44.742  -3.508  23.668  0.00  0.00    -0.385 N 
ATOM     48  H5  CR9 d   1      45.064  -2.530  23.682  0.00  0.00     0.157 HD
ATOM     49  H6  CR9 d   1      44.917  -4.096  22.841  0.00  0.00     0.157 HD
BRANCH  46  50
ATOM     50  N1  CR9 d   1      43.687  -5.255  24.711  0.00  0.00    -0.385 N 
ATOM     51  H3  CR9 d   1      43.847  -5.854  23.889  0.00  0.00     0.157 HD
ATOM     52  H4  CR9 d   1      43.199  -5.632  25.536  0.00  0.00     0.157 HD
ENDBRANCH  46  50
ENDBRANCH  41  46
ENDBRANCH   1  33
TORSDOF 7
