REMARK  8 active torsions:
REMARK  status: ('A' for Active; 'I' for Inactive)
REMARK    1  A    between atoms: C1_1  and  C7_7 
REMARK    2  A    between atoms: C7_7  and  N1_8 
REMARK    3  A    between atoms: C8_12  and  C1'_13 
REMARK    4  A    between atoms: C3'_15  and  C31'_16 
REMARK    5  A    between atoms: C31'_16  and  C32'_17 
REMARK    6  A    between atoms: C31'_16  and  C42'_20 
REMARK    7  A    between atoms: C42'_20  and  C43'_21 
REMARK    8  A    between atoms: C6'_26  and  O6'_27 
ROOT
ATOM      1  C1' 847 d   1      43.022  -1.646  32.005  0.00  0.00     0.045 A 
ATOM      2  C2' 847 d   1      42.579  -2.715  32.811  0.00  0.00    -0.060 A 
ATOM      3  C3' 847 d   1      42.303  -2.571  34.178  0.00  0.00    -0.041 A 
ATOM      4  C4' 847 d   1      42.485  -1.300  34.756  0.00  0.00    -0.056 A 
ATOM      5  C5' 847 d   1      42.924  -0.200  34.005  0.00  0.00     0.045 A 
ATOM      6  C6' 847 d   1      43.183  -0.390  32.639  0.00  0.00     0.097 A 
ATOM      7 BR5' 847 d   1      43.181   1.571  34.851  0.00  0.00    -0.048 Br
ATOM      8  H9  847 d   1      42.446  -3.689  32.354  0.00  0.00     0.086 H 
ATOM      9  H13 847 d   1      42.280  -1.168  35.812  0.00  0.00     0.086 H 
ENDROOT
BRANCH   1  10
ATOM     10  C8  847 d   1      43.293  -1.819  30.626  0.00  0.00     0.142 A 
ATOM     11  N3  847 d   1      43.744  -0.852  29.895  0.00  0.00    -0.338 N 
ATOM     12  C4  847 d   1      43.914  -1.346  28.722  0.00  0.00     0.062 A 
ATOM     13  H8  847 d   1      43.929   0.117  30.193  0.00  0.00     0.167 HD
ATOM     14  C3  847 d   1      44.373  -0.760  27.573  0.00  0.00    -0.054 A 
ATOM     15  C5  847 d   1      43.543  -2.633  28.799  0.00  0.00     0.086 A 
ATOM     16  C2  847 d   1      44.452  -1.581  26.446  0.00  0.00    -0.067 A 
ATOM     17  H2  847 d   1      44.660   0.285  27.540  0.00  0.00     0.087 H 
ATOM     18  C1  847 d   1      44.071  -2.959  26.471  0.00  0.00     0.009 A 
ATOM     19  H1  847 d   1      44.816  -1.157  25.517  0.00  0.00     0.085 H 
ATOM     20  C6  847 d   1      43.598  -3.489  27.706  0.00  0.00    -0.039 A 
ATOM     21  H3  847 d   1      43.291  -4.525  27.790  0.00  0.00     0.088 H 
ATOM     22  N4  847 d   1      43.136  -2.977  30.004  0.00  0.00    -0.228 NA
BRANCH  18  23
ATOM     23  C7  847 d   1      44.175  -3.746  25.323  0.00  0.00     0.102 C 
ATOM     24  N2  847 d   1      44.489  -3.174  24.179  0.00  0.00    -0.385 N 
ATOM     25  H6  847 d   1      44.658  -2.159  24.140  0.00  0.00     0.157 HD
ATOM     26  H7  847 d   1      44.565  -3.742  23.323  0.00  0.00     0.157 HD
BRANCH  23  27
ATOM     27  N1  847 d   1      43.953  -5.033  25.411  0.00  0.00    -0.385 N 
ATOM     28  H4  847 d   1      44.026  -5.627  24.573  0.00  0.00     0.157 HD
ATOM     29  H5  847 d   1      43.705  -5.452  26.319  0.00  0.00     0.157 HD
ENDBRANCH  23  27
ENDBRANCH  18  23
ENDBRANCH   1  10
BRANCH   6  30
ATOM     30  O6' 847 d   1      43.594   0.695  31.901  0.00  0.00    -0.358 OA
ATOM     31  H14 847 d   1      44.406   1.033  32.261  0.00  0.00     0.217 HD
ENDBRANCH   6  30
BRANCH   3  32
ATOM     32  C31 847 d   1      41.770  -3.838  34.955  0.00  0.00     0.065 C 
ATOM     33  H10 847 d   1      42.342  -4.716  34.621  0.00  0.00     0.065 H 
BRANCH  32  34
ATOM     34  C32 847 d   1      40.278  -4.005  34.462  0.00  0.00     0.182 C 
ATOM     35  O33 847 d   1      40.001  -4.984  33.793  0.00  0.00    -0.647 OA
ATOM     36  O34 847 d   1      39.444  -3.162  34.734  0.00  0.00    -0.647 OA
ENDBRANCH  32  34
BRANCH  32  37
ATOM     37  C42 847 d   1      41.959  -3.757  36.578  0.00  0.00     0.032 C 
ATOM     38  H11 847 d   1      40.969  -3.907  37.033  0.00  0.00     0.051 H 
ATOM     39  H12 847 d   1      42.323  -2.747  36.818  0.00  0.00     0.051 H 
BRANCH  37  40
ATOM     40  C43 847 d   1      42.960  -4.800  37.255  0.00  0.00     0.173 C 
ATOM     41  O44 847 d   1      43.159  -5.906  36.788  0.00  0.00    -0.648 OA
ATOM     42  O45 847 d   1      43.551  -4.473  38.274  0.00  0.00    -0.648 OA
ENDBRANCH  37  40
ENDBRANCH  32  37
ENDBRANCH   3  32
TORSDOF 8
