REMARK  11 active torsions:
REMARK  status: ('A' for Active; 'I' for Inactive)
REMARK    1  A    between atoms: C1_1  and  C7_7 
REMARK    2  A    between atoms: C7_7  and  N1_8 
REMARK    3  A    between atoms: C8_12  and  C1'_13 
REMARK    4  A    between atoms: C3'_15  and  C31'_16 
REMARK    5  A    between atoms: C31'_16  and  C32'_17 
REMARK    6  A    between atoms: C31'_16  and  C42'_20 
REMARK    7  A    between atoms: C42'_20  and  C43'_21 
REMARK    8  A    between atoms: C5'_25  and  C1''_28 
REMARK    9  A    between atoms: C6'_26  and  O6'_27 
REMARK   10  A    between atoms: C2''_29  and  O2''_34 
REMARK   11  A    between atoms: O2''_34  and  CME_35 
ROOT
ATOM      1  C1' 312 d   1      43.249  -2.092  31.619  0.00  0.00     0.044 A 
ATOM      2  C2' 312 d   1      42.892  -3.229  32.365  0.00  0.00    -0.060 A 
ATOM      3  C3' 312 d   1      42.623  -3.166  33.734  0.00  0.00    -0.041 A 
ATOM      4  C4' 312 d   1      42.720  -1.960  34.372  0.00  0.00    -0.062 A 
ATOM      5  C5' 312 d   1      43.073  -0.816  33.724  0.00  0.00     0.011 A 
ATOM      6  C6' 312 d   1      43.329  -0.875  32.348  0.00  0.00     0.090 A 
ATOM      7  H9  312 d   1      42.823  -4.186  31.861  0.00  0.00     0.086 H 
ATOM      8  H13 312 d   1      42.508  -1.913  35.434  0.00  0.00     0.085 H 
ENDROOT
BRANCH   1   9
ATOM      9  C8  312 d   1      43.526  -2.169  30.219  0.00  0.00     0.142 A 
ATOM     10  N3  312 d   1      43.927  -1.147  29.527  0.00  0.00    -0.338 N 
ATOM     11  C4  312 d   1      44.112  -1.570  28.321  0.00  0.00     0.062 A 
ATOM     12  H8  312 d   1      44.070  -0.187  29.872  0.00  0.00     0.167 HD
ATOM     13  C3  312 d   1      44.524  -0.907  27.185  0.00  0.00    -0.054 A 
ATOM     14  C5  312 d   1      43.789  -2.872  28.325  0.00  0.00     0.086 A 
ATOM     15  C2  312 d   1      44.594  -1.659  25.997  0.00  0.00    -0.067 A 
ATOM     16  H2  312 d   1      44.782   0.146  27.205  0.00  0.00     0.087 H 
ATOM     17  C1  312 d   1      44.279  -3.053  25.951  0.00  0.00     0.009 A 
ATOM     18  H1  312 d   1      44.898  -1.163  25.083  0.00  0.00     0.085 H 
ATOM     19  C6  312 d   1      43.859  -3.665  27.173  0.00  0.00    -0.039 A 
ATOM     20  H3  312 d   1      43.601  -4.717  27.207  0.00  0.00     0.088 H 
ATOM     21  N4  312 d   1      43.413  -3.296  29.520  0.00  0.00    -0.228 NA
BRANCH  17  22
ATOM     22  C7  312 d   1      44.353  -3.773  24.740  0.00  0.00     0.102 C 
ATOM     23  N2  312 d   1      44.865  -3.200  23.667  0.00  0.00    -0.385 N 
ATOM     24  H6  312 d   1      45.207  -2.229  23.715  0.00  0.00     0.157 HD
ATOM     25  H7  312 d   1      44.923  -3.723  22.782  0.00  0.00     0.157 HD
BRANCH  22  26
ATOM     26  N1  312 d   1      43.912  -5.016  24.690  0.00  0.00    -0.385 N 
ATOM     27  H4  312 d   1      43.964  -5.546  23.808  0.00  0.00     0.157 HD
ATOM     28  H5  312 d   1      43.516  -5.456  25.533  0.00  0.00     0.157 HD
ENDBRANCH  22  26
ENDBRANCH  17  22
ENDBRANCH   1   9
BRANCH   6  29
ATOM     29  O6' 312 d   1      43.626   0.298  31.668  0.00  0.00    -0.359 OA
ATOM     30  H14 312 d   1      44.408   0.689  32.040  0.00  0.00     0.217 HD
ENDBRANCH   6  29
BRANCH   3  31
ATOM     31  C31 312 d   1      42.229  -4.439  34.527  0.00  0.00     0.065 C 
ATOM     32  H10 312 d   1      42.878  -5.271  34.216  0.00  0.00     0.065 H 
BRANCH  31  33
ATOM     33  C32 312 d   1      40.786  -4.723  34.064  0.00  0.00     0.182 C 
ATOM     34  O33 312 d   1      40.687  -5.497  33.119  0.00  0.00    -0.647 OA
ATOM     35  O34 312 d   1      39.860  -4.165  34.637  0.00  0.00    -0.647 OA
ENDBRANCH  31  33
BRANCH  31  36
ATOM     36  C42 312 d   1      42.380  -4.292  36.148  0.00  0.00     0.032 C 
ATOM     37  H11 312 d   1      41.371  -4.303  36.586  0.00  0.00     0.051 H 
ATOM     38  H12 312 d   1      42.861  -3.325  36.358  0.00  0.00     0.051 H 
BRANCH  36  39
ATOM     39  C43 312 d   1      43.228  -5.421  36.850  0.00  0.00     0.173 C 
ATOM     40  O44 312 d   1      43.069  -6.588  36.512  0.00  0.00    -0.648 OA
ATOM     41  O45 312 d   1      44.024  -5.080  37.724  0.00  0.00    -0.648 OA
ENDBRANCH  36  39
ENDBRANCH  31  36
ENDBRANCH   3  31
BRANCH   5  42
ATOM     42  C1' 312 d   1      43.248   0.309  34.525  0.00  0.00     0.010 A 
ATOM     43  C2' 312 d   1      42.211   0.956  35.249  0.00  0.00     0.079 A 
ATOM     44  C3' 312 d   1      42.503   2.076  36.045  0.00  0.00    -0.050 A 
ATOM     45  C4' 312 d   1      43.788   2.562  36.131  0.00  0.00    -0.080 A 
ATOM     46  H15 312 d   1      41.708   2.563  36.598  0.00  0.00     0.087 H 
ATOM     47  C5' 312 d   1      44.812   1.956  35.443  0.00  0.00    -0.082 A 
ATOM     48  H16 312 d   1      43.994   3.430  36.747  0.00  0.00     0.083 H 
ATOM     49  C6' 312 d   1      44.546   0.833  34.644  0.00  0.00    -0.069 A 
ATOM     50  H17 312 d   1      45.822   2.344  35.517  0.00  0.00     0.083 H 
ATOM     51  H18 312 d   1      45.360   0.360  34.107  0.00  0.00     0.085 H 
BRANCH  43  52
ATOM     52  O2' 312 d   1      40.908   0.489  35.184  0.00  0.00    -0.355 OA
BRANCH  52  53
ATOM     53  CME 312 d   1      39.783   1.326  35.489  0.00  0.00     0.010 C 
ATOM     54  H19 312 d   1      38.854   0.749  35.371  0.00  0.00     0.066 H 
ATOM     55  H20 312 d   1      39.769   2.186  34.803  0.00  0.00     0.066 H 
ATOM     56  H21 312 d   1      39.863   1.685  36.526  0.00  0.00     0.066 H 
ENDBRANCH  52  53
ENDBRANCH  43  52
ENDBRANCH   5  42
TORSDOF 11
