REMARK  9 active torsions:
REMARK  status: ('A' for Active; 'I' for Inactive)
REMARK    1  A    between atoms: C1_1  and  C7_7 
REMARK    2  A    between atoms: C7_7  and  N1_8 
REMARK    3  A    between atoms: C8_12  and  C1'_13 
REMARK    4  A    between atoms: C3'_15  and  C31'_16 
REMARK    5  A    between atoms: C31'_16  and  C32'_17 
REMARK    6  A    between atoms: C31'_16  and  C42'_20 
REMARK    7  A    between atoms: C42'_20  and  C43'_21 
REMARK    8  A    between atoms: C5'_25  and  C1''_28 
REMARK    9  A    between atoms: C6'_26  and  O6'_27 
ROOT
ATOM      1  C1' 693 d   1      42.999  -1.984  31.601  0.00  0.00     0.044 A 
ATOM      2  C2' 693 d   1      42.679  -3.093  32.396  0.00  0.00    -0.060 A 
ATOM      3  C3' 693 d   1      42.455  -3.014  33.778  0.00  0.00    -0.041 A 
ATOM      4  C4' 693 d   1      42.566  -1.772  34.374  0.00  0.00    -0.062 A 
ATOM      5  C5' 693 d   1      42.888  -0.619  33.655  0.00  0.00     0.012 A 
ATOM      6  C6' 693 d   1      43.093  -0.729  32.271  0.00  0.00     0.090 A 
ATOM      7  H9  693 d   1      42.601  -4.062  31.918  0.00  0.00     0.086 H 
ATOM      8  H13 693 d   1      42.397  -1.690  35.441  0.00  0.00     0.085 H 
ENDROOT
BRANCH   1   9
ATOM      9  C8  693 d   1      43.215  -2.120  30.209  0.00  0.00     0.142 A 
ATOM     10  N3  693 d   1      43.508  -1.099  29.471  0.00  0.00    -0.338 N 
ATOM     11  C4  693 d   1      43.696  -1.569  28.290  0.00  0.00     0.062 A 
ATOM     12  H8  693 d   1      43.576  -0.115  29.768  0.00  0.00     0.167 HD
ATOM     13  C3  693 d   1      44.026  -0.921  27.125  0.00  0.00    -0.054 A 
ATOM     14  C5  693 d   1      43.508  -2.893  28.369  0.00  0.00     0.086 A 
ATOM     15  C2  693 d   1      44.166  -1.715  25.988  0.00  0.00    -0.067 A 
ATOM     16  H2  693 d   1      44.170   0.153  27.091  0.00  0.00     0.087 H 
ATOM     17  C1  693 d   1      43.979  -3.132  26.009  0.00  0.00     0.009 A 
ATOM     18  H1  693 d   1      44.427  -1.239  25.050  0.00  0.00     0.085 H 
ATOM     19  C6  693 d   1      43.637  -3.722  27.260  0.00  0.00    -0.039 A 
ATOM     20  H3  693 d   1      43.481  -4.791  27.345  0.00  0.00     0.088 H 
ATOM     21  N4  693 d   1      43.193  -3.287  29.591  0.00  0.00    -0.228 NA
BRANCH  17  22
ATOM     22  C7  693 d   1      44.143  -3.881  24.829  0.00  0.00     0.102 C 
ATOM     23  N2  693 d   1      44.619  -3.272  23.754  0.00  0.00    -0.385 N 
ATOM     24  H6  693 d   1      44.858  -2.271  23.793  0.00  0.00     0.157 HD
ATOM     25  H7  693 d   1      44.751  -3.800  22.879  0.00  0.00     0.157 HD
BRANCH  22  26
ATOM     26  N1  693 d   1      43.829  -5.162  24.809  0.00  0.00    -0.385 N 
ATOM     27  H4  693 d   1      43.950  -5.708  23.944  0.00  0.00     0.157 HD
ATOM     28  H5  693 d   1      43.463  -5.616  25.658  0.00  0.00     0.157 HD
ENDBRANCH  22  26
ENDBRANCH  17  22
ENDBRANCH   1   9
BRANCH   6  29
ATOM     29  O6' 693 d   1      43.360   0.441  31.578  0.00  0.00    -0.359 OA
ATOM     30  H14 693 d   1      43.480   0.242  30.657  0.00  0.00     0.217 HD
ENDBRANCH   6  29
BRANCH   3  31
ATOM     31  C31 693 d   1      42.081  -4.306  34.559  0.00  0.00     0.065 C 
ATOM     32  H10 693 d   1      42.648  -5.159  34.158  0.00  0.00     0.065 H 
BRANCH  31  33
ATOM     33  C32 693 d   1      40.576  -4.484  34.251  0.00  0.00     0.182 C 
ATOM     34  O33 693 d   1      40.254  -5.317  33.419  0.00  0.00    -0.647 OA
ATOM     35  O34 693 d   1      39.788  -3.772  34.842  0.00  0.00    -0.647 OA
ENDBRANCH  31  33
BRANCH  31  36
ATOM     36  C42 693 d   1      42.382  -4.210  36.126  0.00  0.00     0.032 C 
ATOM     37  H11 693 d   1      41.420  -4.080  36.644  0.00  0.00     0.051 H 
ATOM     38  H12 693 d   1      43.011  -3.323  36.292  0.00  0.00     0.051 H 
BRANCH  36  39
ATOM     39  C43 693 d   1      43.111  -5.440  36.776  0.00  0.00     0.173 C 
ATOM     40  O44 693 d   1      42.980  -6.555  36.293  0.00  0.00    -0.648 OA
ATOM     41  O45 693 d   1      43.797  -5.222  37.774  0.00  0.00    -0.648 OA
ENDBRANCH  36  39
ENDBRANCH  31  36
ENDBRANCH   3  31
BRANCH   5  42
ATOM     42  C1' 693 d   1      43.041   0.586  34.341  0.00  0.00     0.015 A 
ATOM     43  C2' 693 d   1      44.277   1.260  34.335  0.00  0.00     0.127 A 
ATOM     44  C3' 693 d   1      44.449   2.428  35.045  0.00  0.00    -0.045 A 
ATOM     45  F2' 693 d   1      45.369   0.773  33.592  0.00  0.00    -0.205 F 
ATOM     46  C4' 693 d   1      43.399   2.967  35.781  0.00  0.00    -0.080 A 
ATOM     47  H15 693 d   1      45.409   2.930  35.030  0.00  0.00     0.088 H 
ATOM     48  C5' 693 d   1      42.174   2.332  35.796  0.00  0.00    -0.082 A 
ATOM     49  H16 693 d   1      43.543   3.884  36.342  0.00  0.00     0.083 H 
ATOM     50  C6' 693 d   1      41.999   1.156  35.086  0.00  0.00    -0.069 A 
ATOM     51  H17 693 d   1      41.351   2.753  36.362  0.00  0.00     0.083 H 
ATOM     52  H18 693 d   1      41.033   0.664  35.107  0.00  0.00     0.085 H 
ENDBRANCH   5  42
TORSDOF 9
