REMARK  4 active torsions:
REMARK  status: ('A' for Active; 'I' for Inactive)
REMARK    1  A    between atoms: C1_1  and  C7_7 
REMARK    2  A    between atoms: C7_7  and  N1_8 
REMARK    3  A    between atoms: C8_12  and  C1'_13 
REMARK    4  A    between atoms: C6'_18  and  O6'_19 
ROOT
ATOM      1  C1  801 d   1      44.075  -3.037  26.307  0.00  0.00     0.009 A 
ATOM      2  C2  801 d   1      44.531  -1.703  26.361  0.00  0.00    -0.067 A 
ATOM      3  C3  801 d   1      44.453  -0.955  27.522  0.00  0.00    -0.054 A 
ATOM      4  C4  801 d   1      43.922  -1.551  28.616  0.00  0.00     0.062 A 
ATOM      5  C5  801 d   1      43.464  -2.817  28.613  0.00  0.00     0.086 A 
ATOM      6  C6  801 d   1      43.521  -3.606  27.464  0.00  0.00    -0.039 A 
ATOM      7  N3  801 d   1      43.736  -1.106  29.805  0.00  0.00    -0.337 N 
ATOM      8  N4  801 d   1      42.994  -3.173  29.783  0.00  0.00    -0.227 NA
ATOM      9  C8  801 d   1      43.202  -2.066  30.484  0.00  0.00     0.160 A 
ATOM     10  H1  801 d   1      44.953  -1.253  25.470  0.00  0.00     0.085 H 
ATOM     11  H2  801 d   1      44.804   0.070  27.555  0.00  0.00     0.087 H 
ATOM     12  H3  801 d   1      43.150  -4.625  27.465  0.00  0.00     0.088 H 
ATOM     13  H8  801 d   1      43.968  -0.164  30.151  0.00  0.00     0.167 HD
ENDROOT
BRANCH   9  14
ATOM     14  C1' 801 d   1      42.929  -1.929  31.837  0.00  0.00     0.135 A 
ATOM     15  N2' 801 d   1      42.689  -3.030  32.521  0.00  0.00    -0.254 NA
ATOM     16  C3' 801 d   1      42.426  -3.045  33.806  0.00  0.00     0.003 A 
ATOM     17  C4' 801 d   1      42.388  -1.853  34.510  0.00  0.00    -0.063 A 
ATOM     18  H9  801 d   1      42.240  -3.985  34.314  0.00  0.00     0.114 H 
ATOM     19  C5' 801 d   1      42.637  -0.651  33.837  0.00  0.00    -0.047 A 
ATOM     20  H10 801 d   1      42.168  -1.851  35.571  0.00  0.00     0.085 H 
ATOM     21  C6' 801 d   1      42.915  -0.671  32.472  0.00  0.00     0.098 A 
ATOM     22  H11 801 d   1      42.614   0.290  34.375  0.00  0.00     0.087 H 
BRANCH  21  23
ATOM     23  O6' 801 d   1      43.160   0.519  31.786  0.00  0.00    -0.358 OA
ATOM     24  H12 801 d   1      43.915   0.953  32.166  0.00  0.00     0.217 HD
ENDBRANCH  21  23
ENDBRANCH   9  14
BRANCH   1  25
ATOM     25  C7  801 d   1      44.193  -3.766  25.109  0.00  0.00     0.102 C 
ATOM     26  N2  801 d   1      44.581  -3.124  24.014  0.00  0.00    -0.385 N 
ATOM     27  H6  801 d   1      44.786  -2.115  24.054  0.00  0.00     0.157 HD
ATOM     28  H7  801 d   1      44.677  -3.634  23.125  0.00  0.00     0.157 HD
BRANCH  25  29
ATOM     29  N1  801 d   1      43.918  -5.058  25.110  0.00  0.00    -0.385 N 
ATOM     30  H4  801 d   1      44.001  -5.603  24.240  0.00  0.00     0.157 HD
ATOM     31  H5  801 d   1      43.621  -5.521  25.981  0.00  0.00     0.157 HD
ENDBRANCH  25  29
ENDBRANCH   1  25
TORSDOF 4
