REMARK  4 active torsions:
REMARK  status: ('A' for Active; 'I' for Inactive)
REMARK    1  A    between atoms: C1_1  and  C7_7 
REMARK    2  A    between atoms: C7_7  and  N1_8 
REMARK    3  A    between atoms: C8_12  and  C1'_13 
REMARK    4  A    between atoms: C6'_19  and  O6'_20 
ROOT
ATOM      1  C1  802 d   1      44.302  -2.861  26.663  0.00  0.00     0.009 A 
ATOM      2  C2  802 d   1      44.786  -1.524  26.637  0.00  0.00    -0.067 A 
ATOM      3  C3  802 d   1      44.788  -0.741  27.796  0.00  0.00    -0.054 A 
ATOM      4  C4  802 d   1      44.312  -1.293  28.967  0.00  0.00     0.062 A 
ATOM      5  C5  802 d   1      43.769  -2.526  29.009  0.00  0.00     0.086 A 
ATOM      6  C6  802 d   1      43.758  -3.351  27.863  0.00  0.00    -0.039 A 
ATOM      7  N3  802 d   1      44.181  -0.783  30.153  0.00  0.00    -0.338 N 
ATOM      8  N4  802 d   1      43.378  -2.840  30.231  0.00  0.00    -0.228 NA
ATOM      9  C8  802 d   1      43.625  -1.709  30.887  0.00  0.00     0.142 A 
ATOM     10  H1  802 d   1      45.158  -1.107  25.708  0.00  0.00     0.085 H 
ATOM     11  H2  802 d   1      45.156   0.278  27.774  0.00  0.00     0.087 H 
ATOM     12  H3  802 d   1      43.336  -4.348  27.908  0.00  0.00     0.088 H 
ATOM     13  H8  802 d   1      44.459   0.162  30.455  0.00  0.00     0.167 HD
ENDROOT
BRANCH   9  14
ATOM     14  C1' 802 d   1      43.344  -1.526  32.239  0.00  0.00     0.046 A 
ATOM     15  C2' 802 d   1      42.984  -2.594  33.067  0.00  0.00    -0.029 A 
ATOM     16  C3' 802 d   1      42.692  -2.363  34.407  0.00  0.00     0.117 A 
ATOM     17  H9  802 d   1      42.933  -3.599  32.665  0.00  0.00     0.089 H 
ATOM     18  F3' 802 d   1      42.325  -3.391  35.251  0.00  0.00    -0.206 F 
ATOM     19  C4' 802 d   1      42.742  -1.077  34.914  0.00  0.00    -0.043 A 
ATOM     20  C5' 802 d   1      43.070  -0.001  34.086  0.00  0.00    -0.047 A 
ATOM     21  H10 802 d   1      42.525  -0.903  35.962  0.00  0.00     0.088 H 
ATOM     22  C6' 802 d   1      43.378  -0.231  32.764  0.00  0.00     0.079 A 
ATOM     23  H11 802 d   1      43.082   1.008  34.482  0.00  0.00     0.087 H 
BRANCH  22  24
ATOM     24  O6' 802 d   1      43.707   0.832  31.957  0.00  0.00    -0.360 OA
ATOM     25  H12 802 d   1      43.892   0.517  31.080  0.00  0.00     0.217 HD
ENDBRANCH  22  24
ENDBRANCH   9  14
BRANCH   1  26
ATOM     26  C7  802 d   1      44.311  -3.616  25.479  0.00  0.00     0.102 C 
ATOM     27  N2  802 d   1      44.553  -3.078  24.305  0.00  0.00    -0.385 N 
ATOM     28  H6  802 d   1      44.703  -2.062  24.225  0.00  0.00     0.157 HD
ATOM     29  H7  802 d   1      44.593  -3.672  23.465  0.00  0.00     0.157 HD
BRANCH  26  30
ATOM     30  N1  802 d   1      44.131  -4.904  25.511  0.00  0.00    -0.385 N 
ATOM     31  H4  802 d   1      44.140  -5.447  24.636  0.00  0.00     0.157 HD
ATOM     32  H5  802 d   1      43.980  -5.381  26.412  0.00  0.00     0.157 HD
ENDBRANCH  26  30
ENDBRANCH   1  26
TORSDOF 4
