REMARK  10 active torsions:
REMARK  status: ('A' for Active; 'I' for Inactive)
REMARK    1  A    between atoms: C1_1  and  C7_7 
REMARK    2  A    between atoms: C7_7  and  N1_8 
REMARK    3  A    between atoms: C8_12  and  C1'_13 
REMARK    4  A    between atoms: C3'_15  and  C31'_16 
REMARK    5  A    between atoms: C31'_16  and  C32'_17 
REMARK    6  A    between atoms: C31'_16  and  C42'_20 
REMARK    7  A    between atoms: C42'_20  and  C43'_21 
REMARK    8  A    between atoms: C5'_25  and  C1''_28 
REMARK    9  A    between atoms: C6'_26  and  O6'_27 
REMARK   10  A    between atoms: C2''_29  and  N2''_34 
ROOT
ATOM      1  C1' 607 d   1      43.422  -1.902  31.869  0.00  0.00     0.044 A 
ATOM      2  C2' 607 d   1      43.104  -3.006  32.671  0.00  0.00    -0.060 A 
ATOM      3  C3' 607 d   1      42.843  -2.880  34.028  0.00  0.00    -0.041 A 
ATOM      4  C4' 607 d   1      42.911  -1.636  34.589  0.00  0.00    -0.062 A 
ATOM      5  C5' 607 d   1      43.222  -0.496  33.867  0.00  0.00     0.011 A 
ATOM      6  C6' 607 d   1      43.475  -0.655  32.508  0.00  0.00     0.090 A 
ATOM      7  H9  607 d   1      43.060  -3.990  32.217  0.00  0.00     0.086 H 
ATOM      8  H13 607 d   1      42.712  -1.537  35.650  0.00  0.00     0.085 H 
ENDROOT
BRANCH   1   9
ATOM      9  C8  607 d   1      43.684  -2.019  30.488  0.00  0.00     0.142 A 
ATOM     10  N3  607 d   1      44.109  -1.035  29.759  0.00  0.00    -0.338 N 
ATOM     11  C4  607 d   1      44.235  -1.502  28.566  0.00  0.00     0.062 A 
ATOM     12  H8  607 d   1      44.306  -0.073  30.071  0.00  0.00     0.167 HD
ATOM     13  C3  607 d   1      44.652  -0.896  27.416  0.00  0.00    -0.054 A 
ATOM     14  C5  607 d   1      43.874  -2.776  28.626  0.00  0.00     0.086 A 
ATOM     15  C2  607 d   1      44.684  -1.696  26.261  0.00  0.00    -0.067 A 
ATOM     16  H2  607 d   1      44.943   0.148  27.395  0.00  0.00     0.087 H 
ATOM     17  C1  607 d   1      44.304  -3.064  26.271  0.00  0.00     0.009 A 
ATOM     18  H1  607 d   1      45.011  -1.252  25.328  0.00  0.00     0.085 H 
ATOM     19  C6  607 d   1      43.885  -3.605  27.514  0.00  0.00    -0.039 A 
ATOM     20  H3  607 d   1      43.581  -4.642  27.593  0.00  0.00     0.088 H 
ATOM     21  N4  607 d   1      43.512  -3.148  29.846  0.00  0.00    -0.228 NA
BRANCH  17  22
ATOM     22  C7  607 d   1      44.350  -3.836  25.079  0.00  0.00     0.102 C 
ATOM     23  N2  607 d   1      44.568  -3.223  23.940  0.00  0.00    -0.385 N 
ATOM     24  H6  607 d   1      44.703  -2.202  23.922  0.00  0.00     0.157 HD
ATOM     25  H7  607 d   1      44.604  -3.763  23.063  0.00  0.00     0.157 HD
BRANCH  22  26
ATOM     26  N1  607 d   1      44.178  -5.140  25.096  0.00  0.00    -0.385 N 
ATOM     27  H4  607 d   1      44.216  -5.676  24.217  0.00  0.00     0.157 HD
ATOM     28  H5  607 d   1      44.005  -5.625  25.988  0.00  0.00     0.157 HD
ENDBRANCH  22  26
ENDBRANCH  17  22
ENDBRANCH   1   9
BRANCH   6  29
ATOM     29  O6' 607 d   1      43.780   0.447  31.746  0.00  0.00    -0.359 OA
ATOM     30  H14 607 d   1      44.566   0.858  32.086  0.00  0.00     0.217 HD
ENDBRANCH   6  29
BRANCH   3  31
ATOM     31  C31 607 d   1      42.467  -4.125  34.870  0.00  0.00     0.065 C 
ATOM     32  H10 607 d   1      43.011  -5.002  34.489  0.00  0.00     0.065 H 
BRANCH  31  33
ATOM     33  C32 607 d   1      40.958  -4.298  34.642  0.00  0.00     0.182 C 
ATOM     34  O33 607 d   1      40.599  -5.104  33.806  0.00  0.00    -0.647 OA
ATOM     35  O34 607 d   1      40.203  -3.612  35.300  0.00  0.00    -0.647 OA
ENDBRANCH  31  33
BRANCH  31  36
ATOM     36  C42 607 d   1      42.783  -3.981  36.433  0.00  0.00     0.032 C 
ATOM     37  H11 607 d   1      41.839  -3.758  36.952  0.00  0.00     0.051 H 
ATOM     38  H12 607 d   1      43.480  -3.140  36.563  0.00  0.00     0.051 H 
BRANCH  36  39
ATOM     39  C43 607 d   1      43.421  -5.251  37.109  0.00  0.00     0.173 C 
ATOM     40  O44 607 d   1      43.200  -6.353  36.628  0.00  0.00    -0.648 OA
ATOM     41  O45 607 d   1      44.120  -5.080  38.109  0.00  0.00    -0.648 OA
ENDBRANCH  36  39
ENDBRANCH  31  36
ENDBRANCH   3  31
BRANCH   5  42
ATOM     42  C1' 607 d   1      43.279   0.733  34.544  0.00  0.00     0.010 A 
ATOM     43  C2' 607 d   1      44.474   1.440  34.703  0.00  0.00     0.114 A 
ATOM     44  C3' 607 d   1      44.557   2.635  35.404  0.00  0.00    -0.050 A 
ATOM     45  C4' 607 d   1      43.429   3.178  35.974  0.00  0.00    -0.081 A 
ATOM     46  H15 607 d   1      45.511   3.140  35.502  0.00  0.00     0.087 H 
ATOM     47  C5' 607 d   1      42.216   2.523  35.841  0.00  0.00    -0.082 A 
ATOM     48  H16 607 d   1      43.489   4.111  36.523  0.00  0.00     0.083 H 
ATOM     49  C6' 607 d   1      42.143   1.317  35.135  0.00  0.00    -0.070 A 
ATOM     50  H17 607 d   1      41.322   2.945  36.285  0.00  0.00     0.083 H 
ATOM     51  H18 607 d   1      41.185   0.819  35.041  0.00  0.00     0.084 H 
BRANCH  43  52
ATOM     52  N2' 607 d   1      45.628   1.083  34.203  0.00  0.00    -0.115 N 
ATOM     53  HN2 607 d   1      46.325   1.783  34.215  0.00  0.00    -0.532 OA
ATOM     54  HN2 607 d   1      45.562   0.561  33.377  0.00  0.00    -0.532 OA
ENDBRANCH  43  52
ENDBRANCH   5  42
TORSDOF 10
