REMARK  8 active torsions:
REMARK  status: ('A' for Active; 'I' for Inactive)
REMARK    1  A    between atoms: C1_1  and  C7_7 
REMARK    2  A    between atoms: C7_7  and  N1_8 
REMARK    3  A    between atoms: C8_12  and  C1'_13 
REMARK    4  A    between atoms: C3'_15  and  C31'_16 
REMARK    5  A    between atoms: C31'_16  and  C32'_17 
REMARK    6  A    between atoms: C32'_17  and  N33'_18 
REMARK    7  A    between atoms: C5'_20  and  C1''_23 
REMARK    8  A    between atoms: C6'_21  and  O6'_22 
ROOT
ATOM      1  C1' 653 d   1      43.009  -1.840  31.818  0.00  0.00     0.044 A 
ATOM      2  C2' 653 d   1      42.656  -2.971  32.593  0.00  0.00    -0.060 A 
ATOM      3  C3' 653 d   1      42.406  -2.887  33.964  0.00  0.00    -0.055 A 
ATOM      4  C4' 653 d   1      42.506  -1.643  34.575  0.00  0.00    -0.063 A 
ATOM      5  C5' 653 d   1      42.849  -0.484  33.872  0.00  0.00     0.009 A 
ATOM      6  C6' 653 d   1      43.094  -0.605  32.498  0.00  0.00     0.090 A 
ATOM      7  H9  653 d   1      42.577  -3.936  32.105  0.00  0.00     0.086 H 
ATOM      8  H17 653 d   1      42.310  -1.568  35.639  0.00  0.00     0.085 H 
ENDROOT
BRANCH   1   9
ATOM      9  C8  653 d   1      43.256  -1.952  30.426  0.00  0.00     0.142 A 
ATOM     10  N3  653 d   1      43.652  -0.951  29.699  0.00  0.00    -0.338 N 
ATOM     11  C4  653 d   1      43.817  -1.434  28.514  0.00  0.00     0.062 A 
ATOM     12  H8  653 d   1      43.802   0.021  30.004  0.00  0.00     0.167 HD
ATOM     13  C3  653 d   1      44.231  -0.821  27.373  0.00  0.00    -0.054 A 
ATOM     14  C5  653 d   1      43.517  -2.750  28.575  0.00  0.00     0.086 A 
ATOM     15  C2  653 d   1      44.333  -1.625  26.242  0.00  0.00    -0.067 A 
ATOM     16  H2  653 d   1      44.469   0.236  27.346  0.00  0.00     0.087 H 
ATOM     17  C1  653 d   1      44.022  -3.031  26.234  0.00  0.00     0.009 A 
ATOM     18  H1  653 d   1      44.665  -1.168  25.317  0.00  0.00     0.085 H 
ATOM     19  C6  653 d   1      43.591  -3.604  27.467  0.00  0.00    -0.039 A 
ATOM     20  H3  653 d   1      43.332  -4.654  27.543  0.00  0.00     0.088 H 
ATOM     21  N4  653 d   1      43.150  -3.116  29.790  0.00  0.00    -0.228 NA
BRANCH  17  22
ATOM     22  C7  653 d   1      44.153  -3.791  25.043  0.00  0.00     0.102 C 
ATOM     23  N2  653 d   1      44.495  -3.164  23.927  0.00  0.00    -0.385 N 
ATOM     24  H6  653 d   1      44.664  -2.148  23.938  0.00  0.00     0.157 HD
ATOM     25  H7  653 d   1      44.592  -3.693  23.048  0.00  0.00     0.157 HD
BRANCH  22  26
ATOM     26  N1  653 d   1      43.929  -5.095  25.062  0.00  0.00    -0.385 N 
ATOM     27  H4  653 d   1      44.024  -5.646  24.197  0.00  0.00     0.157 HD
ATOM     28  H5  653 d   1      43.660  -5.559  25.942  0.00  0.00     0.157 HD
ENDBRANCH  22  26
ENDBRANCH  17  22
ENDBRANCH   1   9
BRANCH   6  29
ATOM     29  O6' 653 d   1      43.433   0.529  31.809  0.00  0.00    -0.359 OA
ATOM     30  H18 653 d   1      44.231   0.893  32.174  0.00  0.00     0.217 HD
ENDBRANCH   6  29
BRANCH   3  31
ATOM     31  C31 653 d   1      42.043  -4.149  34.816  0.00  0.00    -0.019 C 
ATOM     32  H10 653 d   1      42.239  -3.930  35.876  0.00  0.00     0.042 H 
ATOM     33  H11 653 d   1      42.675  -4.989  34.492  0.00  0.00     0.042 H 
BRANCH  31  34
ATOM     34  C32 653 d   1      40.537  -4.558  34.655  0.00  0.00     0.083 C 
ATOM     35  H12 653 d   1      40.262  -4.537  33.590  0.00  0.00     0.075 H 
ATOM     36  H13 653 d   1      39.903  -3.852  35.211  0.00  0.00     0.075 H 
BRANCH  34  37
ATOM     37  N33 653 d   1      40.338  -5.959  35.203  0.00  0.00    -0.079 N 
ATOM     38  H14 653 d   1      39.371  -6.225  35.101  0.00  0.00     0.274 HD
ATOM     39  H15 653 d   1      40.591  -5.977  36.179  0.00  0.00     0.274 HD
ATOM     40  H16 653 d   1      40.920  -6.605  34.693  0.00  0.00     0.274 HD
ENDBRANCH  34  37
ENDBRANCH  31  34
ENDBRANCH   3  31
BRANCH   5  41
ATOM     41  C1' 653 d   1      42.928   0.728  34.573  0.00  0.00    -0.023 A 
ATOM     42  C2' 653 d   1      44.121   1.467  34.685  0.00  0.00    -0.072 A 
ATOM     43  C3' 653 d   1      44.173   2.663  35.421  0.00  0.00    -0.082 A 
ATOM     44  H19 653 d   1      45.017   1.106  34.194  0.00  0.00     0.084 H 
ATOM     45  C4' 653 d   1      43.042   3.158  36.062  0.00  0.00    -0.083 A 
ATOM     46  H20 653 d   1      45.108   3.208  35.490  0.00  0.00     0.083 H 
ATOM     47  C5' 653 d   1      41.845   2.445  35.966  0.00  0.00    -0.082 A 
ATOM     48  H21 653 d   1      43.089   4.082  36.627  0.00  0.00     0.083 H 
ATOM     49  C6' 653 d   1      41.792   1.251  35.228  0.00  0.00    -0.072 A 
ATOM     50  H22 653 d   1      40.955   2.814  36.462  0.00  0.00     0.083 H 
ATOM     51  H23 653 d   1      40.852   0.716  35.159  0.00  0.00     0.084 H 
ENDBRANCH   5  41
TORSDOF 8
