REMARK  5 active torsions:
REMARK  status: ('A' for Active; 'I' for Inactive)
REMARK    1  A    between atoms: C1_1  and  C7_7 
REMARK    2  A    between atoms: C7_7  and  N1_8 
REMARK    3  A    between atoms: C8_12  and  C1'_13 
REMARK    4  A    between atoms: C5'_17  and  C1''_20 
REMARK    5  A    between atoms: C6'_18  and  O6'_19 
ROOT
ATOM      1  C1' 780 d   1      43.112  -1.869  31.745  0.00  0.00     0.044 A 
ATOM      2  C2' 780 d   1      42.784  -2.994  32.520  0.00  0.00    -0.067 A 
ATOM      3  C3' 780 d   1      42.522  -2.893  33.883  0.00  0.00    -0.081 A 
ATOM      4  C4' 780 d   1      42.584  -1.672  34.503  0.00  0.00    -0.070 A 
ATOM      5  C5' 780 d   1      42.904  -0.501  33.806  0.00  0.00     0.008 A 
ATOM      6  C6' 780 d   1      43.162  -0.630  32.426  0.00  0.00     0.090 A 
ATOM      7  H9  780 d   1      42.734  -3.966  32.044  0.00  0.00     0.085 H 
ATOM      8  H10 780 d   1      42.269  -3.779  34.454  0.00  0.00     0.083 H 
ATOM      9  H11 780 d   1      42.379  -1.611  35.566  0.00  0.00     0.085 H 
ENDROOT
BRANCH   1  10
ATOM     10  C8  780 d   1      43.375  -1.984  30.360  0.00  0.00     0.142 A 
ATOM     11  N3  780 d   1      43.748  -1.006  29.628  0.00  0.00    -0.338 N 
ATOM     12  C4  780 d   1      43.898  -1.466  28.444  0.00  0.00     0.062 A 
ATOM     13  H8  780 d   1      43.899  -0.034  29.933  0.00  0.00     0.167 HD
ATOM     14  C3  780 d   1      44.286  -0.845  27.284  0.00  0.00    -0.054 A 
ATOM     15  C5  780 d   1      43.613  -2.775  28.511  0.00  0.00     0.086 A 
ATOM     16  C2  780 d   1      44.373  -1.648  26.143  0.00  0.00    -0.067 A 
ATOM     17  H2  780 d   1      44.514   0.214  27.254  0.00  0.00     0.087 H 
ATOM     18  C1  780 d   1      44.074  -3.045  26.144  0.00  0.00     0.009 A 
ATOM     19  H1  780 d   1      44.683  -1.188  25.212  0.00  0.00     0.085 H 
ATOM     20  C6  780 d   1      43.683  -3.618  27.389  0.00  0.00    -0.039 A 
ATOM     21  H3  780 d   1      43.447  -4.673  27.468  0.00  0.00     0.088 H 
ATOM     22  N4  780 d   1      43.267  -3.146  29.733  0.00  0.00    -0.228 NA
BRANCH  18  23
ATOM     23  C7  780 d   1      44.190  -3.791  24.955  0.00  0.00     0.102 C 
ATOM     24  N2  780 d   1      44.574  -3.168  23.856  0.00  0.00    -0.385 N 
ATOM     25  H6  780 d   1      44.785  -2.160  23.882  0.00  0.00     0.157 HD
ATOM     26  H7  780 d   1      44.662  -3.690  22.972  0.00  0.00     0.157 HD
BRANCH  23  27
ATOM     27  N1  780 d   1      43.918  -5.075  24.934  0.00  0.00    -0.385 N 
ATOM     28  H4  780 d   1      44.008  -5.606  24.056  0.00  0.00     0.157 HD
ATOM     29  H5  780 d   1      43.615  -5.551  25.795  0.00  0.00     0.157 HD
ENDBRANCH  23  27
ENDBRANCH  18  23
ENDBRANCH   1  10
BRANCH   6  30
ATOM     30  O6' 780 d   1      43.460   0.501  31.704  0.00  0.00    -0.359 OA
ATOM     31  H12 780 d   1      44.242   0.906  32.060  0.00  0.00     0.217 HD
ENDBRANCH   6  30
BRANCH   5  32
ATOM     32  C1' 780 d   1      42.964   0.715  34.511  0.00  0.00    -0.023 A 
ATOM     33  C2' 780 d   1      44.112   1.522  34.509  0.00  0.00    -0.072 A 
ATOM     34  C3' 780 d   1      44.181   2.708  35.232  0.00  0.00    -0.082 A 
ATOM     35  H13 780 d   1      44.971   1.211  33.926  0.00  0.00     0.084 H 
ATOM     36  C4' 780 d   1      43.096   3.122  35.977  0.00  0.00    -0.083 A 
ATOM     37  H14 780 d   1      45.085   3.306  35.210  0.00  0.00     0.083 H 
ATOM     38  C5' 780 d   1      41.946   2.358  36.005  0.00  0.00    -0.082 A 
ATOM     39  H15 780 d   1      43.146   4.047  36.540  0.00  0.00     0.083 H 
ATOM     40  C6' 780 d   1      41.883   1.172  35.281  0.00  0.00    -0.072 A 
ATOM     41  H16 780 d   1      41.093   2.682  36.591  0.00  0.00     0.083 H 
ATOM     42  H17 780 d   1      40.973   0.584  35.312  0.00  0.00     0.084 H 
ENDBRANCH   5  32
TORSDOF 5
