REMARK  5 active torsions:
REMARK  status: ('A' for Active; 'I' for Inactive)
REMARK    1  A    between atoms: C1_1  and  C7_7 
REMARK    2  A    between atoms: C7_7  and  N1_8 
REMARK    3  A    between atoms: C8_12  and  C1'_13 
REMARK    4  A    between atoms: C3'_15  and  C31'_16 
REMARK    5  A    between atoms: C6'_19  and  O6'_20 
ROOT
ATOM      1  C1  907 d   1      44.244  -3.037  25.883  0.00  0.00     0.008 A 
ATOM      2  C2  907 d   1      44.646  -1.687  26.003  0.00  0.00    -0.067 A 
ATOM      3  C3  907 d   1      44.572  -1.007  27.214  0.00  0.00    -0.055 A 
ATOM      4  C4  907 d   1      44.101  -1.669  28.318  0.00  0.00     0.043 A 
ATOM      5  C5  907 d   1      43.697  -2.957  28.246  0.00  0.00    -0.006 A 
ATOM      6  C6  907 d   1      43.747  -3.692  27.054  0.00  0.00    -0.057 A 
ATOM      7  N3  907 d   1      43.957  -1.239  29.544  0.00  0.00    -0.355 N 
ATOM      8  CN4 907 d   1      43.292  -3.310  29.509  0.00  0.00    -0.044 A 
ATOM      9  C8  907 d   1      43.481  -2.182  30.307  0.00  0.00     0.046 A 
ATOM     10  H1  907 d   1      45.022  -1.168  25.128  0.00  0.00     0.085 H 
ATOM     11  H2  907 d   1      44.882   0.029  27.284  0.00  0.00     0.087 H 
ATOM     12  H3  907 d   1      43.419  -4.725  27.020  0.00  0.00     0.086 H 
ATOM     13  H8  907 d   1      44.188  -0.287  29.863  0.00  0.00     0.166 HD
ATOM     14  H9  907 d   1      42.902  -4.276  29.825  0.00  0.00     0.088 H 
ENDROOT
BRANCH   9  15
ATOM     15  C1' 907 d   1      43.264  -2.047  31.700  0.00  0.00     0.026 A 
ATOM     16  C2' 907 d   1      42.916  -3.161  32.483  0.00  0.00    -0.062 A 
ATOM     17  C3' 907 d   1      42.707  -3.025  33.878  0.00  0.00    -0.060 A 
ATOM     18  H10 907 d   1      42.806  -4.133  32.016  0.00  0.00     0.085 H 
ATOM     19  C4' 907 d   1      42.837  -1.817  34.493  0.00  0.00    -0.058 A 
ATOM     20  C5' 907 d   1      43.174  -0.748  33.736  0.00  0.00     0.045 A 
ATOM     21  H14 907 d   1      42.675  -1.715  35.560  0.00  0.00     0.086 H 
ATOM     22  C6' 907 d   1      43.393  -0.815  32.346  0.00  0.00     0.095 A 
ATOM     23 BR5' 907 d   1      43.362   0.882  34.717  0.00  0.00    -0.048 Br
BRANCH  17  24
ATOM     24  C31 907 d   1      42.343  -4.193  34.761  0.00  0.00    -0.051 C 
ATOM     25  H11 907 d   1      42.233  -3.847  35.799  0.00  0.00     0.033 H 
ATOM     26  H12 907 d   1      43.137  -4.953  34.710  0.00  0.00     0.033 H 
ATOM     27  H13 907 d   1      41.394  -4.631  34.417  0.00  0.00     0.033 H 
ENDBRANCH  17  24
BRANCH  22  28
ATOM     28  O6' 907 d   1      43.722   0.333  31.642  0.00  0.00    -0.358 OA
ATOM     29  H15 907 d   1      43.025   0.971  31.735  0.00  0.00     0.217 HD
ENDBRANCH  22  28
ENDBRANCH   9  15
BRANCH   1  30
ATOM     30  C7  907 d   1      44.352  -3.695  24.609  0.00  0.00     0.102 C 
ATOM     31  N2  907 d   1      44.828  -2.998  23.597  0.00  0.00    -0.385 N 
ATOM     32  H6  907 d   1      45.106  -2.016  23.734  0.00  0.00     0.157 HD
ATOM     33  H7  907 d   1      44.922  -3.435  22.669  0.00  0.00     0.157 HD
BRANCH  30  34
ATOM     34  N1  907 d   1      43.989  -4.960  24.450  0.00  0.00    -0.385 N 
ATOM     35  H4  907 d   1      44.076  -5.409  23.527  0.00  0.00     0.157 HD
ATOM     36  H5  907 d   1      43.620  -5.494  25.250  0.00  0.00     0.157 HD
ENDBRANCH  30  34
ENDBRANCH   1  30
TORSDOF 5
