REMARK  5 active torsions:
REMARK  status: ('A' for Active; 'I' for Inactive)
REMARK    1  A    between atoms: C1_1  and  C7_7 
REMARK    2  A    between atoms: C7_7  and  N1_8 
REMARK    3  A    between atoms: C8_12  and  C1'_13 
REMARK    4  A    between atoms: C3'_15  and  C31'_16 
REMARK    5  A    between atoms: C6'_19  and  O6'_20 
ROOT
ATOM      1  C1  334 d   1      44.198  -3.084  26.099  0.00  0.00     0.009 A 
ATOM      2  C2  334 d   1      44.630  -1.746  26.174  0.00  0.00    -0.067 A 
ATOM      3  C3  334 d   1      44.589  -1.042  27.369  0.00  0.00    -0.054 A 
ATOM      4  C4  334 d   1      44.115  -1.684  28.481  0.00  0.00     0.062 A 
ATOM      5  C5  334 d   1      43.679  -2.955  28.474  0.00  0.00     0.086 A 
ATOM      6  C6  334 d   1      43.705  -3.702  27.284  0.00  0.00    -0.039 A 
ATOM      7  N3  334 d   1      43.977  -1.276  29.682  0.00  0.00    -0.338 N 
ATOM      8  N4  334 d   1      43.269  -3.348  29.667  0.00  0.00    -0.228 NA
ATOM      9  C8  334 d   1      43.479  -2.248  30.387  0.00  0.00     0.142 A 
ATOM     10  H1  334 d   1      45.002  -1.256  25.281  0.00  0.00     0.085 H 
ATOM     11  H2  334 d   1      44.923  -0.012  27.421  0.00  0.00     0.087 H 
ATOM     12  H3  334 d   1      43.357  -4.728  27.268  0.00  0.00     0.088 H 
ATOM     13  H8  334 d   1      44.219  -0.338  30.032  0.00  0.00     0.167 HD
ENDROOT
BRANCH   9  14
ATOM     14  C1' 334 d   1      43.255  -2.095  31.779  0.00  0.00     0.045 A 
ATOM     15  C2' 334 d   1      42.914  -3.190  32.588  0.00  0.00    -0.061 A 
ATOM     16  C3' 334 d   1      42.699  -3.016  33.966  0.00  0.00    -0.060 A 
ATOM     17  H9  334 d   1      42.816  -4.176  32.148  0.00  0.00     0.085 H 
ATOM     18  C4' 334 d   1      42.826  -1.758  34.546  0.00  0.00    -0.058 A 
ATOM     19  C5' 334 d   1      43.169  -0.652  33.762  0.00  0.00     0.045 A 
ATOM     20  H13 334 d   1      42.658  -1.635  35.610  0.00  0.00     0.086 H 
ATOM     21  C6' 334 d   1      43.376  -0.822  32.386  0.00  0.00     0.097 A 
ATOM     22 BR5' 334 d   1      43.427   1.116  34.572  0.00  0.00    -0.048 Br
BRANCH  16  23
ATOM     23  C31 334 d   1      42.324  -4.195  34.877  0.00  0.00    -0.051 C 
ATOM     24  H10 334 d   1      42.204  -3.836  35.910  0.00  0.00     0.033 H 
ATOM     25  H11 334 d   1      43.120  -4.953  34.842  0.00  0.00     0.033 H 
ATOM     26  H12 334 d   1      41.379  -4.640  34.531  0.00  0.00     0.033 H 
ENDBRANCH  16  23
BRANCH  21  27
ATOM     27  O6' 334 d   1      43.672   0.299  31.629  0.00  0.00    -0.358 OA
ATOM     28  H14 334 d   1      44.472   0.696  31.952  0.00  0.00     0.217 HD
ENDBRANCH  21  27
ENDBRANCH   9  14
BRANCH   1  29
ATOM     29  C7  334 d   1      44.269  -3.764  24.858  0.00  0.00     0.102 C 
ATOM     30  N2  334 d   1      44.716  -3.128  23.796  0.00  0.00    -0.385 N 
ATOM     31  H6  334 d   1      45.010  -2.144  23.871  0.00  0.00     0.157 HD
ATOM     32  H7  334 d   1      44.772  -3.615  22.890  0.00  0.00     0.157 HD
BRANCH  29  33
ATOM     33  N1  334 d   1      43.892  -5.021  24.768  0.00  0.00    -0.385 N 
ATOM     34  H4  334 d   1      43.945  -5.511  23.864  0.00  0.00     0.157 HD
ATOM     35  H5  334 d   1      43.543  -5.515  25.602  0.00  0.00     0.157 HD
ENDBRANCH  29  33
ENDBRANCH   1  29
TORSDOF 5
