REMARK  6 active torsions:
REMARK  status: ('A' for Active; 'I' for Inactive)
REMARK    1  A    between atoms: C1_1  and  C7_7 
REMARK    2  A    between atoms: C7_7  and  N1_8 
REMARK    3  A    between atoms: C8_12  and  C1'_13 
REMARK    4  A    between atoms: C3'_15  and  C31'_16 
REMARK    5  A    between atoms: C31'_16  and  C32'_17 
REMARK    6  A    between atoms: C6'_22  and  O6'_23 
ROOT
ATOM      1  C1  678 d   1      43.966  -2.964  26.087  0.00  0.00     0.008 A 
ATOM      2  C2  678 d   1      44.261  -1.578  26.195  0.00  0.00    -0.067 A 
ATOM      3  C3  678 d   1      44.133  -0.865  27.385  0.00  0.00    -0.055 A 
ATOM      4  C4  678 d   1      43.714  -1.562  28.475  0.00  0.00     0.043 A 
ATOM      5  C5  678 d   1      43.409  -2.871  28.459  0.00  0.00    -0.006 A 
ATOM      6  C6  678 d   1      43.524  -3.605  27.279  0.00  0.00    -0.057 A 
ATOM      7  N3  678 d   1      43.503  -1.121  29.702  0.00  0.00    -0.355 N 
ATOM      8  CN4 678 d   1      43.024  -3.190  29.702  0.00  0.00    -0.044 A 
ATOM      9  C8  678 d   1      43.073  -2.081  30.525  0.00  0.00     0.046 A 
ATOM     10  H1  678 d   1      44.601  -1.051  25.311  0.00  0.00     0.085 H 
ATOM     11  H2  678 d   1      44.357   0.194  27.439  0.00  0.00     0.087 H 
ATOM     12  H3  678 d   1      43.278  -4.661  27.269  0.00  0.00     0.086 H 
ATOM     13  H8  678 d   1      43.654  -0.144  29.992  0.00  0.00     0.166 HD
ATOM     14  H9  678 d   1      42.715  -4.185  30.020  0.00  0.00     0.088 H 
ENDROOT
BRANCH   9  15
ATOM     15  C1' 678 d   1      42.918  -1.929  31.939  0.00  0.00     0.026 A 
ATOM     16  C2' 678 d   1      42.648  -3.043  32.792  0.00  0.00    -0.061 A 
ATOM     17  C3' 678 d   1      42.484  -2.941  34.195  0.00  0.00    -0.046 A 
ATOM     18  H10 678 d   1      42.564  -4.024  32.339  0.00  0.00     0.085 H 
ATOM     19  C4' 678 d   1      42.600  -1.682  34.768  0.00  0.00    -0.057 A 
ATOM     20  C5' 678 d   1      42.858  -0.613  33.945  0.00  0.00     0.045 A 
ATOM     21  H13 678 d   1      42.490  -1.546  35.838  0.00  0.00     0.086 H 
ATOM     22  C6' 678 d   1      43.015  -0.710  32.574  0.00  0.00     0.095 A 
ATOM     23 BR5' 678 d   1      43.018   1.149  34.708  0.00  0.00    -0.048 Br
BRANCH  17  24
ATOM     24  C31 678 d   1      42.174  -4.247  34.999  0.00  0.00     0.040 C 
ATOM     25  H11 678 d   1      42.969  -4.975  34.778  0.00  0.00     0.056 H 
ATOM     26  H12 678 d   1      41.209  -4.639  34.645  0.00  0.00     0.056 H 
BRANCH  24  27
ATOM     27  C32 678 d   1      42.088  -4.095  36.522  0.00  0.00     0.176 C 
ATOM     28  O33 678 d   1      41.070  -3.606  36.960  0.00  0.00    -0.648 OA
ATOM     29  O34 678 d   1      43.030  -4.466  37.197  0.00  0.00    -0.648 OA
ENDBRANCH  24  27
ENDBRANCH  17  24
BRANCH  22  30
ATOM     30  O6' 678 d   1      43.245   0.434  31.850  0.00  0.00    -0.358 OA
ATOM     31  H14 678 d   1      44.046   0.845  32.155  0.00  0.00     0.217 HD
ENDBRANCH  22  30
ENDBRANCH   9  15
BRANCH   1  32
ATOM     32  C7  678 d   1      44.117  -3.662  24.851  0.00  0.00     0.102 C 
ATOM     33  N2  678 d   1      44.553  -3.048  23.771  0.00  0.00    -0.385 N 
ATOM     34  H6  678 d   1      44.794  -2.047  23.809  0.00  0.00     0.157 HD
ATOM     35  H7  678 d   1      44.653  -3.568  22.888  0.00  0.00     0.157 HD
BRANCH  32  36
ATOM     36  N1  678 d   1      43.823  -4.943  24.744  0.00  0.00    -0.385 N 
ATOM     37  H4  678 d   1      43.940  -5.425  23.841  0.00  0.00     0.157 HD
ATOM     38  H5  678 d   1      43.476  -5.462  25.563  0.00  0.00     0.157 HD
ENDBRANCH  32  36
ENDBRANCH   1  32
TORSDOF 6
