REMARK  5 active torsions:
REMARK  status: ('A' for Active; 'I' for Inactive)
REMARK    1  A    between atoms: C1_1  and  C7_7 
REMARK    2  A    between atoms: C7_7  and  N1_8 
REMARK    3  A    between atoms: C8_12  and  C1'_13 
REMARK    4  A    between atoms: C5'_17  and  C1''_20 
REMARK    5  A    between atoms: C6'_18  and  O6'_19 
ROOT
ATOM      1  C1' 696 d   1      10.289   7.077  23.812  0.00  0.00     0.025 A 
ATOM      2  C2' 696 d   1       9.905   7.941  24.840  0.00  0.00    -0.068 A 
ATOM      3  C3' 696 d   1      10.083   9.308  24.720  0.00  0.00    -0.081 A 
ATOM      4  C4' 696 d   1      10.651   9.824  23.568  0.00  0.00    -0.070 A 
ATOM      5  C5' 696 d   1      11.055   8.992  22.517  0.00  0.00     0.008 A 
ATOM      6  C6' 696 d   1      10.867   7.608  22.641  0.00  0.00     0.089 A 
ATOM      7  H10 696 d   1       9.462   7.536  25.743  0.00  0.00     0.085 H 
ATOM      8  H11 696 d   1       9.780   9.970  25.523  0.00  0.00     0.083 H 
ATOM      9  H12 696 d   1      10.786  10.896  23.478  0.00  0.00     0.085 H 
ENDROOT
BRANCH   1  10
ATOM     10  C8  696 d   1      10.097   5.697  23.954  0.00  0.00     0.046 A 
ATOM     11  N3  696 d   1      10.473   4.783  23.082  0.00  0.00    -0.355 N 
ATOM     12  C4  696 d   1      10.019   3.607  23.444  0.00  0.00     0.043 A 
ATOM     13  H8  696 d   1      11.039   4.965  22.241  0.00  0.00     0.166 HD
ATOM     14  C3  696 d   1      10.172   2.363  22.870  0.00  0.00    -0.055 A 
ATOM     15  C5  696 d   1       9.315   3.756  24.607  0.00  0.00    -0.006 A 
ATOM     16  C2  696 d   1       9.577   1.257  23.518  0.00  0.00    -0.067 A 
ATOM     17  H2  696 d   1      10.731   2.237  21.950  0.00  0.00     0.087 H 
ATOM     18  C1  696 d   1       8.838   1.408  24.732  0.00  0.00     0.008 A 
ATOM     19  H1  696 d   1       9.684   0.270  23.084  0.00  0.00     0.085 H 
ATOM     20  C6  696 d   1       8.716   2.696  25.272  0.00  0.00    -0.057 A 
ATOM     21  H3  696 d   1       8.165   2.860  26.191  0.00  0.00     0.086 H 
ATOM     22  CN4 696 d   1       9.353   5.068  24.946  0.00  0.00    -0.044 A 
ATOM     23  H9  696 d   1       8.895   5.534  25.817  0.00  0.00     0.088 H 
BRANCH  18  24
ATOM     24  C7  696 d   1       8.246   0.311  25.405  0.00  0.00     0.102 C 
ATOM     25  N2  696 d   1       8.068  -0.827  24.798  0.00  0.00    -0.385 N 
ATOM     26  H6  696 d   1       8.358  -0.938  23.816  0.00  0.00     0.157 HD
ATOM     27  H7  696 d   1       7.637  -1.617  25.300  0.00  0.00     0.157 HD
BRANCH  24  28
ATOM     28  N1  696 d   1       7.869   0.423  26.650  0.00  0.00    -0.385 N 
ATOM     29  H4  696 d   1       7.439  -0.379  27.132  0.00  0.00     0.157 HD
ATOM     30  H5  696 d   1       8.001   1.314  27.150  0.00  0.00     0.157 HD
ENDBRANCH  24  28
ENDBRANCH  18  24
ENDBRANCH   1  10
BRANCH   6  31
ATOM     31  O6' 696 d   1      11.259   6.753  21.638  0.00  0.00    -0.359 OA
ATOM     32  H13 696 d   1      11.057   5.859  21.889  0.00  0.00     0.217 HD
ENDBRANCH   6  31
BRANCH   5  33
ATOM     33  C1' 696 d   1      11.695   9.629  21.447  0.00  0.00    -0.023 A 
ATOM     34  C2' 696 d   1      12.914   9.154  20.983  0.00  0.00    -0.072 A 
ATOM     35  C3' 696 d   1      13.614   9.838  19.982  0.00  0.00    -0.082 A 
ATOM     36  H14 696 d   1      13.329   8.243  21.400  0.00  0.00     0.084 H 
ATOM     37  C4' 696 d   1      13.084  10.998  19.447  0.00  0.00    -0.083 A 
ATOM     38  H15 696 d   1      14.566   9.460  19.628  0.00  0.00     0.083 H 
ATOM     39  C5' 696 d   1      11.865  11.459  19.910  0.00  0.00    -0.082 A 
ATOM     40  H16 696 d   1      13.618  11.539  18.674  0.00  0.00     0.083 H 
ATOM     41  C6' 696 d   1      11.179  10.787  20.892  0.00  0.00    -0.072 A 
ATOM     42  H17 696 d   1      11.444  12.366  19.491  0.00  0.00     0.083 H 
ATOM     43  H18 696 d   1      10.224  11.168  21.236  0.00  0.00     0.084 H 
ENDBRANCH   5  33
TORSDOF 5
