REMARK  7 active torsions:
REMARK  status: ('A' for Active; 'I' for Inactive)
REMARK    1  A    between atoms: C1_1  and  C7_8 
REMARK    2  A    between atoms: C7_8  and  N1_9 
REMARK    3  A    between atoms: C1'_14  and  C8_13 
REMARK    4  A    between atoms: O5'_21  and  C5'_18 
REMARK    5  A    between atoms: C6'_19  and  O6'_20 
REMARK    6  A    between atoms: C6''_27  and  O5'_21 
REMARK    7  A    between atoms: C1''_22  and  C1A_28 
ROOT
ATOM      1  C1' CR9 d   1      10.268   7.003  23.736  0.00  0.00     0.046 A 
ATOM      2  C2' CR9 d   1       9.885   7.886  24.770  0.00  0.00    -0.066 A 
ATOM      3  C3' CR9 d   1      10.131   9.249  24.703  0.00  0.00    -0.079 A 
ATOM      4  C4' CR9 d   1      10.763   9.780  23.595  0.00  0.00    -0.048 A 
ATOM      5  C5' CR9 d   1      11.159   8.931  22.542  0.00  0.00     0.103 A 
ATOM      6  C6' CR9 d   1      10.911   7.578  22.615  0.00  0.00     0.113 A 
ATOM      7  H8  CR9 d   1       9.383   7.486  25.643  0.00  0.00     0.085 H 
ATOM      8  H9  CR9 d   1       9.828   9.896  25.518  0.00  0.00     0.083 H 
ATOM      9  H10 CR9 d   1      10.954  10.845  23.536  0.00  0.00     0.087 H 
ENDROOT
BRANCH   5  10
ATOM     10  O5' CR9 d   1      11.825   9.343  21.397  0.00  0.00    -0.343 OA
BRANCH  10  11
ATOM     11  C6' CR9 d   1      12.711  10.436  21.599  0.00  0.00     0.048 C 
ATOM     12  C1' CR9 d   1      12.186  11.615  20.756  0.00  0.00    -0.032 C 
ATOM     13  C2' CR9 d   1      13.018  11.797  19.491  0.00  0.00    -0.060 C 
ATOM     14  H12 CR9 d   1      12.232  12.538  21.353  0.00  0.00     0.043 H 
ATOM     15  C3' CR9 d   1      14.461  12.143  19.846  0.00  0.00    -0.065 C 
ATOM     16  H13 CR9 d   1      12.588  12.611  18.889  0.00  0.00     0.033 H 
ATOM     17  H14 CR9 d   1      13.002  10.863  18.910  0.00  0.00     0.033 H 
ATOM     18  C4' CR9 d   1      14.959  11.397  21.094  0.00  0.00    -0.063 C 
ATOM     19  H15 CR9 d   1      14.528  13.225  20.032  0.00  0.00     0.033 H 
ATOM     20  H16 CR9 d   1      15.106  11.877  18.996  0.00  0.00     0.033 H 
ATOM     21  C5' CR9 d   1      14.158  10.086  21.266  0.00  0.00    -0.040 C 
ATOM     22  H17 CR9 d   1      14.818  12.032  21.981  0.00  0.00     0.033 H 
ATOM     23  H18 CR9 d   1      16.027  11.161  20.978  0.00  0.00     0.033 H 
ATOM     24  H19 CR9 d   1      14.592   9.492  22.083  0.00  0.00     0.036 H 
ATOM     25  H20 CR9 d   1      14.193   9.506  20.332  0.00  0.00     0.036 H 
ATOM     26  H21 CR9 d   1      12.676  10.722  22.661  0.00  0.00     0.084 H 
BRANCH  12  27
ATOM     27  C1A CR9 d   1      10.724  11.322  20.366  0.00  0.00    -0.070 C 
ATOM     28  H22 CR9 d   1      10.332  12.154  19.763  0.00  0.00     0.028 H 
ATOM     29  H23 CR9 d   1      10.117  11.211  21.276  0.00  0.00     0.028 H 
ATOM     30  H24 CR9 d   1      10.680  10.392  19.780  0.00  0.00     0.028 H 
ENDBRANCH  12  27
ENDBRANCH  10  11
ENDBRANCH   5  10
BRANCH   6  31
ATOM     31  O6' CR9 d   1      11.333   6.845  21.528  0.00  0.00    -0.357 OA
ATOM     32  H11 CR9 d   1      11.122   5.929  21.664  0.00  0.00     0.217 HD
ENDBRANCH   6  31
BRANCH   1  33
ATOM     33  C8  CR9 d   1      10.032   5.618  23.831  0.00  0.00     0.142 A 
ATOM     34  N3  CR9 d   1      10.587   4.779  23.007  0.00  0.00    -0.338 N 
ATOM     35  C4  CR9 d   1      10.172   3.634  23.403  0.00  0.00     0.066 A 
ATOM     36  H7  CR9 d   1      11.215   4.987  22.218  0.00  0.00     0.167 HD
ATOM     37  C3  CR9 d   1      10.453   2.421  22.894  0.00  0.00    -0.017 A 
ATOM     38  C5  CR9 d   1       9.373   3.838  24.463  0.00  0.00     0.087 A 
ATOM     39  C2  CR9 d   1       9.864   1.340  23.539  0.00  0.00     0.132 A 
ATOM     40  H1  CR9 d   1      11.100   2.294  22.033  0.00  0.00     0.091 H 
ATOM     41  C1  CR9 d   1       9.002   1.491  24.677  0.00  0.00     0.048 A 
ATOM     42  F2  CR9 d   1      10.170   0.112  23.030  0.00  0.00    -0.205 F 
ATOM     43  C6  CR9 d   1       8.764   2.812  25.133  0.00  0.00    -0.036 A 
ATOM     44  H2  CR9 d   1       8.121   3.003  25.984  0.00  0.00     0.088 H 
ATOM     45  N4  CR9 d   1       9.253   5.111  24.777  0.00  0.00    -0.228 NA
BRANCH  41  46
ATOM     46  C7  CR9 d   1       8.426   0.382  25.337  0.00  0.00     0.105 C 
ATOM     47  N2  CR9 d   1       8.156  -0.749  24.741  0.00  0.00    -0.385 N 
ATOM     48  H5  CR9 d   1       8.356  -0.863  23.737  0.00  0.00     0.157 HD
ATOM     49  H6  CR9 d   1       7.743  -1.527  25.275  0.00  0.00     0.157 HD
BRANCH  46  50
ATOM     50  N1  CR9 d   1       8.147   0.456  26.607  0.00  0.00    -0.385 N 
ATOM     51  H3  CR9 d   1       7.727  -0.351  27.090  0.00  0.00     0.157 HD
ATOM     52  H4  CR9 d   1       8.346   1.322  27.128  0.00  0.00     0.157 HD
ENDBRANCH  46  50
ENDBRANCH  41  46
ENDBRANCH   1  33
TORSDOF 7
