REMARK  5 active torsions:
REMARK  status: ('A' for Active; 'I' for Inactive)
REMARK    1  A    between atoms: C1_1  and  C7_7 
REMARK    2  A    between atoms: C7_7  and  N1_8 
REMARK    3  A    between atoms: C8_12  and  C1'_13 
REMARK    4  A    between atoms: C5'_17  and  C20_20 
REMARK    5  A    between atoms: C6'_18  and  O6'_19 
ROOT
ATOM      1  C1' 132 d   1      16.466  -3.032  29.830  0.00  0.00     0.025 A 
ATOM      2  C2' 132 d   1      17.522  -3.274  30.730  0.00  0.00    -0.068 A 
ATOM      3  C3' 132 d   1      17.686  -2.552  31.882  0.00  0.00    -0.081 A 
ATOM      4  C4' 132 d   1      16.785  -1.542  32.178  0.00  0.00    -0.070 A 
ATOM      5  C5' 132 d   1      15.702  -1.225  31.335  0.00  0.00     0.008 A 
ATOM      6  C6' 132 d   1      15.569  -2.000  30.164  0.00  0.00     0.089 A 
ATOM      7  H9  132 d   1      18.232  -4.061  30.502  0.00  0.00     0.085 H 
ATOM      8  H10 132 d   1      18.509  -2.768  32.553  0.00  0.00     0.083 H 
ATOM      9  H11 132 d   1      16.918  -0.975  33.092  0.00  0.00     0.085 H 
ENDROOT
BRANCH   1  10
ATOM     10  C8  132 d   1      16.355  -3.852  28.681  0.00  0.00     0.046 A 
ATOM     11  N3  132 d   1      15.313  -3.860  27.841  0.00  0.00    -0.355 N 
ATOM     12  C4  132 d   1      15.429  -4.747  26.872  0.00  0.00     0.044 A 
ATOM     13  H7  132 d   1      14.501  -3.235  27.942  0.00  0.00     0.166 HD
ATOM     14  C3  132 d   1      14.553  -5.059  25.843  0.00  0.00    -0.034 A 
ATOM     15  C5  132 d   1      16.601  -5.350  27.087  0.00  0.00    -0.006 A 
ATOM     16  C2  132 d   1      14.955  -6.096  24.982  0.00  0.00     0.050 A 
ATOM     17  H1  132 d   1      13.614  -4.535  25.710  0.00  0.00     0.089 H 
ATOM     18  C1  132 d   1      16.236  -6.759  25.199  0.00  0.00     0.030 A 
ATOM     19 CL2  132 d   1      13.747  -6.560  23.739  0.00  0.00    -0.083 Cl
ATOM     20  C6  132 d   1      17.017  -6.337  26.269  0.00  0.00    -0.056 A 
ATOM     21  H2  132 d   1      17.976  -6.809  26.448  0.00  0.00     0.086 H 
ATOM     22  C9  132 d   1      17.170  -4.825  28.165  0.00  0.00    -0.044 A 
ATOM     23  H8  132 d   1      18.134  -5.121  28.575  0.00  0.00     0.088 H 
BRANCH  18  24
ATOM     24  C7  132 d   1      16.752  -7.796  24.431  0.00  0.00     0.104 C 
ATOM     25  N2  132 d   1      15.963  -8.422  23.637  0.00  0.00    -0.385 N 
ATOM     26  H5  132 d   1      14.970  -8.154  23.580  0.00  0.00     0.157 HD
ATOM     27  H6  132 d   1      16.322  -9.193  23.056  0.00  0.00     0.157 HD
BRANCH  24  28
ATOM     28  N1  132 d   1      17.997  -8.141  24.495  0.00  0.00    -0.385 N 
ATOM     29  H3  132 d   1      18.348  -8.914  23.912  0.00  0.00     0.157 HD
ATOM     30  H4  132 d   1      18.638  -7.642  25.129  0.00  0.00     0.157 HD
ENDBRANCH  24  28
ENDBRANCH  18  24
ENDBRANCH   1  10
BRANCH   6  31
ATOM     31  O6' 132 d   1      14.514  -1.784  29.303  0.00  0.00    -0.359 OA
ATOM     32  H12 132 d   1      14.575  -2.387  28.571  0.00  0.00     0.217 HD
ENDBRANCH   6  31
BRANCH   5  33
ATOM     33  C20 132 d   1      14.847  -0.154  31.690  0.00  0.00    -0.023 A 
ATOM     34  C21 132 d   1      14.299  -0.039  32.976  0.00  0.00    -0.072 A 
ATOM     35  C22 132 d   1      13.476   1.043  33.357  0.00  0.00    -0.082 A 
ATOM     36  H13 132 d   1      14.516  -0.811  33.706  0.00  0.00     0.084 H 
ATOM     37  C23 132 d   1      13.195   2.028  32.451  0.00  0.00    -0.083 A 
ATOM     38  H14 132 d   1      13.070   1.093  34.361  0.00  0.00     0.083 H 
ATOM     39  C24 132 d   1      13.723   1.937  31.170  0.00  0.00    -0.082 A 
ATOM     40  H15 132 d   1      12.569   2.868  32.729  0.00  0.00     0.083 H 
ATOM     41  C25 132 d   1      14.531   0.872  30.797  0.00  0.00    -0.072 A 
ATOM     42  H16 132 d   1      13.500   2.713  30.447  0.00  0.00     0.083 H 
ATOM     43  H17 132 d   1      14.926   0.836  29.788  0.00  0.00     0.084 H 
ENDBRANCH   5  33
TORSDOF 5
