REMARK  7 active torsions:
REMARK  status: ('A' for Active; 'I' for Inactive)
REMARK    1  A    between atoms: C1_1  and  C7_8 
REMARK    2  A    between atoms: C7_8  and  N1_9 
REMARK    3  A    between atoms: C1'_14  and  C8_13 
REMARK    4  A    between atoms: O5'_21  and  C5'_18 
REMARK    5  A    between atoms: C6'_19  and  O6'_20 
REMARK    6  A    between atoms: C6''_27  and  O5'_21 
REMARK    7  A    between atoms: C1''_22  and  C1A_28 
ROOT
ATOM      1  C1' CR9 d   1      14.817 -13.536  18.215  0.00  0.00     0.046 A 
ATOM      2  C2' CR9 d   1      14.718 -14.904  17.935  0.00  0.00    -0.066 A 
ATOM      3  C3' CR9 d   1      15.406 -15.460  16.864  0.00  0.00    -0.079 A 
ATOM      4  C4' CR9 d   1      16.195 -14.666  16.053  0.00  0.00    -0.048 A 
ATOM      5  C5' CR9 d   1      16.319 -13.297  16.304  0.00  0.00     0.103 A 
ATOM      6  C6' CR9 d   1      15.623 -12.727  17.389  0.00  0.00     0.113 A 
ATOM      7  H8  CR9 d   1      14.098 -15.536  18.561  0.00  0.00     0.085 H 
ATOM      8  H9  CR9 d   1      15.324 -16.522  16.663  0.00  0.00     0.083 H 
ATOM      9  H10 CR9 d   1      16.722 -15.109  15.216  0.00  0.00     0.087 H 
ENDROOT
BRANCH   5  10
ATOM     10  O5' CR9 d   1      17.119 -12.506  15.487  0.00  0.00    -0.343 OA
BRANCH  10  11
ATOM     11  C6' CR9 d   1      18.304 -12.895  14.781  0.00  0.00     0.048 C 
ATOM     12  C1' CR9 d   1      18.314 -12.205  13.337  0.00  0.00    -0.032 C 
ATOM     13  C2' CR9 d   1      19.312 -11.034  13.276  0.00  0.00    -0.060 C 
ATOM     14  H12 CR9 d   1      18.626 -12.965  12.606  0.00  0.00     0.043 H 
ATOM     15  C3' CR9 d   1      20.735 -11.551  13.569  0.00  0.00    -0.065 C 
ATOM     16  H13 CR9 d   1      19.036 -10.278  14.026  0.00  0.00     0.033 H 
ATOM     17  H14 CR9 d   1      19.286 -10.583  12.273  0.00  0.00     0.033 H 
ATOM     18  C4' CR9 d   1      20.770 -12.538  14.800  0.00  0.00    -0.063 C 
ATOM     19  H15 CR9 d   1      21.386 -10.691  13.786  0.00  0.00     0.033 H 
ATOM     20  H16 CR9 d   1      21.110 -12.080  12.680  0.00  0.00     0.033 H 
ATOM     21  C5' CR9 d   1      19.483 -12.431  15.653  0.00  0.00    -0.040 C 
ATOM     22  H17 CR9 d   1      21.637 -12.292  15.430  0.00  0.00     0.033 H 
ATOM     23  H18 CR9 d   1      20.867 -13.569  14.428  0.00  0.00     0.033 H 
ATOM     24  H19 CR9 d   1      19.328 -11.389  15.968  0.00  0.00     0.036 H 
ATOM     25  H20 CR9 d   1      19.568 -13.074  16.541  0.00  0.00     0.036 H 
ATOM     26  H21 CR9 d   1      18.337 -13.988  14.659  0.00  0.00     0.084 H 
BRANCH  12  27
ATOM     27  C1A CR9 d   1      16.921 -11.687  12.929  0.00  0.00    -0.070 C 
ATOM     28  H22 CR9 d   1      16.980 -11.223  11.933  0.00  0.00     0.028 H 
ATOM     29  H23 CR9 d   1      16.578 -10.941  13.661  0.00  0.00     0.028 H 
ATOM     30  H24 CR9 d   1      16.211 -12.527  12.901  0.00  0.00     0.028 H 
ENDBRANCH  12  27
ENDBRANCH  10  11
ENDBRANCH   5  10
BRANCH   6  31
ATOM     31  O6' CR9 d   1      15.714 -11.368  17.651  0.00  0.00    -0.357 OA
ATOM     32  H11 CR9 d   1      15.186 -11.157  18.412  0.00  0.00     0.217 HD
ENDBRANCH   6  31
BRANCH   1  33
ATOM     33  C8  CR9 d   1      14.128 -12.976  19.308  0.00  0.00     0.142 A 
ATOM     34  N3  CR9 d   1      14.214 -11.701  19.621  0.00  0.00    -0.338 N 
ATOM     35  C4  CR9 d   1      13.489 -11.514  20.666  0.00  0.00     0.066 A 
ATOM     36  H7  CR9 d   1      14.761 -10.985  19.121  0.00  0.00     0.167 HD
ATOM     37  C3  CR9 d   1      13.233 -10.390  21.393  0.00  0.00    -0.017 A 
ATOM     38  C5  CR9 d   1      12.961 -12.731  20.977  0.00  0.00     0.087 A 
ATOM     39  C2  CR9 d   1      12.400 -10.512  22.496  0.00  0.00     0.132 A 
ATOM     40  H1  CR9 d   1      13.665  -9.434  21.119  0.00  0.00     0.091 H 
ATOM     41  C1  CR9 d   1      11.823 -11.760  22.869  0.00  0.00     0.048 A 
ATOM     42  F2  CR9 d   1      12.189  -9.371  23.209  0.00  0.00    -0.205 F 
ATOM     43  C6  CR9 d   1      12.120 -12.887  22.080  0.00  0.00    -0.036 A 
ATOM     44  H2  CR9 d   1      11.704 -13.858  22.324  0.00  0.00     0.088 H 
ATOM     45  N4  CR9 d   1      13.345 -13.674  20.140  0.00  0.00    -0.228 NA
BRANCH  41  46
ATOM     46  C7  CR9 d   1      10.969 -11.878  23.993  0.00  0.00     0.105 C 
ATOM     47  N2  CR9 d   1      10.776 -10.874  24.838  0.00  0.00    -0.385 N 
ATOM     48  H5  CR9 d   1      11.254  -9.974  24.686  0.00  0.00     0.157 HD
ATOM     49  H6  CR9 d   1      10.149 -10.994  25.646  0.00  0.00     0.157 HD
BRANCH  46  50
ATOM     50  N1  CR9 d   1      10.346 -13.005  24.218  0.00  0.00    -0.385 N 
ATOM     51  H3  CR9 d   1       9.724 -13.096  25.034  0.00  0.00     0.157 HD
ATOM     52  H4  CR9 d   1      10.477 -13.802  23.579  0.00  0.00     0.157 HD
ENDBRANCH  46  50
ENDBRANCH  41  46
ENDBRANCH   1  33
TORSDOF 7
