REMARK  10 active torsions:
REMARK  status: ('A' for Active; 'I' for Inactive)
REMARK    1  A    between atoms: N2_2  and  C13_9 
REMARK    2  A    between atoms: C5_5  and  C8_6 
REMARK       I    between atoms: C8_6  and  N10_8 
REMARK    3  A    between atoms: C13_9  and  C14_10 
REMARK    4  A    between atoms: C13_9  and  C18_12 
REMARK    5  A    between atoms: C14_10  and  O15_11 
REMARK    6  A    between atoms: C18_12  and  C19_13 
REMARK    7  A    between atoms: C19_13  and  N22_14 
REMARK    8  A    between atoms: C33_21  and  N1_23 
REMARK       I    between atoms: N1_23  and  C2_24 
REMARK       I    between atoms: C2_24  and  N3_26 
REMARK    9  A    between atoms: N3_26  and  C6_27 
REMARK   10  A    between atoms: C6_27  and  C11_29 
ROOT
ATOM      1  N22 FR9 d   1      49.231  57.644  19.236  0.00  0.00    -0.356 N 
ATOM      2  C27 FR9 d   1      48.735  58.810  18.700  0.00  0.00    -0.019 A 
ATOM      3  C28 FR9 d   1      48.268  58.568  17.442  0.00  0.00    -0.056 A 
ATOM      4  C29 FR9 d   1      48.475  57.179  17.226  0.00  0.00    -0.008 A 
ATOM      5  C30 FR9 d   1      49.083  56.652  18.389  0.00  0.00     0.046 A 
ATOM      6  C31 FR9 d   1      48.154  56.337  16.195  0.00  0.00    -0.069 A 
ATOM      7  C32 FR9 d   1      48.446  54.976  16.297  0.00  0.00    -0.056 A 
ATOM      8  C33 FR9 d   1      49.083  54.502  17.447  0.00  0.00     0.038 A 
ATOM      9  C34 FR9 d   1      49.370  55.357  18.479  0.00  0.00    -0.030 A 
ATOM     10  H13 FR9 d   1      48.718  59.776  19.202  0.00  0.00     0.111 H 
ATOM     11  H14 FR9 d   1      47.830  59.286  16.750  0.00  0.00     0.086 H 
ATOM     12  H15 FR9 d   1      47.675  56.726  15.303  0.00  0.00     0.085 H 
ATOM     13  H16 FR9 d   1      48.182  54.296  15.495  0.00  0.00     0.086 H 
ATOM     14  H17 FR9 d   1      49.836  54.973  19.379  0.00  0.00     0.090 H 
ENDROOT
BRANCH   1  15
ATOM     15  C19 FR9 d   1      49.871  57.546  20.530  0.00  0.00     0.002 C 
ATOM     16  H11 FR9 d   1      49.631  58.438  21.128  0.00  0.00     0.065 H 
ATOM     17  H12 FR9 d   1      49.511  56.647  21.052  0.00  0.00     0.065 H 
BRANCH  15  18
ATOM     18  C18 FR9 d   1      51.382  57.453  20.335  0.00  0.00    -0.029 C 
ATOM     19  H9  FR9 d   1      51.596  56.713  19.550  0.00  0.00     0.038 H 
ATOM     20  H10 FR9 d   1      51.763  58.437  20.025  0.00  0.00     0.038 H 
BRANCH  18  21
ATOM     21  C13 FR9 d   1      52.085  57.033  21.613  0.00  0.00     0.039 C 
ATOM     22  H5  FR9 d   1      51.531  57.457  22.463  0.00  0.00     0.076 H 
BRANCH  21  23
ATOM     23  N2  FR9 d   1      52.053  55.575  21.770  0.00  0.00    -0.342 N 
ATOM     24  C1  FR9 d   1      51.984  54.514  20.752  0.00  0.00     0.014 A 
ATOM     25  C5  FR9 d   1      51.766  53.308  21.342  0.00  0.00     0.141 A 
ATOM     26  H1  FR9 d   1      52.092  54.672  19.680  0.00  0.00     0.115 H 
ATOM     27  N4  FR9 d   1      51.638  53.616  22.763  0.00  0.00    -0.237 NA
ATOM     28  C3  FR9 d   1      51.793  54.907  22.885  0.00  0.00     0.067 A 
ATOM     29  H2  FR9 d   1      51.713  55.407  23.849  0.00  0.00     0.143 H 
BRANCH  25  30
ATOM     30  C8  FR9 d   1      51.738  51.964  20.795  0.00  0.00     0.269 C 
ATOM     31  O9  FR9 d   1      51.908  51.920  19.697  0.00  0.00    -0.266 OA
ATOM     32  N10 FR9 d   1      51.415  51.014  21.523  0.00  0.00    -0.365 N 
ATOM     33  H3  FR9 d   1      51.394  50.085  21.153  0.00  0.00     0.159 HD
ATOM     34  H4  FR9 d   1      51.176  51.176  22.480  0.00  0.00     0.159 HD
ENDBRANCH  25  30
ENDBRANCH  21  23
BRANCH  21  35
ATOM     35  C14 FR9 d   1      53.512  57.668  21.627  0.00  0.00     0.036 C 
ATOM     36  H6  FR9 d   1      53.351  58.756  21.608  0.00  0.00     0.077 H 
ATOM     37  H7  FR9 d   1      53.986  57.351  20.686  0.00  0.00     0.077 H 
BRANCH  35  38
ATOM     38  O15 FR9 d   1      54.543  57.431  22.698  0.00  0.00    -0.399 OA
ATOM     39  H8  FR9 d   1      54.748  56.504  22.739  0.00  0.00     0.209 HD
ENDBRANCH  35  38
ENDBRANCH  21  35
ENDBRANCH  18  21
ENDBRANCH  15  18
ENDBRANCH   1  15
BRANCH   8  40
ATOM     40  N1  FR9 d   1      49.313  53.245  17.721  0.00  0.00    -0.309 N 
ATOM     41  C2  FR9 d   1      49.256  52.202  16.853  0.00  0.00     0.320 C 
ATOM     42  O1  FR9 d   1      48.746  52.328  15.766  0.00  0.00    -0.247 OA
ATOM     43  N3  FR9 d   1      49.519  51.081  17.443  0.00  0.00    -0.339 N 
ATOM     44  H19 FR9 d   1      49.883  51.089  18.374  0.00  0.00     0.164 HD
ATOM     45  H18 FR9 d   1      49.556  53.029  18.667  0.00  0.00     0.170 HD
BRANCH  43  46
ATOM     46  C6  FR9 d   1      49.296  49.822  16.782  0.00  0.00     0.021 C 
ATOM     47  H20 FR9 d   1      50.147  49.149  16.962  0.00  0.00     0.071 H 
ATOM     48  H21 FR9 d   1      49.177  49.983  15.700  0.00  0.00     0.071 H 
BRANCH  46  49
ATOM     49  C11 FR9 d   1      48.032  49.219  17.355  0.00  0.00    -0.040 A 
ATOM     50  C7  FR9 d   1      47.726  49.349  18.700  0.00  0.00    -0.075 A 
ATOM     51  C15 FR9 d   1      46.570  48.772  19.201  0.00  0.00    -0.082 A 
ATOM     52  H22 FR9 d   1      48.388  49.900  19.358  0.00  0.00     0.084 H 
ATOM     53  C10 FR9 d   1      45.659  48.138  18.415  0.00  0.00    -0.083 A 
ATOM     54  H26 FR9 d   1      46.383  48.828  20.267  0.00  0.00     0.083 H 
ATOM     55  C12 FR9 d   1      45.994  47.986  17.060  0.00  0.00    -0.082 A 
ATOM     56  H25 FR9 d   1      44.721  47.769  18.814  0.00  0.00     0.083 H 
ATOM     57  C9  FR9 d   1      47.168  48.514  16.536  0.00  0.00    -0.075 A 
ATOM     58  H24 FR9 d   1      45.320  47.444  16.407  0.00  0.00     0.083 H 
ATOM     59  H23 FR9 d   1      47.406  48.374  15.488  0.00  0.00     0.084 H 
ENDBRANCH  46  49
ENDBRANCH  43  46
ENDBRANCH   8  40
TORSDOF 10
