REMARK  8 active torsions:
REMARK  status: ('A' for Active; 'I' for Inactive)
REMARK    1  A    between atoms: N1_1  and  C1_9 
REMARK    2  A    between atoms: C2_10  and  O2_11 
REMARK    3  A    between atoms: C3_12  and  O3_15 
REMARK    4  A    between atoms: C4_13  and  C5_16 
REMARK    5  A    between atoms: C5_16  and  O5_17 
REMARK    6  A    between atoms: O5_17  and  PA_18 
REMARK    7  A    between atoms: PA_18  and  O3A_21 
REMARK    8  A    between atoms: O3A_21  and  PB_22 
ROOT
ATOM      1  C1  UDP d   1       3.203  10.864  42.929  0.00  0.00     0.141 C 
ATOM      2  C2  UDP d   1       4.711  10.650  42.734  0.00  0.00     0.105 C 
ATOM      3  C3  UDP d   1       5.159  10.329  44.157  0.00  0.00     0.091 C 
ATOM      4  C4  UDP d   1       4.031   9.406  44.643  0.00  0.00     0.089 C 
ATOM      5  O4  UDP d   1       2.834   9.972  44.003  0.00  0.00    -0.353 OA
ATOM      6  H4  UDP d   1       2.681  10.572  42.006  0.00  0.00     0.123 H 
ATOM      7  H5  UDP d   1       5.198  11.568  42.374  0.00  0.00     0.093 H 
ATOM      8  H7  UDP d   1       5.249  11.228  44.785  0.00  0.00     0.091 H 
ATOM      9  H8  UDP d   1       4.218   8.374  44.310  0.00  0.00     0.090 H 
ENDROOT
BRANCH   4  10
ATOM     10  C5  UDP d   1       3.795   9.411  46.183  0.00  0.00     0.058 C 
ATOM     11  H10 UDP d   1       4.358   8.590  46.651  0.00  0.00     0.079 H 
ATOM     12  H11 UDP d   1       2.723   9.290  46.398  0.00  0.00     0.079 H 
BRANCH  10  13
ATOM     13  O5  UDP d   1       4.251  10.657  46.687  0.00  0.00    -0.287 OA
BRANCH  13  14
ATOM     14  PA  UDP d   1       5.537  11.088  47.482  0.00  0.00     0.418 P 
ATOM     15  O1A UDP d   1       6.713  10.541  46.757  0.00  0.00    -0.624 OA
ATOM     16  O2A UDP d   1       5.453  12.581  47.660  0.00  0.00    -0.624 OA
BRANCH  14  17
ATOM     17  O3A UDP d   1       5.335  10.288  48.826  0.00  0.00    -0.173 OA
BRANCH  17  18
ATOM     18  PB  UDP d   1       6.390  10.076  50.005  0.00  0.00     0.431 P 
ATOM     19  O1B UDP d   1       7.357   8.912  49.460  0.00  0.00    -0.616 OA
ATOM     20  O2B UDP d   1       5.532   9.640  51.132  0.00  0.00    -0.616 OA
ATOM     21  O3B UDP d   1       7.298  11.236  50.161  0.00  0.00    -0.616 OA
ENDBRANCH  17  18
ENDBRANCH  14  17
ENDBRANCH  13  14
ENDBRANCH  10  13
ENDBRANCH   4  10
BRANCH   3  22
ATOM     22  O3  UDP d   1       6.416   9.642  44.079  0.00  0.00    -0.390 OA
ATOM     23  H9  UDP d   1       6.650   9.313  44.939  0.00  0.00     0.210 HD
ENDBRANCH   3  22
BRANCH   2  24
ATOM     24  O2  UDP d   1       4.965   9.607  41.806  0.00  0.00    -0.388 OA
ATOM     25  H6  UDP d   1       4.579   9.830  40.967  0.00  0.00     0.210 HD
ENDBRANCH   2  24
BRANCH   1  26
ATOM     26  N1  UDP d   1       2.798  12.276  43.260  0.00  0.00    -0.280 N 
ATOM     27  C2  UDP d   1       2.858  13.249  42.255  0.00  0.00     0.331 A 
ATOM     28  N3  UDP d   1       2.469  14.529  42.623  0.00  0.00    -0.275 N 
ATOM     29  O2  UDP d   1       3.234  12.996  41.104  0.00  0.00    -0.246 OA
ATOM     30  C4  UDP d   1       2.022  14.936  43.906  0.00  0.00     0.250 A 
ATOM     31  H1  UDP d   1       2.508  15.233  41.914  0.00  0.00     0.173 HD
ATOM     32  C5  UDP d   1       1.980  13.895  44.904  0.00  0.00    -0.002 A 
ATOM     33  O4  UDP d   1       1.716  16.116  44.059  0.00  0.00    -0.268 OA
ATOM     34  C6  UDP d   1       2.356  12.640  44.561  0.00  0.00    -0.008 A 
ATOM     35  H2  UDP d   1       1.651  14.115  45.918  0.00  0.00     0.094 H 
ATOM     36  H3  UDP d   1       2.317  11.866  45.326  0.00  0.00     0.112 H 
ENDBRANCH   1  26
TORSDOF 8
