REMARK  13 active torsions:
REMARK  status: ('A' for Active; 'I' for Inactive)
REMARK    1  A    between atoms: N1_6  and  C4_12 
REMARK    2  A    between atoms: C2_10  and  N1_6 
REMARK       I    between atoms: C1_9  and  N2_7 
REMARK    3  A    between atoms: C13_21  and  N3_8 
REMARK    4  A    between atoms: C1_9  and  C2_10 
REMARK    5  A    between atoms: C2_10  and  C10_18 
REMARK    6  A    between atoms: C4_12  and  C3_11 
REMARK    7  A    between atoms: C4_12  and  C14_22 
REMARK    8  A    between atoms: C5_13  and  C9_17 
REMARK    9  A    between atoms: C10_18  and  C11_19 
REMARK   10  A    between atoms: C11_19  and  C12_20 
REMARK   11  A    between atoms: C12_20  and  C13_21 
REMARK   12  A    between atoms: C14_22  and  C15_23 
REMARK   13  A    between atoms: C15_23  and  C16_24 
ROOT
ATOM      1  C2  LPR d   1      42.612  33.852  45.943  0.00  0.00     0.179 C 
ATOM      2  H6  LPR d   1      43.399  34.613  45.832  0.00  0.00     0.099 H 
ENDROOT
BRANCH   1   3
ATOM      3  C1  LPR d   1      41.502  34.052  44.840  0.00  0.00     0.251 C 
ATOM      4  O1  LPR d   1      40.291  33.743  45.120  0.00  0.00    -0.271 OA
ATOM      5  N2  LPR d   1      41.810  34.533  43.599  0.00  0.00    -0.336 N 
ATOM      6  C8  LPR d   1      43.138  34.956  43.062  0.00  0.00    -0.001 A 
ATOM      7  C5  LPR d   1      40.715  34.685  42.559  0.00  0.00     0.098 A 
ATOM      8  C7  LPR d   1      42.826  35.369  41.680  0.00  0.00    -0.048 A 
ATOM      9  H13 LPR d   1      43.549  35.796  43.642  0.00  0.00     0.064 H 
ATOM     10  H14 LPR d   1      43.852  34.120  43.072  0.00  0.00     0.064 H 
ATOM     11  C6  LPR d   1      41.505  35.237  41.353  0.00  0.00    -0.035 A 
ATOM     12  H11 LPR d   1      43.110  36.425  41.560  0.00  0.00     0.035 H 
ATOM     13  H12 LPR d   1      43.418  34.750  40.990  0.00  0.00     0.035 H 
ATOM     14  H9  LPR d   1      41.100  36.220  41.071  0.00  0.00     0.036 H 
ATOM     15  H10 LPR d   1      41.407  34.543  40.505  0.00  0.00     0.036 H 
ATOM     16  H8  LPR d   1      39.932  35.384  42.888  0.00  0.00     0.089 H 
BRANCH   7  17
ATOM     17  C9  LPR d   1      40.081  33.284  42.224  0.00  0.00     0.196 C 
ATOM     18  O5  LPR d   1      40.703  32.272  42.326  0.00  0.00    -0.646 OA
ATOM     19  O4  LPR d   1      38.843  33.368  41.867  0.00  0.00    -0.646 OA
ENDBRANCH   7  17
ENDBRANCH   1   3
BRANCH   1  20
ATOM     20  C10 LPR d   1      43.252  32.473  45.784  0.00  0.00    -0.030 C 
ATOM     21  H15 LPR d   1      43.813  32.293  46.713  0.00  0.00     0.036 H 
ATOM     22  H16 LPR d   1      43.955  32.563  44.943  0.00  0.00     0.036 H 
BRANCH  20  23
ATOM     23  C11 LPR d   1      42.484  31.248  45.536  0.00  0.00    -0.061 C 
ATOM     24  H17 LPR d   1      41.635  31.505  44.885  0.00  0.00     0.033 H 
ATOM     25  H18 LPR d   1      42.107  30.882  46.502  0.00  0.00     0.033 H 
BRANCH  23  26
ATOM     26  C12 LPR d   1      43.296  30.062  44.842  0.00  0.00    -0.043 C 
ATOM     27  H19 LPR d   1      44.145  29.790  45.487  0.00  0.00     0.035 H 
ATOM     28  H20 LPR d   1      43.672  30.413  43.870  0.00  0.00     0.035 H 
BRANCH  26  29
ATOM     29  C13 LPR d   1      42.487  28.895  44.629  0.00  0.00     0.080 C 
ATOM     30  H21 LPR d   1      41.690  29.132  43.909  0.00  0.00     0.075 H 
ATOM     31  H22 LPR d   1      42.038  28.584  45.584  0.00  0.00     0.075 H 
BRANCH  29  32
ATOM     32  N3  LPR d   1      43.329  27.774  44.087  0.00  0.00    -0.079 N 
ATOM     33  H3  LPR d   1      42.752  26.960  43.941  0.00  0.00     0.274 HD
ATOM     34  H4  LPR d   1      44.060  27.554  44.745  0.00  0.00     0.274 HD
ATOM     35  H5  LPR d   1      43.740  28.056  43.211  0.00  0.00     0.274 HD
ENDBRANCH  29  32
ENDBRANCH  26  29
ENDBRANCH  23  26
ENDBRANCH  20  23
ENDBRANCH   1  20
BRANCH   1  36
ATOM     36  N1  LPR d   1      41.897  34.063  47.266  0.00  0.00    -0.048 N 
ATOM     37  H1  LPR d   1      41.197  33.339  47.290  0.00  0.00     0.279 HD
ATOM     38  H2  LPR d   1      42.600  33.874  47.963  0.00  0.00     0.279 HD
BRANCH  36  39
ATOM     39  C4  LPR d   1      41.315  35.065  47.682  0.00  0.00     0.185 C 
ATOM     40  H7  LPR d   1      40.551  35.211  46.904  0.00  0.00     0.101 H 
BRANCH  39  41
ATOM     41  C3  LPR d   1      42.259  36.267  47.654  0.00  0.00     0.204 C 
ATOM     42  O3  LPR d   1      41.939  37.283  47.069  0.00  0.00    -0.646 OA
ATOM     43  O2  LPR d   1      43.369  36.201  48.269  0.00  0.00    -0.646 OA
ENDBRANCH  39  41
BRANCH  39  44
ATOM     44  C14 LPR d   1      40.586  35.365  48.932  0.00  0.00    -0.025 C 
ATOM     45  H23 LPR d   1      40.227  34.385  49.279  0.00  0.00     0.037 H 
ATOM     46  H24 LPR d   1      41.363  35.734  49.617  0.00  0.00     0.037 H 
BRANCH  44  47
ATOM     47  C15 LPR d   1      39.408  36.299  49.163  0.00  0.00    -0.039 C 
ATOM     48  H25 LPR d   1      38.593  35.965  48.505  0.00  0.00     0.040 H 
ATOM     49  H26 LPR d   1      39.729  37.308  48.866  0.00  0.00     0.040 H 
BRANCH  47  50
ATOM     50  C16 LPR d   1      38.847  36.401  50.549  0.00  0.00    -0.058 A 
ATOM     51  C17 LPR d   1      38.566  35.206  51.331  0.00  0.00    -0.077 A 
ATOM     52  C18 LPR d   1      38.016  35.319  52.656  0.00  0.00    -0.082 A 
ATOM     53  H27 LPR d   1      38.772  34.227  50.914  0.00  0.00     0.084 H 
ATOM     54  C19 LPR d   1      37.737  36.627  53.218  0.00  0.00    -0.083 A 
ATOM     55  H28 LPR d   1      37.810  34.426  53.235  0.00  0.00     0.083 H 
ATOM     56  C20 LPR d   1      38.014  37.822  52.443  0.00  0.00    -0.082 A 
ATOM     57  H29 LPR d   1      37.322  36.712  54.216  0.00  0.00     0.083 H 
ATOM     58  C21 LPR d   1      38.568  37.710  51.112  0.00  0.00    -0.077 A 
ATOM     59  H30 LPR d   1      37.805  38.800  52.862  0.00  0.00     0.083 H 
ATOM     60  H31 LPR d   1      38.775  38.604  50.534  0.00  0.00     0.084 H 
ENDBRANCH  47  50
ENDBRANCH  44  47
ENDBRANCH  39  44
ENDBRANCH  36  39
ENDBRANCH   1  36
TORSDOF 13
