REMARK  7 active torsions:
REMARK  status: ('A' for Active; 'I' for Inactive)
REMARK    1  A    between atoms: CA_2  and  N_1 
REMARK    2  A    between atoms: N_1  and  C1_8 
REMARK    3  A    between atoms: CA_2  and  CB_5 
REMARK    4  A    between atoms: CA_2  and  C_3 
REMARK    5  A    between atoms: CB_5  and  OG_6 
REMARK    6  A    between atoms: C2_9  and  N2_10 
REMARK    7  A    between atoms: C4_14  and  N4_15 
ROOT
ATOM      1  H6  SER d   1      38.094  55.234  80.609  0.00  0.00     0.091 H 
ATOM      2  H7  SER d   1      39.990  51.714  78.912  0.00  0.00     0.087 H 
ATOM      3  H8  SER d   1      38.382  51.797  77.042  0.00  0.00     0.087 H 
ATOM      4  C1  DNF d   1      37.308  53.538  77.733  0.00  0.00     0.062 A 
ATOM      5  C2  DNF d   1      37.263  54.497  78.767  0.00  0.00     0.131 A 
ATOM      6  C3  DNF d   1      38.143  54.493  79.820  0.00  0.00    -0.017 A 
ATOM      7  C4  DNF d   1      39.082  53.504  79.818  0.00  0.00     0.105 A 
ATOM      8  C5  DNF d   1      39.227  52.481  78.848  0.00  0.00    -0.049 A 
ATOM      9  C6  DNF d   1      38.323  52.544  77.825  0.00  0.00    -0.053 A 
ENDROOT
BRANCH   4  10
ATOM     10  N   SER d   1      36.275  53.592  76.675  0.00  0.00    -0.372 N 
ATOM     11  H1  SER d   1      35.519  54.291  76.677  0.00  0.00     0.160 HD
BRANCH  10  12
ATOM     12  CA  SER d   1      36.405  52.579  75.624  0.00  0.00     0.114 C 
ATOM     13  H2  SER d   1      37.460  52.294  75.496  0.00  0.00     0.092 H 
BRANCH  12  14
ATOM     14  CB  SER d   1      35.569  51.345  75.979  0.00  0.00     0.045 C 
ATOM     15  H3  SER d   1      34.800  51.242  75.199  0.00  0.00     0.077 H 
ATOM     16  H4  SER d   1      35.086  51.551  76.945  0.00  0.00     0.077 H 
BRANCH  14  17
ATOM     17  OG  SER d   1      36.209  50.088  76.097  0.00  0.00    -0.398 OA
ATOM     18  H5  SER d   1      35.565  49.426  76.319  0.00  0.00     0.209 HD
ENDBRANCH  14  17
ENDBRANCH  12  14
BRANCH  12  19
ATOM     19  C   SER d   1      35.845  53.204  74.313  0.00  0.00     0.198 C 
ATOM     20  O   SER d   1      35.151  54.228  74.340  0.00  0.00    -0.646 OA
ATOM     21  OXT SER d   1      36.218  53.396  73.066  0.00  0.00    -0.646 OA
ENDBRANCH  12  19
ENDBRANCH  10  12
ENDBRANCH   4  10
BRANCH   5  22
ATOM     22  N2  DNF d   1      36.271  55.546  78.774  0.00  0.00    -0.113 N 
ATOM     23  O21 DNF d   1      35.419  55.698  77.922  0.00  0.00    -0.532 OA
ATOM     24  O22 DNF d   1      36.291  56.330  79.709  0.00  0.00    -0.532 OA
ENDBRANCH   5  22
BRANCH   7  25
ATOM     25  N4  DNF d   1      40.054  53.461  80.933  0.00  0.00    -0.116 N 
ATOM     26  O41 DNF d   1      39.939  54.322  81.752  0.00  0.00    -0.532 OA
ATOM     27  O42 DNF d   1      40.861  52.557  80.896  0.00  0.00    -0.532 OA
ENDBRANCH   7  25
TORSDOF 7
