REMARK  6 active torsions:
REMARK  status: ('A' for Active; 'I' for Inactive)
REMARK    1  A    between atoms: C4_1  and  C5_2 
REMARK    2  A    between atoms: C4_1  and  O6_6 
REMARK    3  A    between atoms: C5_2  and  N1_7 
REMARK    4  A    between atoms: N1_7  and  C6_3 
REMARK    5  A    between atoms: N1_7  and  C7_4 
REMARK    6  A    between atoms: N1_7  and  C8_5 
ROOT
ATOM      1  N1  CHT d   1      34.317  21.327  11.648  0.00  0.00    -0.077 N 
ENDROOT
BRANCH   1   2
ATOM      2  C5  CHT d   1      34.225  22.281  12.863  0.00  0.00     0.103 C 
ATOM      3  H3  CHT d   1      34.414  21.665  13.755  0.00  0.00     0.079 H 
ATOM      4  H4  CHT d   1      35.038  23.013  12.744  0.00  0.00     0.079 H 
BRANCH   2   5
ATOM      5  C4  CHT d   1      32.912  23.117  13.167  0.00  0.00     0.040 C 
ATOM      6  H1  CHT d   1      32.466  23.477  12.228  0.00  0.00     0.076 H 
ATOM      7  H2  CHT d   1      33.151  23.976  13.812  0.00  0.00     0.076 H 
BRANCH   5   8
ATOM      8  O6  CHT d   1      32.024  22.252  13.823  0.00  0.00    -0.399 OA
ATOM      9  H14 CHT d   1      31.220  22.717  14.024  0.00  0.00     0.209 HD
ENDBRANCH   5   8
ENDBRANCH   2   5
ENDBRANCH   1   2
BRANCH   1  10
ATOM     10  C8  CHT d   1      35.438  21.751  10.776  0.00  0.00     0.067 C 
ATOM     11  H11 CHT d   1      35.268  22.783  10.436  0.00  0.00     0.068 H 
ATOM     12  H12 CHT d   1      35.497  21.083   9.904  0.00  0.00     0.068 H 
ATOM     13  H13 CHT d   1      36.381  21.701  11.341  0.00  0.00     0.068 H 
ENDBRANCH   1  10
BRANCH   1  14
ATOM     14  C7  CHT d   1      33.054  21.309  10.819  0.00  0.00     0.067 C 
ATOM     15  H8  CHT d   1      32.827  22.329  10.474  0.00  0.00     0.068 H 
ATOM     16  H9  CHT d   1      32.220  20.934  11.430  0.00  0.00     0.068 H 
ATOM     17  H10 CHT d   1      33.196  20.651   9.949  0.00  0.00     0.068 H 
ENDBRANCH   1  14
BRANCH   1  18
ATOM     18  C6  CHT d   1      34.576  19.946  12.083  0.00  0.00     0.067 C 
ATOM     19  H5  CHT d   1      34.637  19.290  11.203  0.00  0.00     0.068 H 
ATOM     20  H6  CHT d   1      33.758  19.608  12.737  0.00  0.00     0.068 H 
ATOM     21  H7  CHT d   1      35.527  19.908  12.635  0.00  0.00     0.068 H 
ENDBRANCH   1  18
TORSDOF 6
