REMARK  6 active torsions:
REMARK  status: ('A' for Active; 'I' for Inactive)
REMARK    1  A    between atoms: C3_3  and  O3_4 
REMARK    2  A    between atoms: C4_5  and  O4_6 
REMARK    3  A    between atoms: O4_6  and  C1_10 
REMARK    4  A    between atoms: C2_11  and  O2_15 
REMARK    5  A    between atoms: C3_12  and  O3_16 
REMARK    6  A    between atoms: C4_13  and  O4_17 
ROOT
ATOM      1  C1  NON d   1       6.684  13.866  15.533  0.00  0.00     0.158 C 
ATOM      2  C2  NON d   1       6.371  12.435  15.829  0.00  0.00     0.110 C 
ATOM      3  C3  NON d   1       4.870  12.155  15.756  0.00  0.00     0.091 C 
ATOM      4  C4  NON d   1       4.112  13.205  16.546  0.00  0.00     0.083 C 
ATOM      5  C5  NON d   1       4.569  14.590  16.187  0.00  0.00     0.049 C 
ATOM      6  O5  NON d   1       5.976  14.702  16.407  0.00  0.00    -0.356 OA
ATOM      7  H9  NON d   1       6.428  14.102  14.490  0.00  0.00     0.133 H 
ATOM      8  H10 NON d   1       6.722  12.196  16.844  0.00  0.00     0.094 H 
ATOM      9  H11 NON d   1       4.547  12.200  14.706  0.00  0.00     0.091 H 
ATOM     10  H12 NON d   1       4.290  13.037  17.618  0.00  0.00     0.090 H 
ATOM     11  H13 NON d   1       4.041  15.324  16.814  0.00  0.00     0.078 H 
ATOM     12  H14 NON d   1       4.347  14.786  15.127  0.00  0.00     0.078 H 
ENDROOT
BRANCH   1  13
ATOM     13  O4  NON d   1       8.051  14.067  15.763  0.00  0.00    -0.350 OA
BRANCH  13  14
ATOM     14  C4  NON d   1       8.511  15.358  15.339  0.00  0.00     0.076 C 
ATOM     15  C3  NON d   1       9.829  15.610  16.049  0.00  0.00     0.137 C 
ATOM     16  C2  NON d   1      10.482  16.899  15.566  0.00  0.00     0.249 C 
ATOM     17  H2  NON d   1      10.510  14.775  15.826  0.00  0.00     0.102 H 
ATOM     18  N1  NON d   1      10.028  17.455  14.461  0.00  0.00    -0.359 N 
ATOM     19  O2  NON d   1      11.423  17.368  16.222  0.00  0.00    -0.271 OA
ATOM     20  C6  NON d   1       9.040  16.897  13.521  0.00  0.00    -0.002 C 
ATOM     21  H1  NON d   1      10.395  18.357  14.235  0.00  0.00     0.162 HD
ATOM     22  C5  NON d   1       8.745  15.448  13.854  0.00  0.00    -0.023 C 
ATOM     23  H7  NON d   1       9.440  16.959  12.498  0.00  0.00     0.064 H 
ATOM     24  H8  NON d   1       8.109  17.480  13.587  0.00  0.00     0.064 H 
ATOM     25  H5  NON d   1       7.848  15.114  13.312  0.00  0.00     0.039 H 
ATOM     26  H6  NON d   1       9.600  14.817  13.570  0.00  0.00     0.039 H 
ATOM     27  H4  NON d   1       7.772  16.119  15.630  0.00  0.00     0.088 H 
BRANCH  15  28
ATOM     28  O3  NON d   1       9.614  15.652  17.429  0.00  0.00    -0.384 OA
ATOM     29  H3  NON d   1      10.446  15.761  17.875  0.00  0.00     0.210 HD
ENDBRANCH  15  28
ENDBRANCH  13  14
ENDBRANCH   1  13
BRANCH   2  30
ATOM     30  O2  NON d   1       7.063  11.624  14.892  0.00  0.00    -0.388 OA
ATOM     31  H15 NON d   1       6.906  10.708  15.090  0.00  0.00     0.210 HD
ENDBRANCH   2  30
BRANCH   3  32
ATOM     32  O3  NON d   1       4.607  10.862  16.259  0.00  0.00    -0.390 OA
ATOM     33  H16 NON d   1       3.676  10.682  16.195  0.00  0.00     0.210 HD
ENDBRANCH   3  32
BRANCH   4  34
ATOM     34  O4  NON d   1       2.720  13.100  16.281  0.00  0.00    -0.391 OA
ATOM     35  H17 NON d   1       2.421  12.226  16.505  0.00  0.00     0.210 HD
ENDBRANCH   4  34
TORSDOF 6
