REMARK  5 active torsions:
REMARK  status: ('A' for Active; 'I' for Inactive)
REMARK    1  A    between atoms: O5'_1  and  C5'_2 
REMARK    2  A    between atoms: C5'_2  and  C4'_3 
REMARK    3  A    between atoms: C3'_5  and  O3'_6 
REMARK    4  A    between atoms: C2'_7  and  O2'_8 
REMARK    5  A    between atoms: C1'_9  and  N9_10 
ROOT
ATOM      1  C4' ADN d   1       1.666 -79.927-146.845  0.00  0.00     0.088 C 
ATOM      2  O4' ADN d   1       1.662 -78.622-146.149  0.00  0.00    -0.353 OA
ATOM      3  C3' ADN d   1       3.075 -80.449-146.626  0.00  0.00     0.091 C 
ATOM      4  C2' ADN d   1       3.634 -79.722-145.379  0.00  0.00     0.105 C 
ATOM      5  C1' ADN d   1       2.467 -78.773-144.965  0.00  0.00     0.139 C 
ATOM      6  H4  ADN d   1       1.492 -79.766-147.919  0.00  0.00     0.090 H 
ATOM      7  H5  ADN d   1       3.078 -81.537-146.462  0.00  0.00     0.091 H 
ATOM      8  H7  ADN d   1       3.780 -80.460-144.577  0.00  0.00     0.093 H 
ATOM      9  H9  ADN d   1       2.901 -77.796-144.704  0.00  0.00     0.122 H 
ENDROOT
BRANCH   5  10
ATOM     10  N9  ADN d   1       1.641 -79.215-143.773  0.00  0.00    -0.294 N 
ATOM     11  C8  ADN d   1       0.561 -78.489-143.237  0.00  0.00     0.071 A 
ATOM     12  N7  ADN d   1      -0.035 -79.041-142.212  0.00  0.00    -0.236 NA
ATOM     13  H10 ADN d   1       0.243 -77.532-143.648  0.00  0.00     0.144 H 
ATOM     14  C5  ADN d   1       0.675 -80.226-142.020  0.00  0.00     0.149 A 
ATOM     15  C6  ADN d   1       0.543 -81.317-141.064  0.00  0.00     0.155 A 
ATOM     16  C4  ADN d   1       1.716 -80.359-142.969  0.00  0.00     0.167 A 
ATOM     17  N6  ADN d   1      -0.395 -81.337-140.112  0.00  0.00    -0.382 N 
ATOM     18  N1  ADN d   1       1.436 -82.363-141.164  0.00  0.00    -0.222 NA
ATOM     19  H11 ADN d   1      -0.449 -82.131-139.458  0.00  0.00     0.157 HD
ATOM     20  H12 ADN d   1      -1.064 -80.558-140.032  0.00  0.00     0.157 HD
ATOM     21  C2  ADN d   1       2.394 -82.352-142.133  0.00  0.00     0.091 A 
ATOM     22  N3  ADN d   1       2.610 -81.394-143.077  0.00  0.00    -0.222 NA
ATOM     23  H13 ADN d   1       3.062 -83.205-142.155  0.00  0.00     0.146 H 
ENDBRANCH   5  10
BRANCH   4  24
ATOM     24  O2' ADN d   1       4.900 -79.102-145.584  0.00  0.00    -0.388 OA
ATOM     25  H8  ADN d   1       4.826 -78.455-146.275  0.00  0.00     0.210 HD
ENDBRANCH   4  24
BRANCH   1  26
ATOM     26  C5' ADN d   1       0.597 -80.916-146.341  0.00  0.00     0.043 C 
ATOM     27  H2  ADN d   1       0.666 -81.872-146.881  0.00  0.00     0.078 H 
ATOM     28  H3  ADN d   1       0.711 -81.095-145.262  0.00  0.00     0.078 H 
BRANCH  26  29
ATOM     29  O5' ADN d   1      -0.635 -80.275-146.614  0.00  0.00    -0.398 OA
ATOM     30  H1  ADN d   1      -0.670 -79.447-146.149  0.00  0.00     0.209 HD
ENDBRANCH  26  29
ENDBRANCH   1  26
BRANCH   3  31
ATOM     31  O3' ADN d   1       3.809 -80.123-147.823  0.00  0.00    -0.390 OA
ATOM     32  H6  ADN d   1       4.704 -80.430-147.738  0.00  0.00     0.210 HD
ENDBRANCH   3  31
TORSDOF 5
