REMARK  6 active torsions:
REMARK  status: ('A' for Active; 'I' for Inactive)
REMARK    1  A    between atoms: O5_1  and  C5_2 
REMARK    2  A    between atoms: C5_2  and  C4_3 
REMARK    3  A    between atoms: C3_5  and  O3_6 
REMARK    4  A    between atoms: C2_7  and  O2_8 
REMARK    5  A    between atoms: C1_9  and  N9_10 
REMARK    6  A    between atoms: C2_17  and  N2_18 
ROOT
ATOM      1  C4  GMP d   1       1.331 -80.202-147.978  0.00  0.00     0.088 C 
ATOM      2  O4  GMP d   1       1.297 -78.890-147.307  0.00  0.00    -0.353 OA
ATOM      3  C3  GMP d   1       2.763 -80.677-147.767  0.00  0.00     0.091 C 
ATOM      4  C2  GMP d   1       3.317 -79.905-146.545  0.00  0.00     0.105 C 
ATOM      5  C1  GMP d   1       2.136 -78.968-146.138  0.00  0.00     0.139 C 
ATOM      6  H4  GMP d   1       1.151 -80.056-149.053  0.00  0.00     0.090 H 
ATOM      7  H5  GMP d   1       2.810 -81.761-147.589  0.00  0.00     0.091 H 
ATOM      8  H7  GMP d   1       3.474 -80.625-145.728  0.00  0.00     0.093 H 
ATOM      9  H9  GMP d   1       2.553 -77.969-145.943  0.00  0.00     0.122 H 
ENDROOT
BRANCH   5  10
ATOM     10  N9  GMP d   1       1.381 -79.358-144.899  0.00  0.00    -0.293 N 
ATOM     11  C8  GMP d   1       0.373 -78.600-144.346  0.00  0.00     0.071 A 
ATOM     12  N7  GMP d   1      -0.143 -79.127-143.274  0.00  0.00    -0.234 NA
ATOM     13  H10 GMP d   1       0.040 -77.652-144.765  0.00  0.00     0.144 H 
ATOM     14  C5  GMP d   1       0.557 -80.314-143.091  0.00  0.00     0.173 A 
ATOM     15  C6  GMP d   1       0.425 -81.313-142.076  0.00  0.00     0.292 A 
ATOM     16  C4  GMP d   1       1.509 -80.481-144.079  0.00  0.00     0.186 A 
ATOM     17  O6  GMP d   1      -0.362 -81.344-141.116  0.00  0.00    -0.265 OA
ATOM     18  N1  GMP d   1       1.325 -82.354-142.261  0.00  0.00    -0.152 N 
ATOM     19  C2  GMP d   1       2.238 -82.432-143.277  0.00  0.00     0.703 A 
ATOM     20  H11 GMP d   1       1.304 -83.105-141.601  0.00  0.00     0.187 HD
ATOM     21  N3  GMP d   1       2.379 -81.509-144.234  0.00  0.00    -0.044 NA
BRANCH  19  22
ATOM     22  N2  GMP d   1       3.013 -83.529-143.271  0.00  0.00    -0.233 N 
ATOM     23  H12 GMP d   1       3.725 -83.661-144.004  0.00  0.00     0.174 HD
ATOM     24  H13 GMP d   1       2.895 -84.239-142.534  0.00  0.00     0.174 HD
ENDBRANCH  19  22
ENDBRANCH   5  10
BRANCH   4  25
ATOM     25  O2  GMP d   1       4.584 -79.270-146.752  0.00  0.00    -0.388 OA
ATOM     26  H8  GMP d   1       5.233 -79.926-146.976  0.00  0.00     0.210 HD
ENDBRANCH   4  25
BRANCH   1  27
ATOM     27  C5  GMP d   1       0.292 -81.207-147.480  0.00  0.00     0.043 C 
ATOM     28  H2  GMP d   1       0.381 -82.162-148.018  0.00  0.00     0.078 H 
ATOM     29  H3  GMP d   1       0.402 -81.383-146.400  0.00  0.00     0.078 H 
BRANCH  27  30
ATOM     30  O5  GMP d   1      -0.944 -80.580-147.766  0.00  0.00    -0.398 OA
ATOM     31  H1  GMP d   1      -1.656 -81.143-147.485  0.00  0.00     0.209 HD
ENDBRANCH  27  30
ENDBRANCH   1  27
BRANCH   3  32
ATOM     32  O3  GMP d   1       3.469 -80.325-148.991  0.00  0.00    -0.390 OA
ATOM     33  H6  GMP d   1       4.376 -80.598-148.922  0.00  0.00     0.210 HD
ENDBRANCH   3  32
TORSDOF 6
