REMARK  4 active torsions:
REMARK  status: ('A' for Active; 'I' for Inactive)
REMARK    1  A    between atoms: C1_1  and  O1_6 
REMARK    2  A    between atoms: C2_2  and  O2_7 
REMARK    3  A    between atoms: C3_3  and  O3_8 
REMARK    4  A    between atoms: C4_4  and  O4_9 
ROOT
ATOM      1  C1  NON d   1      51.097  36.402  26.176  0.00  0.00     0.155 C 
ATOM      2  C2  NON d   1      51.554  37.774  25.748  0.00  0.00     0.110 C 
ATOM      3  C3  NON d   1      50.634  38.828  26.339  0.00  0.00     0.091 C 
ATOM      4  C4  NON d   1      50.481  38.733  27.850  0.00  0.00     0.083 C 
ATOM      5  C5  NON d   1      50.023  37.315  28.183  0.00  0.00     0.049 C 
ATOM      6  O5  NON d   1      50.879  36.305  27.608  0.00  0.00    -0.356 OA
ATOM      7  H1  NON d   1      51.871  35.678  25.883  0.00  0.00     0.133 H 
ATOM      8  H2  NON d   1      51.528  37.849  24.651  0.00  0.00     0.094 H 
ATOM      9  H3  NON d   1      49.637  38.667  25.903  0.00  0.00     0.091 H 
ATOM     10  H4  NON d   1      49.734  39.464  28.194  0.00  0.00     0.090 H 
ATOM     11  H5  NON d   1      49.003  37.174  27.796  0.00  0.00     0.078 H 
ATOM     12  H6  NON d   1      50.020  37.193  29.276  0.00  0.00     0.078 H 
ENDROOT
BRANCH   1  13
ATOM     13  O1  NON d   1      49.876  36.055  25.555  0.00  0.00    -0.369 OA
ATOM     14  H7  NON d   1      49.637  35.169  25.802  0.00  0.00     0.212 HD
ENDBRANCH   1  13
BRANCH   2  15
ATOM     15  O2  NON d   1      52.878  37.942  26.199  0.00  0.00    -0.388 OA
ATOM     16  H8  NON d   1      53.193  38.800  25.940  0.00  0.00     0.210 HD
ENDBRANCH   2  15
BRANCH   3  17
ATOM     17  O3  NON d   1      51.059  40.115  25.970  0.00  0.00    -0.390 OA
ATOM     18  H9  NON d   1      51.150  40.159  25.025  0.00  0.00     0.210 HD
ENDBRANCH   3  17
BRANCH   4  19
ATOM     19  O4  NON d   1      51.711  38.973  28.500  0.00  0.00    -0.391 OA
ATOM     20  H10 NON d   1      52.356  38.345  28.197  0.00  0.00     0.210 HD
ENDBRANCH   4  19
TORSDOF 4
