REMARK  20 active torsions:
REMARK  status: ('A' for Active; 'I' for Inactive)
REMARK    1  A    between atoms: O4_25  and  C1_1 
REMARK    2  A    between atoms: C2_2  and  N2_9 
REMARK    3  A    between atoms: C3_3  and  O3_10 
REMARK    4  A    between atoms: C4_4  and  O4_11 
REMARK    5  A    between atoms: C5_5  and  C6_6 
REMARK    6  A    between atoms: C6_6  and  O6_13 
REMARK    7  A    between atoms: C7_7  and  C8_8 
REMARK       I    between atoms: N2_9  and  C7_7 
REMARK    8  A    between atoms: O4_41  and  C1_15 
REMARK    9  A    between atoms: C2_16  and  N2_23 
REMARK   10  A    between atoms: C3_17  and  O3_24 
REMARK   11  A    between atoms: C4_18  and  O4_25 
REMARK   12  A    between atoms: C5_19  and  C6_20 
REMARK   13  A    between atoms: C6_20  and  O6_27 
REMARK   14  A    between atoms: C7_21  and  C8_22 
REMARK       I    between atoms: N2_23  and  C7_21 
REMARK   15  A    between atoms: C3_31  and  O3_40 
REMARK   16  A    between atoms: C4_32  and  O4_41 
REMARK   17  A    between atoms: C5_33  and  C6_34 
REMARK   18  A    between atoms: C6_34  and  O6_42 
REMARK   19  A    between atoms: N7_39  and  C8_36 
REMARK   20  A    between atoms: N7_39  and  C9_37 
ROOT
ATOM      1  C1  NAA d   1      16.765  40.457 103.392  0.00  0.00     0.154 C 
ATOM      2  C2  NAA d   1      16.883  39.258 104.345  0.00  0.00     0.087 C 
ATOM      3  C3  NAA d   1      15.795  38.225 104.016  0.00  0.00     0.087 C 
ATOM      4  C4  NAA d   1      14.384  38.890 103.992  0.00  0.00     0.095 C 
ATOM      5  C5  NAA d   1      14.411  40.072 103.011  0.00  0.00     0.089 C 
ATOM      6  O5  NAA d   1      15.433  41.032 103.400  0.00  0.00    -0.349 OA
ATOM      7  H15 NAA d   1      17.007  40.136 102.368  0.00  0.00     0.132 H 
ATOM      8  H16 NAA d   1      16.781  39.586 105.390  0.00  0.00     0.084 H 
ATOM      9  H17 NAA d   1      15.805  37.431 104.777  0.00  0.00     0.090 H 
ATOM     10  H18 NAA d   1      14.158  39.269 105.000  0.00  0.00     0.091 H 
ATOM     11  H19 NAA d   1      14.631  39.690 102.003  0.00  0.00     0.090 H 
ENDROOT
BRANCH   1  12
ATOM     12  O4  AMI d   1      17.706  41.421 103.830  0.00  0.00    -0.351 OA
BRANCH  12  13
ATOM     13  C4  AMI d   1      17.988  42.386 102.800  0.00  0.00     0.076 C 
ATOM     14  C3  AMI d   1      17.046  43.590 102.740  0.00  0.00     0.083 C 
ATOM     15  C2  AMI d   1      17.821  44.676 101.994  0.00  0.00     0.066 C 
ATOM     16  H30 NAA d   1      16.777  43.925 103.753  0.00  0.00     0.090 H 
ATOM     17  C1  AMI d   1      19.324  44.434 102.359  0.00  0.00     0.078 C 
ATOM     18  N2  AMI d   1      17.559  45.974 102.598  0.00  0.00    -0.347 N 
ATOM     19  H29 NAA d   1      17.620  44.661 100.913  0.00  0.00     0.080 H 
ATOM     20  C5  AMI d   1      19.277  43.103 103.138  0.00  0.00     0.022 C 
ATOM     21  O7  AMI d   1      19.668  45.510 103.308  0.00  0.00    -0.314 OA
ATOM     22  H28 NAA d   1      19.995  44.404 101.488  0.00  0.00     0.088 H 
ATOM     23  H32 NAA d   1      19.237  43.358 104.207  0.00  0.00     0.051 H 
ATOM     24  C7  AMI d   1      18.607  46.377 103.309  0.00  0.00     0.217 C 
ATOM     25  N7  AMI d   1      18.624  47.533 103.997  0.00  0.00    -0.356 N 
ATOM     26  H41 NAA d   1      16.684  46.506 102.490  0.00  0.00     0.163 HD
ATOM     27  H31 NAA d   1      18.035  41.873 101.828  0.00  0.00     0.088 H 
BRANCH  14  28
ATOM     28  O3  AMI d   1      15.870  43.260 102.009  0.00  0.00    -0.391 OA
ATOM     29  H42 NAA d   1      15.425  42.538 102.437  0.00  0.00     0.210 HD
ENDBRANCH  14  28
BRANCH  20  30
ATOM     30  C6  AMI d   1      20.523  42.216 102.955  0.00  0.00     0.025 C 
ATOM     31  H33 NAA d   1      20.488  41.382 103.671  0.00  0.00     0.074 H 
ATOM     32  H34 NAA d   1      21.428  42.814 103.134  0.00  0.00     0.074 H 
BRANCH  30  33
ATOM     33  O6  AMI d   1      20.549  41.697 101.617  0.00  0.00    -0.400 OA
ATOM     34  H43 NAA d   1      21.318  41.150 101.505  0.00  0.00     0.209 HD
ENDBRANCH  30  33
ENDBRANCH  20  30
BRANCH  25  35
ATOM     35  C8  AMI d   1      19.831  47.944 104.716  0.00  0.00    -0.016 C 
ATOM     36  H35 NAA d   1      19.651  48.908 105.213  0.00  0.00     0.056 H 
ATOM     37  H36 NAA d   1      20.664  48.048 104.005  0.00  0.00     0.056 H 
ATOM     38  H37 NAA d   1      20.085  47.184 105.470  0.00  0.00     0.056 H 
ENDBRANCH  25  35
BRANCH  25  39
ATOM     39  C9  AMI d   1      17.444  48.426 104.000  0.00  0.00    -0.016 C 
ATOM     40  H38 NAA d   1      16.634  47.965 103.416  0.00  0.00     0.056 H 
ATOM     41  H39 NAA d   1      17.715  49.393 103.551  0.00  0.00     0.056 H 
ATOM     42  H40 NAA d   1      17.106  48.584 105.035  0.00  0.00     0.056 H 
ENDBRANCH  25  39
ENDBRANCH  12  13
ENDBRANCH   1  12
BRANCH   2  43
ATOM     43  N2  NAA d   1      18.221  38.674 104.116  0.00  0.00    -0.349 N 
ATOM     44  C7  NAA d   1      19.137  38.619 105.080  0.00  0.00     0.214 C 
ATOM     45  O7  NAA d   1      18.889  39.040 106.215  0.00  0.00    -0.274 OA
ATOM     46  H25 NAA d   1      18.444  38.310 103.212  0.00  0.00     0.163 HD
BRANCH  44  47
ATOM     47  C8  NAA d   1      20.536  38.086 104.748  0.00  0.00    -0.003 C 
ATOM     48  H22 NAA d   1      21.162  38.110 105.653  0.00  0.00     0.040 H 
ATOM     49  H23 NAA d   1      20.993  38.715 103.970  0.00  0.00     0.040 H 
ATOM     50  H24 NAA d   1      20.457  37.051 104.384  0.00  0.00     0.040 H 
ENDBRANCH  44  47
ENDBRANCH   2  43
BRANCH   3  51
ATOM     51  O3  NAA d   1      16.082  37.662 102.733  0.00  0.00    -0.391 OA
ATOM     52  H26 NAA d   1      15.427  37.007 102.522  0.00  0.00     0.210 HD
ENDBRANCH   3  51
BRANCH   5  53
ATOM     53  C6  NAA d   1      13.066  40.807 102.992  0.00  0.00     0.043 C 
ATOM     54  H20 NAA d   1      12.856  41.224 103.988  0.00  0.00     0.078 H 
ATOM     55  H21 NAA d   1      12.264  40.108 102.710  0.00  0.00     0.078 H 
BRANCH  53  56
ATOM     56  O6  NAA d   1      13.146  41.869 102.028  0.00  0.00    -0.398 OA
ATOM     57  H27 NAA d   1      12.319  42.336 102.003  0.00  0.00     0.209 HD
ENDBRANCH  53  56
ENDBRANCH   5  53
BRANCH   4  58
ATOM     58  O4  NAA d   1      13.339  37.940 103.614  0.00  0.00    -0.348 OA
BRANCH  58  59
ATOM     59  C1  NAA d   1      12.963  37.114 104.749  0.00  0.00     0.154 C 
ATOM     60  C2  NAA d   1      11.540  36.541 104.540  0.00  0.00     0.087 C 
ATOM     61  C3  NAA d   1      11.183  35.508 105.622  0.00  0.00     0.086 C 
ATOM     62  H2  NAA d   1      11.485  36.066 103.549  0.00  0.00     0.084 H 
ATOM     63  C4  NAA d   1      12.313  34.483 105.829  0.00  0.00     0.089 C 
ATOM     64  H3  NAA d   1      10.282  34.966 105.298  0.00  0.00     0.090 H 
ATOM     65  C5  NAA d   1      13.648  35.204 106.057  0.00  0.00     0.089 C 
ATOM     66  H4  NAA d   1      12.393  33.846 104.936  0.00  0.00     0.091 H 
ATOM     67  O5  NAA d   1      13.931  36.038 104.906  0.00  0.00    -0.349 OA
ATOM     68  H5  NAA d   1      13.584  35.827 106.962  0.00  0.00     0.090 H 
ATOM     69  H1  NAA d   1      12.966  37.732 105.659  0.00  0.00     0.132 H 
BRANCH  60  70
ATOM     70  N2  NAA d   1      10.561  37.633 104.624  0.00  0.00    -0.349 N 
ATOM     71  C7  NAA d   1      10.159  38.326 103.571  0.00  0.00     0.214 C 
ATOM     72  O7  NAA d   1      10.562  38.132 102.424  0.00  0.00    -0.274 OA
ATOM     73  H11 NAA d   1      10.180  37.864 105.519  0.00  0.00     0.163 HD
BRANCH  71  74
ATOM     74  C8  NAA d   1       9.133  39.422 103.886  0.00  0.00    -0.003 C 
ATOM     75  H8  NAA d   1       8.857  39.944 102.958  0.00  0.00     0.040 H 
ATOM     76  H9  NAA d   1       9.570  40.141 104.594  0.00  0.00     0.040 H 
ATOM     77  H10 NAA d   1       8.236  38.967 104.332  0.00  0.00     0.040 H 
ENDBRANCH  71  74
ENDBRANCH  60  70
BRANCH  61  78
ATOM     78  O3  NAA d   1      10.896  36.176 106.850  0.00  0.00    -0.391 OA
ATOM     79  H12 NAA d   1      10.624  35.539 107.500  0.00  0.00     0.210 HD
ENDBRANCH  61  78
BRANCH  63  80
ATOM     80  O4  NAA d   1      12.013  33.666 106.972  0.00  0.00    -0.390 OA
ATOM     81  H13 NAA d   1      11.950  34.215 107.745  0.00  0.00     0.210 HD
ENDBRANCH  63  80
BRANCH  65  82
ATOM     82  C6  NAA d   1      14.766  34.171 106.221  0.00  0.00     0.043 C 
ATOM     83  H6  NAA d   1      14.845  33.567 105.305  0.00  0.00     0.078 H 
ATOM     84  H7  NAA d   1      14.537  33.515 107.074  0.00  0.00     0.078 H 
BRANCH  82  85
ATOM     85  O6  NAA d   1      16.004  34.845 106.456  0.00  0.00    -0.398 OA
ATOM     86  H14 NAA d   1      16.200  35.411 105.719  0.00  0.00     0.209 HD
ENDBRANCH  82  85
ENDBRANCH  65  82
ENDBRANCH  58  59
ENDBRANCH   4  58
TORSDOF 20
