REMARK  2 active torsions:
REMARK  status: ('A' for Active; 'I' for Inactive)
REMARK    1  A    between atoms: C1_1  and  O1_19 
REMARK    2  A    between atoms: C17_12  and  C27_18 
ROOT
ATOM      1  C1  NON d   1      13.050 -41.726 -15.931  0.00  0.00     0.066 A 
ATOM      2  C2  NON d   1      13.150 -42.788 -16.798  0.00  0.00    -0.040 A 
ATOM      3  C3  NON d   1      13.288 -44.086 -16.263  0.00  0.00    -0.023 A 
ATOM      4  C4  NON d   1      13.329 -44.301 -14.803  0.00  0.00    -0.019 A 
ATOM      5  C5  NON d   1      13.233 -43.184 -13.959  0.00  0.00    -0.069 A 
ATOM      6  C6  NON d   1      13.096 -41.919 -14.506  0.00  0.00    -0.050 A 
ATOM      7  C10 NON d   1      13.378 -45.185 -17.197  0.00  0.00    -0.072 A 
ATOM      8  C11 NON d   1      13.500 -46.508 -16.679  0.00  0.00    -0.075 A 
ATOM      9  C12 NON d   1      13.535 -46.728 -15.256  0.00  0.00    -0.046 A 
ATOM     10  C13 NON d   1      13.456 -45.637 -14.310  0.00  0.00    -0.040 A 
ATOM     11  C16 NON d   1      13.644 -48.128 -14.767  0.00  0.00    -0.014 C 
ATOM     12  C17 NON d   1      13.008 -48.313 -13.361  0.00  0.00     0.025 C 
ATOM     13  C18 NON d   1      13.626 -47.330 -12.351  0.00  0.00    -0.047 C 
ATOM     14  C19 NON d   1      13.491 -45.856 -12.814  0.00  0.00    -0.038 C 
ATOM     15  C24 NON d   1      12.906 -49.243 -15.557  0.00  0.00    -0.051 C 
ATOM     16  C25 NON d   1      13.273 -50.474 -14.669  0.00  0.00    -0.008 C 
ATOM     17  C26 NON d   1      13.317 -49.799 -13.245  0.00  0.00     0.136 C 
ATOM     18  O26 NON d   1      13.568 -50.361 -12.207  0.00  0.00    -0.297 OA
ATOM     19  H1  NON d   1      13.123 -42.631 -17.870  0.00  0.00     0.089 H 
ATOM     20  H2  NON d   1      13.266 -43.311 -12.883  0.00  0.00     0.085 H 
ATOM     21  H3  NON d   1      13.022 -41.060 -13.849  0.00  0.00     0.087 H 
ATOM     22  H4  NON d   1      13.353 -45.008 -18.266  0.00  0.00     0.084 H 
ATOM     23  H5  NON d   1      13.567 -47.350 -17.358  0.00  0.00     0.084 H 
ATOM     24  H6  NON d   1      14.717 -48.367 -14.732  0.00  0.00     0.049 H 
ATOM     25  H7  NON d   1      14.693 -47.568 -12.232  0.00  0.00     0.035 H 
ATOM     26  H8  NON d   1      13.114 -47.446 -11.384  0.00  0.00     0.035 H 
ATOM     27  H9  NON d   1      12.558 -45.454 -12.392  0.00  0.00     0.040 H 
ATOM     28  H10 NON d   1      14.347 -45.296 -12.411  0.00  0.00     0.040 H 
ATOM     29  H11 NON d   1      13.294 -49.346 -16.581  0.00  0.00     0.034 H 
ATOM     30  H12 NON d   1      11.820 -49.071 -15.592  0.00  0.00     0.034 H 
ATOM     31  H13 NON d   1      14.249 -50.899 -14.947  0.00  0.00     0.044 H 
ATOM     32  H14 NON d   1      12.503 -51.258 -14.723  0.00  0.00     0.044 H 
ENDROOT
BRANCH  12  33
ATOM     33  C27 NON d   1      11.477 -48.150 -13.365  0.00  0.00    -0.062 C 
ATOM     34  H15 NON d   1      11.035 -48.853 -14.087  0.00  0.00     0.029 H 
ATOM     35  H16 NON d   1      11.219 -47.120 -13.651  0.00  0.00     0.029 H 
ATOM     36  H17 NON d   1      11.083 -48.361 -12.360  0.00  0.00     0.029 H 
ENDBRANCH  12  33
BRANCH   1  37
ATOM     37  O1  NON d   1      12.908 -40.550 -16.479  0.00  0.00    -0.361 OA
ATOM     38  H18 NON d   1      12.088 -40.165 -16.192  0.00  0.00     0.217 HD
ENDBRANCH   1  37
TORSDOF 2
