REMARK  2 active torsions:
REMARK  status: ('A' for Active; 'I' for Inactive)
REMARK    1  A    between atoms: C1_1  and  O1_19 
REMARK    2  A    between atoms: C17_12  and  C27_18 
ROOT
ATOM      1  C1  EQU d   1      20.212  76.623  11.863  0.00  0.00     0.066 A 
ATOM      2  C2  EQU d   1      18.862  76.171  12.056  0.00  0.00    -0.040 A 
ATOM      3  C3  EQU d   1      17.943  76.250  10.986  0.00  0.00    -0.023 A 
ATOM      4  C4  EQU d   1      18.426  76.819   9.650  0.00  0.00    -0.019 A 
ATOM      5  C5  EQU d   1      19.811  77.254   9.532  0.00  0.00    -0.069 A 
ATOM      6  C6  EQU d   1      20.677  77.148  10.639  0.00  0.00    -0.050 A 
ATOM      7  C10 EQU d   1      16.570  75.806  11.143  0.00  0.00    -0.072 A 
ATOM      8  C11 EQU d   1      15.646  75.901  10.047  0.00  0.00    -0.075 A 
ATOM      9  C12 EQU d   1      16.066  76.433   8.777  0.00  0.00    -0.046 A 
ATOM     10  C13 EQU d   1      17.491  76.898   8.579  0.00  0.00    -0.040 A 
ATOM     11  C16 EQU d   1      15.075  76.578   7.542  0.00  0.00    -0.014 C 
ATOM     12  C17 EQU d   1      15.716  76.511   6.046  0.00  0.00     0.025 C 
ATOM     13  C18 EQU d   1      16.914  77.546   5.995  0.00  0.00    -0.047 C 
ATOM     14  C19 EQU d   1      17.879  77.459   7.165  0.00  0.00    -0.038 C 
ATOM     15  C24 EQU d   1      13.917  75.564   7.336  0.00  0.00    -0.051 C 
ATOM     16  C25 EQU d   1      13.270  76.155   6.033  0.00  0.00    -0.008 C 
ATOM     17  C26 EQU d   1      14.462  76.736   5.244  0.00  0.00     0.136 C 
ATOM     18  O26 EQU d   1      14.411  77.306   4.134  0.00  0.00    -0.297 OA
ATOM     19  H1  EQU d   1      18.551  75.772  13.015  0.00  0.00     0.089 H 
ATOM     20  H2  EQU d   1      20.175  77.659   8.595  0.00  0.00     0.085 H 
ATOM     21  H3  EQU d   1      21.707  77.472  10.549  0.00  0.00     0.087 H 
ATOM     22  H4  EQU d   1      16.240  75.400  12.093  0.00  0.00     0.084 H 
ATOM     23  H5  EQU d   1      14.623  75.569  10.178  0.00  0.00     0.084 H 
ATOM     24  H6  EQU d   1      14.625  77.572   7.678  0.00  0.00     0.049 H 
ATOM     25  H7  EQU d   1      16.489  78.561   5.976  0.00  0.00     0.035 H 
ATOM     26  H8  EQU d   1      17.481  77.368   5.069  0.00  0.00     0.035 H 
ATOM     27  H9  EQU d   1      18.716  76.837   6.816  0.00  0.00     0.040 H 
ATOM     28  H10 EQU d   1      18.233  78.486   7.338  0.00  0.00     0.040 H 
ATOM     29  H11 EQU d   1      13.213  75.570   8.181  0.00  0.00     0.034 H 
ATOM     30  H12 EQU d   1      14.292  74.542   7.179  0.00  0.00     0.034 H 
ATOM     31  H13 EQU d   1      12.546  76.945   6.281  0.00  0.00     0.044 H 
ATOM     32  H14 EQU d   1      12.768  75.365   5.455  0.00  0.00     0.044 H 
ENDROOT
BRANCH  12  33
ATOM     33  C27 EQU d   1      16.335  75.100   5.585  0.00  0.00    -0.062 C 
ATOM     34  H15 EQU d   1      15.547  74.332   5.599  0.00  0.00     0.029 H 
ATOM     35  H16 EQU d   1      17.142  74.811   6.275  0.00  0.00     0.029 H 
ATOM     36  H17 EQU d   1      16.739  75.192   4.566  0.00  0.00     0.029 H 
ENDBRANCH  12  33
BRANCH   1  37
ATOM     37  O1  EQU d   1      21.062  76.549  12.864  0.00  0.00    -0.361 OA
ATOM     38  H18 EQU d   1      21.907  76.882  12.586  0.00  0.00     0.217 HD
ENDBRANCH   1  37
TORSDOF 2
