REMARK  16 active torsions:
REMARK  status: ('A' for Active; 'I' for Inactive)
REMARK    1  A    between atoms: N7_7  and  C18_18 
REMARK    2  A    between atoms: C8_8  and  C11_11 
REMARK       I    between atoms: C11_11  and  N12_12 
REMARK    3  A    between atoms: N12_12  and  C13_13 
REMARK    4  A    between atoms: C13_13  and  C16_16 
REMARK    5  A    between atoms: C13_13  and  C15_15 
REMARK    6  A    between atoms: C13_13  and  C14_14 
REMARK    7  A    between atoms: C18_18  and  C19_19 
REMARK    8  A    between atoms: C19_19  and  O21_21 
REMARK    9  A    between atoms: C19_19  and  C20_20 
REMARK   10  A    between atoms: C20_20  and  C23_23 
REMARK   11  A    between atoms: C20_20  and  N22_22 
REMARK       I    between atoms: N22_22  and  C24_24 
REMARK   12  A    between atoms: C23_23  and  S74_34 
REMARK   13  A    between atoms: C24_24  and  C29_26 
REMARK   14  A    between atoms: C33_30  and  O38_32 
REMARK   15  A    between atoms: C34_31  and  C39_33 
REMARK   16  A    between atoms: S74_34  and  C77_35 
ROOT
ATOM      1  C1  1UN d   1       2.645  -4.153  16.315  0.00  0.00    -0.027 C 
ATOM      2  C2  1UN d   1       3.461  -5.453  16.593  0.00  0.00    -0.047 C 
ATOM      3  C3  1UN d   1       2.685  -6.686  16.166  0.00  0.00    -0.061 C 
ATOM      4  C4  1UN d   1       2.272  -6.548  14.711  0.00  0.00    -0.065 C 
ATOM      5  C5  1UN d   1       1.434  -5.277  14.506  0.00  0.00    -0.065 C 
ATOM      6  C6  1UN d   1       2.293  -4.012  14.826  0.00  0.00    -0.060 C 
ATOM      7  N7  1UN d   1       4.738  -2.846  16.041  0.00  0.00    -0.055 N 
ATOM      8  C8  1UN d   1       5.578  -4.031  16.322  0.00  0.00     0.180 C 
ATOM      9  C9  1UN d   1       4.828  -5.323  15.889  0.00  0.00    -0.026 C 
ATOM     10  C10 1UN d   1       3.483  -2.959  16.821  0.00  0.00     0.088 C 
ATOM     11  H1  1UN d   1       1.705  -4.194  16.885  0.00  0.00     0.043 H 
ATOM     12  H2  1UN d   1       3.639  -5.530  17.676  0.00  0.00     0.040 H 
ATOM     13  H3  1UN d   1       1.787  -6.789  16.793  0.00  0.00     0.033 H 
ATOM     14  H4  1UN d   1       3.319  -7.577  16.284  0.00  0.00     0.033 H 
ATOM     15  H5  1UN d   1       1.676  -7.425  14.419  0.00  0.00     0.033 H 
ATOM     16  H6  1UN d   1       3.173  -6.492  14.083  0.00  0.00     0.033 H 
ATOM     17  H7  1UN d   1       0.562  -5.304  15.176  0.00  0.00     0.033 H 
ATOM     18  H8  1UN d   1       1.093  -5.231  13.461  0.00  0.00     0.033 H 
ATOM     19  H9  1UN d   1       3.205  -3.995  14.211  0.00  0.00     0.033 H 
ATOM     20  H10 1UN d   1       1.714  -3.094  14.649  0.00  0.00     0.033 H 
ATOM     21  H11 1UN d   1       4.551  -2.792  15.052  0.00  0.00     0.281 HD
ATOM     22  H12 1UN d   1       5.811  -4.072  17.396  0.00  0.00     0.100 H 
ATOM     23  H13 1UN d   1       4.667  -5.294  14.801  0.00  0.00     0.037 H 
ATOM     24  H14 1UN d   1       5.446  -6.196  16.145  0.00  0.00     0.037 H 
ATOM     25  H15 1UN d   1       3.728  -3.111  17.883  0.00  0.00     0.076 H 
ATOM     26  H16 1UN d   1       2.901  -2.033  16.708  0.00  0.00     0.076 H 
ENDROOT
BRANCH   7  27
ATOM     27  C18 1UN d   1       5.338  -1.596  16.518  0.00  0.00     0.110 C 
ATOM     28  H27 1UN d   1       6.434  -1.657  16.442  0.00  0.00     0.080 H 
ATOM     29  H28 1UN d   1       5.052  -1.422  17.566  0.00  0.00     0.080 H 
BRANCH  27  30
ATOM     30  C19 1UN d   1       4.820  -0.446  15.641  0.00  0.00     0.079 C 
ATOM     31  H29 1UN d   1       3.745  -0.589  15.459  0.00  0.00     0.088 H 
BRANCH  30  32
ATOM     32  O21 1UN d   1       5.032   0.729  16.433  0.00  0.00    -0.392 OA
ATOM     33  H31 1UN d   1       4.545   0.654  17.245  0.00  0.00     0.210 HD
ENDBRANCH  30  32
BRANCH  30  34
ATOM     34  C20 1UN d   1       5.512  -0.302  14.283  0.00  0.00     0.047 C 
ATOM     35  H30 1UN d   1       5.463  -1.258  13.741  0.00  0.00     0.077 H 
BRANCH  34  36
ATOM     36  C23 1UN d   1       6.932   0.183  14.310  0.00  0.00     0.003 C 
ATOM     37  H33 1UN d   1       7.465  -0.293  15.146  0.00  0.00     0.052 H 
ATOM     38  H34 1UN d   1       6.943   1.275  14.442  0.00  0.00     0.052 H 
BRANCH  36  39
ATOM     39  S74 1UN d   1       7.747  -0.242  12.758  0.00  0.00    -0.128 SA
BRANCH  39  40
ATOM     40  C77 1UN d   1       7.704   1.203  11.820  0.00  0.00     0.000 A 
ATOM     41  C82 1UN d   1       7.436   2.428  12.412  0.00  0.00    -0.067 A 
ATOM     42  C81 1UN d   1       7.443   3.580  11.630  0.00  0.00    -0.082 A 
ATOM     43  H46 1UN d   1       7.223   2.488  13.473  0.00  0.00     0.085 H 
ATOM     44  C80 1UN d   1       7.714   3.451  10.264  0.00  0.00    -0.083 A 
ATOM     45  H45 1UN d   1       7.244   4.551  12.068  0.00  0.00     0.083 H 
ATOM     46  C79 1UN d   1       7.972   2.204   9.686  0.00  0.00    -0.082 A 
ATOM     47  H44 1UN d   1       7.724   4.337   9.640  0.00  0.00     0.083 H 
ATOM     48  C78 1UN d   1       7.968   1.062  10.464  0.00  0.00    -0.067 A 
ATOM     49  H43 1UN d   1       8.176   2.133   8.624  0.00  0.00     0.083 H 
ATOM     50  H42 1UN d   1       8.165   0.088  10.030  0.00  0.00     0.085 H 
ENDBRANCH  39  40
ENDBRANCH  36  39
ENDBRANCH  34  36
BRANCH  34  51
ATOM     51  N22 1UN d   1       4.758   0.743  13.606  0.00  0.00    -0.349 N 
ATOM     52  C24 1UN d   1       3.879   0.393  12.645  0.00  0.00     0.252 C 
ATOM     53  O25 1UN d   1       3.710  -0.787  12.306  0.00  0.00    -0.268 OA
ATOM     54  H32 1UN d   1       4.890   1.704  13.849  0.00  0.00     0.163 HD
BRANCH  52  55
ATOM     55  C29 1UN d   1       3.198   1.488  11.992  0.00  0.00     0.040 A 
ATOM     56  C34 1UN d   1       1.806   1.460  11.829  0.00  0.00    -0.013 A 
ATOM     57  C33 1UN d   1       1.206   2.570  11.229  0.00  0.00     0.072 A 
ATOM     58  C32 1UN d   1       1.951   3.659  10.753  0.00  0.00    -0.050 A 
ATOM     59  C31 1UN d   1       3.324   3.687  10.918  0.00  0.00    -0.079 A 
ATOM     60  H37 1UN d   1       1.450   4.481  10.255  0.00  0.00     0.087 H 
ATOM     61  C30 1UN d   1       3.939   2.596  11.522  0.00  0.00    -0.067 A 
ATOM     62  H36 1UN d   1       3.906   4.538  10.585  0.00  0.00     0.083 H 
ATOM     63  H35 1UN d   1       5.017   2.595  11.636  0.00  0.00     0.085 H 
BRANCH  56  64
ATOM     64  C39 1UN d   1       0.935   0.343  12.334  0.00  0.00    -0.048 C 
ATOM     65  H39 1UN d   1       1.566  -0.444  12.773  0.00  0.00     0.033 H 
ATOM     66  H40 1UN d   1       0.355  -0.076  11.499  0.00  0.00     0.033 H 
ATOM     67  H41 1UN d   1       0.247   0.732  13.100  0.00  0.00     0.033 H 
ENDBRANCH  56  64
BRANCH  57  68
ATOM     68  O38 1UN d   1      -0.164   2.619  11.201  0.00  0.00    -0.360 OA
ATOM     69  H38 1UN d   1      -0.458   2.727  10.304  0.00  0.00     0.217 HD
ENDBRANCH  57  68
ENDBRANCH  52  55
ENDBRANCH  34  51
ENDBRANCH  30  34
ENDBRANCH  27  30
ENDBRANCH   7  27
BRANCH   8  70
ATOM     70  C11 1UN d   1       6.848  -3.955  15.521  0.00  0.00     0.249 C 
ATOM     71  O17 1UN d   1       6.830  -3.538  14.345  0.00  0.00    -0.271 OA
ATOM     72  N12 1UN d   1       7.886  -4.465  16.233  0.00  0.00    -0.351 N 
ATOM     73  H17 1UN d   1       7.689  -4.821  17.146  0.00  0.00     0.163 HD
BRANCH  72  74
ATOM     74  C13 1UN d   1       9.289  -4.534  15.760  0.00  0.00     0.022 C 
BRANCH  74  75
ATOM     75  C16 1UN d   1      10.121  -5.118  16.937  0.00  0.00    -0.054 C 
ATOM     76  H24 1UN d   1      11.177  -5.191  16.638  0.00  0.00     0.030 H 
ATOM     77  H25 1UN d   1       9.742  -6.118  17.193  0.00  0.00     0.030 H 
ATOM     78  H26 1UN d   1      10.032  -4.457  17.812  0.00  0.00     0.030 H 
ENDBRANCH  74  75
BRANCH  74  79
ATOM     79  C15 1UN d   1       9.334  -5.409  14.470  0.00  0.00    -0.054 C 
ATOM     80  H21 1UN d   1      10.370  -5.471  14.105  0.00  0.00     0.030 H 
ATOM     81  H22 1UN d   1       8.699  -4.954  13.696  0.00  0.00     0.030 H 
ATOM     82  H23 1UN d   1       8.965  -6.420  14.699  0.00  0.00     0.030 H 
ENDBRANCH  74  79
BRANCH  74  83
ATOM     83  C14 1UN d   1       9.834  -3.158  15.420  0.00  0.00    -0.054 C 
ATOM     84  H18 1UN d   1      10.874  -3.251  15.074  0.00  0.00     0.030 H 
ATOM     85  H19 1UN d   1       9.801  -2.519  16.315  0.00  0.00     0.030 H 
ATOM     86  H20 1UN d   1       9.222  -2.707  14.625  0.00  0.00     0.030 H 
ENDBRANCH  74  83
ENDBRANCH  72  74
ENDBRANCH   8  70
TORSDOF 16
