REMARK  4 active torsions:
REMARK  status: ('A' for Active; 'I' for Inactive)
REMARK    1  A    between atoms: O4_1  and  C4_2 
REMARK    2  A    between atoms: C3_3  and  O3_4 
REMARK    3  A    between atoms: C5_8  and  C6_9 
REMARK    4  A    between atoms: C6_9  and  O6_10 
ROOT
ATOM      1  C4  IFM d   1      -0.859  10.697   7.780  0.00  0.00     0.069 C 
ATOM      2  C3  IFM d   1       0.020  11.921   8.209  0.00  0.00     0.084 C 
ATOM      3  C2  IFM d   1       0.477  11.865   9.677  0.00  0.00     0.107 C 
ATOM      4  N   IFM d   1      -0.617  11.509  10.602  0.00  0.00    -0.072 N 
ATOM      5  C1  IFM d   1      -1.447  10.355  10.192  0.00  0.00     0.089 C 
ATOM      6  C5  IFM d   1      -2.048  10.560   8.784  0.00  0.00     0.017 C 
ATOM      7  H2  IFM d   1      -0.262   9.774   7.827  0.00  0.00     0.087 H 
ATOM      8  H3  IFM d   1      -0.649  12.790   8.132  0.00  0.00     0.089 H 
ATOM      9  H5  IFM d   1       0.870  12.852   9.961  0.00  0.00     0.079 H 
ATOM     10  H6  IFM d   1       1.274  11.113   9.769  0.00  0.00     0.079 H 
ATOM     11  H7  IFM d   1      -1.222  12.310  10.691  0.00  0.00     0.277 HD
ATOM     12  H8  IFM d   1      -0.209  11.295  11.498  0.00  0.00     0.277 HD
ATOM     13  H9  IFM d   1      -2.266  10.229  10.915  0.00  0.00     0.076 H 
ATOM     14  H10 IFM d   1      -0.822   9.450  10.185  0.00  0.00     0.076 H 
ATOM     15  H11 IFM d   1      -2.637  11.489   8.760  0.00  0.00     0.049 H 
ENDROOT
BRANCH   6  16
ATOM     16  C6  IFM d   1      -2.991   9.373   8.493  0.00  0.00     0.024 C 
ATOM     17  H12 IFM d   1      -3.261   9.361   7.427  0.00  0.00     0.074 H 
ATOM     18  H13 IFM d   1      -3.903   9.460   9.102  0.00  0.00     0.074 H 
BRANCH  16  19
ATOM     19  O6  IFM d   1      -2.287   8.168   8.834  0.00  0.00    -0.400 OA
ATOM     20  H14 IFM d   1      -1.499   8.103   8.307  0.00  0.00     0.209 HD
ENDBRANCH  16  19
ENDBRANCH   6  16
BRANCH   1  21
ATOM     21  O4  IFM d   1      -1.245  10.921   6.420  0.00  0.00    -0.392 OA
ATOM     22  H1  IFM d   1      -1.782  10.197   6.121  0.00  0.00     0.210 HD
ENDBRANCH   1  21
BRANCH   2  23
ATOM     23  O3  IFM d   1       1.128  12.216   7.364  0.00  0.00    -0.391 OA
ATOM     24  H4  IFM d   1       0.815  12.408   6.488  0.00  0.00     0.210 HD
ENDBRANCH   2  23
TORSDOF 4
