REMARK  5 active torsions:
REMARK  status: ('A' for Active; 'I' for Inactive)
REMARK    1  A    between atoms: C1_1  and  S_14 
REMARK    2  A    between atoms: C5_6  and  N_11 
REMARK    3  A    between atoms: N_11  and  CM2_13 
REMARK    4  A    between atoms: N_11  and  CM1_12 
REMARK    5  A    between atoms: S_14  and  N3S_17 
ROOT
ATOM      1  C1  MNS d   1      -5.267   2.011  15.709  0.00  0.00     0.090 A 
ATOM      2  C2  MNS d   1      -4.551   1.523  14.598  0.00  0.00    -0.059 A 
ATOM      3  C3  MNS d   1      -4.085   2.433  13.654  0.00  0.00    -0.081 A 
ATOM      4  C4  MNS d   1      -4.327   3.804  13.810  0.00  0.00    -0.070 A 
ATOM      5  C4A MNS d   1      -5.037   4.365  14.897  0.00  0.00     0.002 A 
ATOM      6  C5  MNS d   1      -5.294   5.766  15.074  0.00  0.00     0.040 A 
ATOM      7  C6  MNS d   1      -6.016   6.186  16.207  0.00  0.00    -0.057 A 
ATOM      8  C7  MNS d   1      -6.491   5.276  17.166  0.00  0.00    -0.080 A 
ATOM      9  C8  MNS d   1      -6.233   3.905  16.983  0.00  0.00    -0.071 A 
ATOM     10  C8A MNS d   1      -5.513   3.424  15.865  0.00  0.00    -0.000 A 
ATOM     11  H1  MNS d   1      -4.367   0.461  14.481  0.00  0.00     0.085 H 
ATOM     12  H2  MNS d   1      -3.531   2.079  12.792  0.00  0.00     0.083 H 
ATOM     13  H3  MNS d   1      -3.946   4.477  13.050  0.00  0.00     0.084 H 
ATOM     14  H4  MNS d   1      -6.211   7.244  16.344  0.00  0.00     0.086 H 
ATOM     15  H5  MNS d   1      -7.045   5.623  18.030  0.00  0.00     0.083 H 
ATOM     16  H6  MNS d   1      -6.596   3.198  17.720  0.00  0.00     0.084 H 
ENDROOT
BRANCH   6  17
ATOM     17  N   MNS d   1      -4.782   6.764  14.034  0.00  0.00    -0.389 N 
BRANCH  17  18
ATOM     18  CM2 MNS d   1      -5.469   6.622  12.900  0.00  0.00    -0.019 C 
ATOM     19  H10 MNS d   1      -6.543   6.560  13.127  0.00  0.00     0.056 H 
ATOM     20  H11 MNS d   1      -5.149   5.702  12.390  0.00  0.00     0.056 H 
ATOM     21  H12 MNS d   1      -5.282   7.487  12.247  0.00  0.00     0.056 H 
ENDBRANCH  17  18
BRANCH  17  22
ATOM     22  CM1 MNS d   1      -3.576   6.860  14.110  0.00  0.00    -0.019 C 
ATOM     23  H7  MNS d   1      -3.217   7.579  13.359  0.00  0.00     0.056 H 
ATOM     24  H8  MNS d   1      -3.118   5.877  13.925  0.00  0.00     0.056 H 
ATOM     25  H9  MNS d   1      -3.299   7.211  15.115  0.00  0.00     0.056 H 
ENDBRANCH  17  22
ENDBRANCH   6  17
BRANCH   1  26
ATOM     26  S   MNS d   1      -5.860   0.929  16.897  0.00  0.00     0.257 S 
ATOM     27  O2S MNS d   1      -5.251   1.273  18.220  0.00  0.00    -0.201 OA
ATOM     28  O1S MNS d   1      -7.349   1.047  16.967  0.00  0.00    -0.201 OA
BRANCH  26  29
ATOM     29  N3S MNS d   1      -5.486  -0.470  16.524  0.00  0.00    -0.324 N 
ATOM     30  H13 MNS d   1      -5.755  -1.233  17.112  0.00  0.00     0.169 HD
ATOM     31  H14 MNS d   1      -4.967  -0.642  15.687  0.00  0.00     0.169 HD
ENDBRANCH  26  29
ENDBRANCH   1  26
TORSDOF 5
