REMARK  11 active torsions:
REMARK  status: ('A' for Active; 'I' for Inactive)
REMARK    1  A    between atoms: C2_2  and  C2A_3 
REMARK    2  A    between atoms: C4_5  and  N4_6 
REMARK    3  A    between atoms: C5_7  and  C35_9 
REMARK    4  A    between atoms: C35_9  and  N3_10 
REMARK    5  A    between atoms: C5_13  and  C5A_16 
REMARK    6  A    between atoms: C4_14  and  C4A_15 
REMARK    7  A    between atoms: C5A_16  and  C5B_17 
REMARK    8  A    between atoms: C5B_17  and  O5G_18 
REMARK    9  A    between atoms: O5G_18  and  P1_19 
REMARK   10  A    between atoms: P1_19  and  O11_20 
REMARK   11  A    between atoms: O11_20  and  P2_23 
ROOT
ATOM      1  N3  TDP d   1      75.767   1.770   7.113  0.00  0.00    -0.349 N 
ATOM      2  C2  TDP d   1      75.730   3.024   6.520  0.00  0.00     0.018 A 
ATOM      3  S1  TDP d   1      74.075   3.424   6.028  0.00  0.00    -0.087 SA
ATOM      4  C5  TDP d   1      73.492   1.883   6.638  0.00  0.00     0.008 A 
ATOM      5  C4  TDP d   1      74.446   1.063   7.188  0.00  0.00     0.021 A 
ATOM      6  H9  TDP d   1      76.595   3.670   6.377  0.00  0.00     0.123 H 
ENDROOT
BRANCH   1   7
ATOM      7  C35 TDP d   1      77.006   1.198   7.633  0.00  0.00     0.028 C 
ATOM      8  H7  TDP d   1      77.023   0.122   7.407  0.00  0.00     0.072 H 
ATOM      9  H8  TDP d   1      77.859   1.690   7.142  0.00  0.00     0.072 H 
BRANCH   7  10
ATOM     10  C5  TDP d   1      77.131   1.389   9.157  0.00  0.00     0.023 A 
ATOM     11  C4  TDP d   1      77.435   2.670   9.775  0.00  0.00     0.132 A 
ATOM     12  N3  TDP d   1      77.560   2.844  11.151  0.00  0.00    -0.216 NA
ATOM     13  C2  TDP d   1      77.380   1.771  11.927  0.00  0.00     0.124 A 
ATOM     14  N1  TDP d   1      77.079   0.531  11.428  0.00  0.00    -0.245 NA
ATOM     15  C6  TDP d   1      76.959   0.333  10.086  0.00  0.00     0.015 A 
ATOM     16  H6  TDP d   1      76.725  -0.660   9.718  0.00  0.00     0.116 H 
BRANCH  11  17
ATOM     17  N4  TDP d   1      77.624   3.833   9.013  0.00  0.00    -0.383 N 
ATOM     18  H4  TDP d   1      77.549   3.794   7.987  0.00  0.00     0.157 HD
ATOM     19  H5  TDP d   1      77.837   4.726   9.480  0.00  0.00     0.157 HD
ENDBRANCH  11  17
BRANCH  13  20
ATOM     20  C2A TDP d   1      77.503   1.896  13.460  0.00  0.00    -0.019 C 
ATOM     21  H1  TDP d   1      77.323   0.915  13.924  0.00  0.00     0.037 H 
ATOM     22  H2  TDP d   1      76.760   2.618  13.830  0.00  0.00     0.037 H 
ATOM     23  H3  TDP d   1      78.514   2.244  13.720  0.00  0.00     0.037 H 
ENDBRANCH  13  20
ENDBRANCH   7  10
ENDBRANCH   1   7
BRANCH   5  24
ATOM     24  C4A TDP d   1      74.267  -0.348   7.796  0.00  0.00    -0.036 C 
ATOM     25  H10 TDP d   1      73.209  -0.643   7.733  0.00  0.00     0.035 H 
ATOM     26  H11 TDP d   1      74.582  -0.336   8.850  0.00  0.00     0.035 H 
ATOM     27  H12 TDP d   1      74.883  -1.069   7.238  0.00  0.00     0.035 H 
ENDBRANCH   5  24
BRANCH   4  28
ATOM     28  C5A TDP d   1      72.000   1.718   6.475  0.00  0.00    -0.013 C 
ATOM     29  H13 TDP d   1      71.707   0.709   6.799  0.00  0.00     0.044 H 
ATOM     30  H14 TDP d   1      71.731   1.856   5.417  0.00  0.00     0.044 H 
BRANCH  28  31
ATOM     31  C5B TDP d   1      71.253   2.775   7.340  0.00  0.00     0.036 C 
ATOM     32  H15 TDP d   1      71.442   3.782   6.939  0.00  0.00     0.075 H 
ATOM     33  H16 TDP d   1      71.609   2.721   8.380  0.00  0.00     0.075 H 
BRANCH  31  34
ATOM     34  O5G TDP d   1      69.850   2.493   7.295  0.00  0.00    -0.289 OA
BRANCH  34  35
ATOM     35  P1  TDP d   1      68.830   3.582   7.737  0.00  0.00     0.418 P 
ATOM     36  O12 TDP d   1      69.191   4.070   9.115  0.00  0.00    -0.624 OA
ATOM     37  O13 TDP d   1      67.492   2.938   7.729  0.00  0.00    -0.624 OA
BRANCH  35  38
ATOM     38  O11 TDP d   1      68.840   4.780   6.713  0.00  0.00    -0.173 OA
BRANCH  38  39
ATOM     39  P2  TDP d   1      68.551   4.938   5.132  0.00  0.00     0.431 P 
ATOM     40  O21 TDP d   1      67.973   6.353   4.975  0.00  0.00    -0.616 OA
ATOM     41  O22 TDP d   1      69.915   4.807   4.500  0.00  0.00    -0.616 OA
ATOM     42  O23 TDP d   1      67.590   3.937   4.630  0.00  0.00    -0.616 OA
ENDBRANCH  38  39
ENDBRANCH  35  38
ENDBRANCH  34  35
ENDBRANCH  31  34
ENDBRANCH  28  31
ENDBRANCH   4  28
TORSDOF 11
