REMARK  11 active torsions:
REMARK  status: ('A' for Active; 'I' for Inactive)
REMARK    1  A    between atoms: C2_2  and  C2A_3 
REMARK    2  A    between atoms: C4_5  and  N4_6 
REMARK    3  A    between atoms: C5_7  and  C35_9 
REMARK    4  A    between atoms: C35_9  and  N3_10 
REMARK    5  A    between atoms: C5_13  and  C5A_16 
REMARK    6  A    between atoms: C4_14  and  C4A_15 
REMARK    7  A    between atoms: C5A_16  and  C5B_17 
REMARK    8  A    between atoms: C5B_17  and  O5G_18 
REMARK    9  A    between atoms: O5G_18  and  P1_19 
REMARK   10  A    between atoms: P1_19  and  O11_20 
REMARK   11  A    between atoms: O11_20  and  P2_23 
ROOT
ATOM      1  N3  TDP d   1      75.932   1.866   7.319  0.00  0.00    -0.349 N 
ATOM      2  C2  TDP d   1      75.950   3.112   6.731  0.00  0.00     0.018 A 
ATOM      3  S1  TDP d   1      74.329   3.572   6.200  0.00  0.00    -0.087 SA
ATOM      4  C5  TDP d   1      73.680   2.057   6.779  0.00  0.00     0.008 A 
ATOM      5  C4  TDP d   1      74.583   1.217   7.354  0.00  0.00     0.021 A 
ATOM      6  H9  TDP d   1      76.840   3.728   6.610  0.00  0.00     0.123 H 
ENDROOT
BRANCH   1   7
ATOM      7  C35 TDP d   1      77.159   1.249   7.881  0.00  0.00     0.028 C 
ATOM      8  H7  TDP d   1      77.148   0.173   7.654  0.00  0.00     0.072 H 
ATOM      9  H8  TDP d   1      78.036   1.715   7.408  0.00  0.00     0.072 H 
BRANCH   7  10
ATOM     10  C5  TDP d   1      77.266   1.432   9.414  0.00  0.00     0.023 A 
ATOM     11  C4  TDP d   1      77.541   2.713  10.048  0.00  0.00     0.132 A 
ATOM     12  N3  TDP d   1      77.643   2.894  11.381  0.00  0.00    -0.216 NA
ATOM     13  C2  TDP d   1      77.463   1.783  12.158  0.00  0.00     0.124 A 
ATOM     14  N1  TDP d   1      77.201   0.565  11.650  0.00  0.00    -0.245 NA
ATOM     15  C6  TDP d   1      77.099   0.375  10.320  0.00  0.00     0.015 A 
ATOM     16  H6  TDP d   1      76.883  -0.618   9.942  0.00  0.00     0.116 H 
BRANCH  11  17
ATOM     17  N4  TDP d   1      77.733   3.844   9.315  0.00  0.00    -0.383 N 
ATOM     18  H4  TDP d   1      77.675   3.808   8.287  0.00  0.00     0.157 HD
ATOM     19  H5  TDP d   1      77.936   4.736   9.788  0.00  0.00     0.157 HD
ENDBRANCH  11  17
BRANCH  13  20
ATOM     20  C2A TDP d   1      77.555   1.866  13.683  0.00  0.00    -0.019 C 
ATOM     21  H1  TDP d   1      77.380   0.870  14.116  0.00  0.00     0.037 H 
ATOM     22  H2  TDP d   1      76.795   2.567  14.059  0.00  0.00     0.037 H 
ATOM     23  H3  TDP d   1      78.555   2.221  13.971  0.00  0.00     0.037 H 
ENDBRANCH  13  20
ENDBRANCH   7  10
ENDBRANCH   1   7
BRANCH   5  24
ATOM     24  C4A TDP d   1      74.314  -0.172   7.960  0.00  0.00    -0.036 C 
ATOM     25  H10 TDP d   1      73.246  -0.415   7.859  0.00  0.00     0.035 H 
ATOM     26  H11 TDP d   1      74.590  -0.167   9.025  0.00  0.00     0.035 H 
ATOM     27  H12 TDP d   1      74.914  -0.926   7.429  0.00  0.00     0.035 H 
ENDBRANCH   5  24
BRANCH   4  28
ATOM     28  C5A TDP d   1      72.180   1.921   6.560  0.00  0.00    -0.013 C 
ATOM     29  H13 TDP d   1      71.894   0.865   6.674  0.00  0.00     0.044 H 
ATOM     30  H14 TDP d   1      71.933   2.260   5.543  0.00  0.00     0.044 H 
BRANCH  28  31
ATOM     31  C5B TDP d   1      71.388   2.775   7.586  0.00  0.00     0.036 C 
ATOM     32  H15 TDP d   1      71.713   3.825   7.531  0.00  0.00     0.075 H 
ATOM     33  H16 TDP d   1      71.556   2.392   8.603  0.00  0.00     0.075 H 
BRANCH  31  34
ATOM     34  O5G TDP d   1      69.999   2.674   7.248  0.00  0.00    -0.289 OA
BRANCH  34  35
ATOM     35  P1  TDP d   1      68.972   3.706   7.749  0.00  0.00     0.418 P 
ATOM     36  O12 TDP d   1      69.277   4.094   9.175  0.00  0.00    -0.624 OA
ATOM     37  O13 TDP d   1      67.642   3.038   7.640  0.00  0.00    -0.624 OA
BRANCH  35  38
ATOM     38  O11 TDP d   1      69.013   4.985   6.836  0.00  0.00    -0.173 OA
BRANCH  38  39
ATOM     39  P2  TDP d   1      68.759   5.237   5.270  0.00  0.00     0.431 P 
ATOM     40  O21 TDP d   1      68.242   6.670   5.202  0.00  0.00    -0.616 OA
ATOM     41  O22 TDP d   1      70.108   5.099   4.629  0.00  0.00    -0.616 OA
ATOM     42  O23 TDP d   1      67.757   4.283   4.756  0.00  0.00    -0.616 OA
ENDBRANCH  38  39
ENDBRANCH  35  38
ENDBRANCH  34  35
ENDBRANCH  31  34
ENDBRANCH  28  31
ENDBRANCH   4  28
TORSDOF 11
