REMARK  2 active torsions:
REMARK  status: ('A' for Active; 'I' for Inactive)
REMARK    1  A    between atoms: C20_2  and  C18_4 
REMARK    2  A    between atoms: C18_4  and  C5_5 
ROOT
ATOM      1  C5  IQA d   1      23.249   7.308  17.326  0.00  0.00     0.009 A 
ATOM      2  C8  IQA d   1      22.980   6.952  18.577  0.00  0.00     0.123 A 
ATOM      3  N11 IQA d   1      23.525   5.842  19.216  0.00  0.00    -0.308 N 
ATOM      4  C10 IQA d   1      23.186   5.533  20.555  0.00  0.00     0.259 A 
ATOM      5  O19 IQA d   1      23.703   4.520  21.093  0.00  0.00    -0.267 OA
ATOM      6  C12 IQA d   1      22.227   6.394  21.324  0.00  0.00     0.059 A 
ATOM      7  C17 IQA d   1      21.885   6.076  22.685  0.00  0.00    -0.065 A 
ATOM      8  C16 IQA d   1      20.970   6.895  23.423  0.00  0.00    -0.082 A 
ATOM      9  C15 IQA d   1      20.385   8.036  22.827  0.00  0.00    -0.081 A 
ATOM     10  C14 IQA d   1      20.711   8.377  21.461  0.00  0.00    -0.056 A 
ATOM     11  C13 IQA d   1      21.644   7.568  20.664  0.00  0.00     0.057 A 
ATOM     12  N9  IQA d   1      22.049   7.837  19.238  0.00  0.00    -0.295 N 
ATOM     13  C7  IQA d   1      21.714   8.840  18.288  0.00  0.00     0.052 A 
ATOM     14  C6  IQA d   1      22.440   8.552  17.080  0.00  0.00     0.002 A 
ATOM     15  C4  IQA d   1      22.305   9.413  15.912  0.00  0.00    -0.070 A 
ATOM     16  C1  IQA d   1      21.423  10.559  16.008  0.00  0.00    -0.082 A 
ATOM     17  C2  IQA d   1      20.708  10.834  17.207  0.00  0.00    -0.081 A 
ATOM     18  C3  IQA d   1      20.838   9.988  18.358  0.00  0.00    -0.056 A 
ATOM     19  H3  IQA d   1      24.166   5.254  18.722  0.00  0.00     0.170 HD
ATOM     20  H4  IQA d   1      22.325   5.206  23.158  0.00  0.00     0.085 H 
ATOM     21  H5  IQA d   1      20.724   6.638  24.447  0.00  0.00     0.083 H 
ATOM     22  H6  IQA d   1      19.695   8.652  23.392  0.00  0.00     0.083 H 
ATOM     23  H7  IQA d   1      20.256   9.252  21.012  0.00  0.00     0.087 H 
ATOM     24  H8  IQA d   1      22.849   9.202  14.998  0.00  0.00     0.084 H 
ATOM     25  H9  IQA d   1      21.306  11.216  15.154  0.00  0.00     0.083 H 
ATOM     26  H10 IQA d   1      20.054  11.697  17.251  0.00  0.00     0.083 H 
ATOM     27  H11 IQA d   1      20.288  10.206  19.266  0.00  0.00     0.087 H 
ENDROOT
BRANCH   1  28
ATOM     28  C18 IQA d   1      24.274   6.413  16.458  0.00  0.00     0.044 C 
ATOM     29  H1  IQA d   1      25.257   6.620  16.906  0.00  0.00     0.056 H 
ATOM     30  H2  IQA d   1      23.980   5.377  16.680  0.00  0.00     0.056 H 
BRANCH  28  31
ATOM     31  C20 IQA d   1      24.543   6.411  14.947  0.00  0.00     0.177 C 
ATOM     32  O21 IQA d   1      23.857   7.315  14.090  0.00  0.00    -0.648 OA
ATOM     33  O22 IQA d   1      25.399   5.583  14.400  0.00  0.00    -0.648 OA
ENDBRANCH  28  31
ENDBRANCH   1  28
TORSDOF 2
