REMARK  18 active torsions:
REMARK  status: ('A' for Active; 'I' for Inactive)
REMARK    1  A    between atoms: C24_2  and  C8_4 
REMARK       I    between atoms: C8_4  and  N4_6 
REMARK    2  A    between atoms: N4_6  and  C2_7 
REMARK    3  A    between atoms: N4_6  and  C26_33 
REMARK    4  A    between atoms: C5_10  and  C7_18 
REMARK    5  A    between atoms: C1_12  and  C17_13 
REMARK    6  A    between atoms: C17_13  and  C18_14 
REMARK    7  A    between atoms: C18_14  and  C19_15 
REMARK       I    between atoms: C19_15  and  N3_17 
REMARK    8  A    between atoms: C7_18  and  C9_19 
REMARK    9  A    between atoms: C9_19  and  N1_20 
REMARK   10  A    between atoms: C9_19  and  C11_25 
REMARK   11  A    between atoms: N1_20  and  S1_21 
REMARK   12  A    between atoms: S1_21  and  C20_24 
REMARK       I    between atoms: C11_25  and  N2_27 
REMARK   13  A    between atoms: N2_27  and  C12_28 
REMARK   14  A    between atoms: C12_28  and  C13_29 
REMARK   15  A    between atoms: C13_29  and  C15_30 
REMARK   16  A    between atoms: C15_30  and  C14_31 
REMARK   17  A    between atoms: C14_31  and  C16_32 
REMARK   18  A    between atoms: C25_38  and  C31_39 
ROOT
ATOM      1  C2  588 d   1      33.433  28.684  21.024  0.00  0.00     0.049 A 
ATOM      2  C3  588 d   1      32.094  29.088  21.337  0.00  0.00    -0.056 A 
ATOM      3  C4  588 d   1      31.490  30.177  20.705  0.00  0.00    -0.075 A 
ATOM      4  C5  588 d   1      32.192  30.917  19.728  0.00  0.00    -0.055 A 
ATOM      5  C6  588 d   1      33.526  30.544  19.404  0.00  0.00    -0.069 A 
ATOM      6  C1  588 d   1      34.172  29.438  20.035  0.00  0.00    -0.030 A 
ATOM      7  H1  588 d   1      31.536  28.534  22.083  0.00  0.00     0.087 H 
ATOM      8  H2  588 d   1      30.476  30.456  20.966  0.00  0.00     0.084 H 
ATOM      9  H3  588 d   1      34.067  31.115  18.658  0.00  0.00     0.085 H 
ENDROOT
BRANCH   4  10
ATOM     10  C7  588 d   1      31.512  32.076  19.038  0.00  0.00    -0.013 C 
ATOM     11  H10 588 d   1      32.231  32.905  18.963  0.00  0.00     0.043 H 
ATOM     12  H11 588 d   1      30.654  32.389  19.651  0.00  0.00     0.043 H 
BRANCH  10  13
ATOM     13  C9  588 d   1      30.993  31.742  17.598  0.00  0.00     0.100 C 
ATOM     14  H12 588 d   1      31.856  31.470  16.973  0.00  0.00     0.088 H 
BRANCH  13  15
ATOM     15  N1  588 d   1      30.371  32.935  17.034  0.00  0.00    -0.306 N 
ATOM     16  H13 588 d   1      29.891  33.584  17.624  0.00  0.00     0.173 HD
BRANCH  15  17
ATOM     17  S1  588 d   1      30.478  33.211  15.314  0.00  0.00     0.223 S 
ATOM     18  O4  588 d   1      29.382  32.467  14.782  0.00  0.00    -0.206 OA
ATOM     19  O2  588 d   1      31.811  32.800  14.972  0.00  0.00    -0.206 OA
BRANCH  17  20
ATOM     20  C20 588 d   1      30.297  34.947  15.004  0.00  0.00     0.032 C 
ATOM     21  H14 588 d   1      30.363  35.135  13.922  0.00  0.00     0.051 H 
ATOM     22  H15 588 d   1      31.097  35.497  15.521  0.00  0.00     0.051 H 
ATOM     23  H16 588 d   1      29.319  35.286  15.376  0.00  0.00     0.051 H 
ENDBRANCH  17  20
ENDBRANCH  15  17
ENDBRANCH  13  15
BRANCH  13  24
ATOM     24  C11 588 d   1      30.007  30.540  17.600  0.00  0.00     0.241 C 
ATOM     25  O8  588 d   1      30.406  29.381  17.527  0.00  0.00    -0.271 OA
ATOM     26  N2  588 d   1      28.705  30.901  17.704  0.00  0.00    -0.359 N 
ATOM     27  H17 588 d   1      28.477  31.873  17.762  0.00  0.00     0.162 HD
BRANCH  26  28
ATOM     28  C12 588 d   1      27.617  29.915  17.734  0.00  0.00    -0.005 C 
ATOM     29  H18 588 d   1      28.004  28.955  18.106  0.00  0.00     0.064 H 
ATOM     30  H19 588 d   1      27.218  29.780  16.718  0.00  0.00     0.064 H 
BRANCH  28  31
ATOM     31  C13 588 d   1      26.496  30.405  18.660  0.00  0.00    -0.050 C 
ATOM     32  H20 588 d   1      25.616  29.760  18.522  0.00  0.00     0.035 H 
ATOM     33  H21 588 d   1      26.239  31.439  18.387  0.00  0.00     0.035 H 
BRANCH  31  34
ATOM     34  C15 588 d   1      26.905  30.372  20.142  0.00  0.00    -0.064 C 
ATOM     35  H22 588 d   1      27.993  30.519  20.212  0.00  0.00     0.033 H 
ATOM     36  H23 588 d   1      26.640  29.390  20.560  0.00  0.00     0.033 H 
BRANCH  34  37
ATOM     37  C14 588 d   1      26.210  31.458  20.963  0.00  0.00    -0.068 C 
ATOM     38  H24 588 d   1      25.229  31.668  20.512  0.00  0.00     0.032 H 
ATOM     39  H25 588 d   1      26.827  32.368  20.939  0.00  0.00     0.032 H 
BRANCH  37  40
ATOM     40  C16 588 d   1      26.002  31.042  22.423  0.00  0.00    -0.077 C 
ATOM     41  H26 588 d   1      25.500  31.855  22.968  0.00  0.00     0.027 H 
ATOM     42  H27 588 d   1      26.977  30.836  22.888  0.00  0.00     0.027 H 
ATOM     43  H28 588 d   1      25.379  30.136  22.461  0.00  0.00     0.027 H 
ENDBRANCH  37  40
ENDBRANCH  34  37
ENDBRANCH  31  34
ENDBRANCH  28  31
ENDBRANCH  26  28
ENDBRANCH  13  24
ENDBRANCH  10  13
ENDBRANCH   4  10
BRANCH   6  44
ATOM     44  C17 588 d   1      35.599  29.099  19.650  0.00  0.00    -0.031 C 
ATOM     45  H4  588 d   1      36.000  28.413  20.411  0.00  0.00     0.040 H 
ATOM     46  H5  588 d   1      36.181  30.033  19.655  0.00  0.00     0.040 H 
BRANCH  44  47
ATOM     47  C18 588 d   1      35.782  28.440  18.281  0.00  0.00     0.013 C 
ATOM     48  H6  588 d   1      35.257  29.029  17.515  0.00  0.00     0.047 H 
ATOM     49  H7  588 d   1      35.371  27.420  18.305  0.00  0.00     0.047 H 
BRANCH  47  50
ATOM     50  C19 588 d   1      37.290  28.382  17.945  0.00  0.00     0.215 C 
ATOM     51  O1  588 d   1      37.749  28.972  16.983  0.00  0.00    -0.274 OA
ATOM     52  N3  588 d   1      38.036  27.641  18.782  0.00  0.00    -0.370 N 
ATOM     53  H8  588 d   1      39.021  27.555  18.631  0.00  0.00     0.159 HD
ATOM     54  H9  588 d   1      37.606  27.176  19.556  0.00  0.00     0.159 HD
ENDBRANCH  47  50
ENDBRANCH  44  47
ENDBRANCH   6  44
BRANCH   1  55
ATOM     55  N4  588 d   1      33.938  27.567  21.721  0.00  0.00    -0.272 N 
ATOM     56  C8  588 d   1      34.417  27.753  23.040  0.00  0.00     0.329 C 
ATOM     57  O5  588 d   1      34.591  26.800  23.810  0.00  0.00    -0.260 OA
BRANCH  56  58
ATOM     58  C24 588 d   1      34.759  29.181  23.579  0.00  0.00     0.270 C 
ATOM     59  O6  588 d   1      35.671  29.820  23.144  0.00  0.00    -0.640 OA
ATOM     60  O7  588 d   1      33.956  29.686  24.549  0.00  0.00    -0.640 OA
ENDBRANCH  56  58
BRANCH  55  61
ATOM     61  C26 588 d   1      33.916  26.260  21.086  0.00  0.00     0.060 A 
ATOM     62  C27 588 d   1      32.672  25.832  20.464  0.00  0.00    -0.056 A 
ATOM     63  C28 588 d   1      32.523  24.592  19.816  0.00  0.00    -0.081 A 
ATOM     64  H29 588 d   1      31.819  26.500  20.502  0.00  0.00     0.087 H 
ATOM     65  C29 588 d   1      33.605  23.700  19.752  0.00  0.00    -0.082 A 
ATOM     66  H30 588 d   1      31.573  24.326  19.366  0.00  0.00     0.083 H 
ATOM     67  C30 588 d   1      34.837  24.055  20.335  0.00  0.00    -0.064 A 
ATOM     68  H31 588 d   1      33.493  22.742  19.256  0.00  0.00     0.083 H 
ATOM     69  C25 588 d   1      35.035  25.302  21.003  0.00  0.00     0.068 A 
ATOM     70  H32 588 d   1      35.664  23.357  20.275  0.00  0.00     0.085 H 
BRANCH  69  71
ATOM     71  C31 588 d   1      36.407  25.507  21.562  0.00  0.00     0.211 C 
ATOM     72  O9  588 d   1      36.911  24.606  22.186  0.00  0.00    -0.644 OA
ATOM     73  O10 588 d   1      37.049  26.537  21.453  0.00  0.00    -0.644 OA
ENDBRANCH  69  71
ENDBRANCH  55  61
ENDBRANCH   1  55
TORSDOF 18
