REMARK  5 active torsions:
REMARK  status: ('A' for Active; 'I' for Inactive)
REMARK    1  A    between atoms: C20_2  and  C18_4 
REMARK       I    between atoms: C18_4  and  N17_6 
REMARK    2  A    between atoms: N17_6  and  C19_7 
REMARK    3  A    between atoms: N17_6  and  C13_16 
REMARK    4  A    between atoms: C28_12  and  C33_13 
REMARK    5  A    between atoms: C6_23  and  O36_24 
ROOT
ATOM      1  C18 968 d   1      34.895  27.660  22.873  0.00  0.00     0.329 C 
ATOM      2  O23 968 d   1      34.407  26.803  23.691  0.00  0.00    -0.260 OA
ATOM      3  N17 968 d   1      34.208  27.437  21.597  0.00  0.00    -0.272 N 
ENDROOT
BRANCH   3   4
ATOM      4  C19 968 d   1      34.139  26.078  20.995  0.00  0.00     0.060 A 
ATOM      5  C24 968 d   1      32.849  25.686  20.365  0.00  0.00    -0.056 A 
ATOM      6  C25 968 d   1      32.614  24.407  19.735  0.00  0.00    -0.081 A 
ATOM      7  H1  968 d   1      32.036  26.403  20.380  0.00  0.00     0.087 H 
ATOM      8  C26 968 d   1      33.661  23.422  19.689  0.00  0.00    -0.082 A 
ATOM      9  H2  968 d   1      31.647  24.189  19.296  0.00  0.00     0.083 H 
ATOM     10  C27 968 d   1      34.930  23.719  20.269  0.00  0.00    -0.064 A 
ATOM     11  H3  968 d   1      33.487  22.462  19.217  0.00  0.00     0.083 H 
ATOM     12  C28 968 d   1      35.223  25.033  20.935  0.00  0.00     0.068 A 
ATOM     13  H4  968 d   1      35.712  22.969  20.228  0.00  0.00     0.085 H 
BRANCH  12  14
ATOM     14  C33 968 d   1      36.622  25.150  21.482  0.00  0.00     0.211 C 
ATOM     15  O34 968 d   1      37.094  24.066  22.194  0.00  0.00    -0.644 OA
ATOM     16  O35 968 d   1      37.297  26.132  21.332  0.00  0.00    -0.644 OA
ENDBRANCH  12  14
ENDBRANCH   3   4
BRANCH   3  17
ATOM     17  C13 968 d   1      33.607  28.567  20.916  0.00  0.00     0.054 A 
ATOM     18  C12 968 d   1      32.310  29.075  21.340  0.00  0.00    -0.056 A 
ATOM     19  C11 968 d   1      31.659  30.205  20.694  0.00  0.00    -0.080 A 
ATOM     20  H5  968 d   1      31.809  28.592  22.171  0.00  0.00     0.087 H 
ATOM     21  C10 968 d   1      32.291  30.874  19.582  0.00  0.00    -0.072 A 
ATOM     22  H6  968 d   1      30.694  30.546  21.050  0.00  0.00     0.083 H 
ATOM     23  C3  968 d   1      33.596  30.393  19.121  0.00  0.00    -0.024 A 
ATOM     24  H7  968 d   1      31.810  31.716  19.098  0.00  0.00     0.084 H 
ATOM     25  C2  968 d   1      34.240  31.048  18.000  0.00  0.00    -0.070 A 
ATOM     26  C4  968 d   1      34.258  29.251  19.780  0.00  0.00     0.004 A 
ATOM     27  C1  968 d   1      35.550  30.587  17.515  0.00  0.00    -0.050 A 
ATOM     28  H8  968 d   1      33.752  31.885  17.515  0.00  0.00     0.085 H 
ATOM     29  C6  968 d   1      36.202  29.479  18.157  0.00  0.00     0.066 A 
ATOM     30  H9  968 d   1      36.023  31.082  16.675  0.00  0.00     0.087 H 
ATOM     31  C5  968 d   1      35.562  28.825  19.268  0.00  0.00    -0.038 A 
ATOM     32  H11 968 d   1      36.062  27.988  19.742  0.00  0.00     0.089 H 
BRANCH  29  33
ATOM     33  O36 968 d   1      37.452  29.026  17.712  0.00  0.00    -0.361 OA
ATOM     34  H10 968 d   1      37.731  28.292  18.247  0.00  0.00     0.217 HD
ENDBRANCH  29  33
ENDBRANCH   3  17
BRANCH   1  35
ATOM     35  C20 968 d   1      34.971  29.078  23.507  0.00  0.00     0.270 C 
ATOM     36  O21 968 d   1      35.866  29.895  23.296  0.00  0.00    -0.640 OA
ATOM     37  O22 968 d   1      33.916  29.371  24.334  0.00  0.00    -0.640 OA
ENDBRANCH   1  35
TORSDOF 5
