REMARK  13 active torsions:
REMARK  status: ('A' for Active; 'I' for Inactive)
REMARK    1  A    between atoms: C2_3  and  C21_4 
REMARK       I    between atoms: C21_4  and  N21_6 
REMARK    2  A    between atoms: C3_7  and  O3_8 
REMARK    3  A    between atoms: C4_9  and  N4_10 
REMARK    4  A    between atoms: N4_10  and  C43_12 
REMARK    5  A    between atoms: N4_10  and  C42_11 
REMARK    6  A    between atoms: C9_20  and  N9_31 
REMARK    7  A    between atoms: C10_21  and  O10_22 
REMARK    8  A    between atoms: C12_27  and  O12_28 
REMARK    9  A    between atoms: C1C_29  and  O1C_30 
REMARK       I    between atoms: N9_31  and  C91_32 
REMARK   10  A    between atoms: C91_32  and  C92_34 
REMARK   11  A    between atoms: C92_34  and  N92_35 
REMARK   12  A    between atoms: N92_35  and  C94_37 
REMARK   13  A    between atoms: N92_35  and  C93_36 
ROOT
ATOM      1  C1  ATC d   1      20.108  34.617  34.391  0.00  0.00     0.208 C 
ATOM      2  O1  ATC d   1      19.565  35.079  33.352  0.00  0.00    -0.288 OA
ATOM      3  C2  ATC d   1      19.580  33.569  35.143  0.00  0.00     0.112 C 
ATOM      4  C3  ATC d   1      20.303  33.233  36.280  0.00  0.00     0.094 C 
ATOM      5  C4  ATC d   1      21.146  34.254  37.037  0.00  0.00     0.156 C 
ATOM      6  C41 ATC d   1      21.755  35.348  36.109  0.00  0.00     0.024 C 
ATOM      7  C5  ATC d   1      21.097  36.688  36.331  0.00  0.00    -0.048 C 
ATOM      8  C51 ATC d   1      21.749  37.856  35.634  0.00  0.00    -0.018 C 
ATOM      9  C6  ATC d   1      20.941  39.171  35.627  0.00  0.00    -0.033 C 
ATOM     10  C61 ATC d   1      21.678  40.267  34.817  0.00  0.00    -0.040 A 
ATOM     11  C7  ATC d   1      21.512  41.590  35.221  0.00  0.00    -0.074 A 
ATOM     12  C8  ATC d   1      22.104  42.615  34.480  0.00  0.00    -0.054 A 
ATOM     13  C9  ATC d   1      22.861  42.336  33.331  0.00  0.00     0.069 A 
ATOM     14  C10 ATC d   1      23.037  40.994  32.934  0.00  0.00     0.107 A 
ATOM     15  C1A ATC d   1      22.449  39.941  33.678  0.00  0.00     0.056 A 
ATOM     16  C11 ATC d   1      22.521  38.598  33.282  0.00  0.00     0.194 C 
ATOM     17  O11 ATC d   1      23.076  38.346  32.217  0.00  0.00    -0.287 OA
ATOM     18  C1B ATC d   1      22.102  37.526  34.129  0.00  0.00     0.030 C 
ATOM     19  C12 ATC d   1      22.063  36.176  33.735  0.00  0.00     0.096 C 
ATOM     20  C1C ATC d   1      21.583  35.013  34.622  0.00  0.00     0.177 C 
ATOM     21  H4  ATC d   1      20.502  34.770  37.764  0.00  0.00     0.096 H 
ATOM     22  H12 ATC d   1      22.828  35.430  36.336  0.00  0.00     0.049 H 
ATOM     23  H13 ATC d   1      21.102  36.893  37.412  0.00  0.00     0.034 H 
ATOM     24  H14 ATC d   1      20.058  36.618  35.976  0.00  0.00     0.034 H 
ATOM     25  H15 ATC d   1      22.689  38.052  36.171  0.00  0.00     0.048 H 
ATOM     26  H16 ATC d   1      20.807  39.517  36.663  0.00  0.00     0.041 H 
ATOM     27  H17 ATC d   1      19.957  38.987  35.172  0.00  0.00     0.041 H 
ATOM     28  H18 ATC d   1      20.928  41.822  36.104  0.00  0.00     0.084 H 
ATOM     29  H19 ATC d   1      21.977  43.644  34.797  0.00  0.00     0.087 H 
ENDROOT
BRANCH  13  30
ATOM     30  N9  ATC d   1      23.335  43.388  32.586  0.00  0.00    -0.323 N 
ATOM     31  C91 ATC d   1      24.598  43.815  32.606  0.00  0.00     0.248 C 
ATOM     32  O91 ATC d   1      25.350  43.561  33.556  0.00  0.00    -0.271 OA
ATOM     33  H23 ATC d   1      22.690  43.865  31.989  0.00  0.00     0.169 HD
BRANCH  31  34
ATOM     34  C92 ATC d   1      25.229  44.600  31.463  0.00  0.00     0.155 C 
ATOM     35  H24 ATC d   1      25.338  45.653  31.761  0.00  0.00     0.090 H 
ATOM     36  H25 ATC d   1      24.582  44.535  30.576  0.00  0.00     0.090 H 
BRANCH  34  37
ATOM     37  N92 ATC d   1      26.669  43.997  31.113  0.00  0.00    -0.070 N 
ATOM     38  H26 ATC d   1      26.930  44.452  30.252  0.00  0.00     0.279 HD
BRANCH  37  39
ATOM     39  C94 ATC d   1      26.583  42.447  30.737  0.00  0.00     0.066 C 
ATOM     40  H30 ATC d   1      25.746  42.284  30.042  0.00  0.00     0.068 H 
ATOM     41  H31 ATC d   1      26.422  41.856  31.651  0.00  0.00     0.068 H 
ATOM     42  H32 ATC d   1      27.523  42.133  30.259  0.00  0.00     0.068 H 
ENDBRANCH  37  39
BRANCH  37  43
ATOM     43  C93 ATC d   1      27.847  44.391  32.123  0.00  0.00     0.066 C 
ATOM     44  H27 ATC d   1      28.787  43.926  31.790  0.00  0.00     0.068 H 
ATOM     45  H28 ATC d   1      27.599  44.033  33.133  0.00  0.00     0.068 H 
ATOM     46  H29 ATC d   1      27.965  45.484  32.140  0.00  0.00     0.068 H 
ENDBRANCH  37  43
ENDBRANCH  34  37
ENDBRANCH  31  34
ENDBRANCH  13  30
BRANCH  14  47
ATOM     47  O10 ATC d   1      23.836  40.711  31.795  0.00  0.00    -0.357 OA
ATOM     48  H20 ATC d   1      23.315  40.243  31.153  0.00  0.00     0.217 HD
ENDBRANCH  14  47
BRANCH  19  49
ATOM     49  O12 ATC d   1      22.561  35.738  32.442  0.00  0.00    -0.361 OA
ATOM     50  H21 ATC d   1      22.842  36.494  31.940  0.00  0.00     0.217 HD
ENDBRANCH  19  49
BRANCH  20  51
ATOM     51  O1C ATC d   1      22.438  33.904  34.330  0.00  0.00    -0.374 OA
ATOM     52  H22 ATC d   1      22.353  33.673  33.413  0.00  0.00     0.211 HD
ENDBRANCH  20  51
BRANCH   5  53
ATOM     53  N4  ATC d   1      22.203  33.436  37.814  0.00  0.00    -0.068 N 
ATOM     54  H5  ATC d   1      21.684  32.806  38.406  0.00  0.00     0.279 HD
BRANCH  53  55
ATOM     55  C43 ATC d   1      23.101  32.531  36.933  0.00  0.00     0.067 C 
ATOM     56  H9  ATC d   1      22.469  31.907  36.284  0.00  0.00     0.068 H 
ATOM     57  H10 ATC d   1      23.715  31.885  37.578  0.00  0.00     0.068 H 
ATOM     58  H11 ATC d   1      23.757  33.159  36.312  0.00  0.00     0.068 H 
ENDBRANCH  53  55
BRANCH  53  59
ATOM     59  C42 ATC d   1      23.025  34.364  38.775  0.00  0.00     0.067 C 
ATOM     60  H6  ATC d   1      23.770  33.763  39.317  0.00  0.00     0.068 H 
ATOM     61  H7  ATC d   1      22.344  34.841  39.496  0.00  0.00     0.068 H 
ATOM     62  H8  ATC d   1      23.538  35.139  38.187  0.00  0.00     0.068 H 
ENDBRANCH  53  59
ENDBRANCH   5  53
BRANCH   3  63
ATOM     63  C21 ATC d   1      18.389  32.921  34.789  0.00  0.00     0.255 C 
ATOM     64  N21 ATC d   1      17.622  33.286  33.712  0.00  0.00    -0.366 N 
ATOM     65  H1  ATC d   1      16.780  32.787  33.506  0.00  0.00     0.159 HD
ATOM     66  H2  ATC d   1      17.905  34.051  33.133  0.00  0.00     0.159 HD
ATOM     67  O21 ATC d   1      17.977  31.931  35.443  0.00  0.00    -0.268 OA
ENDBRANCH   3  63
BRANCH   4  68
ATOM     68  O3  ATC d   1      20.197  31.968  36.868  0.00  0.00    -0.362 OA
ATOM     69  H3  ATC d   1      19.655  31.411  36.322  0.00  0.00     0.217 HD
ENDBRANCH   4  68
TORSDOF 13
