REMARK  13 active torsions:
REMARK  status: ('A' for Active; 'I' for Inactive)
REMARK    1  A    between atoms: CA_2  and  N_1 
REMARK    2  A    between atoms: P_3  and  CA_2 
REMARK    3  A    between atoms: CA_2  and  CB_6 
REMARK    4  A    between atoms: CM_13  and  P_3 
REMARK    5  A    between atoms: CB_6  and  CG_7 
REMARK    6  A    between atoms: CA_14  and  CM_13 
REMARK    7  A    between atoms: CA_14  and  CB_15 
REMARK    8  A    between atoms: C_22  and  CA_14 
REMARK    9  A    between atoms: CB_15  and  CG_16 
REMARK       I    between atoms: C_22  and  N_24 
REMARK   10  A    between atoms: N_24  and  CA_25 
REMARK   11  A    between atoms: CA_25  and  CB_28 
REMARK   12  A    between atoms: CA_25  and  C_26 
REMARK   13  A    between atoms: CB_28  and  CG_29 
ROOT
ATOM      1  CA  0PQ d   1      36.600  41.958  -3.796  0.00  0.00     0.036 C 
ATOM      2  H14 0PQ d   1      36.866  42.936  -4.224  0.00  0.00     0.056 H 
ENDROOT
BRANCH   1   3
ATOM      3  CM  0PQ d   1      35.586  41.313  -4.761  0.00  0.00     0.021 C 
ATOM      4  H12 0PQ d   1      35.967  40.317  -5.032  0.00  0.00     0.050 H 
ATOM      5  H13 0PQ d   1      34.632  41.207  -4.224  0.00  0.00     0.050 H 
BRANCH   3   6
ATOM      6  P   0PQ d   1      35.270  42.192  -6.252  0.00  0.00     0.138 P 
ATOM      7  O1P 0PQ d   1      36.549  42.712  -6.837  0.00  0.00    -0.666 OA
ATOM      8  O2P 0PQ d   1      34.389  43.358  -6.040  0.00  0.00    -0.666 OA
BRANCH   6   9
ATOM      9  CA  0PQ d   1      34.446  40.952  -7.110  0.00  0.00     0.177 C 
ATOM     10  H4  0PQ d   1      33.516  40.804  -6.542  0.00  0.00     0.101 H 
BRANCH   9  11
ATOM     11  N   0PQ d   1      34.112  41.411  -8.477  0.00  0.00    -0.065 N 
ATOM     12  H1  0PQ d   1      33.630  40.676  -8.970  0.00  0.00     0.275 HD
ATOM     13  H2  0PQ d   1      34.960  41.645  -8.969  0.00  0.00     0.275 HD
ATOM     14  H3  0PQ d   1      33.519  42.224  -8.423  0.00  0.00     0.275 HD
ENDBRANCH   9  11
BRANCH   9  15
ATOM     15  CB  0PQ d   1      34.963  39.603  -7.390  0.00  0.00    -0.005 C 
ATOM     16  H5  0PQ d   1      35.372  39.186  -6.458  0.00  0.00     0.044 H 
ATOM     17  H6  0PQ d   1      35.765  39.685  -8.138  0.00  0.00     0.044 H 
BRANCH  15  18
ATOM     18  CG  0PQ d   1      33.901  38.647  -7.923  0.00  0.00    -0.056 A 
ATOM     19  CD1 0PQ d   1      32.869  38.259  -7.056  0.00  0.00    -0.077 A 
ATOM     20  CE1 0PQ d   1      31.928  37.371  -7.586  0.00  0.00    -0.082 A 
ATOM     21  H7  0PQ d   1      32.805  38.625  -6.038  0.00  0.00     0.084 H 
ATOM     22  CZ  0PQ d   1      31.982  36.909  -8.893  0.00  0.00    -0.083 A 
ATOM     23  H9  0PQ d   1      31.121  37.029  -6.948  0.00  0.00     0.083 H 
ATOM     24  CE2 0PQ d   1      33.031  37.334  -9.682  0.00  0.00    -0.082 A 
ATOM     25  H11 0PQ d   1      31.226  36.237  -9.281  0.00  0.00     0.083 H 
ATOM     26  CD2 0PQ d   1      33.971  38.145  -9.205  0.00  0.00    -0.077 A 
ATOM     27  H10 0PQ d   1      33.090  37.000 -10.712  0.00  0.00     0.083 H 
ATOM     28  H8  0PQ d   1      34.809  38.417  -9.837  0.00  0.00     0.084 H 
ENDBRANCH  15  18
ENDBRANCH   9  15
ENDBRANCH   6   9
ENDBRANCH   3   6
ENDBRANCH   1   3
BRANCH   1  29
ATOM     29  CB  0PQ d   1      35.920  42.214  -2.440  0.00  0.00    -0.029 C 
ATOM     30  H15 0PQ d   1      35.626  41.240  -2.021  0.00  0.00     0.041 H 
ATOM     31  H16 0PQ d   1      35.021  42.821  -2.623  0.00  0.00     0.041 H 
BRANCH  29  32
ATOM     32  CG  0PQ d   1      36.760  42.929  -1.405  0.00  0.00    -0.057 A 
ATOM     33  CD1 0PQ d   1      37.096  44.266  -1.552  0.00  0.00    -0.077 A 
ATOM     34  CE1 0PQ d   1      37.869  44.920  -0.613  0.00  0.00    -0.082 A 
ATOM     35  H17 0PQ d   1      36.745  44.809  -2.422  0.00  0.00     0.084 H 
ATOM     36  CZ  0PQ d   1      38.304  44.221   0.497  0.00  0.00    -0.083 A 
ATOM     37  H19 0PQ d   1      38.130  45.964  -0.744  0.00  0.00     0.083 H 
ATOM     38  CE2 0PQ d   1      37.977  42.884   0.655  0.00  0.00    -0.082 A 
ATOM     39  H21 0PQ d   1      38.904  44.721   1.248  0.00  0.00     0.083 H 
ATOM     40  CD2 0PQ d   1      37.180  42.247  -0.275  0.00  0.00    -0.077 A 
ATOM     41  H20 0PQ d   1      38.349  42.336   1.513  0.00  0.00     0.083 H 
ATOM     42  H18 0PQ d   1      36.884  41.216  -0.121  0.00  0.00     0.084 H 
ENDBRANCH  29  32
ENDBRANCH   1  29
BRANCH   1  43
ATOM     43  C   0PQ d   1      37.917  41.192  -3.618  0.00  0.00     0.223 C 
ATOM     44  O   0PQ d   1      39.020  41.729  -3.660  0.00  0.00    -0.273 OA
ATOM     45  N   0PQ d   1      37.772  39.908  -3.391  0.00  0.00    -0.346 N 
ATOM     46  H22 0PQ d   1      36.815  39.626  -3.328  0.00  0.00     0.163 HD
BRANCH  45  47
ATOM     47  CA  0PQ d   1      38.700  38.811  -3.212  0.00  0.00     0.100 C 
ATOM     48  H23 0PQ d   1      39.697  39.189  -2.943  0.00  0.00     0.090 H 
BRANCH  47  49
ATOM     49  CB  0PQ d   1      38.170  37.951  -2.099  0.00  0.00    -0.013 C 
ATOM     50  H24 0PQ d   1      37.158  37.659  -2.417  0.00  0.00     0.043 H 
ATOM     51  H25 0PQ d   1      38.102  38.617  -1.227  0.00  0.00     0.043 H 
BRANCH  49  52
ATOM     52  CG  0PQ d   1      38.797  36.697  -1.586  0.00  0.00    -0.056 A 
ATOM     53  CD1 0PQ d   1      40.065  36.693  -1.041  0.00  0.00    -0.077 A 
ATOM     54  CE1 0PQ d   1      40.657  35.548  -0.538  0.00  0.00    -0.082 A 
ATOM     55  H26 0PQ d   1      40.619  37.624  -1.006  0.00  0.00     0.084 H 
ATOM     56  CZ  0PQ d   1      39.947  34.361  -0.588  0.00  0.00    -0.083 A 
ATOM     57  H28 0PQ d   1      41.654  35.580  -0.114  0.00  0.00     0.083 H 
ATOM     58  CE2 0PQ d   1      38.674  34.340  -1.136  0.00  0.00    -0.082 A 
ATOM     59  H30 0PQ d   1      40.386  33.449  -0.199  0.00  0.00     0.083 H 
ATOM     60  CD2 0PQ d   1      38.099  35.496  -1.628  0.00  0.00    -0.077 A 
ATOM     61  H29 0PQ d   1      38.124  33.407  -1.179  0.00  0.00     0.083 H 
ATOM     62  H27 0PQ d   1      37.100  35.466  -2.048  0.00  0.00     0.084 H 
ENDBRANCH  49  52
ENDBRANCH  47  49
BRANCH  47  63
ATOM     63  C   0PQ d   1      38.780  38.054  -4.540  0.00  0.00     0.197 C 
ATOM     64  O   0PQ d   1      37.713  37.766  -5.113  0.00  0.00    -0.646 OA
ATOM     65  OXT 0PQ d   1      39.887  37.769  -4.990  0.00  0.00    -0.646 OA
ENDBRANCH  47  63
ENDBRANCH  45  47
ENDBRANCH   1  43
TORSDOF 13
