REMARK  14 active torsions:
REMARK  status: ('A' for Active; 'I' for Inactive)
REMARK    1  A    between atoms: O4_1  and  C23_2 
REMARK    2  A    between atoms: C29_5  and  C8_8 
REMARK    3  A    between atoms: C8_8  and  C7_9 
REMARK    4  A    between atoms: C7_9  and  C3_10 
REMARK    5  A    between atoms: C3_10  and  C22_31 
REMARK    6  A    between atoms: C6_14  and  S1_15 
REMARK    7  A    between atoms: S1_15  and  C21_16 
REMARK    8  A    between atoms: C12_18  and  C11_27 
REMARK    9  A    between atoms: C2_19  and  N1_20 
REMARK   10  A    between atoms: C18_22  and  C26_23 
REMARK   11  A    between atoms: C26_23  and  C10_24 
REMARK   12  A    between atoms: C26_23  and  C27_25 
REMARK   13  A    between atoms: C26_23  and  C9_26 
REMARK   14  A    between atoms: C5_28  and  O3_29 
ROOT
ATOM      1  C3  NH1 d   1      41.091  14.611  53.891  0.00  0.00     0.081 C 
ATOM      2  O2  NH1 d   1      40.814  13.705  52.765  0.00  0.00    -0.305 OA
ATOM      3  C1  NH1 d   1      41.836  12.963  52.250  0.00  0.00     0.303 C 
ATOM      4  O1  NH1 d   1      41.665  11.929  51.595  0.00  0.00    -0.259 OA
ATOM      5  C6  NH1 d   1      43.236  13.435  52.524  0.00  0.00     0.110 C 
ATOM      6  C5  NH1 d   1      43.434  14.610  53.160  0.00  0.00     0.069 C 
ATOM      7  C4  NH1 d   1      42.282  15.539  53.490  0.00  0.00     0.010 C 
ATOM      8  H27 NH1 d   1      42.551  16.201  54.326  0.00  0.00     0.047 H 
ATOM      9  H28 NH1 d   1      42.016  16.147  52.612  0.00  0.00     0.047 H 
ENDROOT
BRANCH   1  10
ATOM     10  C7  NH1 d   1      41.387  13.691  55.111  0.00  0.00    -0.031 C 
ATOM     11  H8  NH1 d   1      40.514  13.043  55.278  0.00  0.00     0.037 H 
ATOM     12  H9  NH1 d   1      42.264  13.071  54.874  0.00  0.00     0.037 H 
BRANCH  10  13
ATOM     13  C8  NH1 d   1      41.675  14.466  56.412  0.00  0.00    -0.038 C 
ATOM     14  H6  NH1 d   1      42.661  14.944  56.323  0.00  0.00     0.040 H 
ATOM     15  H7  NH1 d   1      40.902  15.239  56.537  0.00  0.00     0.040 H 
BRANCH  13  16
ATOM     16  C29 NH1 d   1      41.677  13.605  57.614  0.00  0.00    -0.058 A 
ATOM     17  C17 NH1 d   1      42.887  13.143  58.140  0.00  0.00    -0.074 A 
ATOM     18  C20 NH1 d   1      42.890  12.325  59.275  0.00  0.00    -0.051 A 
ATOM     19  H3  NH1 d   1      43.823  13.419  57.668  0.00  0.00     0.084 H 
ATOM     20  C23 NH1 d   1      41.683  11.968  59.880  0.00  0.00     0.065 A 
ATOM     21  H2  NH1 d   1      43.828  11.969  59.684  0.00  0.00     0.087 H 
ATOM     22  C25 NH1 d   1      40.470  12.423  59.360  0.00  0.00    -0.051 A 
ATOM     23  C14 NH1 d   1      40.470  13.240  58.227  0.00  0.00    -0.074 A 
ATOM     24  H5  NH1 d   1      39.535  12.144  59.832  0.00  0.00     0.087 H 
ATOM     25  H4  NH1 d   1      39.530  13.594  57.819  0.00  0.00     0.084 H 
BRANCH  20  26
ATOM     26  O4  NH1 d   1      41.692  11.198  61.021  0.00  0.00    -0.361 OA
ATOM     27  H1  NH1 d   1      40.798  11.044  61.305  0.00  0.00     0.217 HD
ENDBRANCH  20  26
ENDBRANCH  13  16
ENDBRANCH  10  13
ENDBRANCH   1  10
BRANCH   1  28
ATOM     28  C22 NH1 d   1      39.838  15.510  54.121  0.00  0.00    -0.023 C 
ATOM     29  C13 NH1 d   1      38.588  14.794  54.673  0.00  0.00    -0.059 C 
ATOM     30  C28 NH1 d   1      37.383  15.610  54.161  0.00  0.00    -0.065 C 
ATOM     31  H30 NH1 d   1      38.605  14.784  55.773  0.00  0.00     0.033 H 
ATOM     32  H31 NH1 d   1      38.540  13.761  54.297  0.00  0.00     0.033 H 
ATOM     33  C16 NH1 d   1      37.897  16.573  53.053  0.00  0.00    -0.065 C 
ATOM     34  H32 NH1 d   1      36.946  16.190  54.987  0.00  0.00     0.033 H 
ATOM     35  H33 NH1 d   1      36.622  14.933  53.745  0.00  0.00     0.033 H 
ATOM     36  C19 NH1 d   1      39.383  16.261  52.848  0.00  0.00    -0.059 C 
ATOM     37  H34 NH1 d   1      37.770  17.618  53.371  0.00  0.00     0.033 H 
ATOM     38  H35 NH1 d   1      37.343  16.405  52.118  0.00  0.00     0.033 H 
ATOM     39  H36 NH1 d   1      39.522  15.627  51.960  0.00  0.00     0.033 H 
ATOM     40  H37 NH1 d   1      39.956  17.192  52.727  0.00  0.00     0.033 H 
ATOM     41  H29 NH1 d   1      40.139  16.262  54.865  0.00  0.00     0.044 H 
ENDBRANCH   1  28
BRANCH   6  42
ATOM     42  O3  NH1 d   1      44.679  15.072  53.310  0.00  0.00    -0.363 OA
ATOM     43  H26 NH1 d   1      44.654  15.901  53.773  0.00  0.00     0.217 HD
ENDBRANCH   6  42
BRANCH   5  44
ATOM     44  S1  NH1 d   1      44.628  12.469  52.019  0.00  0.00    -0.081 SA
BRANCH  44  45
ATOM     45  C21 NH1 d   1      45.190  13.212  50.517  0.00  0.00     0.013 A 
ATOM     46  C24 NH1 d   1      44.196  13.739  49.693  0.00  0.00    -0.058 A 
ATOM     47  C12 NH1 d   1      44.525  14.318  48.478  0.00  0.00    -0.035 A 
ATOM     48  H10 NH1 d   1      43.159  13.695  50.005  0.00  0.00     0.086 H 
ATOM     49  C2  NH1 d   1      45.865  14.404  48.083  0.00  0.00     0.032 A 
ATOM     50  C15 NH1 d   1      46.866  13.881  48.901  0.00  0.00    -0.049 A 
ATOM     51  C18 NH1 d   1      46.559  13.299  50.137  0.00  0.00    -0.031 A 
ATOM     52  H13 NH1 d   1      47.899  13.926  48.575  0.00  0.00     0.087 H 
BRANCH  47  53
ATOM     53  C11 NH1 d   1      43.468  14.926  47.668  0.00  0.00    -0.049 C 
ATOM     54  H23 NH1 d   1      42.493  14.749  48.145  0.00  0.00     0.033 H 
ATOM     55  H24 NH1 d   1      43.472  14.477  46.664  0.00  0.00     0.033 H 
ATOM     56  H25 NH1 d   1      43.645  16.009  47.587  0.00  0.00     0.033 H 
ENDBRANCH  47  53
BRANCH  49  57
ATOM     57  N1  NH1 d   1      46.187  14.938  46.907  0.00  0.00    -0.399 N 
ATOM     58  H11 NH1 d   1      47.175  14.998  46.622  0.00  0.00     0.156 HD
ATOM     59  H12 NH1 d   1      45.448  15.291  46.282  0.00  0.00     0.156 HD
ENDBRANCH  49  57
BRANCH  51  60
ATOM     60  C26 NH1 d   1      47.676  12.814  51.001  0.00  0.00    -0.023 C 
BRANCH  60  61
ATOM     61  C10 NH1 d   1      47.692  13.593  52.330  0.00  0.00    -0.066 C 
ATOM     62  H14 NH1 d   1      48.518  13.229  52.959  0.00  0.00     0.028 H 
ATOM     63  H15 NH1 d   1      46.737  13.442  52.855  0.00  0.00     0.028 H 
ATOM     64  H16 NH1 d   1      47.833  14.665  52.125  0.00  0.00     0.028 H 
ENDBRANCH  60  61
BRANCH  60  65
ATOM     65  C27 NH1 d   1      49.039  13.036  50.313  0.00  0.00    -0.066 C 
ATOM     66  H17 NH1 d   1      49.060  12.491  49.358  0.00  0.00     0.028 H 
ATOM     67  H18 NH1 d   1      49.844  12.665  50.965  0.00  0.00     0.028 H 
ATOM     68  H19 NH1 d   1      49.185  14.110  50.126  0.00  0.00     0.028 H 
ENDBRANCH  60  65
BRANCH  60  69
ATOM     69  C9  NH1 d   1      47.543  11.317  51.309  0.00  0.00    -0.066 C 
ATOM     70  H20 NH1 d   1      46.578  11.128  51.801  0.00  0.00     0.028 H 
ATOM     71  H21 NH1 d   1      48.361  11.005  51.975  0.00  0.00     0.028 H 
ATOM     72  H22 NH1 d   1      47.595  10.744  50.372  0.00  0.00     0.028 H 
ENDBRANCH  60  69
ENDBRANCH  51  60
ENDBRANCH  44  45
ENDBRANCH   5  44
TORSDOF 14
