REMARK  2 active torsions:
REMARK  status: ('A' for Active; 'I' for Inactive)
REMARK    1  A    between atoms: C1_1  and  C_7 
REMARK    2  A    between atoms: C_7  and  N1_8 
ROOT
ATOM      1  C1  BEN d   1      44.855 -22.957  62.419  0.00  0.00     0.007 A 
ATOM      2  C2  BEN d   1      44.868 -21.817  63.288  0.00  0.00    -0.069 A 
ATOM      3  C3  BEN d   1      43.649 -21.204  63.715  0.00  0.00    -0.082 A 
ATOM      4  C4  BEN d   1      42.396 -21.723  63.276  0.00  0.00    -0.083 A 
ATOM      5  C5  BEN d   1      42.338 -22.860  62.403  0.00  0.00    -0.082 A 
ATOM      6  C6  BEN d   1      43.583 -23.471  61.981  0.00  0.00    -0.069 A 
ATOM      7  H1  BEN d   1      45.816 -21.414  63.626  0.00  0.00     0.085 H 
ATOM      8  H2  BEN d   1      43.678 -20.343  64.374  0.00  0.00     0.083 H 
ATOM      9  H3  BEN d   1      41.476 -21.253  63.606  0.00  0.00     0.083 H 
ATOM     10  H4  BEN d   1      41.385 -23.253  62.067  0.00  0.00     0.083 H 
ATOM     11  H5  BEN d   1      43.556 -24.332  61.323  0.00  0.00     0.085 H 
ENDROOT
BRANCH   1  12
ATOM     12  C   BEN d   1      46.100 -23.622  61.968  0.00  0.00     0.102 C 
ATOM     13  N2  BEN d   1      47.253 -23.368  62.639  0.00  0.00    -0.385 N 
ATOM     14  H8  BEN d   1      47.253 -22.711  63.432  0.00  0.00     0.157 HD
ATOM     15  H9  BEN d   1      48.127 -23.832  62.354  0.00  0.00     0.157 HD
BRANCH  12  16
ATOM     16  N1  BEN d   1      46.062 -24.462  60.941  0.00  0.00    -0.385 N 
ATOM     17  H6  BEN d   1      46.925 -24.927  60.624  0.00  0.00     0.157 HD
ATOM     18  H7  BEN d   1      45.170 -24.649  60.461  0.00  0.00     0.157 HD
ENDBRANCH  12  16
ENDBRANCH   1  12
TORSDOF 2
