REMARK  4 active torsions:
REMARK  status: ('A' for Active; 'I' for Inactive)
REMARK    1  A    between atoms: C17_2  and  N19_3 
REMARK    2  A    between atoms: C17_2  and  C12_4 
REMARK    3  A    between atoms: C6_9  and  C23_14 
REMARK       I    between atoms: C23_14  and  N24_16 
REMARK    4  A    between atoms: N24_16  and  C25_17 
ROOT
ATOM      1  C12 675 d   1      19.186  18.715  33.577  0.00  0.00     0.008 A 
ATOM      2  C11 675 d   1      18.916  17.669  32.620  0.00  0.00    -0.069 A 
ATOM      3  C10 675 d   1      19.770  16.585  32.274  0.00  0.00    -0.071 A 
ATOM      4  C2  675 d   1      21.035  16.547  32.908  0.00  0.00    -0.025 A 
ATOM      5  C1  675 d   1      21.980  15.586  32.570  0.00  0.00    -0.057 A 
ATOM      6  C6  675 d   1      23.319  15.560  33.102  0.00  0.00     0.033 A 
ATOM      7  C5  675 d   1      23.542  16.687  34.025  0.00  0.00    -0.067 A 
ATOM      8  C4  675 d   1      22.657  17.679  34.391  0.00  0.00    -0.071 A 
ATOM      9  C3  675 d   1      21.413  17.594  33.838  0.00  0.00    -0.025 A 
ATOM     10  C13 675 d   1      20.512  18.588  34.119  0.00  0.00    -0.059 A 
ATOM     11  H5  675 d   1      17.960  17.714  32.110  0.00  0.00     0.085 H 
ATOM     12  H6  675 d   1      19.467  15.827  31.561  0.00  0.00     0.084 H 
ATOM     13  H7  675 d   1      21.694  14.812  31.867  0.00  0.00     0.086 H 
ATOM     14  H8  675 d   1      24.527  16.743  34.473  0.00  0.00     0.085 H 
ATOM     15  H9  675 d   1      22.932  18.475  35.074  0.00  0.00     0.084 H 
ATOM     16  H10 675 d   1      20.830  19.353  34.818  0.00  0.00     0.086 H 
ENDROOT
BRANCH   6  17
ATOM     17  C23 675 d   1      24.342  14.575  32.780  0.00  0.00     0.256 C 
ATOM     18  O36 675 d   1      25.179  14.333  33.642  0.00  0.00    -0.267 OA
ATOM     19  N24 675 d   1      24.397  14.185  31.466  0.00  0.00    -0.323 N 
ATOM     20  H11 675 d   1      23.706  14.530  30.831  0.00  0.00     0.169 HD
BRANCH  19  21
ATOM     21  C25 675 d   1      25.372  13.334  30.991  0.00  0.00     0.035 A 
ATOM     22  C30 675 d   1      25.821  13.700  29.718  0.00  0.00    -0.057 A 
ATOM     23  C29 675 d   1      26.749  12.894  29.058  0.00  0.00    -0.081 A 
ATOM     24  H12 675 d   1      25.451  14.604  29.247  0.00  0.00     0.086 H 
ATOM     25  C28 675 d   1      27.265  11.753  29.748  0.00  0.00    -0.083 A 
ATOM     26  H13 675 d   1      27.070  13.127  28.049  0.00  0.00     0.083 H 
ATOM     27  C27 675 d   1      26.900  11.427  31.052  0.00  0.00    -0.081 A 
ATOM     28  H14 675 d   1      27.972  11.113  29.233  0.00  0.00     0.083 H 
ATOM     29  C26 675 d   1      25.943  12.234  31.688  0.00  0.00    -0.057 A 
ATOM     30  H15 675 d   1      27.341  10.577  31.560  0.00  0.00     0.083 H 
ATOM     31  H16 675 d   1      25.641  12.019  32.707  0.00  0.00     0.086 H 
ENDBRANCH  19  21
ENDBRANCH   6  17
BRANCH   1  32
ATOM     32  C17 675 d   1      18.219  19.791  33.958  0.00  0.00     0.102 C 
ATOM     33  N18 675 d   1      16.910  19.481  33.750  0.00  0.00    -0.385 N 
ATOM     34  H1  675 d   1      16.653  18.556  33.377  0.00  0.00     0.157 HD
ATOM     35  H2  675 d   1      16.177  20.172  33.965  0.00  0.00     0.157 HD
BRANCH  32  36
ATOM     36  N19 675 d   1      18.664  20.989  34.448  0.00  0.00    -0.385 N 
ATOM     37  H3  675 d   1      19.673  21.149  34.578  0.00  0.00     0.157 HD
ATOM     38  H4  675 d   1      17.990  21.730  34.687  0.00  0.00     0.157 HD
ENDBRANCH  32  36
ENDBRANCH   1  32
TORSDOF 4
