REMARK  6 active torsions:
REMARK  status: ('A' for Active; 'I' for Inactive)
REMARK    1  A    between atoms: N18_1  and  C17_2 
REMARK    2  A    between atoms: C17_2  and  C12_4 
REMARK    3  A    between atoms: C6_9  and  C23_14 
REMARK       I    between atoms: C23_14  and  N24_16 
REMARK    4  A    between atoms: N24_16  and  C25_17 
REMARK    5  A    between atoms: C28_20  and  C37_23 
REMARK    6  A    between atoms: C37_23  and  N38_24 
ROOT
ATOM      1  C12 239 d   1      19.240  18.684  33.674  0.00  0.00     0.008 A 
ATOM      2  C13 239 d   1      20.563  18.536  34.195  0.00  0.00    -0.059 A 
ATOM      3  C3  239 d   1      21.475  17.539  33.839  0.00  0.00    -0.025 A 
ATOM      4  C4  239 d   1      22.692  17.462  34.520  0.00  0.00    -0.071 A 
ATOM      5  C5  239 d   1      23.510  16.380  34.139  0.00  0.00    -0.067 A 
ATOM      6  C6  239 d   1      23.301  15.431  33.117  0.00  0.00     0.033 A 
ATOM      7  C1  239 d   1      22.028  15.590  32.547  0.00  0.00    -0.057 A 
ATOM      8  C2  239 d   1      21.074  16.588  32.863  0.00  0.00    -0.025 A 
ATOM      9  C10 239 d   1      19.807  16.578  32.268  0.00  0.00    -0.071 A 
ATOM     10  C11 239 d   1      18.944  17.615  32.692  0.00  0.00    -0.069 A 
ATOM     11  H5  239 d   1      20.888  19.262  34.932  0.00  0.00     0.086 H 
ATOM     12  H6  239 d   1      22.984  18.177  35.281  0.00  0.00     0.084 H 
ATOM     13  H7  239 d   1      24.424  16.261  34.709  0.00  0.00     0.085 H 
ATOM     14  H8  239 d   1      21.745  14.873  31.785  0.00  0.00     0.086 H 
ATOM     15  H9  239 d   1      19.510  15.833  31.539  0.00  0.00     0.084 H 
ATOM     16  H10 239 d   1      17.955  17.629  32.249  0.00  0.00     0.085 H 
ENDROOT
BRANCH   6  17
ATOM     17  C23 239 d   1      24.306  14.477  32.678  0.00  0.00     0.256 C 
ATOM     18  O35 239 d   1      25.100  14.103  33.550  0.00  0.00    -0.267 OA
ATOM     19  N24 239 d   1      24.448  14.164  31.364  0.00  0.00    -0.323 N 
ATOM     20  H11 239 d   1      23.784  14.594  30.753  0.00  0.00     0.169 HD
BRANCH  19  21
ATOM     21  C25 239 d   1      25.386  13.327  30.730  0.00  0.00     0.035 C 
ATOM     22  C30 239 d   1      25.977  12.239  31.415  0.00  0.00    -0.057 C 
ATOM     23  C29 239 d   1      26.942  11.473  30.723  0.00  0.00    -0.073 C 
ATOM     24  H12 239 d   1      25.699  12.001  32.435  0.00  0.00     0.086 H 
ATOM     25  C28 239 d   1      27.199  11.781  29.363  0.00  0.00    -0.033 C 
ATOM     26  H13 239 d   1      27.473  10.669  31.220  0.00  0.00     0.084 H 
ATOM     27  C27 239 d   1      26.555  12.822  28.663  0.00  0.00    -0.073 C 
ATOM     28  C26 239 d   1      25.709  13.660  29.411  0.00  0.00    -0.057 C 
ATOM     29  H14 239 d   1      26.705  12.969  27.599  0.00  0.00     0.084 H 
ATOM     30  H15 239 d   1      25.308  14.563  28.965  0.00  0.00     0.086 H 
BRANCH  25  31
ATOM     31  C37 239 d   1      28.261  10.974  28.654  0.00  0.00     0.103 C 
ATOM     32  H16 239 d   1      28.098  11.055  27.569  0.00  0.00     0.082 H 
ATOM     33  H17 239 d   1      28.167   9.922  28.962  0.00  0.00     0.082 H 
BRANCH  31  34
ATOM     34  N38 239 d   1      29.608  11.426  28.955  0.00  0.00    -0.075 N 
ATOM     35  H18 239 d   1      30.273  10.855  28.457  0.00  0.00     0.274 HD
ATOM     36  H19 239 d   1      29.774  11.349  29.946  0.00  0.00     0.274 HD
ATOM     37  H20 239 d   1      29.711  12.387  28.670  0.00  0.00     0.274 HD
ENDBRANCH  31  34
ENDBRANCH  25  31
ENDBRANCH  19  21
ENDBRANCH   6  17
BRANCH   1  38
ATOM     38  C17 239 d   1      18.342  19.779  34.021  0.00  0.00     0.102 C 
ATOM     39  N19 239 d   1      18.899  20.944  34.416  0.00  0.00    -0.385 N 
ATOM     40  H3  239 d   1      19.919  21.012  34.539  0.00  0.00     0.157 HD
ATOM     41  H4  239 d   1      18.303  21.765  34.595  0.00  0.00     0.157 HD
BRANCH  38  42
ATOM     42  N18 239 d   1      17.026  19.534  33.817  0.00  0.00    -0.385 N 
ATOM     43  H1  239 d   1      16.717  18.599  33.514  0.00  0.00     0.157 HD
ATOM     44  H2  239 d   1      16.334  20.282  33.965  0.00  0.00     0.157 HD
ENDBRANCH  38  42
ENDBRANCH   1  38
TORSDOF 6
