REMARK  4 active torsions:
REMARK  status: ('A' for Active; 'I' for Inactive)
REMARK    1  A    between atoms: C7_2  and  C3_4 
REMARK    2  A    between atoms: C2_9  and  O3_10 
REMARK    3  A    between atoms: O3_10  and  C8_11 
REMARK    4  A    between atoms: C8_11  and  C9_13 
ROOT
ATOM      1  C3  AIN d   1      11.830  15.316   1.664  0.00  0.00     0.074 A 
ATOM      2  C4  AIN d   1      11.114  15.381   0.456  0.00  0.00    -0.064 A 
ATOM      3  C5  AIN d   1       9.774  15.001   0.429  0.00  0.00    -0.082 A 
ATOM      4  C6  AIN d   1       9.120  14.601   1.580  0.00  0.00    -0.080 A 
ATOM      5  C1  AIN d   1       9.752  14.568   2.802  0.00  0.00    -0.049 A 
ATOM      6  C2  AIN d   1      11.088  14.922   2.923  0.00  0.00     0.096 A 
ATOM      7  H1  AIN d   1      11.602  15.725  -0.449  0.00  0.00     0.085 H 
ATOM      8  H2  AIN d   1       9.234  15.019  -0.511  0.00  0.00     0.083 H 
ATOM      9  H3  AIN d   1       8.079  14.305   1.518  0.00  0.00     0.083 H 
ATOM     10  H4  AIN d   1       9.198  14.261   3.682  0.00  0.00     0.087 H 
ENDROOT
BRANCH   6  11
ATOM     11  O3  AIN d   1      11.823  14.906   4.090  0.00  0.00    -0.278 OA
BRANCH  11  12
ATOM     12  C8  AIN d   1      12.477  13.770   4.769  0.00  0.00     0.260 C 
ATOM     13  O4  AIN d   1      12.686  13.870   5.971  0.00  0.00    -0.265 OA
BRANCH  12  14
ATOM     14  C9  AIN d   1      12.890  12.509   4.056  0.00  0.00     0.004 C 
ATOM     15  H5  AIN d   1      13.354  11.817   4.774  0.00  0.00     0.041 H 
ATOM     16  H6  AIN d   1      13.614  12.755   3.265  0.00  0.00     0.041 H 
ATOM     17  H7  AIN d   1      12.005  12.034   3.608  0.00  0.00     0.041 H 
ENDBRANCH  12  14
ENDBRANCH  11  12
ENDBRANCH   6  11
BRANCH   1  18
ATOM     18  C7  AIN d   1      13.254  15.778   1.723  0.00  0.00     0.212 C 
ATOM     19  O1  AIN d   1      13.907  16.130   0.624  0.00  0.00    -0.644 OA
ATOM     20  O2  AIN d   1      13.911  15.759   2.749  0.00  0.00    -0.644 OA
ENDBRANCH   1  18
TORSDOF 4
