REMARK  16 active torsions:
REMARK  status: ('A' for Active; 'I' for Inactive)
REMARK    1  A    between atoms: C1_3  and  N2_2 
REMARK    2  A    between atoms: C2_4  and  C1_3 
REMARK    3  A    between atoms: N_10  and  C5_7 
REMARK    4  A    between atoms: C_11  and  N_10 
REMARK    5  A    between atoms: C8_13  and  C_11 
REMARK    6  A    between atoms: N9_14  and  C14_21 
REMARK    7  A    between atoms: C16_24  and  C12_19 
REMARK    8  A    between atoms: C16_24  and  C17_25 
REMARK    9  A    between atoms: C17_25  and  N4_26 
REMARK   10  A    between atoms: C17_25  and  C18_28 
REMARK   11  A    between atoms: N4_26  and  OH_33 
REMARK   12  A    between atoms: OH_33  and  C23_34 
REMARK   13  A    between atoms: C23_34  and  C24_35 
REMARK   14  A    between atoms: C24_35  and  O3_37 
REMARK   15  A    between atoms: O3_37  and  C26_39 
REMARK   16  A    between atoms: C26_39  and  C25_38 
ROOT
ATOM      1  N3  T87 d   1      -3.321   4.279  23.276  0.00  0.00    -0.231 NA
ATOM      2  C8  T87 d   1      -2.049   3.947  22.809  0.00  0.00     0.124 A 
ATOM      3  N9  T87 d   1      -0.936   3.954  23.679  0.00  0.00    -0.336 N 
ATOM      4  C3A T87 d   1      -1.605   4.343  24.840  0.00  0.00     0.064 A 
ATOM      5  C7A T87 d   1      -3.018   4.535  24.594  0.00  0.00     0.086 A 
ATOM      6  C10 T87 d   1      -1.078   4.560  26.155  0.00  0.00    -0.054 A 
ATOM      7  C11 T87 d   1      -1.948   4.961  27.181  0.00  0.00    -0.073 A 
ATOM      8  C12 T87 d   1      -3.347   5.154  26.954  0.00  0.00    -0.041 A 
ATOM      9  C13 T87 d   1      -3.887   4.941  25.656  0.00  0.00    -0.046 A 
ATOM     10  H12 T87 d   1      -0.022   4.417  26.355  0.00  0.00     0.087 H 
ATOM     11  H13 T87 d   1      -1.548   5.129  28.174  0.00  0.00     0.084 H 
ATOM     12  H14 T87 d   1      -4.946   5.085  25.473  0.00  0.00     0.088 H 
ENDROOT
BRANCH   8  13
ATOM     13  C16 T87 d   1      -4.270   5.667  28.112  0.00  0.00     0.036 A 
ATOM     14  C9  T87 d   1      -5.781   5.603  28.077  0.00  0.00    -0.047 A 
ATOM     15  C15 T87 d   1      -5.030   6.905  27.708  0.00  0.00    -0.047 A 
ATOM     16  H18 T87 d   1      -6.292   5.019  27.297  0.00  0.00     0.035 H 
ATOM     17  H19 T87 d   1      -6.353   5.542  29.014  0.00  0.00     0.035 H 
ATOM     18  H20 T87 d   1      -5.068   7.774  28.382  0.00  0.00     0.035 H 
ATOM     19  H21 T87 d   1      -5.006   7.251  26.664  0.00  0.00     0.035 H 
BRANCH  13  20
ATOM     20  C17 T87 d   1      -3.624   5.241  29.462  0.00  0.00     0.103 C 
BRANCH  20  21
ATOM     21  N4  T87 d   1      -3.773   4.009  29.897  0.00  0.00    -0.135 NA
BRANCH  21  22
ATOM     22  OH  T87 d   1      -4.571   3.037  29.100  0.00  0.00    -0.246 OA
BRANCH  22  23
ATOM     23  C23 T87 d   1      -4.600   1.762  29.746  0.00  0.00     0.127 C 
ATOM     24  H26 T87 d   1      -5.103   1.854  30.720  0.00  0.00     0.093 H 
ATOM     25  H27 T87 d   1      -3.572   1.402  29.897  0.00  0.00     0.093 H 
BRANCH  23  26
ATOM     26  C24 T87 d   1      -5.370   0.767  28.860  0.00  0.00     0.285 C 
ATOM     27  O2  T87 d   1      -6.052  -0.119  29.396  0.00  0.00    -0.263 OA
BRANCH  26  28
ATOM     28  O3  T87 d   1      -5.287   0.881  27.487  0.00  0.00    -0.320 OA
BRANCH  28  29
ATOM     29  C26 T87 d   1      -6.067  -0.129  26.815  0.00  0.00     0.026 C 
ATOM     30  H31 T87 d   1      -7.043  -0.230  27.313  0.00  0.00     0.074 H 
ATOM     31  H32 T87 d   1      -5.534  -1.090  26.855  0.00  0.00     0.074 H 
BRANCH  29  32
ATOM     32  C25 T87 d   1      -6.281   0.279  25.343  0.00  0.00    -0.056 C 
ATOM     33  H28 T87 d   1      -6.876  -0.492  24.832  0.00  0.00     0.030 H 
ATOM     34  H29 T87 d   1      -5.306   0.380  24.845  0.00  0.00     0.030 H 
ATOM     35  H30 T87 d   1      -6.814   1.240  25.303  0.00  0.00     0.030 H 
ENDBRANCH  29  32
ENDBRANCH  28  29
ENDBRANCH  26  28
ENDBRANCH  23  26
ENDBRANCH  22  23
ENDBRANCH  21  22
ENDBRANCH  20  21
BRANCH  20  36
ATOM     36  C18 T87 d   1      -2.789   6.283  30.273  0.00  0.00     0.084 A 
ATOM     37  C19 T87 d   1      -2.000   7.241  29.594  0.00  0.00    -0.053 A 
ATOM     38  C20 T87 d   1      -1.242   8.185  30.327  0.00  0.00    -0.079 A 
ATOM     39  H22 T87 d   1      -1.976   7.252  28.510  0.00  0.00     0.087 H 
ATOM     40  C21 T87 d   1      -1.261   8.190  31.745  0.00  0.00    -0.066 A 
ATOM     41  H23 T87 d   1      -0.639   8.914  29.798  0.00  0.00     0.083 H 
ATOM     42  C22 T87 d   1      -2.043   7.242  32.432  0.00  0.00     0.003 A 
ATOM     43  H24 T87 d   1      -0.677   8.919  32.296  0.00  0.00     0.085 H 
ATOM     44  N5  T87 d   1      -2.806   6.290  31.693  0.00  0.00    -0.259 NA
ATOM     45  H25 T87 d   1      -2.065   7.236  33.516  0.00  0.00     0.114 H 
ENDBRANCH  20  36
ENDBRANCH  13  20
ENDBRANCH   8  13
BRANCH   3  46
ATOM     46  C14 T87 d   1       0.510   3.647  23.449  0.00  0.00    -0.012 C 
ATOM     47  H15 T87 d   1       0.663   3.373  22.395  0.00  0.00     0.057 H 
ATOM     48  H16 T87 d   1       0.814   2.809  24.093  0.00  0.00     0.057 H 
ATOM     49  H17 T87 d   1       1.116   4.533  23.690  0.00  0.00     0.057 H 
ENDBRANCH   3  46
BRANCH   2  50
ATOM     50  C   T87 d   1      -1.914   3.581  21.325  0.00  0.00     0.047 C 
ATOM     51  H10 T87 d   1      -1.190   2.757  21.246  0.00  0.00     0.075 H 
ATOM     52  H11 T87 d   1      -2.898   3.240  20.971  0.00  0.00     0.075 H 
BRANCH  50  53
ATOM     53  N   T87 d   1      -1.462   4.671  20.428  0.00  0.00    -0.383 N 
ATOM     54  H9  T87 d   1      -0.607   4.482  19.886  0.00  0.00     0.160 HD
BRANCH  53  55
ATOM     55  C5  T87 d   1      -2.067   5.960  20.219  0.00  0.00     0.028 A 
ATOM     56  C4  T87 d   1      -3.405   6.226  20.581  0.00  0.00    -0.057 A 
ATOM     57  C3  T87 d   1      -3.960   7.491  20.359  0.00  0.00    -0.067 A 
ATOM     58  H6  T87 d   1      -4.006   5.446  21.034  0.00  0.00     0.086 H 
ATOM     59  C2  T87 d   1      -3.199   8.547  19.767  0.00  0.00     0.007 A 
ATOM     60  H5  T87 d   1      -4.990   7.675  20.642  0.00  0.00     0.085 H 
ATOM     61  C7  T87 d   1      -1.837   8.244  19.411  0.00  0.00    -0.067 A 
ATOM     62  C6  T87 d   1      -1.286   6.972  19.635  0.00  0.00    -0.057 A 
ATOM     63  H8  T87 d   1      -1.223   9.015  18.960  0.00  0.00     0.085 H 
ATOM     64  H7  T87 d   1      -0.258   6.771  19.357  0.00  0.00     0.086 H 
BRANCH  59  65
ATOM     65  C1  T87 d   1      -3.759   9.811  19.543  0.00  0.00     0.102 C 
ATOM     66  N1  T87 d   1      -5.019  10.131  19.805  0.00  0.00    -0.385 N 
ATOM     67  H1  T87 d   1      -5.359  11.084  19.613  0.00  0.00     0.157 HD
ATOM     68  H2  T87 d   1      -5.658   9.427  20.201  0.00  0.00     0.157 HD
BRANCH  65  69
ATOM     69  N2  T87 d   1      -3.109  10.832  19.018  0.00  0.00    -0.385 N 
ATOM     70  H3  T87 d   1      -2.116  10.733  18.761  0.00  0.00     0.157 HD
ATOM     71  H4  T87 d   1      -3.594  11.728  18.865  0.00  0.00     0.157 HD
ENDBRANCH  65  69
ENDBRANCH  59  65
ENDBRANCH  53  55
ENDBRANCH  50  53
ENDBRANCH   2  50
TORSDOF 16
