REMARK  6 active torsions:
REMARK  status: ('A' for Active; 'I' for Inactive)
REMARK    1  A    between atoms: P_1  and  O5_5 
REMARK    2  A    between atoms: O5_5  and  C6_6 
REMARK    3  A    between atoms: C6_6  and  C7_7 
REMARK    4  A    between atoms: C9_9  and  O10_10 
REMARK    5  A    between atoms: C11_11  and  O12_12 
REMARK    6  A    between atoms: C13_13  and  N9_14 
ROOT
ATOM      1  C7  IMP d   1      70.386  39.560  32.118  0.00  0.00     0.089 C 
ATOM      2  O8  IMP d   1      70.855  40.917  31.851  0.00  0.00    -0.353 OA
ATOM      3  C9  IMP d   1      71.526  38.675  31.612  0.00  0.00     0.091 C 
ATOM      4  C11 IMP d   1      72.044  39.421  30.397  0.00  0.00     0.105 C 
ATOM      5  C13 IMP d   1      71.971  40.861  30.963  0.00  0.00     0.139 C 
ATOM      6  H3  IMP d   1      69.489  39.307  31.534  0.00  0.00     0.090 H 
ATOM      7  H4  IMP d   1      72.311  38.623  32.381  0.00  0.00     0.091 H 
ATOM      8  H6  IMP d   1      73.082  39.133  30.175  0.00  0.00     0.093 H 
ATOM      9  H8  IMP d   1      71.890  41.604  30.156  0.00  0.00     0.122 H 
ENDROOT
BRANCH   5  10
ATOM     10  N9  IMP d   1      73.165  41.094  31.802  0.00  0.00    -0.294 N 
ATOM     11  C8  IMP d   1      73.382  40.926  33.151  0.00  0.00     0.071 A 
ATOM     12  N7  IMP d   1      74.587  41.251  33.491  0.00  0.00    -0.234 NA
ATOM     13  H9  IMP d   1      72.629  40.563  33.849  0.00  0.00     0.144 H 
ATOM     14  C5  IMP d   1      75.199  41.650  32.332  0.00  0.00     0.172 A 
ATOM     15  C6  IMP d   1      76.522  42.117  32.074  0.00  0.00     0.279 A 
ATOM     16  C4  IMP d   1      74.326  41.557  31.275  0.00  0.00     0.169 A 
ATOM     17  O6  IMP d   1      77.437  42.269  32.870  0.00  0.00    -0.265 OA
ATOM     18  N1  IMP d   1      76.759  42.431  30.716  0.00  0.00    -0.316 N 
ATOM     19  C2  IMP d   1      75.779  42.289  29.742  0.00  0.00     0.069 A 
ATOM     20  H10 IMP d   1      77.662  42.766  30.448  0.00  0.00     0.170 HD
ATOM     21  N3  IMP d   1      74.535  41.847  29.995  0.00  0.00    -0.223 NA
ATOM     22  H11 IMP d   1      76.033  42.550  28.716  0.00  0.00     0.143 H 
ENDBRANCH   5  10
BRANCH   4  23
ATOM     23  O12 IMP d   1      71.275  39.247  29.211  0.00  0.00    -0.388 OA
ATOM     24  H7  IMP d   1      71.257  38.326  28.979  0.00  0.00     0.210 HD
ENDBRANCH   4  23
BRANCH   1  25
ATOM     25  C6  IMP d   1      69.978  39.672  33.577  0.00  0.00     0.059 C 
ATOM     26  H1  IMP d   1      70.054  40.734  33.854  0.00  0.00     0.079 H 
ATOM     27  H2  IMP d   1      68.929  39.349  33.645  0.00  0.00     0.079 H 
BRANCH  25  28
ATOM     28  O5  IMP d   1      70.718  38.922  34.562  0.00  0.00    -0.280 OA
BRANCH  28  29
ATOM     29  P   IMP d   1      70.309  39.124  36.139  0.00  0.00     0.422 P 
ATOM     30  O1P IMP d   1      70.641  40.498  36.628  0.00  0.00    -0.617 OA
ATOM     31  O2P IMP d   1      71.058  38.106  36.958  0.00  0.00    -0.617 OA
ATOM     32  O3P IMP d   1      68.785  38.837  36.213  0.00  0.00    -0.617 OA
ENDBRANCH  28  29
ENDBRANCH  25  28
ENDBRANCH   1  25
BRANCH   3  33
ATOM     33  O10 IMP d   1      71.157  37.358  31.290  0.00  0.00    -0.390 OA
ATOM     34  H5  IMP d   1      71.921  36.882  30.986  0.00  0.00     0.210 HD
ENDBRANCH   3  33
TORSDOF 6
