REMARK  5 active torsions:
REMARK  status: ('A' for Active; 'I' for Inactive)
REMARK    1  A    between atoms: CG2_10  and  CD2_4 
REMARK    2  A    between atoms: CA_5  and  C_11 
REMARK    3  A    between atoms: CB_6  and  CB1_7 
REMARK    4  A    between atoms: CB1_7  and  CG1_9 
REMARK    5  A    between atoms: CG_8  and  CG2_10 
ROOT
ATOM      1  N   KAI d   1      13.694   3.017  16.100  0.00  0.00    -0.060 N 
ATOM      2  CD  KAI d   1      14.633   4.148  15.767  0.00  0.00     0.090 C 
ATOM      3  CA  KAI d   1      14.444   1.813  16.283  0.00  0.00     0.189 C 
ATOM      4  CB  KAI d   1      15.808   1.943  15.610  0.00  0.00     0.001 C 
ATOM      5  CG  KAI d   1      15.994   3.347  15.760  0.00  0.00    -0.004 C 
ATOM      6  H1  KAI d   1      13.037   2.892  15.346  0.00  0.00     0.278 HD
ATOM      7  H2  KAI d   1      13.194   3.234  16.948  0.00  0.00     0.278 HD
ATOM      8  H3  KAI d   1      14.621   4.934  16.537  0.00  0.00     0.076 H 
ATOM      9  H4  KAI d   1      14.411   4.593  14.786  0.00  0.00     0.076 H 
ATOM     10  H10 KAI d   1      13.897   0.988  15.803  0.00  0.00     0.102 H 
ATOM     11  H11 KAI d   1      16.576   1.327  16.100  0.00  0.00     0.045 H 
ATOM     12  H14 KAI d   1      16.227   3.373  16.835  0.00  0.00     0.050 H 
ENDROOT
BRANCH   5  13
ATOM     13  CG2 KAI d   1      17.268   4.064  15.250  0.00  0.00    -0.087 C 
ATOM     14  CD1 KAI d   1      17.086   5.028  14.438  0.00  0.00    -0.119 C 
ATOM     15  H5  KAI d   1      17.940   5.575  14.041  0.00  0.00     0.067 H 
ATOM     16  H6  KAI d   1      16.076   5.306  14.140  0.00  0.00     0.067 H 
BRANCH  13  17
ATOM     17  CD2 KAI d   1      18.583   3.570  15.690  0.00  0.00    -0.055 C 
ATOM     18  H7  KAI d   1      18.445   2.732  16.390  0.00  0.00     0.033 H 
ATOM     19  H8  KAI d   1      19.130   4.381  16.193  0.00  0.00     0.033 H 
ATOM     20  H9  KAI d   1      19.157   3.227  14.816  0.00  0.00     0.033 H 
ENDBRANCH  13  17
ENDBRANCH   5  13
BRANCH   4  21
ATOM     21  CB1 KAI d   1      15.794   1.710  14.095  0.00  0.00     0.022 C 
ATOM     22  H12 KAI d   1      16.667   2.221  13.663  0.00  0.00     0.049 H 
ATOM     23  H13 KAI d   1      14.872   2.153  13.690  0.00  0.00     0.049 H 
BRANCH  21  24
ATOM     24  CG1 KAI d   1      15.843   0.261  13.672  0.00  0.00     0.172 C 
ATOM     25  OD1 KAI d   1      15.672   0.033  12.454  0.00  0.00    -0.648 OA
ATOM     26  OD2 KAI d   1      16.061  -0.594  14.554  0.00  0.00    -0.648 OA
ENDBRANCH  21  24
ENDBRANCH   4  21
BRANCH   3  27
ATOM     27  C   KAI d   1      14.604   1.473  17.800  0.00  0.00     0.205 C 
ATOM     28  O   KAI d   1      13.960   2.201  18.585  0.00  0.00    -0.646 OA
ATOM     29  OXT KAI d   1      15.341   0.505  18.083  0.00  0.00    -0.646 OA
ENDBRANCH   3  27
TORSDOF 5
