REMARK  4 active torsions:
REMARK  status: ('A' for Active; 'I' for Inactive)
REMARK    1  A    between atoms: C02_2  and  C01_1 
REMARK    2  A    between atoms: C03_3  and  C02_2 
REMARK    3  A    between atoms: C02_2  and  NP3_6 
REMARK    4  A    between atoms: N14_7  and  C03_3 
ROOT
ATOM      1  C03 QUS d   1      16.057   2.087  16.637  0.00  0.00     0.062 C 
ATOM      2  H2  QUS d   1      16.812   1.681  17.326  0.00  0.00     0.072 H 
ATOM      3  H3  QUS d   1      16.068   3.186  16.688  0.00  0.00     0.072 H 
ENDROOT
BRANCH   1   4
ATOM      4  C02 QUS d   1      14.670   1.578  17.055  0.00  0.00     0.200 C 
ATOM      5  H1  QUS d   1      14.433   0.671  16.479  0.00  0.00     0.104 H 
BRANCH   4   6
ATOM      6  C01 QUS d   1      14.814   1.269  18.550  0.00  0.00     0.206 C 
ATOM      7  O16 QUS d   1      13.996   1.757  19.348  0.00  0.00    -0.646 OA
ATOM      8  O17 QUS d   1      15.764   0.527  18.892  0.00  0.00    -0.646 OA
ENDBRANCH   4   6
BRANCH   4   9
ATOM      9  NP3 QUS d   1      13.519   2.536  16.941  0.00  0.00    -0.064 N 
ATOM     10  H4  QUS d   1      12.672   2.081  17.244  0.00  0.00     0.275 HD
ATOM     11  H5  QUS d   1      13.418   2.828  15.981  0.00  0.00     0.275 HD
ATOM     12  H6  QUS d   1      13.694   3.342  17.521  0.00  0.00     0.275 HD
ENDBRANCH   4   9
ENDBRANCH   1   4
BRANCH   1  13
ATOM     13  N14 QUS d   1      16.379   1.667  15.271  0.00  0.00    -0.194 N 
ATOM     14  O20 QUS d   1      15.915   2.486  14.190  0.00  0.00    -0.174 OA
ATOM     15  C05 QUS d   1      15.878   1.649  13.098  0.00  0.00     0.391 A 
ATOM     16  O19 QUS d   1      15.525   2.042  12.001  0.00  0.00    -0.236 OA
ATOM     17  N15 QUS d   1      16.285   0.417  13.505  0.00  0.00    -0.251 N 
ATOM     18  C04 QUS d   1      16.589   0.395  14.825  0.00  0.00     0.351 A 
ATOM     19  H7  QUS d   1      16.352  -0.378  12.902  0.00  0.00     0.176 HD
ATOM     20  O18 QUS d   1      16.967  -0.502  15.515  0.00  0.00    -0.244 OA
ENDBRANCH   1  13
TORSDOF 4
