REMARK  4 active torsions:
REMARK  status: ('A' for Active; 'I' for Inactive)
REMARK    1  A    between atoms: C1_1  and  C7_7 
REMARK    2  A    between atoms: C7_7  and  N1_8 
REMARK    3  A    between atoms: C8_12  and  C1'_13 
REMARK    4  A    between atoms: C6'_18  and  O6'_19 
ROOT
ATOM      1  C1  CR4 d   1      16.370  -6.158  25.267  0.00  0.00     0.009 A 
ATOM      2  C2  CR4 d   1      15.410  -5.181  24.818  0.00  0.00    -0.067 A 
ATOM      3  C3  CR4 d   1      15.009  -4.092  25.618  0.00  0.00    -0.054 A 
ATOM      4  C4  CR4 d   1      15.591  -4.025  26.849  0.00  0.00     0.062 A 
ATOM      5  C5  CR4 d   1      16.499  -4.917  27.308  0.00  0.00     0.086 A 
ATOM      6  C6  CR4 d   1      16.919  -5.994  26.561  0.00  0.00    -0.039 A 
ATOM      7  N3  CR4 d   1      15.426  -3.165  27.785  0.00  0.00    -0.338 N 
ATOM      8  N4  CR4 d   1      16.924  -4.645  28.528  0.00  0.00    -0.228 NA
ATOM      9  C8  CR4 d   1      16.216  -3.553  28.752  0.00  0.00     0.141 A 
ATOM     10  H1  CR4 d   1      14.980  -5.288  23.828  0.00  0.00     0.085 H 
ATOM     11  H2  CR4 d   1      14.287  -3.358  25.278  0.00  0.00     0.087 H 
ATOM     12  H3  CR4 d   1      17.648  -6.695  26.952  0.00  0.00     0.088 H 
ATOM     13  H8  CR4 d   1      14.804  -2.344  27.777  0.00  0.00     0.167 HD
ENDROOT
BRANCH   9  14
ATOM     14  C1' CR4 d   1      16.296  -2.869  29.973  0.00  0.00     0.043 A 
ATOM     15  C2' CR4 d   1      17.284  -3.124  30.947  0.00  0.00    -0.067 A 
ATOM     16  C3' CR4 d   1      17.293  -2.450  32.155  0.00  0.00    -0.082 A 
ATOM     17  H9  CR4 d   1      18.051  -3.863  30.745  0.00  0.00     0.085 H 
ATOM     18  C4' CR4 d   1      16.311  -1.495  32.427  0.00  0.00    -0.080 A 
ATOM     19  H10 CR4 d   1      18.061  -2.663  32.889  0.00  0.00     0.083 H 
ATOM     20  C5' CR4 d   1      15.326  -1.221  31.480  0.00  0.00    -0.050 A 
ATOM     21  H11 CR4 d   1      16.315  -0.967  33.374  0.00  0.00     0.083 H 
ATOM     22  C6' CR4 d   1      15.325  -1.902  30.267  0.00  0.00     0.079 A 
ATOM     23  H12 CR4 d   1      14.563  -0.480  31.688  0.00  0.00     0.087 H 
BRANCH  22  24
ATOM     24  O6' CR4 d   1      14.368  -1.637  29.300  0.00  0.00    -0.360 OA
ATOM     25  H13 CR4 d   1      14.521  -2.192  28.544  0.00  0.00     0.217 HD
ENDBRANCH  22  24
ENDBRANCH   9  14
BRANCH   1  26
ATOM     26  C7  CR4 d   1      16.752  -7.237  24.451  0.00  0.00     0.102 C 
ATOM     27  N2  CR4 d   1      16.036  -7.598  23.434  0.00  0.00    -0.385 N 
ATOM     28  H6  CR4 d   1      15.168  -7.092  23.210  0.00  0.00     0.157 HD
ATOM     29  H7  CR4 d   1      16.335  -8.392  22.849  0.00  0.00     0.157 HD
BRANCH  26  30
ATOM     30  N1  CR4 d   1      17.835  -7.911  24.685  0.00  0.00    -0.385 N 
ATOM     31  H4  CR4 d   1      18.094  -8.698  24.073  0.00  0.00     0.157 HD
ATOM     32  H5  CR4 d   1      18.436  -7.660  25.483  0.00  0.00     0.157 HD
ENDBRANCH  26  30
ENDBRANCH   1  26
TORSDOF 4
