REMARK  4 active torsions:
REMARK  status: ('A' for Active; 'I' for Inactive)
REMARK    1  A    between atoms: O4_2  and  S1_1 
REMARK    2  A    between atoms: C1_12  and  O4_2 
REMARK    3  A    between atoms: C2_14  and  O7_6 
REMARK    4  A    between atoms: C5_15  and  N1_10 
ROOT
ATOM      1  C6  CSN d   1       3.698 -11.068  72.586  0.00  0.00    -0.015 A 
ATOM      2  C3  CSN d   1       1.622 -10.691  74.655  0.00  0.00    -0.046 A 
ATOM      3  C1  CSN d   1       3.510  -9.734  73.249  0.00  0.00     0.127 A 
ATOM      4  C4  CSN d   1       1.789 -11.993  74.024  0.00  0.00    -0.048 A 
ATOM      5  C2  CSN d   1       2.461  -9.569  74.284  0.00  0.00     0.100 A 
ATOM      6  C5  CSN d   1       2.827 -12.210  72.978  0.00  0.00     0.105 A 
ATOM      7  H2  CSN d   1       4.462 -11.198  71.828  0.00  0.00     0.091 H 
ATOM      8  H3  CSN d   1       0.859 -10.559  75.413  0.00  0.00     0.087 H 
ATOM      9  H4  CSN d   1       1.149 -12.816  74.320  0.00  0.00     0.087 H 
ENDROOT
BRANCH   3  10
ATOM     10  O4  CSN d   1       4.371  -8.845  72.766  0.00  0.00    -0.211 OA
BRANCH  10  11
ATOM     11  S1  CSN d   1       5.819  -8.576  73.604  0.00  0.00     0.257 S 
ATOM     12  O3  CSN d   1       5.489  -8.131  74.911  0.00  0.00    -0.572 OA
ATOM     13  O2  CSN d   1       6.519  -7.568  72.833  0.00  0.00    -0.572 OA
ATOM     14  O1  CSN d   1       6.566  -9.805  73.682  0.00  0.00    -0.572 OA
ENDBRANCH  10  11
ENDBRANCH   3  10
BRANCH   5  15
ATOM     15  O7  CSN d   1       2.445  -8.333  74.744  0.00  0.00    -0.358 OA
ATOM     16  H1  CSN d   1       3.117  -7.824  74.306  0.00  0.00     0.217 HD
ENDBRANCH   5  15
BRANCH   6  17
ATOM     17  N1  CSN d   1       2.963 -13.521  72.365  0.00  0.00    -0.116 N 
ATOM     18  O6  CSN d   1       2.226 -14.492  72.686  0.00  0.00    -0.532 OA
ATOM     19  O5  CSN d   1       3.823 -13.690  71.505  0.00  0.00    -0.532 OA
ENDBRANCH   6  17
TORSDOF 4
