REMARK  4 active torsions:
REMARK  status: ('A' for Active; 'I' for Inactive)
REMARK    1  A    between atoms: N_1  and  CA_2 
REMARK    2  A    between atoms: CA_2  and  C_3 
REMARK    3  A    between atoms: CA_2  and  CB_6 
REMARK    4  A    between atoms: CB_6  and  OG_7 
ROOT
ATOM      1  CA  DSN d   1      21.285  40.323  40.165  0.00  0.00     0.202 C 
ATOM      2  H4  DSN d   1      20.554  40.051  39.389  0.00  0.00     0.104 H 
ENDROOT
BRANCH   1   3
ATOM      3  N   DSN d   1      21.106  41.763  40.469  0.00  0.00    -0.063 N 
ATOM      4  H1  DSN d   1      20.184  41.914  40.847  0.00  0.00     0.275 HD
ATOM      5  H2  DSN d   1      21.215  42.301  39.624  0.00  0.00     0.275 HD
ATOM      6  H3  DSN d   1      21.797  42.053  41.143  0.00  0.00     0.275 HD
ENDBRANCH   1   3
BRANCH   1   7
ATOM      7  C   DSN d   1      22.695  40.063  39.583  0.00  0.00     0.206 C 
ATOM      8  O   DSN d   1      22.986  38.895  39.303  0.00  0.00    -0.646 OA
ATOM      9  OXT DSN d   1      23.423  41.079  39.436  0.00  0.00    -0.646 OA
ENDBRANCH   1   7
BRANCH   1  10
ATOM     10  CB  DSN d   1      20.986  39.472  41.385  0.00  0.00     0.053 C 
ATOM     11  H5  DSN d   1      21.240  38.426  41.158  0.00  0.00     0.077 H 
ATOM     12  H6  DSN d   1      19.913  39.547  41.614  0.00  0.00     0.077 H 
BRANCH  10  13
ATOM     13  OG  DSN d   1      21.715  39.878  42.508  0.00  0.00    -0.398 OA
ATOM     14  H7  DSN d   1      22.644  39.810  42.322  0.00  0.00     0.209 HD
ENDBRANCH  10  13
ENDBRANCH   1  10
TORSDOF 4
