REMARK  1 active torsions:
REMARK  status: ('A' for Active; 'I' for Inactive)
REMARK    1  A    between atoms: CA_5  and  N_3 
ROOT
ATOM      1  OG  4AX d   1      23.473  41.043  39.028  0.00  0.00    -0.269 OA
ATOM      2  O   4AX d   1      21.992  38.296  40.514  0.00  0.00    -0.275 OA
ATOM      3  NXT 4AX d   1      23.085  38.931  39.779  0.00  0.00    -0.233 N 
ATOM      4  CA  4AX d   1      21.404  40.489  40.230  0.00  0.00     0.200 C 
ATOM      5  CB  4AX d   1      21.300  39.364  41.204  0.00  0.00     0.080 C 
ATOM      6  C3  4AX d   1      22.762  40.177  39.619  0.00  0.00     0.274 C 
ATOM      7  H4  4AX d   1      23.923  38.488  39.460  0.00  0.00     0.197 HD
ATOM      8  H5  4AX d   1      20.601  40.417  39.482  0.00  0.00     0.102 H 
ATOM      9  H6  4AX d   1      21.796  39.612  42.154  0.00  0.00     0.082 H 
ATOM     10  H7  4AX d   1      20.250  39.099  41.397  0.00  0.00     0.082 H 
ENDROOT
BRANCH   4  11
ATOM     11  N   4AX d   1      21.388  41.859  40.791  0.00  0.00    -0.064 N 
ATOM     12  H1  4AX d   1      20.482  42.048  41.191  0.00  0.00     0.275 HD
ATOM     13  H2  4AX d   1      21.577  42.525  40.058  0.00  0.00     0.275 HD
ATOM     14  H3  4AX d   1      22.094  41.938  41.506  0.00  0.00     0.275 HD
ENDBRANCH   4  11
TORSDOF 1
