REMARK  6 active torsions:
REMARK  status: ('A' for Active; 'I' for Inactive)
REMARK    1  A    between atoms: N_1  and  CA_2 
REMARK    2  A    between atoms: CA_2  and  CB_3 
REMARK    3  A    between atoms: CA_2  and  P_9 
REMARK    4  A    between atoms: CB_3  and  CG_4 
REMARK    5  A    between atoms: CG_4  and  SD_5 
REMARK    6  A    between atoms: SD_5  and  CE_6 
ROOT
ATOM      1  CB  MPJ d   1      12.820  10.535  20.223  0.00  0.00    -0.018 C 
ATOM      2  H5  MPJ d   1      12.623  11.602  20.404  0.00  0.00     0.038 H 
ATOM      3  H6  MPJ d   1      12.630   9.965  21.145  0.00  0.00     0.038 H 
ENDROOT
BRANCH   1   4
ATOM      4  CA  MPJ d   1      14.303  10.373  19.851  0.00  0.00     0.206 C 
ATOM      5  H4  MPJ d   1      14.494  11.013  18.977  0.00  0.00     0.106 H 
BRANCH   4   6
ATOM      6  N   MPJ d   1      14.663   8.988  19.445  0.00  0.00    -0.062 N 
ATOM      7  H1  MPJ d   1      14.069   8.695  18.686  0.00  0.00     0.275 HD
ATOM      8  H2  MPJ d   1      14.539   8.365  20.228  0.00  0.00     0.275 HD
ATOM      9  H3  MPJ d   1      15.626   8.965  19.146  0.00  0.00     0.275 HD
ENDBRANCH   4   6
BRANCH   4  10
ATOM     10  P   MPJ d   1      15.300  10.998  21.199  0.00  0.00     0.291 P 
ATOM     11  O1  MPJ d   1      15.136   9.807  22.435  0.00  0.00    -0.638 OA
ATOM     12  O2  MPJ d   1      14.887  12.566  21.447  0.00  0.00    -0.638 OA
ATOM     13  O3  MPJ d   1      16.735  11.007  20.799  0.00  0.00    -0.638 OA
ENDBRANCH   4  10
ENDBRANCH   1   4
BRANCH   1  14
ATOM     14  CG  MPJ d   1      11.865  10.049  19.158  0.00  0.00    -0.021 C 
ATOM     15  H7  MPJ d   1      12.031   8.979  18.964  0.00  0.00     0.049 H 
ATOM     16  H8  MPJ d   1      12.017  10.618  18.229  0.00  0.00     0.049 H 
BRANCH  14  17
ATOM     17  SD  MPJ d   1      10.191  10.311  19.774  0.00  0.00    -0.173 SA
BRANCH  17  18
ATOM     18  CE  MPJ d   1       9.226   9.998  18.265  0.00  0.00    -0.035 C 
ATOM     19  H9  MPJ d   1       8.155  10.122  18.483  0.00  0.00     0.041 H 
ATOM     20  H10 MPJ d   1       9.413   8.972  17.916  0.00  0.00     0.041 H 
ATOM     21  H11 MPJ d   1       9.526  10.711  17.483  0.00  0.00     0.041 H 
ENDBRANCH  17  18
ENDBRANCH  14  17
ENDBRANCH   1  14
TORSDOF 6
