REMARK  11 active torsions:
REMARK  status: ('A' for Active; 'I' for Inactive)
REMARK    1  A    between atoms: C2_2  and  C1_1 
REMARK    2  A    between atoms: C2_2  and  C3_3 
REMARK    3  A    between atoms: C2_2  and  O2_9 
REMARK    4  A    between atoms: C3_3  and  C4_4 
REMARK    5  A    between atoms: C3_3  and  O3_10 
REMARK    6  A    between atoms: C4_4  and  C5_5 
REMARK    7  A    between atoms: C4_4  and  O4_11 
REMARK    8  A    between atoms: C5_5  and  C6_6 
REMARK    9  A    between atoms: C5_5  and  O5_12 
REMARK   10  A    between atoms: C6_6  and  O6_13 
REMARK   11  A    between atoms: O6_13  and  P_14 
ROOT
ATOM      1  C4  6PG d   1      22.847  28.574  40.578  0.00  0.00     0.090 C 
ATOM      2  H3  6PG d   1      22.570  28.106  41.534  0.00  0.00     0.091 H 
ENDROOT
BRANCH   1   3
ATOM      3  C3  6PG d   1      21.846  27.972  39.482  0.00  0.00     0.097 C 
ATOM      4  H2  6PG d   1      21.804  26.893  39.693  0.00  0.00     0.091 H 
BRANCH   3   5
ATOM      5  C2  6PG d   1      20.327  28.472  39.350  0.00  0.00     0.146 C 
ATOM      6  H1  6PG d   1      19.811  27.805  38.643  0.00  0.00     0.104 H 
BRANCH   5   7
ATOM      7  C1  6PG d   1      20.216  29.913  38.806  0.00  0.00     0.205 C 
ATOM      8  O1A 6PG d   1      21.279  30.631  38.529  0.00  0.00    -0.646 OA
ATOM      9  O1  6PG d   1      19.105  30.401  38.571  0.00  0.00    -0.646 OA
ENDBRANCH   5   7
BRANCH   5  10
ATOM     10  O2  6PG d   1      19.683  28.371  40.619  0.00  0.00    -0.382 OA
ATOM     11  H7  6PG d   1      20.142  28.913  41.250  0.00  0.00     0.210 HD
ENDBRANCH   5  10
ENDBRANCH   3   5
BRANCH   3  12
ATOM     12  O3  6PG d   1      22.354  28.165  38.180  0.00  0.00    -0.390 OA
ATOM     13  H8  6PG d   1      22.463  29.095  38.018  0.00  0.00     0.210 HD
ENDBRANCH   3  12
ENDBRANCH   1   3
BRANCH   1  14
ATOM     14  C5  6PG d   1      24.405  28.227  40.280  0.00  0.00     0.084 C 
ATOM     15  H4  6PG d   1      24.417  27.165  39.993  0.00  0.00     0.090 H 
BRANCH  14  16
ATOM     16  C6  6PG d   1      25.204  29.002  39.160  0.00  0.00     0.059 C 
ATOM     17  H5  6PG d   1      24.520  29.130  38.308  0.00  0.00     0.079 H 
ATOM     18  H6  6PG d   1      26.044  28.358  38.862  0.00  0.00     0.079 H 
BRANCH  16  19
ATOM     19  O6  6PG d   1      25.783  30.368  39.470  0.00  0.00    -0.280 OA
BRANCH  19  20
ATOM     20  P   6PG d   1      27.390  30.611  39.617  0.00  0.00     0.422 P 
ATOM     21  O1P 6PG d   1      27.743  30.022  40.976  0.00  0.00    -0.617 OA
ATOM     22  O2P 6PG d   1      27.789  32.049  39.773  0.00  0.00    -0.617 OA
ATOM     23  O3P 6PG d   1      28.241  29.886  38.489  0.00  0.00    -0.617 OA
ENDBRANCH  19  20
ENDBRANCH  16  19
ENDBRANCH  14  16
BRANCH  14  24
ATOM     24  O5  6PG d   1      25.186  28.386  41.458  0.00  0.00    -0.391 OA
ATOM     25  H10 6PG d   1      25.269  29.311  41.659  0.00  0.00     0.210 HD
ENDBRANCH  14  24
ENDBRANCH   1  14
BRANCH   1  26
ATOM     26  O4  6PG d   1      22.796  29.989  40.762  0.00  0.00    -0.390 OA
ATOM     27  H9  6PG d   1      23.102  30.421  39.973  0.00  0.00     0.210 HD
ENDBRANCH   1  26
TORSDOF 11
