REMARK  5 active torsions:
REMARK  status: ('A' for Active; 'I' for Inactive)
REMARK    1  A    between atoms: C2'_3  and  O2'_4 
REMARK    2  A    between atoms: C3'_5  and  O3'_6 
REMARK    3  A    between atoms: C4'_7  and  C5'_8 
REMARK    4  A    between atoms: C5'_8  and  O5'_9 
REMARK    5  A    between atoms: O5'_9  and  P'_10 
ROOT
ATOM      1  C1'   N d   1       6.720  -9.237  43.119  0.00  0.00     0.046 C 
ATOM      2  O1'   N d   1       5.687 -10.177  42.850  0.00  0.00    -0.378 OA
ATOM      3  C2'   N d   1       6.007  -8.240  44.060  0.00  0.00     0.083 C 
ATOM      4  C3'   N d   1       4.663  -8.081  43.351  0.00  0.00     0.089 C 
ATOM      5  C4'   N d   1       4.351  -9.563  43.009  0.00  0.00     0.086 C 
ATOM      6  H1    N d   1       7.061  -8.743  42.197  0.00  0.00     0.078 H 
ATOM      7  H2    N d   1       7.576  -9.715  43.617  0.00  0.00     0.078 H 
ATOM      8  H3    N d   1       5.884  -8.649  45.074  0.00  0.00     0.090 H 
ATOM      9  H5    N d   1       4.796  -7.499  42.427  0.00  0.00     0.091 H 
ATOM     10  H7    N d   1       3.814 -10.004  43.862  0.00  0.00     0.090 H 
ENDROOT
BRANCH   5  11
ATOM     11  C5'   N d   1       3.547  -9.918  41.705  0.00  0.00     0.059 C 
ATOM     12  H8    N d   1       2.939 -10.811  41.915  0.00  0.00     0.079 H 
ATOM     13  H9    N d   1       4.274 -10.147  40.912  0.00  0.00     0.079 H 
BRANCH  11  14
ATOM     14  O5'   N d   1       2.675  -8.899  41.219  0.00  0.00    -0.280 OA
BRANCH  14  15
ATOM     15  P'    N d   1       3.122  -7.676  40.233  0.00  0.00     0.422 P 
ATOM     16  O1P   N d   1       4.304  -8.103  39.238  0.00  0.00    -0.617 OA
ATOM     17  O2P   N d   1       3.615  -6.491  41.110  0.00  0.00    -0.617 OA
ATOM     18  O3P   N d   1       1.854  -7.141  39.432  0.00  0.00    -0.617 OA
ENDBRANCH  14  15
ENDBRANCH  11  14
ENDBRANCH   5  11
BRANCH   4  19
ATOM     19  O3'   N d   1       3.665  -7.454  44.094  0.00  0.00    -0.390 OA
ATOM     20  H6    N d   1       2.871  -7.401  43.575  0.00  0.00     0.210 HD
ENDBRANCH   4  19
BRANCH   3  21
ATOM     21  O2'   N d   1       6.736  -6.993  44.123  0.00  0.00    -0.391 OA
ATOM     22  H4    N d   1       6.285  -6.393  44.705  0.00  0.00     0.210 HD
ENDBRANCH   3  21
TORSDOF 5
