REMARK  5 active torsions:
REMARK  status: ('A' for Active; 'I' for Inactive)
REMARK    1  A    between atoms: C2_2  and  C1_18 
REMARK    2  A    between atoms: C13_16  and  C4_4 
REMARK    3  A    between atoms: C5_5  and  C7_7 
REMARK    4  A    between atoms: C12_21  and  S1_24 
REMARK    5  A    between atoms: S1_24  and  C21_26 
ROOT
ATOM      1  N2  SB2 d   1     -13.781  13.918  41.364  0.00  0.00    -0.338 N 
ATOM      2  C2  SB2 d   1     -12.542  14.061  40.951  0.00  0.00     0.139 C 
ATOM      3  N1  SB2 d   1     -12.353  13.572  39.746  0.00  0.00    -0.227 NA
ATOM      4  C4  SB2 d   1     -13.527  12.788  39.447  0.00  0.00     0.097 C 
ATOM      5  C5  SB2 d   1     -14.412  13.009  40.440  0.00  0.00     0.074 C 
ATOM      6  H1  SB2 d   1     -14.215  14.366  42.184  0.00  0.00     0.167 HD
ENDROOT
BRANCH   2   7
ATOM      7  C1  SB2 d   1     -11.417  14.684  41.731  0.00  0.00     0.010 A 
ATOM      8  C6  SB2 d   1     -11.235  14.399  43.068  0.00  0.00    -0.068 A 
ATOM      9  C20 SB2 d   1     -10.216  14.985  43.780  0.00  0.00    -0.064 A 
ATOM     10  H13 SB2 d   1     -11.904  13.704  43.563  0.00  0.00     0.085 H 
ATOM     11  C12 SB2 d   1      -9.369  15.900  43.212  0.00  0.00     0.031 A 
ATOM     12  H12 SB2 d   1     -10.078  14.716  44.821  0.00  0.00     0.085 H 
ATOM     13  C3  SB2 d   1      -9.520  16.178  41.869  0.00  0.00    -0.064 A 
ATOM     14  C9  SB2 d   1     -10.534  15.573  41.132  0.00  0.00    -0.068 A 
ATOM     15  H11 SB2 d   1      -8.844  16.873  41.384  0.00  0.00     0.085 H 
ATOM     16  H10 SB2 d   1     -10.636  15.799  40.077  0.00  0.00     0.085 H 
BRANCH  11  17
ATOM     17  S1  SB2 d   1      -8.236  16.743  44.198  0.00  0.00     0.045 S 
ATOM     18  O1  SB2 d   1      -8.302  18.216  43.982  0.00  0.00    -0.253 OA
BRANCH  17  19
ATOM     19  C21 SB2 d   1      -7.118  16.094  45.348  0.00  0.00    -0.004 C 
ATOM     20  H14 SB2 d   1      -6.542  16.914  45.802  0.00  0.00     0.045 H 
ATOM     21  H15 SB2 d   1      -6.431  15.401  44.841  0.00  0.00     0.045 H 
ATOM     22  H16 SB2 d   1      -7.670  15.555  46.132  0.00  0.00     0.045 H 
ENDBRANCH  17  19
ENDBRANCH  11  17
ENDBRANCH   2   7
BRANCH   5  23
ATOM     23  C7  SB2 d   1     -15.751  12.442  40.694  0.00  0.00    -0.004 A 
ATOM     24  C14 SB2 d   1     -16.812  13.236  41.122  0.00  0.00    -0.054 A 
ATOM     25  C18 SB2 d   1     -18.046  12.646  41.405  0.00  0.00     0.003 A 
ATOM     26  H2  SB2 d   1     -16.681  14.306  41.235  0.00  0.00     0.087 H 
ATOM     27  N5  SB2 d   1     -18.289  11.348  41.294  0.00  0.00    -0.273 NA
ATOM     28  H5  SB2 d   1     -18.854  13.289  41.736  0.00  0.00     0.114 H 
ATOM     29  C10 SB2 d   1     -17.262  10.606  40.878  0.00  0.00     0.003 A 
ATOM     30  C16 SB2 d   1     -15.996  11.090  40.567  0.00  0.00    -0.054 A 
ATOM     31  H4  SB2 d   1     -17.427   9.540  40.774  0.00  0.00     0.114 H 
ATOM     32  H3  SB2 d   1     -15.215  10.417  40.231  0.00  0.00     0.087 H 
ENDBRANCH   5  23
BRANCH   4  33
ATOM     33  C13 SB2 d   1     -13.578  11.876  38.288  0.00  0.00    -0.005 A 
ATOM     34  C19 SB2 d   1     -14.622  11.885  37.382  0.00  0.00    -0.068 A 
ATOM     35  C15 SB2 d   1     -14.671  10.976  36.352  0.00  0.00    -0.045 A 
ATOM     36  H9  SB2 d   1     -15.413  12.619  37.485  0.00  0.00     0.085 H 
ATOM     37  C8  SB2 d   1     -13.674  10.051  36.235  0.00  0.00     0.116 A 
ATOM     38  H6  SB2 d   1     -15.490  10.993  35.642  0.00  0.00     0.088 H 
ATOM     39  F1  SB2 d   1     -13.896   9.015  35.460  0.00  0.00    -0.206 F 
ATOM     40  C17 SB2 d   1     -12.608  10.039  37.100  0.00  0.00    -0.045 A 
ATOM     41  C11 SB2 d   1     -12.573  10.948  38.118  0.00  0.00    -0.068 A 
ATOM     42  H7  SB2 d   1     -11.807   9.319  36.977  0.00  0.00     0.088 H 
ATOM     43  H8  SB2 d   1     -11.737  10.940  38.808  0.00  0.00     0.085 H 
ENDBRANCH   4  33
TORSDOF 5
