REMARK  9 active torsions:
REMARK  status: ('A' for Active; 'I' for Inactive)
REMARK    1  A    between atoms: N1_1  and  C2_2 
REMARK    2  A    between atoms: C2_2  and  C3_3 
REMARK    3  A    between atoms: C3_3  and  C4_4 
REMARK    4  A    between atoms: C4_4  and  C5_5 
REMARK    5  A    between atoms: C5_5  and  N6_6 
REMARK    6  A    between atoms: N6_6  and  C7_7 
REMARK    7  A    between atoms: C7_7  and  C8_8 
REMARK    8  A    between atoms: C8_8  and  C9_9 
REMARK    9  A    between atoms: C9_9  and  N10_10 
ROOT
ATOM      1  C5  SPD d   1      65.902  42.141   8.805  0.00  0.00     0.082 C 
ATOM      2  H10 SPD d   1      66.926  42.407   9.107  0.00  0.00     0.075 H 
ATOM      3  H11 SPD d   1      65.519  41.349   9.466  0.00  0.00     0.075 H 
ENDROOT
BRANCH   1   4
ATOM      4  C4  SPD d   1      65.893  41.673   7.391  0.00  0.00    -0.041 C 
ATOM      5  H8  SPD d   1      64.852  41.670   7.035  0.00  0.00     0.035 H 
ATOM      6  H9  SPD d   1      66.485  42.379   6.790  0.00  0.00     0.035 H 
BRANCH   4   7
ATOM      7  C3  SPD d   1      66.467  40.284   7.196  0.00  0.00    -0.041 C 
ATOM      8  H6  SPD d   1      67.566  40.322   7.182  0.00  0.00     0.035 H 
ATOM      9  H7  SPD d   1      66.133  39.614   8.002  0.00  0.00     0.035 H 
BRANCH   7  10
ATOM     10  C2  SPD d   1      65.922  39.794   5.822  0.00  0.00     0.080 C 
ATOM     11  H4  SPD d   1      65.966  38.696   5.768  0.00  0.00     0.075 H 
ATOM     12  H5  SPD d   1      64.882  40.126   5.689  0.00  0.00     0.075 H 
BRANCH  10  13
ATOM     13  N1  SPD d   1      66.799  40.400   4.755  0.00  0.00    -0.079 N 
ATOM     14  H1  SPD d   1      66.476  40.105   3.847  0.00  0.00     0.274 HD
ATOM     15  H2  SPD d   1      67.750  40.095   4.889  0.00  0.00     0.274 HD
ATOM     16  H3  SPD d   1      66.757  41.405   4.816  0.00  0.00     0.274 HD
ENDBRANCH  10  13
ENDBRANCH   7  10
ENDBRANCH   4   7
ENDBRANCH   1   4
BRANCH   1  17
ATOM     17  N6  SPD d   1      65.052  43.298   8.880  0.00  0.00    -0.075 N 
ATOM     18  H12 SPD d   1      64.145  42.976   8.579  0.00  0.00     0.277 HD
ATOM     19  H13 SPD d   1      65.424  43.940   8.198  0.00  0.00     0.277 HD
BRANCH  17  20
ATOM     20  C7  SPD d   1      64.801  44.079  10.013  0.00  0.00     0.083 C 
ATOM     21  H14 SPD d   1      64.669  43.418  10.882  0.00  0.00     0.075 H 
ATOM     22  H15 SPD d   1      63.881  44.660   9.851  0.00  0.00     0.075 H 
BRANCH  20  23
ATOM     23  C8  SPD d   1      65.935  45.024  10.285  0.00  0.00    -0.020 C 
ATOM     24  H16 SPD d   1      65.991  45.758   9.468  0.00  0.00     0.037 H 
ATOM     25  H17 SPD d   1      66.873  44.452  10.329  0.00  0.00     0.037 H 
BRANCH  23  26
ATOM     26  C9  SPD d   1      65.754  45.736  11.550  0.00  0.00     0.081 C 
ATOM     27  H18 SPD d   1      66.094  45.093  12.376  0.00  0.00     0.075 H 
ATOM     28  H19 SPD d   1      64.687  45.969  11.682  0.00  0.00     0.075 H 
BRANCH  26  29
ATOM     29  N10 SPD d   1      66.548  47.027  11.569  0.00  0.00    -0.079 N 
ATOM     30  H20 SPD d   1      66.406  47.496  12.450  0.00  0.00     0.274 HD
ATOM     31  H21 SPD d   1      66.239  47.623  10.817  0.00  0.00     0.274 HD
ATOM     32  H22 SPD d   1      67.528  46.821  11.453  0.00  0.00     0.274 HD
ENDBRANCH  26  29
ENDBRANCH  23  26
ENDBRANCH  20  23
ENDBRANCH  17  20
ENDBRANCH   1  17
TORSDOF 9
