REMARK  11 active torsions:
REMARK  status: ('A' for Active; 'I' for Inactive)
REMARK    1  A    between atoms: S_1  and  C2_5 
REMARK    2  A    between atoms: N_14  and  S_1 
REMARK    3  A    between atoms: CA_15  and  N_14 
REMARK    4  A    between atoms: C_16  and  CA_15 
REMARK       I    between atoms: N_29  and  C_16 
REMARK    5  A    between atoms: CA_19  and  C_18 
REMARK       I    between atoms: C_18  and  N1_32 
REMARK    6  A    between atoms: CA_19  and  CB_20 
REMARK    7  A    between atoms: N_29  and  CA_19 
REMARK    8  A    between atoms: CB_20  and  CG_21 
REMARK    9  A    between atoms: CZ_26  and  CF_27 
REMARK   10  A    between atoms: CF_27  and  NG1_30 
REMARK   11  A    between atoms: CF_27  and  NG2_31 
ROOT
ATOM      1  CA  MID d   1      -1.270   4.160  21.952  0.00  0.00     0.093 C 
ATOM      2  H11 MID d   1      -0.819   5.015  22.477  0.00  0.00     0.088 H 
ENDROOT
BRANCH   1   3
ATOM      3  C   MID d   1      -0.428   2.907  22.194  0.00  0.00     0.242 C 
ATOM      4  O   MID d   1      -0.202   2.116  21.272  0.00  0.00    -0.271 OA
ATOM      5  N1  MID d   1       0.074   2.687  23.420  0.00  0.00    -0.350 N 
ATOM      6  C2  MID d   1       0.019   3.672  24.488  0.00  0.00    -0.002 C 
ATOM      7  C6  MID d   1       0.905   1.536  23.745  0.00  0.00    -0.002 C 
ATOM      8  C3  MID d   1      -0.704   3.033  25.650  0.00  0.00    -0.050 C 
ATOM      9  H23 MID d   1      -0.527   4.565  24.149  0.00  0.00     0.064 H 
ATOM     10  H24 MID d   1       1.038   3.958  24.790  0.00  0.00     0.064 H 
ATOM     11  C4  MID d   1       0.155   1.880  26.146  0.00  0.00    -0.062 C 
ATOM     12  H25 MID d   1      -1.684   2.657  25.321  0.00  0.00     0.035 H 
ATOM     13  H26 MID d   1      -0.845   3.769  26.455  0.00  0.00     0.035 H 
ATOM     14  C5  MID d   1       0.301   0.904  24.982  0.00  0.00    -0.050 C 
ATOM     15  H27 MID d   1      -0.333   1.383  26.997  0.00  0.00     0.033 H 
ATOM     16  H28 MID d   1       1.143   2.250  26.455  0.00  0.00     0.033 H 
ATOM     17  H29 MID d   1      -0.695   0.515  24.725  0.00  0.00     0.035 H 
ATOM     18  H30 MID d   1       0.948   0.073  25.301  0.00  0.00     0.035 H 
ATOM     19  H31 MID d   1       1.937   1.858  23.948  0.00  0.00     0.064 H 
ATOM     20  H32 MID d   1       0.902   0.818  22.912  0.00  0.00     0.064 H 
ENDBRANCH   1   3
BRANCH   1  21
ATOM     21  CB  MID d   1      -1.333   4.480  20.450  0.00  0.00    -0.014 C 
ATOM     22  H12 MID d   1      -1.897   3.682  19.946  0.00  0.00     0.043 H 
ATOM     23  H13 MID d   1      -0.307   4.509  20.055  0.00  0.00     0.043 H 
BRANCH  21  24
ATOM     24  CG  MID d   1      -2.002   5.806  20.150  0.00  0.00    -0.056 A 
ATOM     25  CD1 MID d   1      -3.381   5.901  20.092  0.00  0.00    -0.076 A 
ATOM     26  CE1 MID d   1      -3.993   7.120  19.871  0.00  0.00    -0.069 A 
ATOM     27  H14 MID d   1      -3.987   5.011  20.221  0.00  0.00     0.084 H 
ATOM     28  CZ  MID d   1      -3.237   8.268  19.739  0.00  0.00     0.007 A 
ATOM     29  H16 MID d   1      -5.073   7.176  19.801  0.00  0.00     0.085 H 
ATOM     30  CE2 MID d   1      -1.853   8.155  19.797  0.00  0.00    -0.069 A 
ATOM     31  CD2 MID d   1      -1.236   6.941  20.023  0.00  0.00    -0.076 A 
ATOM     32  H17 MID d   1      -1.244   9.041  19.662  0.00  0.00     0.085 H 
ATOM     33  H15 MID d   1      -0.156   6.883  20.100  0.00  0.00     0.084 H 
BRANCH  28  34
ATOM     34  CF  MID d   1      -3.833   9.527  19.579  0.00  0.00     0.102 C 
BRANCH  34  35
ATOM     35  NG1 MID d   1      -5.127   9.723  19.894  0.00  0.00    -0.385 N 
ATOM     36  H19 MID d   1      -5.552  10.653  19.771  0.00  0.00     0.157 HD
ATOM     37  H20 MID d   1      -5.692   8.943  20.258  0.00  0.00     0.157 HD
ENDBRANCH  34  35
BRANCH  34  38
ATOM     38  NG2 MID d   1      -3.067  10.544  19.167  0.00  0.00    -0.385 N 
ATOM     39  H21 MID d   1      -2.078  10.381  18.929  0.00  0.00     0.157 HD
ATOM     40  H22 MID d   1      -3.466  11.490  19.088  0.00  0.00     0.157 HD
ENDBRANCH  34  38
ENDBRANCH  28  34
ENDBRANCH  21  24
ENDBRANCH   1  21
BRANCH   1  41
ATOM     41  N   MID d   1      -2.595   3.903  22.499  0.00  0.00    -0.346 N 
ATOM     42  C   MID d   1      -3.281   4.714  23.323  0.00  0.00     0.236 C 
ATOM     43  O   MID d   1      -2.960   5.863  23.650  0.00  0.00    -0.272 OA
ATOM     44  H18 MID d   1      -3.035   3.044  22.238  0.00  0.00     0.163 HD
BRANCH  42  45
ATOM     45  CA  MID d   1      -4.609   4.087  23.730  0.00  0.00     0.076 C 
ATOM     46  H9  MID d   1      -5.066   3.635  22.837  0.00  0.00     0.079 H 
ATOM     47  H10 MID d   1      -4.407   3.303  24.475  0.00  0.00     0.079 H 
BRANCH  45  48
ATOM     48  N   MID d   1      -5.552   5.020  24.298  0.00  0.00    -0.307 N 
ATOM     49  H8  MID d   1      -5.997   5.741  23.767  0.00  0.00     0.172 HD
BRANCH  48  50
ATOM     50  S   MID d   1      -5.827   4.782  25.917  0.00  0.00     0.259 S 
ATOM     51  O1  MID d   1      -6.883   5.767  26.435  0.00  0.00    -0.201 OA
ATOM     52  O2  MID d   1      -6.385   3.362  25.952  0.00  0.00    -0.201 OA
BRANCH  50  53
ATOM     53  C2  MID d   1      -4.366   4.956  26.943  0.00  0.00     0.080 A 
ATOM     54  C3  MID d   1      -3.874   6.218  27.129  0.00  0.00    -0.059 A 
ATOM     55  C4  MID d   1      -2.823   6.431  27.991  0.00  0.00    -0.071 A 
ATOM     56  H2  MID d   1      -4.313   7.053  26.596  0.00  0.00     0.085 H 
ATOM     57  C10 MID d   1      -2.232   5.365  28.630  0.00  0.00    -0.026 A 
ATOM     58  H3  MID d   1      -2.461   7.438  28.167  0.00  0.00     0.084 H 
ATOM     59  C5  MID d   1      -1.166   5.608  29.471  0.00  0.00    -0.072 A 
ATOM     60  C9  MID d   1      -2.686   4.086  28.424  0.00  0.00    -0.025 A 
ATOM     61  C6  MID d   1      -0.538   4.541  30.087  0.00  0.00    -0.082 A 
ATOM     62  H4  MID d   1      -0.825   6.622  29.647  0.00  0.00     0.084 H 
ATOM     63  C7  MID d   1      -1.003   3.254  29.890  0.00  0.00    -0.082 A 
ATOM     64  H5  MID d   1       0.321   4.714  30.726  0.00  0.00     0.083 H 
ATOM     65  C8  MID d   1      -2.096   3.018  29.071  0.00  0.00    -0.072 A 
ATOM     66  H6  MID d   1      -0.509   2.423  30.380  0.00  0.00     0.083 H 
ATOM     67  H7  MID d   1      -2.481   2.013  28.941  0.00  0.00     0.084 H 
ATOM     68  C1  MID d   1      -3.761   3.904  27.580  0.00  0.00    -0.050 A 
ATOM     69  H1  MID d   1      -4.138   2.901  27.416  0.00  0.00     0.087 H 
ENDBRANCH  50  53
ENDBRANCH  48  50
ENDBRANCH  45  48
ENDBRANCH  42  45
ENDBRANCH   1  41
TORSDOF 11
