REMARK  9 active torsions:
REMARK  status: ('A' for Active; 'I' for Inactive)
REMARK    1  A    between atoms: S_1  and  C1_2 
REMARK    2  A    between atoms: N_14  and  S_1 
REMARK    3  A    between atoms: C4_5  and  C7_6 
REMARK    4  A    between atoms: CA_13  and  C_11 
REMARK       I    between atoms: C_11  and  N1_25 
REMARK    5  A    between atoms: N_14  and  CA_13 
REMARK    6  A    between atoms: CA_13  and  CB_15 
REMARK    7  A    between atoms: CB_15  and  CG_16 
REMARK    8  A    between atoms: CE1_20  and  CF_21 
REMARK    9  A    between atoms: CF_21  and  NG2_22 
ROOT
ATOM      1  CA  0ZG d   1      -3.980   4.122  22.069  0.00  0.00     0.101 C 
ATOM      2  H8  0ZG d   1      -4.114   3.035  22.175  0.00  0.00     0.089 H 
ENDROOT
BRANCH   1   3
ATOM      3  C   0ZG d   1      -2.678   4.508  22.802  0.00  0.00     0.243 C 
ATOM      4  O   0ZG d   1      -2.595   5.642  23.304  0.00  0.00    -0.271 OA
ATOM      5  N1  0ZG d   1      -1.638   3.654  22.847  0.00  0.00    -0.350 N 
ATOM      6  C6  0ZG d   1      -0.353   4.058  23.390  0.00  0.00    -0.002 C 
ATOM      7  C2  0ZG d   1      -1.609   2.359  22.159  0.00  0.00    -0.002 C 
ATOM      8  C5  0ZG d   1      -0.073   3.114  24.526  0.00  0.00    -0.050 C 
ATOM      9  H20 0ZG d   1      -0.401   5.094  23.756  0.00  0.00     0.064 H 
ATOM     10  H21 0ZG d   1       0.430   3.976  22.622  0.00  0.00     0.064 H 
ATOM     11  C4  0ZG d   1       0.054   1.749  23.904  0.00  0.00    -0.062 C 
ATOM     12  H22 0ZG d   1      -0.901   3.129  25.250  0.00  0.00     0.035 H 
ATOM     13  H23 0ZG d   1       0.863   3.392  25.033  0.00  0.00     0.035 H 
ATOM     14  C3  0ZG d   1      -1.234   1.336  23.208  0.00  0.00    -0.050 C 
ATOM     15  H24 0ZG d   1       0.286   1.017  24.691  0.00  0.00     0.033 H 
ATOM     16  H25 0ZG d   1       0.870   1.766  23.167  0.00  0.00     0.033 H 
ATOM     17  H26 0ZG d   1      -2.042   1.264  23.951  0.00  0.00     0.035 H 
ATOM     18  H27 0ZG d   1      -1.090   0.357  22.727  0.00  0.00     0.035 H 
ATOM     19  H28 0ZG d   1      -0.861   2.371  21.353  0.00  0.00     0.064 H 
ATOM     20  H29 0ZG d   1      -2.598   2.128  21.737  0.00  0.00     0.064 H 
ENDBRANCH   1   3
BRANCH   1  21
ATOM     21  N   0ZG d   1      -5.157   4.781  22.635  0.00  0.00    -0.301 N 
ATOM     22  H9  0ZG d   1      -5.502   5.627  22.229  0.00  0.00     0.173 HD
BRANCH  21  23
ATOM     23  S   0ZG d   1      -5.930   4.107  23.976  0.00  0.00     0.259 S 
ATOM     24  O2  0ZG d   1      -7.038   5.067  24.381  0.00  0.00    -0.201 OA
ATOM     25  O1  0ZG d   1      -6.445   2.728  23.583  0.00  0.00    -0.201 OA
BRANCH  23  26
ATOM     26  C1  0ZG d   1      -4.807   4.007  25.383  0.00  0.00     0.079 A 
ATOM     27  C6  0ZG d   1      -4.200   2.817  25.753  0.00  0.00    -0.060 A 
ATOM     28  C5  0ZG d   1      -3.224   2.850  26.735  0.00  0.00    -0.076 A 
ATOM     29  H1  0ZG d   1      -4.483   1.881  25.284  0.00  0.00     0.085 H 
ATOM     30  C4  0ZG d   1      -2.887   4.067  27.329  0.00  0.00    -0.062 A 
ATOM     31  H2  0ZG d   1      -2.725   1.937  27.040  0.00  0.00     0.084 H 
ATOM     32  C3  0ZG d   1      -3.528   5.241  26.981  0.00  0.00    -0.076 A 
ATOM     33  C2  0ZG d   1      -4.493   5.205  26.005  0.00  0.00    -0.060 A 
ATOM     34  H6  0ZG d   1      -3.273   6.174  27.470  0.00  0.00     0.084 H 
ATOM     35  H7  0ZG d   1      -5.010   6.114  25.721  0.00  0.00     0.085 H 
BRANCH  30  36
ATOM     36  C7  0ZG d   1      -1.782   4.141  28.386  0.00  0.00    -0.051 C 
ATOM     37  H3  0ZG d   1      -1.670   5.181  28.727  0.00  0.00     0.033 H 
ATOM     38  H4  0ZG d   1      -0.834   3.795  27.950  0.00  0.00     0.033 H 
ATOM     39  H5  0ZG d   1      -2.048   3.501  29.240  0.00  0.00     0.033 H 
ENDBRANCH  30  36
ENDBRANCH  23  26
ENDBRANCH  21  23
ENDBRANCH   1  21
BRANCH   1  40
ATOM     40  CB  0ZG d   1      -3.887   4.455  20.569  0.00  0.00    -0.013 C 
ATOM     41  H10 0ZG d   1      -4.912   4.579  20.189  0.00  0.00     0.043 H 
ATOM     42  H11 0ZG d   1      -3.410   3.601  20.066  0.00  0.00     0.043 H 
BRANCH  40  43
ATOM     43  CG  0ZG d   1      -3.097   5.716  20.198  0.00  0.00    -0.055 A 
ATOM     44  CD2 0ZG d   1      -1.756   5.635  19.873  0.00  0.00    -0.077 A 
ATOM     45  CE2 0ZG d   1      -1.087   6.779  19.508  0.00  0.00    -0.082 A 
ATOM     46  H12 0ZG d   1      -1.239   4.683  19.905  0.00  0.00     0.084 H 
ATOM     47  CZ  0ZG d   1      -1.715   8.007  19.452  0.00  0.00    -0.069 A 
ATOM     48  H13 0ZG d   1      -0.035   6.715  19.257  0.00  0.00     0.083 H 
ATOM     49  CE1 0ZG d   1      -3.070   8.122  19.770  0.00  0.00     0.007 A 
ATOM     50  H14 0ZG d   1      -1.153   8.887  19.160  0.00  0.00     0.085 H 
ATOM     51  CD1 0ZG d   1      -3.708   6.953  20.138  0.00  0.00    -0.063 A 
ATOM     52  H19 0ZG d   1      -4.759   7.011  20.397  0.00  0.00     0.085 H 
BRANCH  49  53
ATOM     53  CF  0ZG d   1      -3.740   9.355  19.697  0.00  0.00     0.102 C 
ATOM     54  NG1 0ZG d   1      -3.057  10.451  19.320  0.00  0.00    -0.385 N 
ATOM     55  H17 0ZG d   1      -2.060  10.377  19.073  0.00  0.00     0.157 HD
ATOM     56  H18 0ZG d   1      -3.531  11.364  19.278  0.00  0.00     0.157 HD
BRANCH  53  57
ATOM     57  NG2 0ZG d   1      -5.045   9.436  20.023  0.00  0.00    -0.385 N 
ATOM     58  H15 0ZG d   1      -5.534  10.341  19.969  0.00  0.00     0.157 HD
ATOM     59  H16 0ZG d   1      -5.553   8.593  20.326  0.00  0.00     0.157 HD
ENDBRANCH  53  57
ENDBRANCH  49  53
ENDBRANCH  40  43
ENDBRANCH   1  40
TORSDOF 9
