REMARK  29 active torsions:
REMARK  status: ('A' for Active; 'I' for Inactive)
REMARK    1  A    between atoms: O4_20  and  C1_1 
REMARK    2  A    between atoms: C2_2  and  O2_7 
REMARK    3  A    between atoms: C3_3  and  O3_8 
REMARK    4  A    between atoms: C4_4  and  O4_9 
REMARK    5  A    between atoms: C5_5  and  C6_6 
REMARK    6  A    between atoms: C6_6  and  O6_11 
REMARK    7  A    between atoms: O4H_42  and  C1_12 
REMARK    8  A    between atoms: C2_13  and  O2_18 
REMARK    9  A    between atoms: C3_14  and  O3_19 
REMARK   10  A    between atoms: C4_15  and  O4_20 
REMARK   11  A    between atoms: C5_16  and  C6_17 
REMARK   12  A    between atoms: C6_17  and  O6_22 
REMARK   13  A    between atoms: O4_53  and  C1_23 
REMARK   14  A    between atoms: C2_24  and  O2_29 
REMARK   15  A    between atoms: C3_25  and  O3_30 
REMARK   16  A    between atoms: C4_26  and  N4_32 
REMARK   17  A    between atoms: C5_27  and  C6_28 
REMARK   18  A    between atoms: N4_32  and  C1H_33 
REMARK   19  A    between atoms: C2H_34  and  O2H_40 
REMARK   20  A    between atoms: C3H_35  and  O3H_41 
REMARK   21  A    between atoms: C4H_36  and  O4H_42 
REMARK   22  A    between atoms: C5H_37  and  C7H_39 
REMARK   23  A    between atoms: C7H_39  and  O7H_43 
REMARK   24  A    between atoms: C1_44  and  O1_50 
REMARK   25  A    between atoms: C2_45  and  O2_51 
REMARK   26  A    between atoms: C3_46  and  O3_52 
REMARK   27  A    between atoms: O4_53  and  C4_47 
REMARK   28  A    between atoms: C5_48  and  C6_49 
REMARK   29  A    between atoms: C6_49  and  O6_55 
ROOT
ATOM      1  H34 GLC d   1       1.978  46.983  15.643  0.00  0.00     0.095 H 
ATOM      2  H35 GLC d   1       2.057  46.061  17.926  0.00  0.00     0.090 H 
ATOM      3  H36 GLC d   1       0.577  43.729  16.629  0.00  0.00     0.091 H 
ATOM      4  H37 GLC d   1      -0.147  45.100  19.227  0.00  0.00     0.095 H 
ATOM      5  H38 GLC d   1      -0.413  47.715  15.934  0.00  0.00     0.080 H 
ATOM      6  C1H DAF d   1       1.280  46.178  15.914  0.00  0.00     0.146 C 
ATOM      7  C2H DAF d   1       1.892  45.370  17.086  0.00  0.00     0.093 C 
ATOM      8  C3H DAF d   1       0.900  44.299  17.513  0.00  0.00     0.091 C 
ATOM      9  C4H DAF d   1      -0.344  44.973  18.152  0.00  0.00     0.092 C 
ATOM     10  C5H DAF d   1      -0.641  46.346  17.539  0.00  0.00    -0.027 C 
ATOM     11  C6H DAF d   1      -0.008  46.842  16.443  0.00  0.00    -0.064 C 
ENDROOT
BRANCH   6  12
ATOM     12  N4  DAF d   1       1.126  45.330  14.721  0.00  0.00    -0.056 N 
ATOM     13  H32 GLC d   1       1.905  45.509  14.107  0.00  0.00     0.278 HD
ATOM     14  H33 GLC d   1       1.146  44.367  15.017  0.00  0.00     0.278 HD
BRANCH  12  15
ATOM     15  C4  DAF d   1      -0.116  45.548  13.959  0.00  0.00     0.154 C 
ATOM     16  C3  DAF d   1       0.042  46.607  12.851  0.00  0.00     0.094 C 
ATOM     17  C2  DAF d   1      -1.285  46.744  12.096  0.00  0.00     0.110 C 
ATOM     18  H24 GLC d   1       0.830  46.276  12.159  0.00  0.00     0.090 H 
ATOM     19  C1  DAF d   1      -1.851  45.388  11.629  0.00  0.00     0.159 C 
ATOM     20  H23 GLC d   1      -2.029  47.216  12.755  0.00  0.00     0.094 H 
ATOM     21  O5  DAF d   1      -1.811  44.405  12.675  0.00  0.00    -0.351 OA
ATOM     22  H22 GLC d   1      -2.901  45.526  11.331  0.00  0.00     0.133 H 
ATOM     23  C5  DAF d   1      -0.537  44.238  13.300  0.00  0.00     0.068 C 
ATOM     24  H26 GLC d   1       0.214  43.953  12.549  0.00  0.00     0.086 H 
ATOM     25  H25 GLC d   1      -0.901  45.878  14.656  0.00  0.00     0.092 H 
BRANCH  16  26
ATOM     26  O3  DAF d   1       0.380  47.883  13.355  0.00  0.00    -0.391 OA
ATOM     27  H31 GLC d   1       1.201  47.828  13.829  0.00  0.00     0.210 HD
ENDBRANCH  16  26
BRANCH  17  28
ATOM     28  O2  DAF d   1      -1.015  47.607  10.984  0.00  0.00    -0.388 OA
ATOM     29  H30 GLC d   1      -0.379  47.194  10.412  0.00  0.00     0.210 HD
ENDBRANCH  17  28
BRANCH  19  30
ATOM     30  O4  BGC d   1      -1.102  44.969  10.494  0.00  0.00    -0.348 OA
BRANCH  30  31
ATOM     31  C4  BGC d   1      -1.885  44.724   9.354  0.00  0.00     0.096 C 
ATOM     32  C3  BGC d   1      -1.055  45.274   8.245  0.00  0.00     0.092 C 
ATOM     33  C2  BGC d   1      -1.770  44.948   6.987  0.00  0.00     0.110 C 
ATOM     34  H46 GLC d   1      -0.066  44.792   8.259  0.00  0.00     0.091 H 
ATOM     35  C1  BGC d   1      -1.855  43.438   6.913  0.00  0.00     0.156 C 
ATOM     36  H45 GLC d   1      -2.785  45.369   7.022  0.00  0.00     0.094 H 
ATOM     37  O5  BGC d   1      -2.685  42.963   7.942  0.00  0.00    -0.349 OA
ATOM     38  H44 GLC d   1      -0.847  43.013   7.029  0.00  0.00     0.133 H 
ATOM     39  C5  BGC d   1      -2.129  43.201   9.218  0.00  0.00     0.089 C 
ATOM     40  H48 GLC d   1      -1.172  42.668   9.322  0.00  0.00     0.090 H 
ATOM     41  H47 GLC d   1      -2.851  45.246   9.412  0.00  0.00     0.091 H 
BRANCH  32  42
ATOM     42  O3  BGC d   1      -0.881  46.676   8.305  0.00  0.00    -0.390 OA
ATOM     43  H53 GLC d   1      -0.424  46.903   9.106  0.00  0.00     0.210 HD
ENDBRANCH  32  42
BRANCH  33  44
ATOM     44  O2  BGC d   1      -1.096  45.490   5.863  0.00  0.00    -0.388 OA
ATOM     45  H52 GLC d   1      -1.564  45.254   5.071  0.00  0.00     0.210 HD
ENDBRANCH  33  44
BRANCH  35  46
ATOM     46  O1  BGC d   1      -2.384  43.041   5.687  0.00  0.00    -0.369 OA
ATOM     47  H51 GLC d   1      -2.427  42.093   5.654  0.00  0.00     0.212 HD
ENDBRANCH  35  46
BRANCH  39  48
ATOM     48  C6  BGC d   1      -3.118  42.678  10.265  0.00  0.00     0.043 C 
ATOM     49  H49 GLC d   1      -2.774  42.976  11.266  0.00  0.00     0.078 H 
ATOM     50  H50 GLC d   1      -3.160  41.581  10.204  0.00  0.00     0.078 H 
BRANCH  48  51
ATOM     51  O6  BGC d   1      -4.424  43.209  10.043  0.00  0.00    -0.398 OA
ATOM     52  H54 GLC d   1      -4.727  42.951   9.181  0.00  0.00     0.209 HD
ENDBRANCH  48  51
ENDBRANCH  39  48
ENDBRANCH  30  31
ENDBRANCH  19  30
BRANCH  23  53
ATOM     53  C6  DAF d   1      -0.672  43.151  14.308  0.00  0.00    -0.050 C 
ATOM     54  H27 GLC d   1      -0.976  42.221  13.806  0.00  0.00     0.031 H 
ATOM     55  H28 GLC d   1      -1.433  43.432  15.051  0.00  0.00     0.031 H 
ATOM     56  H29 GLC d   1       0.293  42.997  14.813  0.00  0.00     0.031 H 
ENDBRANCH  23  53
ENDBRANCH  12  15
ENDBRANCH   6  12
BRANCH   7  57
ATOM     57  O2H DAF d   1       3.114  44.766  16.779  0.00  0.00    -0.390 OA
ATOM     58  H41 GLC d   1       2.995  44.164  16.053  0.00  0.00     0.210 HD
ENDBRANCH   7  57
BRANCH  10  59
ATOM     59  C7H DAF d   1      -1.659  47.233  18.233  0.00  0.00     0.039 C 
ATOM     60  H39 GLC d   1      -2.433  46.616  18.712  0.00  0.00     0.081 H 
ATOM     61  H40 GLC d   1      -2.129  47.910  17.504  0.00  0.00     0.081 H 
BRANCH  59  62
ATOM     62  O7H DAF d   1      -0.952  47.989  19.221  0.00  0.00    -0.397 OA
ATOM     63  H43 GLC d   1      -0.283  48.514  18.798  0.00  0.00     0.209 HD
ENDBRANCH  59  62
ENDBRANCH  10  59
BRANCH   8  64
ATOM     64  O3H DAF d   1       1.542  43.418  18.416  0.00  0.00    -0.390 OA
ATOM     65  H42 GLC d   1       2.288  43.015  17.987  0.00  0.00     0.210 HD
ENDBRANCH   8  64
BRANCH   9  66
ATOM     66  O4H DAF d   1      -1.516  44.170  17.986  0.00  0.00    -0.346 OA
BRANCH  66  67
ATOM     67  C1  GLC d   1      -1.678  43.206  19.006  0.00  0.00     0.159 C 
ATOM     68  O5  GLC d   1      -2.428  43.714  20.091  0.00  0.00    -0.348 OA
ATOM     69  C5  GLC d   1      -3.822  43.925  19.794  0.00  0.00     0.089 C 
ATOM     70  C4  GLC d   1      -4.451  42.574  19.433  0.00  0.00     0.096 C 
ATOM     71  H16 GLC d   1      -3.913  44.585  18.919  0.00  0.00     0.090 H 
ATOM     72  C3  GLC d   1      -3.825  42.096  18.149  0.00  0.00     0.092 C 
ATOM     73  H15 GLC d   1      -4.227  41.857  20.237  0.00  0.00     0.091 H 
ATOM     74  C2  GLC d   1      -2.327  41.937  18.413  0.00  0.00     0.110 C 
ATOM     75  H14 GLC d   1      -3.995  42.841  17.358  0.00  0.00     0.091 H 
ATOM     76  H13 GLC d   1      -2.171  41.095  19.104  0.00  0.00     0.094 H 
ATOM     77  H12 GLC d   1      -0.681  42.937  19.385  0.00  0.00     0.133 H 
BRANCH  69  78
ATOM     78  C6  GLC d   1      -4.450  44.630  20.981  0.00  0.00     0.043 C 
ATOM     79  H17 GLC d   1      -5.492  44.883  20.735  0.00  0.00     0.078 H 
ATOM     80  H18 GLC d   1      -3.888  45.553  21.186  0.00  0.00     0.078 H 
BRANCH  78  81
ATOM     81  O6  GLC d   1      -4.436  43.818  22.139  0.00  0.00    -0.398 OA
ATOM     82  H21 GLC d   1      -3.538  43.600  22.361  0.00  0.00     0.209 HD
ENDBRANCH  78  81
ENDBRANCH  69  78
BRANCH  70  83
ATOM     83  O4  GLC d   1      -5.835  42.637  19.275  0.00  0.00    -0.348 OA
BRANCH  83  84
ATOM     84  C1  GLC d   1      -6.447  42.017  20.379  0.00  0.00     0.159 C 
ATOM     85  O5  GLC d   1      -7.186  42.917  21.102  0.00  0.00    -0.348 OA
ATOM     86  C5  GLC d   1      -8.221  43.523  20.336  0.00  0.00     0.089 C 
ATOM     87  C4  GLC d   1      -9.173  42.447  19.767  0.00  0.00     0.090 C 
ATOM     88  H5  GLC d   1      -7.791  44.113  19.513  0.00  0.00     0.090 H 
ATOM     89  C3  GLC d   1      -8.387  41.393  19.000  0.00  0.00     0.092 C 
ATOM     90  H4  GLC d   1      -9.714  41.974  20.600  0.00  0.00     0.091 H 
ATOM     91  C2  GLC d   1      -7.295  40.883  19.884  0.00  0.00     0.110 C 
ATOM     92  H3  GLC d   1      -7.934  41.861  18.114  0.00  0.00     0.091 H 
ATOM     93  H2  GLC d   1      -7.736  40.361  20.746  0.00  0.00     0.094 H 
ATOM     94  H1  GLC d   1      -5.663  41.610  21.035  0.00  0.00     0.133 H 
BRANCH  86  95
ATOM     95  C6  GLC d   1      -8.997  44.417  21.284  0.00  0.00     0.043 C 
ATOM     96  H6  GLC d   1      -8.692  44.220  22.322  0.00  0.00     0.078 H 
ATOM     97  H7  GLC d   1     -10.076  44.233  21.178  0.00  0.00     0.078 H 
BRANCH  95  98
ATOM     98  O6  GLC d   1      -8.698  45.752  20.937  0.00  0.00    -0.398 OA
ATOM     99  H11 GLC d   1      -8.960  45.910  20.038  0.00  0.00     0.209 HD
ENDBRANCH  95  98
ENDBRANCH  86  95
BRANCH  87 100
ATOM    100  O4  GLC d   1     -10.091  43.008  18.868  0.00  0.00    -0.390 OA
ATOM    101  H10 GLC d   1     -10.669  42.328  18.542  0.00  0.00     0.210 HD
ENDBRANCH  87 100
BRANCH  89 102
ATOM    102  O3  GLC d   1      -9.247  40.337  18.559  0.00  0.00    -0.390 OA
ATOM    103  H9  GLC d   1      -8.739  39.700  18.071  0.00  0.00     0.210 HD
ENDBRANCH  89 102
BRANCH  91 104
ATOM    104  O2  GLC d   1      -6.508  39.978  19.137  0.00  0.00    -0.388 OA
ATOM    105  H8  GLC d   1      -6.127  40.430  18.394  0.00  0.00     0.210 HD
ENDBRANCH  91 104
ENDBRANCH  83  84
ENDBRANCH  70  83
BRANCH  72 106
ATOM    106  O3  GLC d   1      -4.349  40.845  17.732  0.00  0.00    -0.390 OA
ATOM    107  H20 GLC d   1      -5.280  40.933  17.565  0.00  0.00     0.210 HD
ENDBRANCH  72 106
BRANCH  74 108
ATOM    108  O2  GLC d   1      -1.697  41.677  17.177  0.00  0.00    -0.388 OA
ATOM    109  H19 GLC d   1      -2.077  40.899  16.787  0.00  0.00     0.210 HD
ENDBRANCH  74 108
ENDBRANCH  66  67
ENDBRANCH   9  66
TORSDOF 29
